MODEL        1
REMARK 921   NORMALIZED FREE ENERGY PREDICTED BY IDOCK:   -7.23 KCAL/MOL
REMARK 922        TOTAL FREE ENERGY PREDICTED BY IDOCK:  -12.98 KCAL/MOL
REMARK 923 INTER-LIGAND FREE ENERGY PREDICTED BY IDOCK:  -11.46 KCAL/MOL
REMARK 924 INTRA-LIGAND FREE ENERGY PREDICTED BY IDOCK:   -1.52 KCAL/MOL
REMARK 927      BINDING AFFINITY PREDICTED BY RF-SCORE:    0.00 PKD
ROOT
HETATM    1  C   UNL     1     -11.643   9.417  70.747  1.00  0.00    -0.298 C  
HETATM    2  O   UNL     1     -11.762  10.290  69.618  1.00  0.00    -0.227 OA 
ENDROOT
BRANCH   2   3
HETATM    3  C   UNL     1     -10.581  10.486  68.977  1.00  0.00    -0.222 C  
HETATM    4  O   UNL     1      -9.483  10.453  69.513  1.00  0.00    -0.205 OA 
BRANCH   3   5
HETATM    5  C   UNL     1     -10.792  10.798  67.541  1.00  0.00    -0.342 C  
HETATM    6  C   UNL     1     -10.301   9.975  66.584  1.00  0.00    -0.213 C  
HETATM    7  C   UNL     1      -9.612   8.649  66.805  1.00  0.00    -0.269 C  
HETATM    8  N   UNL     1     -10.394  10.342  65.252  1.00  0.00    -0.232 NA 
HETATM    9  C   UNL     1     -10.793  11.585  64.800  1.00  0.00    -0.297 C  
HETATM   10  C   UNL     1     -11.298  12.489  65.674  1.00  0.00    -0.372 C  
HETATM   11  C   UNL     1     -10.648  11.808  63.313  1.00  0.00    -0.427 C  
HETATM   12  C   UNL     1     -11.470  12.126  67.162  1.00  0.00    -0.413 C  
BRANCH  10  13
HETATM   13  C   UNL     1     -11.792  13.804  65.174  1.00  0.00    -0.352 C  
HETATM   14  O   UNL     1     -12.958  14.169  65.169  1.00  0.00    -0.729 OA 
BRANCH  13  15
HETATM   15  O   UNL     1     -10.735  14.614  64.923  1.00  0.00    -0.402 OA 
BRANCH  15  16
HETATM   16  C   UNL     1     -11.093  16.000  64.793  1.00  0.00    -0.365 C  
BRANCH  16  17
HETATM   17  C   UNL     1     -10.594  16.684  66.075  1.00  0.00    -0.233 C  
BRANCH  17  18
HETATM   18  N   UNL     1      -9.797  17.907  65.915  1.00  0.00    -0.551 NA 
HETATM   19  C   UNL     1     -10.616  19.094  66.177  1.00  0.00    -0.439 C  
BRANCH  18  20
HETATM   20  C   UNL     1      -8.648  17.880  66.854  1.00  0.00    -0.245 C  
BRANCH  20  21
HETATM   21  C   UNL     1      -7.743  19.092  66.725  1.00  0.00    -0.256 A  
HETATM   22  C   UNL     1      -7.043  19.329  65.533  1.00  0.00    -0.216 A  
HETATM   23  C   UNL     1      -6.139  20.385  65.437  1.00  0.00    -0.262 A  
HETATM   24  C   UNL     1      -5.930  21.226  66.529  1.00  0.00    -0.357 A  
HETATM   25  C   UNL     1      -6.633  21.015  67.714  1.00  0.00    -0.385 A  
HETATM   26  C   UNL     1      -7.539  19.956  67.813  1.00  0.00    -0.322 A  
ENDBRANCH  20  21
ENDBRANCH  18  20
ENDBRANCH  17  18
ENDBRANCH  16  17
ENDBRANCH  15  16
ENDBRANCH  13  15
ENDBRANCH  10  13
BRANCH  12  27
HETATM   27  C   UNL     1     -11.020  13.268  68.078  1.00  0.00    -0.266 A  
HETATM   28  C   UNL     1      -9.293  14.774  68.879  1.00  0.00    -0.184 A  
HETATM   29  O   UNL     1     -13.600  15.003  70.837  1.00  0.00    -0.380 OA 
HETATM   30  C   UNL     1     -11.915  13.815  69.020  1.00  0.00    -0.399 A  
HETATM   31  O   UNL     1     -12.015  16.322  71.583  1.00  0.00    -0.468 OA 
HETATM   32  C   UNL     1     -11.494  14.840  69.873  1.00  0.00    -0.281 A  
HETATM   33  C   UNL     1      -9.713  13.769  68.009  1.00  0.00    -0.232 A  
HETATM   34  C   UNL     1     -10.178  15.311  69.816  1.00  0.00    -0.241 A  
HETATM   35  N   UNL     1     -12.437  15.430  70.832  1.00  0.00    -0.384 N  
ENDBRANCH  12  27
ENDBRANCH   3   5
ENDBRANCH   2   3
TORSDOF 10
ENDMDL
MODEL        2
REMARK 921   NORMALIZED FREE ENERGY PREDICTED BY IDOCK:   -6.92 KCAL/MOL
REMARK 922        TOTAL FREE ENERGY PREDICTED BY IDOCK:  -12.49 KCAL/MOL
REMARK 923 INTER-LIGAND FREE ENERGY PREDICTED BY IDOCK:  -10.75 KCAL/MOL
REMARK 924 INTRA-LIGAND FREE ENERGY PREDICTED BY IDOCK:   -1.74 KCAL/MOL
REMARK 927      BINDING AFFINITY PREDICTED BY RF-SCORE:    0.00 PKD
ROOT
HETATM    1  C   UNL     1     -12.059  10.281  70.957  1.00  0.00    -0.386 C  
HETATM    2  O   UNL     1     -12.100  10.432  69.534  1.00  0.00    -0.182 OA 
ENDROOT
BRANCH   2   3
HETATM    3  C   UNL     1     -10.864  10.459  68.971  1.00  0.00    -0.234 C  
HETATM    4  O   UNL     1      -9.817  10.300  69.581  1.00  0.00    -0.230 OA 
BRANCH   3   5
HETATM    5  C   UNL     1     -10.939  10.756  67.518  1.00  0.00    -0.372 C  
HETATM    6  C   UNL     1     -10.426   9.887  66.615  1.00  0.00    -0.169 C  
HETATM    7  C   UNL     1      -9.840   8.527  66.910  1.00  0.00    -0.310 C  
HETATM    8  N   UNL     1     -10.388  10.235  65.276  1.00  0.00    -0.232 NA 
HETATM    9  C   UNL     1     -10.672  11.491  64.777  1.00  0.00    -0.306 C  
HETATM   10  C   UNL     1     -11.188  12.440  65.594  1.00  0.00    -0.360 C  
HETATM   11  C   UNL     1     -10.394  11.677  63.303  1.00  0.00    -0.444 C  
HETATM   12  C   UNL     1     -11.501  12.116  67.068  1.00  0.00    -0.415 C  
BRANCH  10  13
HETATM   13  C   UNL     1     -11.557  13.773  65.038  1.00  0.00    -0.341 C  
HETATM   14  O   UNL     1     -12.696  14.188  64.886  1.00  0.00    -0.645 OA 
BRANCH  13  15
HETATM   15  O   UNL     1     -10.443  14.536  64.924  1.00  0.00    -0.418 OA 
BRANCH  15  16
HETATM   16  C   UNL     1     -10.650  15.911  65.287  1.00  0.00    -0.419 C  
BRANCH  16  17
HETATM   17  C   UNL     1      -9.313  16.398  65.866  1.00  0.00    -0.227 C  
BRANCH  17  18
HETATM   18  N   UNL     1      -9.187  17.833  66.150  1.00  0.00    -0.495 NA 
HETATM   19  C   UNL     1     -10.450  18.525  65.875  1.00  0.00    -0.347 C  
BRANCH  18  20
HETATM   20  C   UNL     1      -8.813  18.030  67.572  1.00  0.00    -0.252 C  
BRANCH  20  21
HETATM   21  C   UNL     1      -7.706  19.050  67.763  1.00  0.00    -0.273 A  
HETATM   22  C   UNL     1      -7.089  19.200  69.014  1.00  0.00    -0.377 A  
HETATM   23  C   UNL     1      -6.137  20.197  69.223  1.00  0.00    -0.361 A  
HETATM   24  C   UNL     1      -5.782  21.051  68.180  1.00  0.00    -0.389 A  
HETATM   25  C   UNL     1      -6.371  20.902  66.926  1.00  0.00    -0.352 A  
HETATM   26  C   UNL     1      -7.327  19.905  66.714  1.00  0.00    -0.270 A  
ENDBRANCH  20  21
ENDBRANCH  18  20
ENDBRANCH  17  18
ENDBRANCH  16  17
ENDBRANCH  15  16
ENDBRANCH  13  15
ENDBRANCH  10  13
BRANCH  12  27
HETATM   27  C   UNL     1     -11.055  13.245  68.002  1.00  0.00    -0.282 A  
HETATM   28  C   UNL     1     -11.592  15.065  69.516  1.00  0.00    -0.337 A  
HETATM   29  O   UNL     1      -7.040  14.161  68.564  1.00  0.00    -0.089 OA 
HETATM   30  C   UNL     1      -9.686  13.544  68.148  1.00  0.00    -0.233 A  
HETATM   31  O   UNL     1      -7.543  15.833  69.890  1.00  0.00    -0.056 OA 
HETATM   32  C   UNL     1      -9.283  14.592  68.983  1.00  0.00    -0.108 A  
HETATM   33  C   UNL     1     -11.998  14.006  68.706  1.00  0.00    -0.382 A  
HETATM   34  C   UNL     1     -10.235  15.365  69.656  1.00  0.00    -0.283 A  
HETATM   35  N   UNL     1      -7.854  14.882  69.158  1.00  0.00    -0.169 N  
ENDBRANCH  12  27
ENDBRANCH   3   5
ENDBRANCH   2   3
TORSDOF 10
ENDMDL
MODEL        3
REMARK 921   NORMALIZED FREE ENERGY PREDICTED BY IDOCK:   -6.82 KCAL/MOL
REMARK 922        TOTAL FREE ENERGY PREDICTED BY IDOCK:  -12.32 KCAL/MOL
REMARK 923 INTER-LIGAND FREE ENERGY PREDICTED BY IDOCK:   -9.38 KCAL/MOL
REMARK 924 INTRA-LIGAND FREE ENERGY PREDICTED BY IDOCK:   -2.94 KCAL/MOL
REMARK 927      BINDING AFFINITY PREDICTED BY RF-SCORE:    0.00 PKD
ROOT
HETATM    1  C   UNL     1      -5.768  13.792  68.043  1.00  0.00    -0.132 C  
HETATM    2  O   UNL     1      -7.140  13.395  67.938  1.00  0.00    -0.103 OA 
ENDROOT
BRANCH   2   3
HETATM    3  C   UNL     1      -8.003  14.386  68.280  1.00  0.00    -0.140 C  
HETATM    4  O   UNL     1      -8.095  14.877  69.395  1.00  0.00    -0.171 OA 
BRANCH   3   5
HETATM    5  C   UNL     1      -8.864  14.770  67.133  1.00  0.00    -0.234 C  
HETATM    6  C   UNL     1      -8.688  15.963  66.515  1.00  0.00    -0.315 C  
HETATM    7  C   UNL     1      -7.598  16.969  66.798  1.00  0.00    -0.273 C  
HETATM    8  N   UNL     1      -9.577  16.363  65.533  1.00  0.00    -0.469 NA 
HETATM    9  C   UNL     1     -10.765  15.723  65.233  1.00  0.00    -0.428 C  
HETATM   10  C   UNL     1     -11.045  14.524  65.797  1.00  0.00    -0.324 C  
HETATM   11  C   UNL     1     -11.653  16.442  64.244  1.00  0.00     0.171 C  
HETATM   12  C   UNL     1     -10.030  13.847  66.738  1.00  0.00    -0.269 C  
BRANCH  10  13
HETATM   13  C   UNL     1     -12.295  13.804  65.420  1.00  0.00    -0.475 C  
HETATM   14  O   UNL     1     -13.391  13.968  65.934  1.00  0.00    -0.400 OA 
BRANCH  13  15
HETATM   15  O   UNL     1     -12.079  13.096  64.284  1.00  0.00    -0.379 OA 
BRANCH  15  16
HETATM   16  C   UNL     1     -11.688  11.734  64.523  1.00  0.00    -0.189 C  
BRANCH  16  17
HETATM   17  C   UNL     1     -10.548  11.446  63.535  1.00  0.00    -0.402 C  
BRANCH  17  18
HETATM   18  N   UNL     1      -9.685  10.293  63.824  1.00  0.00    -0.291 NA 
HETATM   19  C   UNL     1      -8.975   9.865  62.615  1.00  0.00    -0.268 C  
BRANCH  18  20
HETATM   20  C   UNL     1      -8.702  10.656  64.874  1.00  0.00    -0.168 C  
BRANCH  20  21
HETATM   21  C   UNL     1      -8.809   9.792  66.117  1.00  0.00    -0.162 A  
HETATM   22  C   UNL     1      -9.848   8.858  66.243  1.00  0.00    -0.355 A  
HETATM   23  C   UNL     1     -10.009   8.127  67.418  1.00  0.00    -0.271 A  
HETATM   24  C   UNL     1      -9.127   8.313  68.481  1.00  0.00    -0.136 A  
HETATM   25  C   UNL     1      -8.077   9.222  68.365  1.00  0.00    -0.106 A  
HETATM   26  C   UNL     1      -7.914   9.958  67.188  1.00  0.00    -0.109 A  
ENDBRANCH  20  21
ENDBRANCH  18  20
ENDBRANCH  17  18
ENDBRANCH  16  17
ENDBRANCH  15  16
ENDBRANCH  13  15
ENDBRANCH  10  13
BRANCH  12  27
HETATM   27  C   UNL     1     -10.714  13.247  67.971  1.00  0.00    -0.254 A  
HETATM   28  C   UNL     1     -11.384  11.318  69.281  1.00  0.00    -0.354 A  
HETATM   29  O   UNL     1     -12.602  15.636  70.800  1.00  0.00    -0.434 OA 
HETATM   30  C   UNL     1     -11.367  14.087  68.896  1.00  0.00    -0.314 A  
HETATM   31  O   UNL     1     -13.243  13.880  71.946  1.00  0.00    -0.346 OA 
HETATM   32  C   UNL     1     -12.012  13.535  70.008  1.00  0.00    -0.340 A  
HETATM   33  C   UNL     1     -10.718  11.863  68.185  1.00  0.00    -0.246 A  
HETATM   34  C   UNL     1     -12.037  12.149  70.195  1.00  0.00    -0.368 A  
HETATM   35  N   UNL     1     -12.665  14.413  70.987  1.00  0.00    -0.326 N  
ENDBRANCH  12  27
ENDBRANCH   3   5
ENDBRANCH   2   3
TORSDOF 10
ENDMDL
MODEL        4
REMARK 921   NORMALIZED FREE ENERGY PREDICTED BY IDOCK:   -6.71 KCAL/MOL
REMARK 922        TOTAL FREE ENERGY PREDICTED BY IDOCK:  -12.16 KCAL/MOL
REMARK 923 INTER-LIGAND FREE ENERGY PREDICTED BY IDOCK:   -9.54 KCAL/MOL
REMARK 924 INTRA-LIGAND FREE ENERGY PREDICTED BY IDOCK:   -2.62 KCAL/MOL
REMARK 927      BINDING AFFINITY PREDICTED BY RF-SCORE:    0.00 PKD
ROOT
HETATM    1  C   UNL     1      -6.403   7.886  71.759  1.00  0.00    -0.040 C  
HETATM    2  O   UNL     1      -7.167   8.662  70.830  1.00  0.00    -0.057 OA 
ENDROOT
BRANCH   2   3
HETATM    3  C   UNL     1      -8.341   8.071  70.491  1.00  0.00    -0.123 C  
HETATM    4  O   UNL     1      -8.448   6.943  70.033  1.00  0.00    -0.136 OA 
BRANCH   3   5
HETATM    5  C   UNL     1      -9.488   8.991  70.700  1.00  0.00    -0.286 C  
HETATM    6  C   UNL     1     -10.370   8.767  71.703  1.00  0.00    -0.321 C  
HETATM    7  C   UNL     1     -10.274   7.693  72.761  1.00  0.00    -0.336 C  
HETATM    8  N   UNL     1     -11.502   9.556  71.808  1.00  0.00    -0.359 NA 
HETATM    9  C   UNL     1     -11.923  10.466  70.858  1.00  0.00    -0.377 C  
HETATM   10  C   UNL     1     -11.119  10.764  69.808  1.00  0.00    -0.346 C  
HETATM   11  C   UNL     1     -13.279  11.084  71.111  1.00  0.00    -0.176 C  
HETATM   12  C   UNL     1      -9.722  10.128  69.689  1.00  0.00    -0.250 C  
BRANCH  10  13
HETATM   13  C   UNL     1     -11.546  11.797  68.821  1.00  0.00    -0.307 C  
HETATM   14  O   UNL     1     -12.250  11.595  67.842  1.00  0.00    -0.560 OA 
BRANCH  13  15
HETATM   15  O   UNL     1     -11.213  13.026  69.285  1.00  0.00    -0.250 OA 
BRANCH  15  16
HETATM   16  C   UNL     1     -11.859  14.098  68.579  1.00  0.00    -0.355 C  
BRANCH  16  17
HETATM   17  C   UNL     1     -10.736  15.060  68.160  1.00  0.00    -0.256 C  
BRANCH  17  18
HETATM   18  N   UNL     1     -10.815  15.635  66.811  1.00  0.00    -0.307 NA 
HETATM   19  C   UNL     1     -10.437  17.051  66.832  1.00  0.00    -0.268 C  
BRANCH  18  20
HETATM   20  C   UNL     1      -9.910  14.894  65.898  1.00  0.00    -0.332 C  
BRANCH  20  21
HETATM   21  C   UNL     1     -10.623  13.829  65.086  1.00  0.00    -0.385 A  
HETATM   22  C   UNL     1     -10.187  12.496  65.128  1.00  0.00    -0.299 A  
HETATM   23  C   UNL     1     -10.776  11.529  64.316  1.00  0.00    -0.416 A  
HETATM   24  C   UNL     1     -11.815  11.880  63.455  1.00  0.00    -0.560 A  
HETATM   25  C   UNL     1     -12.273  13.196  63.416  1.00  0.00    -0.521 A  
HETATM   26  C   UNL     1     -11.683  14.168  64.229  1.00  0.00    -0.365 A  
ENDBRANCH  20  21
ENDBRANCH  18  20
ENDBRANCH  17  18
ENDBRANCH  16  17
ENDBRANCH  15  16
ENDBRANCH  13  15
ENDBRANCH  10  13
BRANCH  12  27
HETATM   27  C   UNL     1      -9.426   9.674  68.256  1.00  0.00    -0.145 A  
HETATM   28  C   UNL     1      -9.947   8.287  66.334  1.00  0.00    -0.264 A  
HETATM   29  O   UNL     1      -6.198  11.175  66.111  1.00  0.00    -0.133 OA 
HETATM   30  C   UNL     1      -8.308  10.186  67.568  1.00  0.00    -0.118 A  
HETATM   31  O   UNL     1      -6.653   9.879  64.401  1.00  0.00    -0.113 OA 
HETATM   32  C   UNL     1      -8.026   9.751  66.269  1.00  0.00    -0.109 A  
HETATM   33  C   UNL     1     -10.248   8.734  67.619  1.00  0.00    -0.298 A  
HETATM   34  C   UNL     1      -8.834   8.789  65.654  1.00  0.00    -0.239 A  
HETATM   35  N   UNL     1      -6.877  10.308  65.542  1.00  0.00    -0.130 N  
ENDBRANCH  12  27
ENDBRANCH   3   5
ENDBRANCH   2   3
TORSDOF 10
ENDMDL
MODEL        5
REMARK 921   NORMALIZED FREE ENERGY PREDICTED BY IDOCK:   -6.69 KCAL/MOL
REMARK 922        TOTAL FREE ENERGY PREDICTED BY IDOCK:  -12.13 KCAL/MOL
REMARK 923 INTER-LIGAND FREE ENERGY PREDICTED BY IDOCK:   -9.68 KCAL/MOL
REMARK 924 INTRA-LIGAND FREE ENERGY PREDICTED BY IDOCK:   -2.45 KCAL/MOL
REMARK 927      BINDING AFFINITY PREDICTED BY RF-SCORE:    0.00 PKD
ROOT
HETATM    1  C   UNL     1     -11.547  15.881  64.144  1.00  0.00    -0.056 C  
HETATM    2  O   UNL     1     -11.900  15.437  65.459  1.00  0.00     0.001 OA 
ENDROOT
BRANCH   2   3
HETATM    3  C   UNL     1     -12.210  14.115  65.503  1.00  0.00    -0.432 C  
HETATM    4  O   UNL     1     -13.346  13.667  65.554  1.00  0.00    -0.541 OA 
BRANCH   3   5
HETATM    5  C   UNL     1     -10.987  13.275  65.532  1.00  0.00    -0.297 C  
HETATM    6  C   UNL     1     -10.817  12.283  64.625  1.00  0.00    -0.308 C  
HETATM    7  C   UNL     1     -11.722  11.968  63.458  1.00  0.00    -0.566 C  
HETATM    8  N   UNL     1      -9.736  11.427  64.742  1.00  0.00    -0.246 NA 
HETATM    9  C   UNL     1      -8.881  11.374  65.827  1.00  0.00    -0.111 C  
HETATM   10  C   UNL     1      -8.966  12.317  66.796  1.00  0.00    -0.209 C  
HETATM   11  C   UNL     1      -7.881  10.242  65.806  1.00  0.00    -0.145 C  
HETATM   12  C   UNL     1      -9.978  13.472  66.677  1.00  0.00    -0.282 C  
BRANCH  10  13
HETATM   13  C   UNL     1      -7.998  12.298  67.931  1.00  0.00    -0.152 C  
HETATM   14  O   UNL     1      -8.018  11.513  68.867  1.00  0.00    -0.131 OA 
BRANCH  13  15
HETATM   15  O   UNL     1      -6.974  13.143  67.661  1.00  0.00    -0.127 OA 
BRANCH  15  16
HETATM   16  C   UNL     1      -6.967  14.318  68.489  1.00  0.00    -0.102 C  
BRANCH  16  17
HETATM   17  C   UNL     1      -5.906  15.251  67.884  1.00  0.00    -0.146 C  
BRANCH  17  18
HETATM   18  N   UNL     1      -6.338  16.601  67.503  1.00  0.00    -0.147 NA 
HETATM   19  C   UNL     1      -5.325  17.250  66.666  1.00  0.00    -0.178 C  
BRANCH  18  20
HETATM   20  C   UNL     1      -7.620  16.524  66.760  1.00  0.00    -0.263 C  
BRANCH  20  21
HETATM   21  C   UNL     1      -8.631  17.566  67.203  1.00  0.00    -0.238 A  
HETATM   22  C   UNL     1      -9.672  17.952  66.345  1.00  0.00    -0.321 A  
HETATM   23  C   UNL     1     -10.549  18.974  66.705  1.00  0.00    -0.508 A  
HETATM   24  C   UNL     1     -10.402  19.618  67.933  1.00  0.00    -0.583 A  
HETATM   25  C   UNL     1      -9.385  19.232  68.805  1.00  0.00    -0.437 A  
HETATM   26  C   UNL     1      -8.504  18.209  68.445  1.00  0.00    -0.311 A  
ENDBRANCH  20  21
ENDBRANCH  18  20
ENDBRANCH  17  18
ENDBRANCH  16  17
ENDBRANCH  15  16
ENDBRANCH  13  15
ENDBRANCH  10  13
BRANCH  12  27
HETATM   27  C   UNL     1     -10.685  13.744  68.008  1.00  0.00    -0.260 A  
HETATM   28  C   UNL     1     -11.301  15.264  69.797  1.00  0.00    -0.306 A  
HETATM   29  O   UNL     1     -12.637  10.729  70.101  1.00  0.00    -0.327 OA 
HETATM   30  C   UNL     1     -11.315  12.692  68.703  1.00  0.00    -0.331 A  
HETATM   31  O   UNL     1     -13.142  12.104  71.733  1.00  0.00    -0.438 OA 
HETATM   32  C   UNL     1     -11.939  12.937  69.931  1.00  0.00    -0.307 A  
HETATM   33  C   UNL     1     -10.699  15.031  68.562  1.00  0.00    -0.244 A  
HETATM   34  C   UNL     1     -11.919  14.220  70.489  1.00  0.00    -0.402 A  
HETATM   35  N   UNL     1     -12.621  11.846  70.638  1.00  0.00    -0.232 N  
ENDBRANCH  12  27
ENDBRANCH   3   5
ENDBRANCH   2   3
TORSDOF 10
ENDMDL
MODEL        6
REMARK 921   NORMALIZED FREE ENERGY PREDICTED BY IDOCK:   -6.68 KCAL/MOL
REMARK 922        TOTAL FREE ENERGY PREDICTED BY IDOCK:  -12.10 KCAL/MOL
REMARK 923 INTER-LIGAND FREE ENERGY PREDICTED BY IDOCK:   -9.67 KCAL/MOL
REMARK 924 INTRA-LIGAND FREE ENERGY PREDICTED BY IDOCK:   -2.43 KCAL/MOL
REMARK 927      BINDING AFFINITY PREDICTED BY RF-SCORE:    0.00 PKD
ROOT
HETATM    1  C   UNL     1     -11.710  15.524  64.123  1.00  0.00    -0.086 C  
HETATM    2  O   UNL     1     -11.539  15.053  65.464  1.00  0.00    -0.311 OA 
ENDROOT
BRANCH   2   3
HETATM    3  C   UNL     1     -11.839  13.736  65.601  1.00  0.00    -0.365 C  
HETATM    4  O   UNL     1     -12.972  13.282  65.675  1.00  0.00    -0.437 OA 
BRANCH   3   5
HETATM    5  C   UNL     1     -10.609  12.910  65.702  1.00  0.00    -0.295 C  
HETATM    6  C   UNL     1     -10.319  11.997  64.744  1.00  0.00    -0.280 C  
HETATM    7  C   UNL     1     -11.080  11.767  63.461  1.00  0.00    -0.503 C  
HETATM    8  N   UNL     1      -9.240  11.147  64.915  1.00  0.00    -0.191 NA 
HETATM    9  C   UNL     1      -8.511  11.017  66.081  1.00  0.00    -0.168 C  
HETATM   10  C   UNL     1      -8.722  11.877  67.106  1.00  0.00    -0.176 C  
HETATM   11  C   UNL     1      -7.491   9.901  66.084  1.00  0.00    -0.104 C  
HETATM   12  C   UNL     1      -9.739  13.026  66.966  1.00  0.00    -0.235 C  
BRANCH  10  13
HETATM   13  C   UNL     1      -7.888  11.777  68.338  1.00  0.00    -0.141 C  
HETATM   14  O   UNL     1      -8.038  10.958  69.233  1.00  0.00    -0.136 OA 
BRANCH  13  15
HETATM   15  O   UNL     1      -6.811  12.591  68.217  1.00  0.00    -0.069 OA 
BRANCH  15  16
HETATM   16  C   UNL     1      -6.853  13.730  69.092  1.00  0.00    -0.102 C  
BRANCH  16  17
HETATM   17  C   UNL     1      -6.812  14.964  68.177  1.00  0.00    -0.130 C  
BRANCH  17  18
HETATM   18  N   UNL     1      -7.077  16.268  68.796  1.00  0.00    -0.153 NA 
HETATM   19  C   UNL     1      -6.075  16.564  69.824  1.00  0.00    -0.215 C  
BRANCH  18  20
HETATM   20  C   UNL     1      -7.051  17.328  67.759  1.00  0.00    -0.162 C  
BRANCH  20  21
HETATM   21  C   UNL     1      -8.393  18.012  67.570  1.00  0.00    -0.233 A  
HETATM   22  C   UNL     1      -9.205  17.688  66.473  1.00  0.00    -0.286 A  
HETATM   23  C   UNL     1     -10.394  18.376  66.240  1.00  0.00    -0.440 A  
HETATM   24  C   UNL     1     -10.793  19.392  67.107  1.00  0.00    -0.561 A  
HETATM   25  C   UNL     1     -10.007  19.713  68.213  1.00  0.00    -0.543 A  
HETATM   26  C   UNL     1      -8.814  19.025  68.447  1.00  0.00    -0.379 A  
ENDBRANCH  20  21
ENDBRANCH  18  20
ENDBRANCH  17  18
ENDBRANCH  16  17
ENDBRANCH  15  16
ENDBRANCH  13  15
ENDBRANCH  10  13
BRANCH  12  27
HETATM   27  C   UNL     1     -10.596  13.180  68.226  1.00  0.00    -0.260 A  
HETATM   28  C   UNL     1     -12.088  12.235  69.891  1.00  0.00    -0.319 A  
HETATM   29  O   UNL     1     -11.008  16.840  70.153  1.00  0.00    -0.264 OA 
HETATM   30  C   UNL     1     -10.733  14.442  68.838  1.00  0.00    -0.260 A  
HETATM   31  O   UNL     1     -12.394  15.981  71.620  1.00  0.00    -0.455 OA 
HETATM   32  C   UNL     1     -11.537  14.586  69.974  1.00  0.00    -0.284 A  
HETATM   33  C   UNL     1     -11.269  12.080  68.773  1.00  0.00    -0.316 A  
HETATM   34  C   UNL     1     -12.229  13.487  70.493  1.00  0.00    -0.433 A  
HETATM   35  N   UNL     1     -11.654  15.895  70.628  1.00  0.00    -0.374 N  
ENDBRANCH  12  27
ENDBRANCH   3   5
ENDBRANCH   2   3
TORSDOF 10
ENDMDL
MODEL        7
REMARK 921   NORMALIZED FREE ENERGY PREDICTED BY IDOCK:   -6.62 KCAL/MOL
REMARK 922        TOTAL FREE ENERGY PREDICTED BY IDOCK:  -12.02 KCAL/MOL
REMARK 923 INTER-LIGAND FREE ENERGY PREDICTED BY IDOCK:  -10.35 KCAL/MOL
REMARK 924 INTRA-LIGAND FREE ENERGY PREDICTED BY IDOCK:   -1.66 KCAL/MOL
REMARK 927      BINDING AFFINITY PREDICTED BY RF-SCORE:    0.00 PKD
ROOT
HETATM    1  C   UNL     1      -9.143  18.596  68.419  1.00  0.00    -0.324 C  
HETATM    2  O   UNL     1      -9.675  17.290  68.171  1.00  0.00    -0.264 OA 
ENDROOT
BRANCH   2   3
HETATM    3  C   UNL     1      -9.180  16.726  67.039  1.00  0.00    -0.225 C  
HETATM    4  O   UNL     1      -9.459  17.080  65.904  1.00  0.00    -0.492 OA 
BRANCH   3   5
HETATM    5  C   UNL     1      -8.287  15.582  67.354  1.00  0.00    -0.202 C  
HETATM    6  C   UNL     1      -6.945  15.705  67.219  1.00  0.00    -0.189 C  
HETATM    7  C   UNL     1      -6.190  16.964  66.863  1.00  0.00    -0.226 C  
HETATM    8  N   UNL     1      -6.135  14.597  67.391  1.00  0.00    -0.316 NA 
HETATM    9  C   UNL     1      -6.588  13.298  67.520  1.00  0.00    -0.143 C  
HETATM   10  C   UNL     1      -7.915  13.058  67.659  1.00  0.00    -0.169 C  
HETATM   11  C   UNL     1      -5.513  12.236  67.522  1.00  0.00    -0.118 C  
HETATM   12  C   UNL     1      -8.918  14.226  67.718  1.00  0.00    -0.188 C  
BRANCH  10  13
HETATM   13  C   UNL     1      -8.395  11.662  67.866  1.00  0.00    -0.143 C  
HETATM   14  O   UNL     1      -8.411  10.783  67.018  1.00  0.00    -0.124 OA 
BRANCH  13  15
HETATM   15  O   UNL     1      -8.614  11.455  69.188  1.00  0.00     0.006 OA 
BRANCH  15  16
HETATM   16  C   UNL     1      -8.972  10.099  69.503  1.00  0.00    -0.188 C  
BRANCH  16  17
HETATM   17  C   UNL     1     -10.282  10.185  70.300  1.00  0.00    -0.120 C  
BRANCH  17  18
HETATM   18  N   UNL     1     -11.245  11.218  69.898  1.00  0.00    -0.230 NA 
HETATM   19  C   UNL     1     -11.836  10.894  68.597  1.00  0.00    -0.199 C  
BRANCH  18  20
HETATM   20  C   UNL     1     -12.317  11.326  70.918  1.00  0.00    -0.388 C  
BRANCH  20  21
HETATM   21  C   UNL     1     -12.699  12.760  71.235  1.00  0.00    -0.364 A  
HETATM   22  C   UNL     1     -13.534  13.046  72.324  1.00  0.00    -0.645 A  
HETATM   23  C   UNL     1     -13.965  14.349  72.568  1.00  0.00    -0.508 A  
HETATM   24  C   UNL     1     -13.558  15.386  71.730  1.00  0.00    -0.596 A  
HETATM   25  C   UNL     1     -12.711  15.121  70.655  1.00  0.00    -0.451 A  
HETATM   26  C   UNL     1     -12.280  13.815  70.407  1.00  0.00    -0.433 A  
ENDBRANCH  20  21
ENDBRANCH  18  20
ENDBRANCH  17  18
ENDBRANCH  16  17
ENDBRANCH  15  16
ENDBRANCH  13  15
ENDBRANCH  10  13
BRANCH  12  27
HETATM   27  C   UNL     1     -10.166  13.943  66.876  1.00  0.00    -0.257 A  
HETATM   28  C   UNL     1     -12.573  14.028  66.579  1.00  0.00    -0.214 A  
HETATM   29  O   UNL     1      -9.930  12.023  63.197  1.00  0.00    -0.407 OA 
HETATM   30  C   UNL     1     -10.050  13.267  65.645  1.00  0.00    -0.281 A  
HETATM   31  O   UNL     1     -12.111  12.063  62.968  1.00  0.00    -0.300 OA 
HETATM   32  C   UNL     1     -11.195  12.987  64.890  1.00  0.00    -0.302 A  
HETATM   33  C   UNL     1     -11.435  14.332  67.325  1.00  0.00    -0.371 A  
HETATM   34  C   UNL     1     -12.460  13.352  65.362  1.00  0.00    -0.543 A  
HETATM   35  N   UNL     1     -11.069  12.310  63.593  1.00  0.00    -0.435 N  
ENDBRANCH  12  27
ENDBRANCH   3   5
ENDBRANCH   2   3
TORSDOF 10
ENDMDL
MODEL        8
REMARK 921   NORMALIZED FREE ENERGY PREDICTED BY IDOCK:   -6.61 KCAL/MOL
REMARK 922        TOTAL FREE ENERGY PREDICTED BY IDOCK:  -11.99 KCAL/MOL
REMARK 923 INTER-LIGAND FREE ENERGY PREDICTED BY IDOCK:  -10.14 KCAL/MOL
REMARK 924 INTRA-LIGAND FREE ENERGY PREDICTED BY IDOCK:   -1.85 KCAL/MOL
REMARK 927      BINDING AFFINITY PREDICTED BY RF-SCORE:    0.00 PKD
ROOT
HETATM    1  C   UNL     1     -12.173   9.217  71.549  1.00  0.00    -0.349 C  
HETATM    2  O   UNL     1     -11.416  10.192  70.825  1.00  0.00    -0.310 OA 
ENDROOT
BRANCH   2   3
HETATM    3  C   UNL     1     -12.193  11.007  70.067  1.00  0.00    -0.343 C  
HETATM    4  O   UNL     1     -13.098  10.628  69.338  1.00  0.00     0.073 OA 
BRANCH   3   5
HETATM    5  C   UNL     1     -11.775  12.426  70.197  1.00  0.00    -0.266 C  
HETATM    6  C   UNL     1     -12.443  13.263  71.025  1.00  0.00    -0.336 C  
HETATM    7  C   UNL     1     -13.566  12.891  71.965  1.00  0.00    -0.499 C  
HETATM    8  N   UNL     1     -12.124  14.610  71.040  1.00  0.00    -0.311 NA 
HETATM    9  C   UNL     1     -11.283  15.234  70.139  1.00  0.00    -0.291 C  
HETATM   10  C   UNL     1     -10.567  14.492  69.261  1.00  0.00    -0.224 C  
HETATM   11  C   UNL     1     -11.225  16.741  70.248  1.00  0.00     0.181 C  
HETATM   12  C   UNL     1     -10.650  12.954  69.288  1.00  0.00     0.117 C  
BRANCH  10  13
HETATM   13  C   UNL     1      -9.609  15.162  68.336  1.00  0.00    -0.212 C  
HETATM   14  O   UNL     1      -9.911  15.764  67.316  1.00  0.00    -0.227 OA 
BRANCH  13  15
HETATM   15  O   UNL     1      -8.379  15.187  68.904  1.00  0.00    -0.165 OA 
BRANCH  15  16
HETATM   16  C   UNL     1      -7.329  15.526  67.982  1.00  0.00    -0.129 C  
BRANCH  16  17
HETATM   17  C   UNL     1      -6.245  16.222  68.819  1.00  0.00    -0.122 C  
BRANCH  17  18
HETATM   18  N   UNL     1      -6.525  17.590  69.275  1.00  0.00    -0.240 NA 
HETATM   19  C   UNL     1      -5.533  18.016  70.265  1.00  0.00    -0.253 C  
BRANCH  18  20
HETATM   20  C   UNL     1      -6.500  18.517  68.117  1.00  0.00    -0.208 C  
BRANCH  20  21
HETATM   21  C   UNL     1      -7.883  18.972  67.686  1.00  0.00    -0.269 A  
HETATM   22  C   UNL     1      -8.112  19.385  66.365  1.00  0.00    -0.329 A  
HETATM   23  C   UNL     1      -9.354  19.891  65.984  1.00  0.00    -0.370 A  
HETATM   24  C   UNL     1     -10.385  19.983  66.916  1.00  0.00    -0.567 A  
HETATM   25  C   UNL     1     -10.179  19.558  68.227  1.00  0.00    -0.552 A  
HETATM   26  C   UNL     1      -8.935  19.051  68.613  1.00  0.00    -0.402 A  
ENDBRANCH  20  21
ENDBRANCH  18  20
ENDBRANCH  17  18
ENDBRANCH  16  17
ENDBRANCH  15  16
ENDBRANCH  13  15
ENDBRANCH  10  13
BRANCH  12  27
HETATM   27  C   UNL     1     -10.746  12.367  67.877  1.00  0.00    -0.245 A  
HETATM   28  C   UNL     1      -9.951  10.834  66.171  1.00  0.00    -0.283 A  
HETATM   29  O   UNL     1     -13.528  13.756  65.119  1.00  0.00    -0.510 OA 
HETATM   30  C   UNL     1     -11.685  12.881  66.960  1.00  0.00    -0.447 A  
HETATM   31  O   UNL     1     -12.765  12.400  63.573  1.00  0.00    -0.727 OA 
HETATM   32  C   UNL     1     -11.754  12.360  65.662  1.00  0.00    -0.414 A  
HETATM   33  C   UNL     1      -9.893  11.331  67.472  1.00  0.00    -0.195 A  
HETATM   34  C   UNL     1     -10.876  11.348  65.260  1.00  0.00    -0.297 A  
HETATM   35  N   UNL     1     -12.753  12.876  64.718  1.00  0.00    -0.417 N  
ENDBRANCH  12  27
ENDBRANCH   3   5
ENDBRANCH   2   3
TORSDOF 10
ENDMDL
MODEL        9
REMARK 921   NORMALIZED FREE ENERGY PREDICTED BY IDOCK:   -6.55 KCAL/MOL
REMARK 922        TOTAL FREE ENERGY PREDICTED BY IDOCK:  -11.89 KCAL/MOL
REMARK 923 INTER-LIGAND FREE ENERGY PREDICTED BY IDOCK:  -10.63 KCAL/MOL
REMARK 924 INTRA-LIGAND FREE ENERGY PREDICTED BY IDOCK:   -1.26 KCAL/MOL
REMARK 927      BINDING AFFINITY PREDICTED BY RF-SCORE:    0.00 PKD
ROOT
HETATM    1  C   UNL     1     -11.592  15.897  64.363  1.00  0.00    -0.234 C  
HETATM    2  O   UNL     1     -11.433  15.164  65.582  1.00  0.00    -0.303 OA 
ENDROOT
BRANCH   2   3
HETATM    3  C   UNL     1     -12.166  14.022  65.610  1.00  0.00    -0.442 C  
HETATM    4  O   UNL     1     -13.386  13.977  65.669  1.00  0.00    -0.636 OA 
BRANCH   3   5
HETATM    5  C   UNL     1     -11.293  12.821  65.610  1.00  0.00    -0.354 C  
HETATM    6  C   UNL     1     -11.388  11.906  64.615  1.00  0.00    -0.293 C  
HETATM    7  C   UNL     1     -12.252  12.009  63.380  1.00  0.00    -0.627 C  
HETATM    8  N   UNL     1     -10.661  10.731  64.693  1.00  0.00    -0.283 NA 
HETATM    9  C   UNL     1      -9.959  10.308  65.805  1.00  0.00    -0.271 C  
HETATM   10  C   UNL     1      -9.804  11.143  66.861  1.00  0.00    -0.223 C  
HETATM   11  C   UNL     1      -9.388   8.912  65.715  1.00  0.00    -0.286 C  
HETATM   12  C   UNL     1     -10.368  12.575  66.815  1.00  0.00    -0.241 C  
BRANCH  10  13
HETATM   13  C   UNL     1      -8.988  10.709  68.032  1.00  0.00    -0.140 C  
HETATM   14  O   UNL     1      -8.026  11.308  68.488  1.00  0.00    -0.130 OA 
BRANCH  13  15
HETATM   15  O   UNL     1      -9.599   9.665  68.642  1.00  0.00    -0.146 OA 
BRANCH  15  16
HETATM   16  C   UNL     1      -9.071   9.375  69.948  1.00  0.00    -0.204 C  
BRANCH  16  17
HETATM   17  C   UNL     1     -10.291   9.244  70.873  1.00  0.00    -0.296 C  
BRANCH  17  18
HETATM   18  N   UNL     1     -10.652   7.893  71.320  1.00  0.00    -0.210 NA 
HETATM   19  C   UNL     1     -11.214   7.930  72.673  1.00  0.00    -0.398 C  
BRANCH  18  20
HETATM   20  C   UNL     1     -11.645   7.307  70.386  1.00  0.00    -0.219 C  
BRANCH  20  21
HETATM   21  C   UNL     1     -11.037   6.312  69.415  1.00  0.00    -0.477 A  
HETATM   22  C   UNL     1     -10.297   5.219  69.891  1.00  0.00    -0.374 A  
HETATM   23  C   UNL     1      -9.658   4.353  69.006  1.00  0.00    -0.244 A  
HETATM   24  C   UNL     1      -9.757   4.562  67.632  1.00  0.00    -0.206 A  
HETATM   25  C   UNL     1     -10.505   5.632  67.142  1.00  0.00    -0.334 A  
HETATM   26  C   UNL     1     -11.145   6.503  68.028  1.00  0.00    -0.332 A  
ENDBRANCH  20  21
ENDBRANCH  18  20
ENDBRANCH  17  18
ENDBRANCH  16  17
ENDBRANCH  15  16
ENDBRANCH  13  15
ENDBRANCH  10  13
BRANCH  12  27
HETATM   27  C   UNL     1     -11.048  12.959  68.133  1.00  0.00    -0.282 A  
HETATM   28  C   UNL     1     -12.494  12.400  70.000  1.00  0.00    -0.037 A  
HETATM   29  O   UNL     1     -10.627  16.749  69.787  1.00  0.00    -0.287 OA 
HETATM   30  C   UNL     1     -10.904  14.262  68.651  1.00  0.00    -0.265 A  
HETATM   31  O   UNL     1     -11.975  16.244  71.441  1.00  0.00    -0.429 OA 
HETATM   32  C   UNL     1     -11.547  14.617  69.841  1.00  0.00    -0.285 A  
HETATM   33  C   UNL     1     -11.837  12.032  68.828  1.00  0.00    -0.358 A  
HETATM   34  C   UNL     1     -12.357  13.693  70.510  1.00  0.00    -0.425 A  
HETATM   35  N   UNL     1     -11.370  15.965  70.395  1.00  0.00    -0.356 N  
ENDBRANCH  12  27
ENDBRANCH   3   5
ENDBRANCH   2   3
TORSDOF 10
ENDMDL
MODEL       10
REMARK 921   NORMALIZED FREE ENERGY PREDICTED BY IDOCK:   -6.46 KCAL/MOL
REMARK 922        TOTAL FREE ENERGY PREDICTED BY IDOCK:  -11.75 KCAL/MOL
REMARK 923 INTER-LIGAND FREE ENERGY PREDICTED BY IDOCK:   -9.61 KCAL/MOL
REMARK 924 INTRA-LIGAND FREE ENERGY PREDICTED BY IDOCK:   -2.14 KCAL/MOL
REMARK 927      BINDING AFFINITY PREDICTED BY RF-SCORE:    0.00 PKD
ROOT
HETATM    1  C   UNL     1     -10.129   6.253  73.920  1.00  0.00    -0.270 C  
HETATM    2  O   UNL     1     -10.757   7.491  73.569  1.00  0.00    -0.378 OA 
ENDROOT
BRANCH   2   3
HETATM    3  C   UNL     1     -11.480   7.408  72.423  1.00  0.00    -0.300 C  
HETATM    4  O   UNL     1     -12.050   6.402  72.028  1.00  0.00    -0.335 OA 
BRANCH   3   5
HETATM    5  C   UNL     1     -11.454   8.691  71.675  1.00  0.00    -0.375 C  
HETATM    6  C   UNL     1     -12.557   9.475  71.623  1.00  0.00    -0.388 C  
HETATM    7  C   UNL     1     -13.857   9.246  72.356  1.00  0.00    -0.484 C  
HETATM    8  N   UNL     1     -12.558  10.602  70.820  1.00  0.00    -0.361 NA 
HETATM    9  C   UNL     1     -11.576  10.920  69.901  1.00  0.00    -0.331 C  
HETATM   10  C   UNL     1     -10.430  10.198  69.864  1.00  0.00    -0.322 C  
HETATM   11  C   UNL     1     -11.880  12.107  69.016  1.00  0.00    -0.361 C  
HETATM   12  C   UNL     1     -10.195   9.052  70.866  1.00  0.00    -0.324 C  
BRANCH  10  13
HETATM   13  C   UNL     1      -9.344  10.585  68.919  1.00  0.00    -0.187 C  
HETATM   14  O   UNL     1      -8.212  10.919  69.236  1.00  0.00    -0.130 OA 
BRANCH  13  15
HETATM   15  O   UNL     1      -9.733  10.310  67.650  1.00  0.00    -0.160 OA 
BRANCH  15  16
HETATM   16  C   UNL     1      -8.677   9.790  66.827  1.00  0.00    -0.131 C  
BRANCH  16  17
HETATM   17  C   UNL     1      -9.321   9.475  65.468  1.00  0.00    -0.255 C  
BRANCH  17  18
HETATM   18  N   UNL     1      -9.246  10.515  64.433  1.00  0.00    -0.224 NA 
HETATM   19  C   UNL     1      -8.590   9.998  63.229  1.00  0.00    -0.202 C  
BRANCH  18  20
HETATM   20  C   UNL     1     -10.613  10.979  64.093  1.00  0.00    -0.342 C  
BRANCH  20  21
HETATM   21  C   UNL     1     -11.041  12.206  64.878  1.00  0.00    -0.367 A  
HETATM   22  C   UNL     1     -12.394  12.570  64.942  1.00  0.00    -0.539 A  
HETATM   23  C   UNL     1     -12.785  13.744  65.583  1.00  0.00    -0.523 A  
HETATM   24  C   UNL     1     -11.829  14.567  66.176  1.00  0.00    -0.344 A  
HETATM   25  C   UNL     1     -10.482  14.209  66.139  1.00  0.00    -0.297 A  
HETATM   26  C   UNL     1     -10.087  13.032  65.496  1.00  0.00    -0.270 A  
ENDBRANCH  20  21
ENDBRANCH  18  20
ENDBRANCH  17  18
ENDBRANCH  16  17
ENDBRANCH  15  16
ENDBRANCH  13  15
ENDBRANCH  10  13
BRANCH  12  27
HETATM   27  C   UNL     1      -9.593   7.819  70.185  1.00  0.00    -0.168 A  
HETATM   28  C   UNL     1      -7.851   6.136  70.028  1.00  0.00    -0.106 A  
HETATM   29  O   UNL     1     -11.347   6.099  66.832  1.00  0.00    -0.199 OA 
HETATM   30  C   UNL     1     -10.201   7.278  69.034  1.00  0.00    -0.197 A  
HETATM   31  O   UNL     1      -9.739   4.616  66.675  1.00  0.00    -0.164 OA 
HETATM   32  C   UNL     1      -9.635   6.168  68.399  1.00  0.00    -0.118 A  
HETATM   33  C   UNL     1      -8.423   7.227  70.680  1.00  0.00    -0.140 A  
HETATM   34  C   UNL     1      -8.450   5.604  68.884  1.00  0.00    -0.102 A  
HETATM   35  N   UNL     1     -10.287   5.587  67.219  1.00  0.00    -0.221 N  
ENDBRANCH  12  27
ENDBRANCH   3   5
ENDBRANCH   2   3
TORSDOF 10
ENDMDL
MODEL       11
REMARK 921   NORMALIZED FREE ENERGY PREDICTED BY IDOCK:   -6.45 KCAL/MOL
REMARK 922        TOTAL FREE ENERGY PREDICTED BY IDOCK:  -11.74 KCAL/MOL
REMARK 923 INTER-LIGAND FREE ENERGY PREDICTED BY IDOCK:  -10.17 KCAL/MOL
REMARK 924 INTRA-LIGAND FREE ENERGY PREDICTED BY IDOCK:   -1.57 KCAL/MOL
REMARK 927      BINDING AFFINITY PREDICTED BY RF-SCORE:    0.00 PKD
ROOT
HETATM    1  C   UNL     1     -12.112  16.246  72.501  1.00  0.00    -0.525 C  
HETATM    2  O   UNL     1     -11.557  15.759  71.275  1.00  0.00    -0.367 OA 
ENDROOT
BRANCH   2   3
HETATM    3  C   UNL     1     -12.489  15.205  70.457  1.00  0.00    -0.379 C  
HETATM    4  O   UNL     1     -13.516  15.760  70.095  1.00  0.00    -0.011 OA 
BRANCH   3   5
HETATM    5  C   UNL     1     -12.128  13.812  70.093  1.00  0.00    -0.429 C  
HETATM    6  C   UNL     1     -12.432  12.787  70.925  1.00  0.00    -0.283 C  
HETATM    7  C   UNL     1     -13.227  12.875  72.206  1.00  0.00    -0.519 C  
HETATM    8  N   UNL     1     -11.979  11.512  70.634  1.00  0.00    -0.347 NA 
HETATM    9  C   UNL     1     -11.070  11.203  69.640  1.00  0.00    -0.232 C  
HETATM   10  C   UNL     1     -10.693  12.155  68.753  1.00  0.00    -0.252 C  
HETATM   11  C   UNL     1     -10.593   9.769  69.625  1.00  0.00    -0.260 C  
HETATM   12  C   UNL     1     -11.302  13.569  68.817  1.00  0.00    -0.329 C  
BRANCH  10  13
HETATM   13  C   UNL     1      -9.766  11.802  67.640  1.00  0.00    -0.182 C  
HETATM   14  O   UNL     1      -8.581  12.095  67.583  1.00  0.00    -0.149 OA 
BRANCH  13  15
HETATM   15  O   UNL     1     -10.379  10.929  66.805  1.00  0.00    -0.222 OA 
BRANCH  15  16
HETATM   16  C   UNL     1      -9.565   9.795  66.463  1.00  0.00    -0.194 C  
BRANCH  16  17
HETATM   17  C   UNL     1      -9.660   9.656  64.935  1.00  0.00    -0.173 C  
BRANCH  17  18
HETATM   18  N   UNL     1      -8.821  10.549  64.127  1.00  0.00    -0.190 NA 
HETATM   19  C   UNL     1      -7.745   9.796  63.476  1.00  0.00    -0.132 C  
BRANCH  18  20
HETATM   20  C   UNL     1      -9.652  11.217  63.095  1.00  0.00    -0.374 C  
BRANCH  20  21
HETATM   21  C   UNL     1     -10.706  12.138  63.682  1.00  0.00    -0.518 A  
HETATM   22  C   UNL     1     -10.327  13.308  64.358  1.00  0.00    -0.372 A  
HETATM   23  C   UNL     1     -11.282  14.111  64.980  1.00  0.00    -0.356 A  
HETATM   24  C   UNL     1     -12.629  13.760  64.927  1.00  0.00    -0.380 A  
HETATM   25  C   UNL     1     -13.024  12.612  64.242  1.00  0.00    -0.204 A  
HETATM   26  C   UNL     1     -12.069  11.804  63.619  1.00  0.00    -0.486 A  
ENDBRANCH  20  21
ENDBRANCH  18  20
ENDBRANCH  17  18
ENDBRANCH  16  17
ENDBRANCH  15  16
ENDBRANCH  13  15
ENDBRANCH  10  13
BRANCH  12  27
HETATM   27  C   UNL     1     -10.237  14.653  68.623  1.00  0.00    -0.244 A  
HETATM   28  C   UNL     1      -8.196  15.755  69.334  1.00  0.00    -0.211 A  
HETATM   29  O   UNL     1     -10.485  17.430  65.540  1.00  0.00    -0.624 OA 
HETATM   30  C   UNL     1     -10.368  15.594  67.582  1.00  0.00    -0.275 A  
HETATM   31  O   UNL     1      -8.667  18.445  66.226  1.00  0.00    -0.398 OA 
HETATM   32  C   UNL     1      -9.408  16.599  67.421  1.00  0.00    -0.222 A  
HETATM   33  C   UNL     1      -9.136  14.737  69.484  1.00  0.00     0.117 A  
HETATM   34  C   UNL     1      -8.328  16.692  68.307  1.00  0.00    -0.198 A  
HETATM   35  N   UNL     1      -9.529  17.559  66.317  1.00  0.00    -0.249 N  
ENDBRANCH  12  27
ENDBRANCH   3   5
ENDBRANCH   2   3
TORSDOF 10
ENDMDL
MODEL       12
REMARK 921   NORMALIZED FREE ENERGY PREDICTED BY IDOCK:   -6.45 KCAL/MOL
REMARK 922        TOTAL FREE ENERGY PREDICTED BY IDOCK:  -11.73 KCAL/MOL
REMARK 923 INTER-LIGAND FREE ENERGY PREDICTED BY IDOCK:  -10.12 KCAL/MOL
REMARK 924 INTRA-LIGAND FREE ENERGY PREDICTED BY IDOCK:   -1.61 KCAL/MOL
REMARK 927      BINDING AFFINITY PREDICTED BY RF-SCORE:    0.00 PKD
ROOT
HETATM    1  C   UNL     1      -8.127   6.192  66.844  1.00  0.00    -0.109 C  
HETATM    2  O   UNL     1      -8.706   6.912  65.750  1.00  0.00    -0.152 OA 
ENDROOT
BRANCH   2   3
HETATM    3  C   UNL     1      -8.052   8.071  65.477  1.00  0.00    -0.128 C  
HETATM    4  O   UNL     1      -6.853   8.248  65.633  1.00  0.00    -0.064 OA 
BRANCH   3   5
HETATM    5  C   UNL     1      -8.990   9.122  65.007  1.00  0.00    -0.221 C  
HETATM    6  C   UNL     1      -9.006   9.491  63.704  1.00  0.00    -0.173 C  
HETATM    7  C   UNL     1      -8.214   8.862  62.582  1.00  0.00    -0.190 C  
HETATM    8  N   UNL     1      -9.792  10.557  63.305  1.00  0.00    -0.304 NA 
HETATM    9  C   UNL     1     -10.448  11.421  64.161  1.00  0.00    -0.363 C  
HETATM   10  C   UNL     1     -10.492  11.149  65.487  1.00  0.00    -0.317 C  
HETATM   11  C   UNL     1     -11.101  12.613  63.499  1.00  0.00    -0.449 C  
HETATM   12  C   UNL     1      -9.852   9.863  66.044  1.00  0.00    -0.330 C  
BRANCH  10  13
HETATM   13  C   UNL     1     -11.258  12.046  66.399  1.00  0.00    -0.337 C  
HETATM   14  O   UNL     1     -12.137  11.691  67.171  1.00  0.00    -0.575 OA 
BRANCH  13  15
HETATM   15  O   UNL     1     -10.693  13.277  66.398  1.00  0.00    -0.282 OA 
BRANCH  15  16
HETATM   16  C   UNL     1     -11.204  14.144  67.425  1.00  0.00    -0.318 C  
BRANCH  16  17
HETATM   17  C   UNL     1     -10.012  14.454  68.343  1.00  0.00    -0.241 C  
BRANCH  17  18
HETATM   18  N   UNL     1     -10.148  15.597  69.256  1.00  0.00    -0.239 NA 
HETATM   19  C   UNL     1      -9.400  16.751  68.751  1.00  0.00    -0.254 C  
BRANCH  18  20
HETATM   20  C   UNL     1     -11.581  15.956  69.396  1.00  0.00    -0.349 C  
BRANCH  20  21
HETATM   21  C   UNL     1     -12.165  15.571  70.743  1.00  0.00    -0.450 A  
HETATM   22  C   UNL     1     -11.788  16.264  71.902  1.00  0.00    -0.538 A  
HETATM   23  C   UNL     1     -12.247  15.859  73.154  1.00  0.00    -0.622 A  
HETATM   24  C   UNL     1     -13.097  14.760  73.263  1.00  0.00    -0.550 A  
HETATM   25  C   UNL     1     -13.496  14.072  72.118  1.00  0.00    -0.567 A  
HETATM   26  C   UNL     1     -13.036  14.475  70.862  1.00  0.00    -0.405 A  
ENDBRANCH  20  21
ENDBRANCH  18  20
ENDBRANCH  17  18
ENDBRANCH  16  17
ENDBRANCH  15  16
ENDBRANCH  13  15
ENDBRANCH  10  13
BRANCH  12  27
HETATM   27  C   UNL     1      -9.073  10.131  67.335  1.00  0.00    -0.149 A  
HETATM   28  C   UNL     1      -7.266  11.241  68.516  1.00  0.00    -0.094 A  
HETATM   29  O   UNL     1     -10.039   8.233  70.904  1.00  0.00    -0.186 OA 
HETATM   30  C   UNL     1      -9.413   9.450  68.521  1.00  0.00    -0.150 A  
HETATM   31  O   UNL     1      -8.371   9.206  71.944  1.00  0.00    -0.333 OA 
HETATM   32  C   UNL     1      -8.683   9.677  69.693  1.00  0.00    -0.197 A  
HETATM   33  C   UNL     1      -8.004  11.037  67.351  1.00  0.00    -0.119 A  
HETATM   34  C   UNL     1      -7.598  10.561  69.689  1.00  0.00    -0.134 A  
HETATM   35  N   UNL     1      -9.058   8.990  70.935  1.00  0.00    -0.231 N  
ENDBRANCH  12  27
ENDBRANCH   3   5
ENDBRANCH   2   3
TORSDOF 10
ENDMDL
MODEL       13
REMARK 921   NORMALIZED FREE ENERGY PREDICTED BY IDOCK:   -6.44 KCAL/MOL
REMARK 922        TOTAL FREE ENERGY PREDICTED BY IDOCK:  -11.73 KCAL/MOL
REMARK 923 INTER-LIGAND FREE ENERGY PREDICTED BY IDOCK:   -9.24 KCAL/MOL
REMARK 924 INTRA-LIGAND FREE ENERGY PREDICTED BY IDOCK:   -2.49 KCAL/MOL
REMARK 927      BINDING AFFINITY PREDICTED BY RF-SCORE:    0.00 PKD
ROOT
HETATM    1  C   UNL     1      -6.722   8.209  73.691  1.00  0.00    -0.120 C  
HETATM    2  O   UNL     1      -7.317   8.776  72.519  1.00  0.00    -0.323 OA 
ENDROOT
BRANCH   2   3
HETATM    3  C   UNL     1      -8.204   7.938  71.922  1.00  0.00    -0.116 C  
HETATM    4  O   UNL     1      -7.912   6.878  71.389  1.00  0.00    -0.106 OA 
BRANCH   3   5
HETATM    5  C   UNL     1      -9.579   8.498  71.951  1.00  0.00    -0.353 C  
HETATM    6  C   UNL     1     -10.546   7.896  72.684  1.00  0.00    -0.329 C  
HETATM    7  C   UNL     1     -10.370   6.715  73.608  1.00  0.00    -0.343 C  
HETATM    8  N   UNL     1     -11.850   8.353  72.602  1.00  0.00    -0.366 NA 
HETATM    9  C   UNL     1     -12.308   9.279  71.685  1.00  0.00    -0.372 C  
HETATM   10  C   UNL     1     -11.425   9.940  70.897  1.00  0.00    -0.456 C  
HETATM   11  C   UNL     1     -13.805   9.491  71.673  1.00  0.00    -0.287 C  
HETATM   12  C   UNL     1      -9.912   9.697  71.045  1.00  0.00    -0.151 C  
BRANCH  10  13
HETATM   13  C   UNL     1     -11.915  10.988  69.956  1.00  0.00    -0.351 C  
HETATM   14  O   UNL     1     -12.489  10.780  68.897  1.00  0.00    -0.377 OA 
BRANCH  13  15
HETATM   15  O   UNL     1     -11.819  12.203  70.549  1.00  0.00    -0.287 OA 
BRANCH  15  16
HETATM   16  C   UNL     1     -12.408  13.264  69.779  1.00  0.00    -0.128 C  
BRANCH  16  17
HETATM   17  C   UNL     1     -11.239  14.154  69.329  1.00  0.00    -0.269 C  
BRANCH  17  18
HETATM   18  N   UNL     1     -11.028  14.305  67.883  1.00  0.00    -0.261 NA 
HETATM   19  C   UNL     1     -10.292  15.539  67.596  1.00  0.00    -0.269 C  
BRANCH  18  20
HETATM   20  C   UNL     1     -10.267  13.141  67.366  1.00  0.00    -0.232 C  
BRANCH  20  21
HETATM   21  C   UNL     1     -10.845  12.571  66.084  1.00  0.00    -0.304 A  
HETATM   22  C   UNL     1     -10.059  11.761  65.252  1.00  0.00    -0.300 A  
HETATM   23  C   UNL     1     -10.551  11.309  64.028  1.00  0.00    -0.450 A  
HETATM   24  C   UNL     1     -11.839  11.655  63.624  1.00  0.00    -0.390 A  
HETATM   25  C   UNL     1     -12.640  12.443  64.449  1.00  0.00    -0.489 A  
HETATM   26  C   UNL     1     -12.149  12.898  65.675  1.00  0.00    -0.511 A  
ENDBRANCH  20  21
ENDBRANCH  18  20
ENDBRANCH  17  18
ENDBRANCH  16  17
ENDBRANCH  15  16
ENDBRANCH  13  15
ENDBRANCH  10  13
BRANCH  12  27
HETATM   27  C   UNL     1      -9.220   9.581  69.683  1.00  0.00    -0.212 A  
HETATM   28  C   UNL     1      -7.642  10.418  68.041  1.00  0.00    -0.091 A  
HETATM   29  O   UNL     1     -10.177   6.554  67.000  1.00  0.00    -0.172 OA 
HETATM   30  C   UNL     1      -9.589   8.556  68.788  1.00  0.00    -0.150 A  
HETATM   31  O   UNL     1      -8.782   7.353  65.507  1.00  0.00    -0.122 OA 
HETATM   32  C   UNL     1      -8.974   8.467  67.535  1.00  0.00    -0.135 A  
HETATM   33  C   UNL     1      -8.232  10.498  69.301  1.00  0.00    -0.151 A  
HETATM   34  C   UNL     1      -8.011   9.407  67.151  1.00  0.00    -0.102 A  
HETATM   35  N   UNL     1      -9.337   7.381  66.616  1.00  0.00    -0.163 N  
ENDBRANCH  12  27
ENDBRANCH   3   5
ENDBRANCH   2   3
TORSDOF 10
ENDMDL
MODEL       14
REMARK 921   NORMALIZED FREE ENERGY PREDICTED BY IDOCK:   -6.44 KCAL/MOL
REMARK 922        TOTAL FREE ENERGY PREDICTED BY IDOCK:  -11.72 KCAL/MOL
REMARK 923 INTER-LIGAND FREE ENERGY PREDICTED BY IDOCK:   -9.97 KCAL/MOL
REMARK 924 INTRA-LIGAND FREE ENERGY PREDICTED BY IDOCK:   -1.75 KCAL/MOL
REMARK 927      BINDING AFFINITY PREDICTED BY RF-SCORE:    0.00 PKD
ROOT
HETATM    1  C   UNL     1     -12.030  15.686  64.227  1.00  0.00    -0.115 C  
HETATM    2  O   UNL     1     -11.439  15.071  65.377  1.00  0.00    -0.343 OA 
ENDROOT
BRANCH   2   3
HETATM    3  C   UNL     1     -11.798  13.769  65.521  1.00  0.00    -0.363 C  
HETATM    4  O   UNL     1     -12.950  13.366  65.579  1.00  0.00    -0.544 OA 
BRANCH   3   5
HETATM    5  C   UNL     1     -10.606  12.893  65.649  1.00  0.00    -0.295 C  
HETATM    6  C   UNL     1     -10.333  11.967  64.699  1.00  0.00    -0.284 C  
HETATM    7  C   UNL     1     -11.075  11.768  63.399  1.00  0.00    -0.448 C  
HETATM    8  N   UNL     1      -9.295  11.072  64.894  1.00  0.00    -0.216 NA 
HETATM    9  C   UNL     1      -8.599  10.913  66.077  1.00  0.00    -0.177 C  
HETATM   10  C   UNL     1      -8.797  11.783  67.097  1.00  0.00    -0.173 C  
HETATM   11  C   UNL     1      -7.628   9.755  66.103  1.00  0.00    -0.101 C  
HETATM   12  C   UNL     1      -9.761  12.973  66.933  1.00  0.00    -0.238 C  
BRANCH  10  13
HETATM   13  C   UNL     1      -7.996  11.650  68.347  1.00  0.00    -0.140 C  
HETATM   14  O   UNL     1      -7.146  12.439  68.733  1.00  0.00    -0.097 OA 
BRANCH  13  15
HETATM   15  O   UNL     1      -8.497  10.637  69.096  1.00  0.00    -0.153 OA 
BRANCH  15  16
HETATM   16  C   UNL     1      -7.499   9.946  69.866  1.00  0.00    -0.154 C  
BRANCH  16  17
HETATM   17  C   UNL     1      -8.251   8.856  70.644  1.00  0.00    -0.162 C  
BRANCH  17  18
HETATM   18  N   UNL     1      -9.466   8.307  70.027  1.00  0.00    -0.166 NA 
HETATM   19  C   UNL     1      -9.134   7.564  68.808  1.00  0.00    -0.135 C  
BRANCH  18  20
HETATM   20  C   UNL     1     -10.151   7.407  70.986  1.00  0.00    -0.190 C  
BRANCH  20  21
HETATM   21  C   UNL     1     -11.553   7.869  71.341  1.00  0.00    -0.304 A  
HETATM   22  C   UNL     1     -12.638   6.987  71.231  1.00  0.00    -0.418 A  
HETATM   23  C   UNL     1     -13.939   7.427  71.466  1.00  0.00    -0.517 A  
HETATM   24  C   UNL     1     -14.172   8.754  71.824  1.00  0.00    -0.443 A  
HETATM   25  C   UNL     1     -13.102   9.638  71.957  1.00  0.00    -0.537 A  
HETATM   26  C   UNL     1     -11.797   9.199  71.721  1.00  0.00    -0.453 A  
ENDBRANCH  20  21
ENDBRANCH  18  20
ENDBRANCH  17  18
ENDBRANCH  16  17
ENDBRANCH  15  16
ENDBRANCH  13  15
ENDBRANCH  10  13
BRANCH  12  27
HETATM   27  C   UNL     1     -10.639  13.166  68.173  1.00  0.00    -0.257 A  
HETATM   28  C   UNL     1     -12.229  12.295  69.787  1.00  0.00    -0.201 A  
HETATM   29  O   UNL     1     -10.874  16.821  70.138  1.00  0.00    -0.257 OA 
HETATM   30  C   UNL     1     -10.714  14.427  68.798  1.00  0.00    -0.258 A  
HETATM   31  O   UNL     1     -12.348  16.032  71.558  1.00  0.00    -0.442 OA 
HETATM   32  C   UNL     1     -11.537  14.606  69.916  1.00  0.00    -0.285 A  
HETATM   33  C   UNL     1     -11.393  12.103  68.689  1.00  0.00    -0.330 A  
HETATM   34  C   UNL     1     -12.308  13.546  70.403  1.00  0.00    -0.397 A  
HETATM   35  N   UNL     1     -11.589  15.913  70.584  1.00  0.00    -0.374 N  
ENDBRANCH  12  27
ENDBRANCH   3   5
ENDBRANCH   2   3
TORSDOF 10
ENDMDL
MODEL       15
REMARK 921   NORMALIZED FREE ENERGY PREDICTED BY IDOCK:   -6.42 KCAL/MOL
REMARK 922        TOTAL FREE ENERGY PREDICTED BY IDOCK:  -11.69 KCAL/MOL
REMARK 923 INTER-LIGAND FREE ENERGY PREDICTED BY IDOCK:   -8.46 KCAL/MOL
REMARK 924 INTRA-LIGAND FREE ENERGY PREDICTED BY IDOCK:   -3.23 KCAL/MOL
REMARK 927      BINDING AFFINITY PREDICTED BY RF-SCORE:    0.00 PKD
ROOT
HETATM    1  C   UNL     1     -12.187  12.818  70.437  1.00  0.00    -0.293 C  
HETATM    2  O   UNL     1     -11.205  12.143  69.642  1.00  0.00    -0.183 OA 
ENDROOT
BRANCH   2   3
HETATM    3  C   UNL     1     -11.621  10.924  69.214  1.00  0.00    -0.318 C  
HETATM    4  O   UNL     1     -12.783  10.545  69.211  1.00  0.00    -0.128 OA 
BRANCH   3   5
HETATM    5  C   UNL     1     -10.475  10.080  68.791  1.00  0.00    -0.229 C  
HETATM    6  C   UNL     1      -9.724   9.434  69.714  1.00  0.00    -0.199 C  
HETATM    7  C   UNL     1      -9.981   9.379  71.202  1.00  0.00    -0.311 C  
HETATM    8  N   UNL     1      -8.584   8.756  69.317  1.00  0.00    -0.129 NA 
HETATM    9  C   UNL     1      -8.024   8.822  68.056  1.00  0.00    -0.106 C  
HETATM   10  C   UNL     1      -8.688   9.449  67.056  1.00  0.00    -0.135 C  
HETATM   11  C   UNL     1      -6.685   8.136  67.909  1.00  0.00    -0.065 C  
HETATM   12  C   UNL     1     -10.085  10.051  67.302  1.00  0.00    -0.259 C  
BRANCH  10  13
HETATM   13  C   UNL     1      -8.113   9.459  65.680  1.00  0.00    -0.112 C  
HETATM   14  O   UNL     1      -7.145  10.113  65.320  1.00  0.00    -0.127 OA 
BRANCH  13  15
HETATM   15  O   UNL     1      -8.691   8.479  64.945  1.00  0.00    -0.153 OA 
BRANCH  15  16
HETATM   16  C   UNL     1      -7.777   7.818  64.053  1.00  0.00    -0.126 C  
BRANCH  16  17
HETATM   17  C   UNL     1      -7.487   6.450  64.688  1.00  0.00    -0.091 C  
BRANCH  17  18
HETATM   18  N   UNL     1      -8.641   5.657  65.131  1.00  0.00    -0.150 NA 
HETATM   19  C   UNL     1      -8.992   4.651  64.125  1.00  0.00    -0.126 C  
BRANCH  18  20
HETATM   20  C   UNL     1      -8.323   4.985  66.415  1.00  0.00    -0.108 C  
BRANCH  20  21
HETATM   21  C   UNL     1      -9.227   5.415  67.555  1.00  0.00    -0.114 A  
HETATM   22  C   UNL     1      -8.936   5.033  68.873  1.00  0.00    -0.127 A  
HETATM   23  C   UNL     1      -9.809   5.344  69.914  1.00  0.00    -0.268 A  
HETATM   24  C   UNL     1     -10.982   6.050  69.652  1.00  0.00    -0.470 A  
HETATM   25  C   UNL     1     -11.276   6.455  68.351  1.00  0.00    -0.297 A  
HETATM   26  C   UNL     1     -10.403   6.142  67.305  1.00  0.00    -0.272 A  
ENDBRANCH  20  21
ENDBRANCH  18  20
ENDBRANCH  17  18
ENDBRANCH  16  17
ENDBRANCH  15  16
ENDBRANCH  13  15
ENDBRANCH  10  13
BRANCH  12  27
HETATM   27  C   UNL     1     -10.227  11.433  66.657  1.00  0.00    -0.258 A  
HETATM   28  C   UNL     1      -9.526  13.747  66.453  1.00  0.00    -0.259 A  
HETATM   29  O   UNL     1     -13.157  12.226  63.817  1.00  0.00    -0.780 OA 
HETATM   30  C   UNL     1     -11.249  11.672  65.716  1.00  0.00    -0.290 A  
HETATM   31  O   UNL     1     -12.543  14.327  63.681  1.00  0.00    -0.831 OA 
HETATM   32  C   UNL     1     -11.393  12.942  65.147  1.00  0.00    -0.298 A  
HETATM   33  C   UNL     1      -9.362  12.478  67.005  1.00  0.00    -0.210 A  
HETATM   34  C   UNL     1     -10.543  13.987  65.525  1.00  0.00    -0.327 A  
HETATM   35  N   UNL     1     -12.439  13.182  64.144  1.00  0.00    -0.311 N  
ENDBRANCH  12  27
ENDBRANCH   3   5
ENDBRANCH   2   3
TORSDOF 10
ENDMDL
MODEL       16
REMARK 921   NORMALIZED FREE ENERGY PREDICTED BY IDOCK:   -6.39 KCAL/MOL
REMARK 922        TOTAL FREE ENERGY PREDICTED BY IDOCK:  -11.65 KCAL/MOL
REMARK 923 INTER-LIGAND FREE ENERGY PREDICTED BY IDOCK:   -8.67 KCAL/MOL
REMARK 924 INTRA-LIGAND FREE ENERGY PREDICTED BY IDOCK:   -2.98 KCAL/MOL
REMARK 927      BINDING AFFINITY PREDICTED BY RF-SCORE:    0.00 PKD
ROOT
HETATM    1  C   UNL     1     -11.536  12.213  63.836  1.00  0.00    -0.448 C  
HETATM    2  O   UNL     1     -11.726  11.646  65.137  1.00  0.00    -0.155 OA 
ENDROOT
BRANCH   2   3
HETATM    3  C   UNL     1     -10.819  12.092  66.043  1.00  0.00    -0.289 C  
HETATM    4  O   UNL     1      -9.636  12.288  65.807  1.00  0.00    -0.241 OA 
BRANCH   3   5
HETATM    5  C   UNL     1     -11.435  12.267  67.383  1.00  0.00    -0.422 C  
HETATM    6  C   UNL     1     -11.706  13.507  67.854  1.00  0.00    -0.357 C  
HETATM    7  C   UNL     1     -11.541  14.809  67.105  1.00  0.00    -0.373 C  
HETATM    8  N   UNL     1     -12.161  13.662  69.152  1.00  0.00    -0.343 NA 
HETATM    9  C   UNL     1     -12.202  12.659  70.101  1.00  0.00    -0.238 C  
HETATM   10  C   UNL     1     -11.946  11.379  69.738  1.00  0.00    -0.422 C  
HETATM   11  C   UNL     1     -12.573  13.105  71.496  1.00  0.00    -0.292 C  
HETATM   12  C   UNL     1     -11.650  11.027  68.268  1.00  0.00    -0.354 C  
BRANCH  10  13
HETATM   13  C   UNL     1     -12.058  10.288  70.749  1.00  0.00    -0.353 C  
HETATM   14  O   UNL     1     -11.184   9.958  71.538  1.00  0.00    -0.322 OA 
BRANCH  13  15
HETATM   15  O   UNL     1     -13.342   9.860  70.807  1.00  0.00    -0.313 OA 
BRANCH  15  16
HETATM   16  C   UNL     1     -13.633   9.077  71.977  1.00  0.00    -0.445 C  
BRANCH  16  17
HETATM   17  C   UNL     1     -13.543   7.610  71.532  1.00  0.00    -0.353 C  
BRANCH  17  18
HETATM   18  N   UNL     1     -12.278   6.908  71.785  1.00  0.00    -0.342 NA 
HETATM   19  C   UNL     1     -12.500   5.735  72.634  1.00  0.00     0.301 C  
BRANCH  18  20
HETATM   20  C   UNL     1     -11.677   6.482  70.497  1.00  0.00    -0.375 C  
BRANCH  20  21
HETATM   21  C   UNL     1     -10.216   6.089  70.621  1.00  0.00    -0.260 A  
HETATM   22  C   UNL     1      -9.282   6.992  71.150  1.00  0.00    -0.157 A  
HETATM   23  C   UNL     1      -7.926   6.676  71.182  1.00  0.00    -0.107 A  
HETATM   24  C   UNL     1      -7.485   5.447  70.693  1.00  0.00    -0.079 A  
HETATM   25  C   UNL     1      -8.403   4.530  70.183  1.00  0.00    -0.080 A  
HETATM   26  C   UNL     1      -9.763   4.846  70.148  1.00  0.00    -0.283 A  
ENDBRANCH  20  21
ENDBRANCH  18  20
ENDBRANCH  17  18
ENDBRANCH  16  17
ENDBRANCH  15  16
ENDBRANCH  13  15
ENDBRANCH  10  13
BRANCH  12  27
HETATM   27  C   UNL     1     -10.485  10.040  68.146  1.00  0.00    -0.250 A  
HETATM   28  C   UNL     1      -8.120   9.534  68.351  1.00  0.00    -0.101 A  
HETATM   29  O   UNL     1     -11.039   6.167  66.744  1.00  0.00    -0.322 OA 
HETATM   30  C   UNL     1     -10.706   8.743  67.642  1.00  0.00    -0.206 A  
HETATM   31  O   UNL     1      -8.892   5.742  66.888  1.00  0.00    -0.114 OA 
HETATM   32  C   UNL     1      -9.635   7.852  67.507  1.00  0.00    -0.152 A  
HETATM   33  C   UNL     1      -9.186  10.418  68.511  1.00  0.00    -0.145 A  
HETATM   34  C   UNL     1      -8.338   8.250  67.846  1.00  0.00    -0.128 A  
HETATM   35  N   UNL     1      -9.873   6.490  67.011  1.00  0.00    -0.148 N  
ENDBRANCH  12  27
ENDBRANCH   3   5
ENDBRANCH   2   3
TORSDOF 10
ENDMDL
MODEL       17
REMARK 921   NORMALIZED FREE ENERGY PREDICTED BY IDOCK:   -6.35 KCAL/MOL
REMARK 922        TOTAL FREE ENERGY PREDICTED BY IDOCK:  -11.58 KCAL/MOL
REMARK 923 INTER-LIGAND FREE ENERGY PREDICTED BY IDOCK:  -10.48 KCAL/MOL
REMARK 924 INTRA-LIGAND FREE ENERGY PREDICTED BY IDOCK:   -1.09 KCAL/MOL
REMARK 927      BINDING AFFINITY PREDICTED BY RF-SCORE:    0.00 PKD
ROOT
HETATM    1  C   UNL     1     -10.207   4.861  66.208  1.00  0.00    -0.279 C  
HETATM    2  O   UNL     1     -10.038   5.730  67.333  1.00  0.00    -0.143 OA 
ENDROOT
BRANCH   2   3
HETATM    3  C   UNL     1      -8.993   6.585  67.186  1.00  0.00    -0.113 C  
HETATM    4  O   UNL     1      -7.852   6.364  67.564  1.00  0.00    -0.102 OA 
BRANCH   3   5
HETATM    5  C   UNL     1      -9.422   7.855  66.548  1.00  0.00    -0.277 C  
HETATM    6  C   UNL     1      -8.910   8.225  65.349  1.00  0.00    -0.073 C  
HETATM    7  C   UNL     1      -7.979   7.412  64.481  1.00  0.00    -0.122 C  
HETATM    8  N   UNL     1      -9.220   9.468  64.827  1.00  0.00    -0.231 NA 
HETATM    9  C   UNL     1      -9.881  10.471  65.510  1.00  0.00    -0.265 C  
HETATM   10  C   UNL     1     -10.429  10.212  66.722  1.00  0.00    -0.270 C  
HETATM   11  C   UNL     1      -9.951  11.801  64.795  1.00  0.00    -0.275 C  
HETATM   12  C   UNL     1     -10.360   8.796  67.324  1.00  0.00    -0.360 C  
BRANCH  10  13
HETATM   13  C   UNL     1     -11.200  11.276  67.426  1.00  0.00    -0.303 C  
HETATM   14  O   UNL     1     -12.252  11.112  68.026  1.00  0.00    -0.584 OA 
BRANCH  13  15
HETATM   15  O   UNL     1     -10.455  12.407  67.483  1.00  0.00    -0.212 OA 
BRANCH  15  16
HETATM   16  C   UNL     1     -11.223  13.585  67.782  1.00  0.00    -0.282 C  
BRANCH  16  17
HETATM   17  C   UNL     1     -10.201  14.660  68.182  1.00  0.00    -0.231 C  
BRANCH  17  18
HETATM   18  N   UNL     1     -10.680  15.755  69.036  1.00  0.00    -0.221 NA 
HETATM   19  C   UNL     1     -10.553  17.041  68.344  1.00  0.00    -0.375 C  
BRANCH  18  20
HETATM   20  C   UNL     1     -12.100  15.523  69.396  1.00  0.00    -0.277 C  
BRANCH  20  21
HETATM   21  C   UNL     1     -12.313  15.323  70.886  1.00  0.00    -0.433 A  
HETATM   22  C   UNL     1     -13.092  14.254  71.352  1.00  0.00    -0.421 A  
HETATM   23  C   UNL     1     -13.369  14.116  72.711  1.00  0.00    -0.618 A  
HETATM   24  C   UNL     1     -12.865  15.041  73.623  1.00  0.00    -0.583 A  
HETATM   25  C   UNL     1     -12.073  16.098  73.178  1.00  0.00    -0.621 A  
HETATM   26  C   UNL     1     -11.794  16.239  71.816  1.00  0.00    -0.510 A  
ENDBRANCH  20  21
ENDBRANCH  18  20
ENDBRANCH  17  18
ENDBRANCH  16  17
ENDBRANCH  15  16
ENDBRANCH  13  15
ENDBRANCH  10  13
BRANCH  12  27
HETATM   27  C   UNL     1     -10.012   8.832  68.816  1.00  0.00    -0.197 A  
HETATM   28  C   UNL     1      -8.470   9.376  70.609  1.00  0.00    -0.239 A  
HETATM   29  O   UNL     1     -12.589   7.305  71.698  1.00  0.00    -0.336 OA 
HETATM   30  C   UNL     1     -10.899   8.281  69.762  1.00  0.00    -0.186 A  
HETATM   31  O   UNL     1     -11.163   7.757  73.301  1.00  0.00    -0.350 OA 
HETATM   32  C   UNL     1     -10.568   8.292  71.122  1.00  0.00    -0.214 A  
HETATM   33  C   UNL     1      -8.805   9.390  69.256  1.00  0.00    -0.150 A  
HETATM   34  C   UNL     1      -9.346   8.824  71.546  1.00  0.00    -0.337 A  
HETATM   35  N   UNL     1     -11.507   7.746  72.110  1.00  0.00    -0.291 N  
ENDBRANCH  12  27
ENDBRANCH   3   5
ENDBRANCH   2   3
TORSDOF 10
ENDMDL
MODEL       18
REMARK 921   NORMALIZED FREE ENERGY PREDICTED BY IDOCK:   -6.34 KCAL/MOL
REMARK 922        TOTAL FREE ENERGY PREDICTED BY IDOCK:  -11.57 KCAL/MOL
REMARK 923 INTER-LIGAND FREE ENERGY PREDICTED BY IDOCK:   -9.95 KCAL/MOL
REMARK 924 INTRA-LIGAND FREE ENERGY PREDICTED BY IDOCK:   -1.61 KCAL/MOL
REMARK 927      BINDING AFFINITY PREDICTED BY RF-SCORE:    0.00 PKD
ROOT
HETATM    1  C   UNL     1     -11.912  15.483  73.133  1.00  0.00    -0.466 C  
HETATM    2  O   UNL     1     -11.453  15.242  71.799  1.00  0.00    -0.393 OA 
ENDROOT
BRANCH   2   3
HETATM    3  C   UNL     1     -12.469  15.121  70.906  1.00  0.00    -0.365 C  
HETATM    4  O   UNL     1     -13.470  15.822  70.889  1.00  0.00    -0.568 OA 
BRANCH   3   5
HETATM    5  C   UNL     1     -12.235  13.989  69.973  1.00  0.00    -0.414 C  
HETATM    6  C   UNL     1     -12.452  12.715  70.377  1.00  0.00    -0.143 C  
HETATM    7  C   UNL     1     -13.030  12.278  71.702  1.00  0.00    -0.416 C  
HETATM    8  N   UNL     1     -12.110  11.665  69.543  1.00  0.00    -0.295 NA 
HETATM    9  C   UNL     1     -11.384  11.788  68.373  1.00  0.00    -0.270 C  
HETATM   10  C   UNL     1     -11.108  13.019  67.879  1.00  0.00    -0.282 C  
HETATM   11  C   UNL     1     -10.983  10.484  67.723  1.00  0.00    -0.372 C  
HETATM   12  C   UNL     1     -11.632  14.282  68.588  1.00  0.00    -0.352 C  
BRANCH  10  13
HETATM   13  C   UNL     1     -10.384  13.148  66.582  1.00  0.00    -0.265 C  
HETATM   14  O   UNL     1      -9.172  13.105  66.437  1.00  0.00    -0.218 OA 
BRANCH  13  15
HETATM   15  O   UNL     1     -11.278  13.110  65.564  1.00  0.00    -0.280 OA 
BRANCH  15  16
HETATM   16  C   UNL     1     -10.686  12.793  64.293  1.00  0.00    -0.394 C  
BRANCH  16  17
HETATM   17  C   UNL     1     -10.898  11.284  64.097  1.00  0.00    -0.337 C  
BRANCH  17  18
HETATM   18  N   UNL     1      -9.769  10.512  63.562  1.00  0.00    -0.320 NA 
HETATM   19  C   UNL     1      -9.074  11.271  62.519  1.00  0.00    -0.237 C  
BRANCH  18  20
HETATM   20  C   UNL     1      -8.821  10.190  64.656  1.00  0.00    -0.196 C  
BRANCH  20  21
HETATM   21  C   UNL     1      -8.587   8.700  64.825  1.00  0.00    -0.139 A  
HETATM   22  C   UNL     1      -9.043   8.037  65.975  1.00  0.00    -0.193 A  
HETATM   23  C   UNL     1      -8.753   6.690  66.181  1.00  0.00    -0.154 A  
HETATM   24  C   UNL     1      -8.010   5.984  65.237  1.00  0.00    -0.117 A  
HETATM   25  C   UNL     1      -7.568   6.622  64.080  1.00  0.00    -0.108 A  
HETATM   26  C   UNL     1      -7.856   7.974  63.871  1.00  0.00    -0.142 A  
ENDBRANCH  20  21
ENDBRANCH  18  20
ENDBRANCH  17  18
ENDBRANCH  16  17
ENDBRANCH  15  16
ENDBRANCH  13  15
ENDBRANCH  10  13
BRANCH  12  27
HETATM   27  C   UNL     1     -10.562  15.376  68.661  1.00  0.00    -0.239 A  
HETATM   28  C   UNL     1      -8.341  16.114  69.305  1.00  0.00    -0.178 A  
HETATM   29  O   UNL     1     -11.281  19.232  67.285  1.00  0.00    -0.340 OA 
HETATM   30  C   UNL     1     -10.850  16.679  68.208  1.00  0.00    -0.356 A  
HETATM   31  O   UNL     1      -9.289  19.895  67.919  1.00  0.00    -0.336 OA 
HETATM   32  C   UNL     1      -9.879  17.683  68.299  1.00  0.00    -0.324 A  
HETATM   33  C   UNL     1      -9.295  15.104  69.195  1.00  0.00    -0.215 A  
HETATM   34  C   UNL     1      -8.629  17.407  68.863  1.00  0.00    -0.151 A  
HETATM   35  N   UNL     1     -10.171  19.032  67.799  1.00  0.00    -0.379 N  
ENDBRANCH  12  27
ENDBRANCH   3   5
ENDBRANCH   2   3
TORSDOF 10
ENDMDL
MODEL       19
REMARK 921   NORMALIZED FREE ENERGY PREDICTED BY IDOCK:   -6.33 KCAL/MOL
REMARK 922        TOTAL FREE ENERGY PREDICTED BY IDOCK:  -11.55 KCAL/MOL
REMARK 923 INTER-LIGAND FREE ENERGY PREDICTED BY IDOCK:  -10.58 KCAL/MOL
REMARK 924 INTRA-LIGAND FREE ENERGY PREDICTED BY IDOCK:   -0.98 KCAL/MOL
REMARK 927      BINDING AFFINITY PREDICTED BY RF-SCORE:    0.00 PKD
ROOT
HETATM    1  C   UNL     1     -10.090  10.735  63.526  1.00  0.00    -0.302 C  
HETATM    2  O   UNL     1     -10.091  10.134  64.825  1.00  0.00    -0.331 OA 
ENDROOT
BRANCH   2   3
HETATM    3  C   UNL     1      -9.180  10.690  65.664  1.00  0.00    -0.196 C  
HETATM    4  O   UNL     1      -8.064  11.063  65.334  1.00  0.00    -0.050 OA 
BRANCH   3   5
HETATM    5  C   UNL     1      -9.692  10.746  67.057  1.00  0.00    -0.205 C  
HETATM    6  C   UNL     1      -9.794   9.614  67.794  1.00  0.00    -0.159 C  
HETATM    7  C   UNL     1      -9.333   8.235  67.390  1.00  0.00    -0.171 C  
HETATM    8  N   UNL     1     -10.392   9.662  69.042  1.00  0.00    -0.197 NA 
HETATM    9  C   UNL     1     -11.072  10.751  69.552  1.00  0.00    -0.278 C  
HETATM   10  C   UNL     1     -11.039  11.934  68.894  1.00  0.00    -0.299 C  
HETATM   11  C   UNL     1     -11.788  10.508  70.861  1.00  0.00    -0.455 C  
HETATM   12  C   UNL     1     -10.214  12.088  67.602  1.00  0.00    -0.210 C  
BRANCH  10  13
HETATM   13  C   UNL     1     -11.717  13.125  69.481  1.00  0.00    -0.319 C  
HETATM   14  O   UNL     1     -12.898  13.189  69.791  1.00  0.00     0.227 OA 
BRANCH  13  15
HETATM   15  O   UNL     1     -10.787  14.052  69.816  1.00  0.00    -0.067 OA 
BRANCH  15  16
HETATM   16  C   UNL     1     -11.351  15.292  70.272  1.00  0.00    -0.292 C  
BRANCH  16  17
HETATM   17  C   UNL     1     -11.105  16.305  69.144  1.00  0.00    -0.322 C  
BRANCH  17  18
HETATM   18  N   UNL     1      -9.844  17.057  69.181  1.00  0.00    -0.236 NA 
HETATM   19  C   UNL     1      -8.790  16.332  68.465  1.00  0.00    -0.219 C  
BRANCH  18  20
HETATM   20  C   UNL     1     -10.038  18.390  68.560  1.00  0.00    -0.384 C  
BRANCH  20  21
HETATM   21  C   UNL     1      -8.736  19.127  68.307  1.00  0.00    -0.375 A  
HETATM   22  C   UNL     1      -7.775  19.236  69.323  1.00  0.00    -0.190 A  
HETATM   23  C   UNL     1      -6.618  19.989  69.130  1.00  0.00    -0.345 A  
HETATM   24  C   UNL     1      -6.402  20.636  67.915  1.00  0.00    -0.351 A  
HETATM   25  C   UNL     1      -7.338  20.521  66.888  1.00  0.00    -0.349 A  
HETATM   26  C   UNL     1      -8.499  19.768  67.079  1.00  0.00    -0.366 A  
ENDBRANCH  20  21
ENDBRANCH  18  20
ENDBRANCH  17  18
ENDBRANCH  16  17
ENDBRANCH  15  16
ENDBRANCH  13  15
ENDBRANCH  10  13
BRANCH  12  27
HETATM   27  C   UNL     1     -10.980  12.869  66.530  1.00  0.00    -0.300 A  
HETATM   28  C   UNL     1     -12.761  13.003  64.886  1.00  0.00    -0.456 A  
HETATM   29  O   UNL     1      -9.856  16.710  65.405  1.00  0.00    -0.538 OA 
HETATM   30  C   UNL     1     -10.555  14.160  66.156  1.00  0.00    -0.293 A  
HETATM   31  O   UNL     1     -11.439  16.795  63.890  1.00  0.00    -1.116 OA 
HETATM   32  C   UNL     1     -11.241  14.862  65.159  1.00  0.00    -0.386 A  
HETATM   33  C   UNL     1     -12.097  12.308  65.896  1.00  0.00    -0.261 A  
HETATM   34  C   UNL     1     -12.335  14.279  64.511  1.00  0.00    -0.432 A  
HETATM   35  N   UNL     1     -10.815  16.218  64.793  1.00  0.00    -0.351 N  
ENDBRANCH  12  27
ENDBRANCH   3   5
ENDBRANCH   2   3
TORSDOF 10
ENDMDL
MODEL       20
REMARK 921   NORMALIZED FREE ENERGY PREDICTED BY IDOCK:   -6.31 KCAL/MOL
REMARK 922        TOTAL FREE ENERGY PREDICTED BY IDOCK:  -11.52 KCAL/MOL
REMARK 923 INTER-LIGAND FREE ENERGY PREDICTED BY IDOCK:   -8.62 KCAL/MOL
REMARK 924 INTRA-LIGAND FREE ENERGY PREDICTED BY IDOCK:   -2.90 KCAL/MOL
REMARK 927      BINDING AFFINITY PREDICTED BY RF-SCORE:    0.00 PKD
ROOT
HETATM    1  C   UNL     1     -11.896  12.673  63.568  1.00  0.00    -0.541 C  
HETATM    2  O   UNL     1     -11.998  11.938  64.792  1.00  0.00    -0.263 OA 
ENDROOT
BRANCH   2   3
HETATM    3  C   UNL     1     -11.014  12.247  65.676  1.00  0.00    -0.299 C  
HETATM    4  O   UNL     1      -9.830  12.355  65.392  1.00  0.00    -0.252 OA 
BRANCH   3   5
HETATM    5  C   UNL     1     -11.551  12.392  67.052  1.00  0.00    -0.434 C  
HETATM    6  C   UNL     1     -11.840  13.619  67.548  1.00  0.00    -0.381 C  
HETATM    7  C   UNL     1     -11.775  14.929  66.798  1.00  0.00    -0.243 C  
HETATM    8  N   UNL     1     -12.218  13.751  68.873  1.00  0.00    -0.299 NA 
HETATM    9  C   UNL     1     -12.160  12.743  69.816  1.00  0.00    -0.237 C  
HETATM   10  C   UNL     1     -11.876  11.475  69.430  1.00  0.00    -0.417 C  
HETATM   11  C   UNL     1     -12.459  13.169  71.235  1.00  0.00    -0.327 C  
HETATM   12  C   UNL     1     -11.660  11.141  67.942  1.00  0.00    -0.328 C  
BRANCH  10  13
HETATM   13  C   UNL     1     -11.881  10.378  70.439  1.00  0.00    -0.328 C  
HETATM   14  O   UNL     1     -10.933  10.051  71.137  1.00  0.00    -0.302 OA 
BRANCH  13  15
HETATM   15  O   UNL     1     -13.150   9.937  70.617  1.00  0.00    -0.242 OA 
BRANCH  15  16
HETATM   16  C   UNL     1     -13.369   9.321  71.897  1.00  0.00    -0.429 C  
BRANCH  16  17
HETATM   17  C   UNL     1     -13.436   7.810  71.629  1.00  0.00    -0.349 C  
BRANCH  17  18
HETATM   18  N   UNL     1     -12.166   7.072  71.627  1.00  0.00    -0.339 NA 
HETATM   19  C   UNL     1     -12.250   5.898  72.499  1.00  0.00     0.032 C  
BRANCH  18  20
HETATM   20  C   UNL     1     -11.841   6.642  70.245  1.00  0.00    -0.316 C  
BRANCH  20  21
HETATM   21  C   UNL     1     -10.362   6.380  70.032  1.00  0.00    -0.245 A  
HETATM   22  C   UNL     1      -9.939   5.292  69.255  1.00  0.00    -0.285 A  
HETATM   23  C   UNL     1      -8.584   4.990  69.130  1.00  0.00    -0.098 A  
HETATM   24  C   UNL     1      -7.632   5.778  69.774  1.00  0.00    -0.080 A  
HETATM   25  C   UNL     1      -8.035   6.876  70.534  1.00  0.00    -0.114 A  
HETATM   26  C   UNL     1      -9.393   7.180  70.662  1.00  0.00    -0.158 A  
ENDBRANCH  20  21
ENDBRANCH  18  20
ENDBRANCH  17  18
ENDBRANCH  16  17
ENDBRANCH  15  16
ENDBRANCH  13  15
ENDBRANCH  10  13
BRANCH  12  27
HETATM   27  C   UNL     1     -10.467  10.202  67.740  1.00  0.00    -0.277 A  
HETATM   28  C   UNL     1      -9.533   8.132  66.884  1.00  0.00    -0.244 A  
HETATM   29  O   UNL     1      -6.705  11.092  69.267  1.00  0.00    -0.081 OA 
HETATM   30  C   UNL     1      -9.212  10.525  68.294  1.00  0.00    -0.152 A  
HETATM   31  O   UNL     1      -5.889   9.195  68.531  1.00  0.00    -0.041 OA 
HETATM   32  C   UNL     1      -8.129   9.653  68.130  1.00  0.00    -0.105 A  
HETATM   33  C   UNL     1     -10.609   9.007  67.023  1.00  0.00    -0.270 A  
HETATM   34  C   UNL     1      -8.291   8.448  67.439  1.00  0.00    -0.124 A  
HETATM   35  N   UNL     1      -6.815  10.006  68.682  1.00  0.00    -0.054 N  
ENDBRANCH  12  27
ENDBRANCH   3   5
ENDBRANCH   2   3
TORSDOF 10
ENDMDL
MODEL       21
REMARK 921   NORMALIZED FREE ENERGY PREDICTED BY IDOCK:   -6.31 KCAL/MOL
REMARK 922        TOTAL FREE ENERGY PREDICTED BY IDOCK:  -11.51 KCAL/MOL
REMARK 923 INTER-LIGAND FREE ENERGY PREDICTED BY IDOCK:   -9.95 KCAL/MOL
REMARK 924 INTRA-LIGAND FREE ENERGY PREDICTED BY IDOCK:   -1.57 KCAL/MOL
REMARK 927      BINDING AFFINITY PREDICTED BY RF-SCORE:    0.00 PKD
ROOT
HETATM    1  C   UNL     1     -11.340   6.069  72.146  1.00  0.00    -0.299 C  
HETATM    2  O   UNL     1     -11.668   7.341  71.577  1.00  0.00    -0.266 OA 
ENDROOT
BRANCH   2   3
HETATM    3  C   UNL     1     -10.815   8.326  71.961  1.00  0.00    -0.301 C  
HETATM    4  O   UNL     1     -10.052   8.256  72.912  1.00  0.00    -0.294 OA 
BRANCH   3   5
HETATM    5  C   UNL     1     -10.959   9.529  71.102  1.00  0.00    -0.438 C  
HETATM    6  C   UNL     1     -12.115  10.236  71.104  1.00  0.00    -0.395 C  
HETATM    7  C   UNL     1     -13.310  10.000  71.996  1.00  0.00    -0.513 C  
HETATM    8  N   UNL     1     -12.281  11.277  70.208  1.00  0.00    -0.337 NA 
HETATM    9  C   UNL     1     -11.428  11.563  69.160  1.00  0.00    -0.297 C  
HETATM   10  C   UNL     1     -10.244  10.912  69.059  1.00  0.00    -0.219 C  
HETATM   11  C   UNL     1     -11.908  12.638  68.212  1.00  0.00    -0.354 C  
HETATM   12  C   UNL     1      -9.823   9.885  70.127  1.00  0.00    -0.272 C  
BRANCH  10  13
HETATM   13  C   UNL     1      -9.294  11.271  67.967  1.00  0.00    -0.166 C  
HETATM   14  O   UNL     1      -9.365  10.885  66.809  1.00  0.00    -0.162 OA 
BRANCH  13  15
HETATM   15  O   UNL     1      -8.467  12.254  68.397  1.00  0.00    -0.170 OA 
BRANCH  15  16
HETATM   16  C   UNL     1      -8.128  13.206  67.374  1.00  0.00    -0.179 C  
BRANCH  16  17
HETATM   17  C   UNL     1      -8.742  14.541  67.825  1.00  0.00    -0.174 C  
BRANCH  17  18
HETATM   18  N   UNL     1      -9.470  15.319  66.815  1.00  0.00    -0.232 NA 
HETATM   19  C   UNL     1      -9.997  14.440  65.768  1.00  0.00    -0.329 C  
BRANCH  18  20
HETATM   20  C   UNL     1     -10.590  16.049  67.459  1.00  0.00    -0.313 C  
BRANCH  20  21
HETATM   21  C   UNL     1     -10.425  17.558  67.412  1.00  0.00    -0.342 A  
HETATM   22  C   UNL     1     -10.476  18.237  66.186  1.00  0.00    -0.403 A  
HETATM   23  C   UNL     1     -10.234  19.608  66.122  1.00  0.00    -0.604 A  
HETATM   24  C   UNL     1      -9.947  20.320  67.285  1.00  0.00    -0.580 A  
HETATM   25  C   UNL     1      -9.912  19.663  68.514  1.00  0.00    -0.542 A  
HETATM   26  C   UNL     1     -10.153  18.288  68.580  1.00  0.00    -0.407 A  
ENDBRANCH  20  21
ENDBRANCH  18  20
ENDBRANCH  17  18
ENDBRANCH  16  17
ENDBRANCH  15  16
ENDBRANCH  13  15
ENDBRANCH  10  13
BRANCH  12  27
HETATM   27  C   UNL     1      -9.210   8.631  69.497  1.00  0.00    -0.150 A  
HETATM   28  C   UNL     1      -7.329   7.127  69.193  1.00  0.00    -0.092 A  
HETATM   29  O   UNL     1     -11.344   6.260  66.831  1.00  0.00    -0.260 OA 
HETATM   30  C   UNL     1      -9.955   7.866  68.577  1.00  0.00    -0.200 A  
HETATM   31  O   UNL     1      -9.619   4.940  66.530  1.00  0.00    -0.141 OA 
HETATM   32  C   UNL     1      -9.384   6.735  67.983  1.00  0.00    -0.118 A  
HETATM   33  C   UNL     1      -7.901   8.240  69.807  1.00  0.00    -0.100 A  
HETATM   34  C   UNL     1      -8.065   6.372  68.277  1.00  0.00    -0.113 A  
HETATM   35  N   UNL     1     -10.172   5.921  67.049  1.00  0.00    -0.184 N  
ENDBRANCH  12  27
ENDBRANCH   3   5
ENDBRANCH   2   3
TORSDOF 10
ENDMDL
MODEL       22
REMARK 921   NORMALIZED FREE ENERGY PREDICTED BY IDOCK:   -6.27 KCAL/MOL
REMARK 922        TOTAL FREE ENERGY PREDICTED BY IDOCK:  -11.46 KCAL/MOL
REMARK 923 INTER-LIGAND FREE ENERGY PREDICTED BY IDOCK:   -9.48 KCAL/MOL
REMARK 924 INTRA-LIGAND FREE ENERGY PREDICTED BY IDOCK:   -1.98 KCAL/MOL
REMARK 927      BINDING AFFINITY PREDICTED BY RF-SCORE:    0.00 PKD
ROOT
HETATM    1  C   UNL     1      -5.728  14.446  68.406  1.00  0.00    -0.106 C  
HETATM    2  O   UNL     1      -7.024  13.838  68.382  1.00  0.00    -0.085 OA 
ENDROOT
BRANCH   2   3
HETATM    3  C   UNL     1      -8.028  14.731  68.573  1.00  0.00    -0.136 C  
HETATM    4  O   UNL     1      -8.293  15.265  69.640  1.00  0.00    -0.235 OA 
BRANCH   3   5
HETATM    5  C   UNL     1      -8.805  14.945  67.325  1.00  0.00    -0.216 C  
HETATM    6  C   UNL     1      -8.749  16.135  66.681  1.00  0.00    -0.265 C  
HETATM    7  C   UNL     1      -7.869  17.309  67.036  1.00  0.00    -0.243 C  
HETATM    8  N   UNL     1      -9.575  16.363  65.593  1.00  0.00    -0.507 NA 
HETATM    9  C   UNL     1     -10.606  15.535  65.195  1.00  0.00    -0.431 C  
HETATM   10  C   UNL     1     -10.757  14.320  65.776  1.00  0.00    -0.308 C  
HETATM   11  C   UNL     1     -11.479  16.078  64.087  1.00  0.00    -0.018 C  
HETATM   12  C   UNL     1      -9.761  13.837  66.848  1.00  0.00    -0.265 C  
BRANCH  10  13
HETATM   13  C   UNL     1     -11.828  13.400  65.298  1.00  0.00    -0.348 C  
HETATM   14  O   UNL     1     -13.007  13.455  65.617  1.00  0.00    -0.443 OA 
BRANCH  13  15
HETATM   15  O   UNL     1     -11.342  12.628  64.296  1.00  0.00    -0.321 OA 
BRANCH  15  16
HETATM   16  C   UNL     1     -10.938  11.318  64.727  1.00  0.00    -0.192 C  
BRANCH  16  17
HETATM   17  C   UNL     1      -9.666  10.989  63.930  1.00  0.00    -0.292 C  
BRANCH  17  18
HETATM   18  N   UNL     1      -8.971   9.738  64.262  1.00  0.00    -0.225 NA 
HETATM   19  C   UNL     1      -7.600   9.757  63.743  1.00  0.00    -0.131 C  
BRANCH  18  20
HETATM   20  C   UNL     1      -8.941   9.559  65.734  1.00  0.00    -0.179 C  
BRANCH  20  21
HETATM   21  C   UNL     1      -9.400   8.182  66.178  1.00  0.00    -0.232 A  
HETATM   22  C   UNL     1      -8.716   7.036  65.749  1.00  0.00    -0.116 A  
HETATM   23  C   UNL     1      -9.184   5.764  66.075  1.00  0.00    -0.155 A  
HETATM   24  C   UNL     1     -10.338   5.622  66.843  1.00  0.00    -0.312 A  
HETATM   25  C   UNL     1     -11.018   6.752  67.295  1.00  0.00    -0.433 A  
HETATM   26  C   UNL     1     -10.552   8.028  66.968  1.00  0.00    -0.364 A  
ENDBRANCH  20  21
ENDBRANCH  18  20
ENDBRANCH  17  18
ENDBRANCH  16  17
ENDBRANCH  15  16
ENDBRANCH  13  15
ENDBRANCH  10  13
BRANCH  12  27
HETATM   27  C   UNL     1     -10.476  13.166  68.024  1.00  0.00    -0.245 A  
HETATM   28  C   UNL     1     -11.012  11.179  69.311  1.00  0.00    -0.300 A  
HETATM   29  O   UNL     1     -12.925  15.316  70.605  1.00  0.00    -0.407 OA 
HETATM   30  C   UNL     1     -11.319  13.922  68.864  1.00  0.00    -0.319 A  
HETATM   31  O   UNL     1     -13.438  13.503  71.727  1.00  0.00    -0.385 OA 
HETATM   32  C   UNL     1     -11.992  13.302  69.923  1.00  0.00    -0.330 A  
HETATM   33  C   UNL     1     -10.320  11.796  68.270  1.00  0.00    -0.217 A  
HETATM   34  C   UNL     1     -11.853  11.927  70.139  1.00  0.00    -0.390 A  
HETATM   35  N   UNL     1     -12.845  14.097  70.815  1.00  0.00    -0.329 N  
ENDBRANCH  12  27
ENDBRANCH   3   5
ENDBRANCH   2   3
TORSDOF 10
ENDMDL
MODEL       23
REMARK 921   NORMALIZED FREE ENERGY PREDICTED BY IDOCK:   -6.27 KCAL/MOL
REMARK 922        TOTAL FREE ENERGY PREDICTED BY IDOCK:  -11.46 KCAL/MOL
REMARK 923 INTER-LIGAND FREE ENERGY PREDICTED BY IDOCK:   -9.01 KCAL/MOL
REMARK 924 INTRA-LIGAND FREE ENERGY PREDICTED BY IDOCK:   -2.44 KCAL/MOL
REMARK 927      BINDING AFFINITY PREDICTED BY RF-SCORE:    0.00 PKD
ROOT
HETATM    1  C   UNL     1      -7.610   6.330  69.409  1.00  0.00    -0.098 C  
HETATM    2  O   UNL     1      -8.653   6.457  70.381  1.00  0.00    -0.138 OA 
ENDROOT
BRANCH   2   3
HETATM    3  C   UNL     1      -8.453   7.494  71.235  1.00  0.00    -0.116 C  
HETATM    4  O   UNL     1      -7.377   7.790  71.733  1.00  0.00    -0.062 OA 
BRANCH   3   5
HETATM    5  C   UNL     1      -9.725   8.201  71.532  1.00  0.00    -0.230 C  
HETATM    6  C   UNL     1     -10.636   7.647  72.367  1.00  0.00    -0.260 C  
HETATM    7  C   UNL     1     -10.471   6.372  73.159  1.00  0.00    -0.265 C  
HETATM    8  N   UNL     1     -11.868   8.255  72.535  1.00  0.00    -0.398 NA 
HETATM    9  C   UNL     1     -12.341   9.309  71.777  1.00  0.00    -0.379 C  
HETATM   10  C   UNL     1     -11.513   9.936  70.906  1.00  0.00    -0.456 C  
HETATM   11  C   UNL     1     -13.782   9.690  72.028  1.00  0.00    -0.396 C  
HETATM   12  C   UNL     1     -10.038   9.510  70.785  1.00  0.00    -0.352 C  
BRANCH  10  13
HETATM   13  C   UNL     1     -12.005  11.117  70.140  1.00  0.00    -0.365 C  
HETATM   14  O   UNL     1     -12.500  11.082  69.023  1.00  0.00    -0.449 OA 
BRANCH  13  15
HETATM   15  O   UNL     1     -12.015  12.204  70.949  1.00  0.00    -0.213 OA 
BRANCH  15  16
HETATM   16  C   UNL     1     -12.635  13.356  70.352  1.00  0.00    -0.167 C  
BRANCH  16  17
HETATM   17  C   UNL     1     -11.507  14.377  70.141  1.00  0.00    -0.220 C  
BRANCH  17  18
HETATM   18  N   UNL     1     -11.275  14.847  68.770  1.00  0.00    -0.261 NA 
HETATM   19  C   UNL     1     -10.615  16.155  68.778  1.00  0.00    -0.279 C  
BRANCH  18  20
HETATM   20  C   UNL     1     -10.428  13.869  68.043  1.00  0.00    -0.243 C  
BRANCH  20  21
HETATM   21  C   UNL     1     -11.070  13.354  66.768  1.00  0.00    -0.308 A  
HETATM   22  C   UNL     1     -10.418  12.388  65.987  1.00  0.00    -0.281 A  
HETATM   23  C   UNL     1     -10.955  11.977  64.769  1.00  0.00    -0.361 A  
HETATM   24  C   UNL     1     -12.157  12.520  64.318  1.00  0.00    -0.507 A  
HETATM   25  C   UNL     1     -12.827  13.466  65.092  1.00  0.00    -0.380 A  
HETATM   26  C   UNL     1     -12.290  13.881  66.313  1.00  0.00    -0.489 A  
ENDBRANCH  20  21
ENDBRANCH  18  20
ENDBRANCH  17  18
ENDBRANCH  16  17
ENDBRANCH  15  16
ENDBRANCH  13  15
ENDBRANCH  10  13
BRANCH  12  27
HETATM   27  C   UNL     1      -9.585   9.444  69.323  1.00  0.00    -0.171 A  
HETATM   28  C   UNL     1      -9.836   8.563  67.076  1.00  0.00    -0.289 A  
HETATM   29  O   UNL     1      -6.290  11.578  67.958  1.00  0.00    -0.049 OA 
HETATM   30  C   UNL     1      -8.448  10.162  68.902  1.00  0.00    -0.139 A  
HETATM   31  O   UNL     1      -6.500  10.734  65.945  1.00  0.00    -0.125 OA 
HETATM   32  C   UNL     1      -8.022  10.080  67.572  1.00  0.00    -0.106 A  
HETATM   33  C   UNL     1     -10.280   8.659  68.394  1.00  0.00    -0.232 A  
HETATM   34  C   UNL     1      -8.704   9.268  66.660  1.00  0.00    -0.139 A  
HETATM   35  N   UNL     1      -6.855  10.853  67.127  1.00  0.00    -0.087 N  
ENDBRANCH  12  27
ENDBRANCH   3   5
ENDBRANCH   2   3
TORSDOF 10
ENDMDL
MODEL       24
REMARK 921   NORMALIZED FREE ENERGY PREDICTED BY IDOCK:   -6.26 KCAL/MOL
REMARK 922        TOTAL FREE ENERGY PREDICTED BY IDOCK:  -11.44 KCAL/MOL
REMARK 923 INTER-LIGAND FREE ENERGY PREDICTED BY IDOCK:   -9.42 KCAL/MOL
REMARK 924 INTRA-LIGAND FREE ENERGY PREDICTED BY IDOCK:   -2.02 KCAL/MOL
REMARK 927      BINDING AFFINITY PREDICTED BY RF-SCORE:    0.00 PKD
ROOT
HETATM    1  C   UNL     1      -6.550   8.330  73.262  1.00  0.00    -0.104 C  
HETATM    2  O   UNL     1      -6.961   8.677  71.935  1.00  0.00    -0.092 OA 
ENDROOT
BRANCH   2   3
HETATM    3  C   UNL     1      -7.996   7.921  71.489  1.00  0.00    -0.099 C  
HETATM    4  O   UNL     1      -7.912   6.746  71.164  1.00  0.00    -0.101 OA 
BRANCH   3   5
HETATM    5  C   UNL     1      -9.246   8.718  71.398  1.00  0.00    -0.325 C  
HETATM    6  C   UNL     1     -10.261   8.500  72.268  1.00  0.00    -0.325 C  
HETATM    7  C   UNL     1     -10.243   7.563  73.452  1.00  0.00    -0.399 C  
HETATM    8  N   UNL     1     -11.466   9.158  72.093  1.00  0.00    -0.276 NA 
HETATM    9  C   UNL     1     -11.804   9.907  70.982  1.00  0.00    -0.376 C  
HETATM   10  C   UNL     1     -10.865  10.183  70.045  1.00  0.00    -0.361 C  
HETATM   11  C   UNL     1     -13.237  10.385  70.938  1.00  0.00    -0.321 C  
HETATM   12  C   UNL     1      -9.412   9.705  70.229  1.00  0.00    -0.300 C  
BRANCH  10  13
HETATM   13  C   UNL     1     -11.215  11.048  68.882  1.00  0.00    -0.265 C  
HETATM   14  O   UNL     1     -11.813  10.684  67.880  1.00  0.00    -0.485 OA 
BRANCH  13  15
HETATM   15  O   UNL     1     -10.958  12.342  69.191  1.00  0.00    -0.228 OA 
BRANCH  15  16
HETATM   16  C   UNL     1     -10.086  12.993  68.252  1.00  0.00    -0.239 C  
BRANCH  16  17
HETATM   17  C   UNL     1     -10.795  14.297  67.856  1.00  0.00    -0.253 C  
BRANCH  17  18
HETATM   18  N   UNL     1     -10.631  15.449  68.751  1.00  0.00    -0.228 NA 
HETATM   19  C   UNL     1      -9.885  16.519  68.082  1.00  0.00    -0.244 C  
BRANCH  18  20
HETATM   20  C   UNL     1     -11.963  15.956  69.164  1.00  0.00    -0.255 C  
BRANCH  20  21
HETATM   21  C   UNL     1     -12.373  15.498  70.551  1.00  0.00    -0.461 A  
HETATM   22  C   UNL     1     -11.746  16.031  71.687  1.00  0.00    -0.583 A  
HETATM   23  C   UNL     1     -12.050  15.550  72.959  1.00  0.00    -0.574 A  
HETATM   24  C   UNL     1     -12.992  14.535  73.114  1.00  0.00    -0.577 A  
HETATM   25  C   UNL     1     -13.639  14.008  71.997  1.00  0.00    -0.552 A  
HETATM   26  C   UNL     1     -13.334  14.488  70.720  1.00  0.00    -0.240 A  
ENDBRANCH  20  21
ENDBRANCH  18  20
ENDBRANCH  17  18
ENDBRANCH  16  17
ENDBRANCH  15  16
ENDBRANCH  13  15
ENDBRANCH  10  13
BRANCH  12  27
HETATM   27  C   UNL     1      -8.833   9.140  68.929  1.00  0.00    -0.139 A  
HETATM   28  C   UNL     1      -7.247   9.266  67.096  1.00  0.00    -0.087 A  
HETATM   29  O   UNL     1     -10.413   5.743  67.129  1.00  0.00    -0.215 OA 
HETATM   30  C   UNL     1      -9.411   8.001  68.333  1.00  0.00    -0.148 A  
HETATM   31  O   UNL     1      -9.006   5.901  65.454  1.00  0.00    -0.115 OA 
HETATM   32  C   UNL     1      -8.896   7.501  67.132  1.00  0.00    -0.125 A  
HETATM   33  C   UNL     1      -7.739   9.755  68.305  1.00  0.00    -0.085 A  
HETATM   34  C   UNL     1      -7.824   8.142  66.502  1.00  0.00    -0.093 A  
HETATM   35  N   UNL     1      -9.480   6.296  66.529  1.00  0.00    -0.154 N  
ENDBRANCH  12  27
ENDBRANCH   3   5
ENDBRANCH   2   3
TORSDOF 10
ENDMDL
MODEL       25
REMARK 921   NORMALIZED FREE ENERGY PREDICTED BY IDOCK:   -6.26 KCAL/MOL
REMARK 922        TOTAL FREE ENERGY PREDICTED BY IDOCK:  -11.44 KCAL/MOL
REMARK 923 INTER-LIGAND FREE ENERGY PREDICTED BY IDOCK:   -9.61 KCAL/MOL
REMARK 924 INTRA-LIGAND FREE ENERGY PREDICTED BY IDOCK:   -1.83 KCAL/MOL
REMARK 927      BINDING AFFINITY PREDICTED BY RF-SCORE:    0.00 PKD
ROOT
HETATM    1  C   UNL     1      -7.776   7.281  66.089  1.00  0.00    -0.101 C  
HETATM    2  O   UNL     1      -8.573   7.984  65.130  1.00  0.00    -0.139 OA 
ENDROOT
BRANCH   2   3
HETATM    3  C   UNL     1      -8.189   9.277  64.972  1.00  0.00    -0.145 C  
HETATM    4  O   UNL     1      -7.030   9.653  64.877  1.00  0.00    -0.101 OA 
BRANCH   3   5
HETATM    5  C   UNL     1      -9.358  10.192  64.978  1.00  0.00    -0.299 C  
HETATM    6  C   UNL     1      -9.765  10.788  63.832  1.00  0.00    -0.313 C  
HETATM    7  C   UNL     1      -9.209  10.550  62.448  1.00  0.00    -0.302 C  
HETATM    8  N   UNL     1     -10.774  11.735  63.874  1.00  0.00    -0.358 NA 
HETATM    9  C   UNL     1     -11.303  12.276  65.030  1.00  0.00    -0.328 C  
HETATM   10  C   UNL     1     -10.961  11.757  66.234  1.00  0.00    -0.346 C  
HETATM   11  C   UNL     1     -12.271  13.418  64.824  1.00  0.00    -0.454 C  
HETATM   12  C   UNL     1     -10.020  10.541  66.322  1.00  0.00    -0.276 C  
BRANCH  10  13
HETATM   13  C   UNL     1     -11.586  12.298  67.475  1.00  0.00    -0.353 C  
HETATM   14  O   UNL     1     -12.299  11.669  68.244  1.00  0.00    -0.420 OA 
BRANCH  13  15
HETATM   15  O   UNL     1     -11.076  13.526  67.736  1.00  0.00    -0.255 OA 
BRANCH  15  16
HETATM   16  C   UNL     1     -10.985  13.822  69.140  1.00  0.00    -0.208 C  
BRANCH  16  17
HETATM   17  C   UNL     1     -12.027  14.920  69.405  1.00  0.00    -0.301 C  
BRANCH  17  18
HETATM   18  N   UNL     1     -11.533  16.204  69.918  1.00  0.00    -0.315 NA 
HETATM   19  C   UNL     1     -11.544  16.211  71.384  1.00  0.00    -0.431 C  
BRANCH  18  20
HETATM   20  C   UNL     1     -10.151  16.438  69.431  1.00  0.00    -0.243 C  
BRANCH  20  21
HETATM   21  C   UNL     1     -10.058  17.563  68.417  1.00  0.00    -0.358 A  
HETATM   22  C   UNL     1      -9.924  18.892  68.843  1.00  0.00    -0.437 A  
HETATM   23  C   UNL     1      -9.931  19.939  67.923  1.00  0.00    -0.552 A  
HETATM   24  C   UNL     1     -10.063  19.670  66.562  1.00  0.00    -0.568 A  
HETATM   25  C   UNL     1     -10.178  18.353  66.120  1.00  0.00    -0.408 A  
HETATM   26  C   UNL     1     -10.172  17.301  67.041  1.00  0.00    -0.320 A  
ENDBRANCH  20  21
ENDBRANCH  18  20
ENDBRANCH  17  18
ENDBRANCH  16  17
ENDBRANCH  15  16
ENDBRANCH  13  15
ENDBRANCH  10  13
BRANCH  12  27
HETATM   27  C   UNL     1      -8.980  10.710  67.434  1.00  0.00    -0.138 A  
HETATM   28  C   UNL     1      -8.032  10.019  69.559  1.00  0.00    -0.161 A  
HETATM   29  O   UNL     1      -6.150  13.753  67.333  1.00  0.00    -0.344 OA 
HETATM   30  C   UNL     1      -8.052  11.769  67.379  1.00  0.00    -0.161 A  
HETATM   31  O   UNL     1      -5.338  13.146  69.277  1.00  0.00    -0.073 OA 
HETATM   32  C   UNL     1      -7.118  11.937  68.408  1.00  0.00    -0.086 A  
HETATM   33  C   UNL     1      -8.948   9.832  68.525  1.00  0.00    -0.124 A  
HETATM   34  C   UNL     1      -7.117  11.072  69.508  1.00  0.00    -0.113 A  
HETATM   35  N   UNL     1      -6.132  13.022  68.334  1.00  0.00    -0.074 N  
ENDBRANCH  12  27
ENDBRANCH   3   5
ENDBRANCH   2   3
TORSDOF 10
ENDMDL
MODEL       26
REMARK 921   NORMALIZED FREE ENERGY PREDICTED BY IDOCK:   -6.26 KCAL/MOL
REMARK 922        TOTAL FREE ENERGY PREDICTED BY IDOCK:  -11.44 KCAL/MOL
REMARK 923 INTER-LIGAND FREE ENERGY PREDICTED BY IDOCK:   -9.41 KCAL/MOL
REMARK 924 INTRA-LIGAND FREE ENERGY PREDICTED BY IDOCK:   -2.02 KCAL/MOL
REMARK 927      BINDING AFFINITY PREDICTED BY RF-SCORE:    0.00 PKD
ROOT
HETATM    1  C   UNL     1      -9.645  14.683  68.743  1.00  0.00    -0.210 C  
HETATM    2  O   UNL     1      -9.711  13.278  68.478  1.00  0.00    -0.215 OA 
ENDROOT
BRANCH   2   3
HETATM    3  C   UNL     1      -8.597  12.804  67.864  1.00  0.00    -0.181 C  
HETATM    4  O   UNL     1      -7.863  13.465  67.144  1.00  0.00    -0.128 OA 
BRANCH   3   5
HETATM    5  C   UNL     1      -8.403  11.357  68.138  1.00  0.00    -0.149 C  
HETATM    6  C   UNL     1      -7.375  10.939  68.913  1.00  0.00    -0.111 C  
HETATM    7  C   UNL     1      -6.399  11.817  69.661  1.00  0.00    -0.129 C  
HETATM    8  N   UNL     1      -7.131   9.585  69.056  1.00  0.00    -0.065 NA 
HETATM    9  C   UNL     1      -7.746   8.589  68.322  1.00  0.00    -0.102 C  
HETATM   10  C   UNL     1      -8.787   8.896  67.510  1.00  0.00    -0.135 C  
HETATM   11  C   UNL     1      -7.192   7.198  68.530  1.00  0.00    -0.094 C  
HETATM   12  C   UNL     1      -9.317  10.340  67.431  1.00  0.00    -0.163 C  
BRANCH  10  13
HETATM   13  C   UNL     1      -9.492   7.810  66.771  1.00  0.00    -0.197 C  
HETATM   14  O   UNL     1      -8.989   7.078  65.932  1.00  0.00    -0.143 OA 
BRANCH  13  15
HETATM   15  O   UNL     1     -10.717   7.616  67.320  1.00  0.00    -0.306 OA 
BRANCH  15  16
HETATM   16  C   UNL     1     -10.995   6.240  67.627  1.00  0.00    -0.342 C  
BRANCH  16  17
HETATM   17  C   UNL     1     -10.347   5.977  68.995  1.00  0.00    -0.225 C  
BRANCH  17  18
HETATM   18  N   UNL     1     -11.022   6.532  70.175  1.00  0.00    -0.287 NA 
HETATM   19  C   UNL     1     -11.030   5.558  71.270  1.00  0.00    -0.128 C  
BRANCH  18  20
HETATM   20  C   UNL     1     -10.327   7.767  70.614  1.00  0.00    -0.202 C  
BRANCH  20  21
HETATM   21  C   UNL     1     -11.276   8.908  70.929  1.00  0.00    -0.334 A  
HETATM   22  C   UNL     1     -12.231   8.775  71.948  1.00  0.00    -0.429 A  
HETATM   23  C   UNL     1     -13.167   9.781  72.182  1.00  0.00    -0.530 A  
HETATM   24  C   UNL     1     -13.156  10.938  71.405  1.00  0.00    -0.457 A  
HETATM   25  C   UNL     1     -12.201  11.094  70.402  1.00  0.00    -0.457 A  
HETATM   26  C   UNL     1     -11.262  10.087  70.164  1.00  0.00    -0.367 A  
ENDBRANCH  20  21
ENDBRANCH  18  20
ENDBRANCH  17  18
ENDBRANCH  16  17
ENDBRANCH  15  16
ENDBRANCH  13  15
ENDBRANCH  10  13
BRANCH  12  27
HETATM   27  C   UNL     1      -9.610  10.757  65.986  1.00  0.00    -0.244 A  
HETATM   28  C   UNL     1      -8.935  10.924  63.661  1.00  0.00    -0.136 A  
HETATM   29  O   UNL     1     -13.149  12.671  64.941  1.00  0.00    -0.850 OA 
HETATM   30  C   UNL     1     -10.810  11.427  65.673  1.00  0.00    -0.280 A  
HETATM   31  O   UNL     1     -12.502  12.859  62.854  1.00  0.00    -0.367 OA 
HETATM   32  C   UNL     1     -11.064  11.830  64.358  1.00  0.00    -0.334 A  
HETATM   33  C   UNL     1      -8.686  10.499  64.965  1.00  0.00    -0.193 A  
HETATM   34  C   UNL     1     -10.121  11.594  63.352  1.00  0.00    -0.468 A  
HETATM   35  N   UNL     1     -12.328  12.500  64.028  1.00  0.00    -0.455 N  
ENDBRANCH  12  27
ENDBRANCH   3   5
ENDBRANCH   2   3
TORSDOF 10
ENDMDL
MODEL       27
REMARK 921   NORMALIZED FREE ENERGY PREDICTED BY IDOCK:   -6.24 KCAL/MOL
REMARK 922        TOTAL FREE ENERGY PREDICTED BY IDOCK:  -11.41 KCAL/MOL
REMARK 923 INTER-LIGAND FREE ENERGY PREDICTED BY IDOCK:   -9.51 KCAL/MOL
REMARK 924 INTRA-LIGAND FREE ENERGY PREDICTED BY IDOCK:   -1.90 KCAL/MOL
REMARK 927      BINDING AFFINITY PREDICTED BY RF-SCORE:    0.00 PKD
ROOT
HETATM    1  C   UNL     1     -11.150   6.961  67.772  1.00  0.00    -0.146 C  
HETATM    2  O   UNL     1     -10.495   8.202  68.057  1.00  0.00    -0.216 OA 
ENDROOT
BRANCH   2   3
HETATM    3  C   UNL     1      -9.445   8.445  67.231  1.00  0.00    -0.154 C  
HETATM    4  O   UNL     1      -9.331   8.001  66.098  1.00  0.00    -0.192 OA 
BRANCH   3   5
HETATM    5  C   UNL     1      -8.417   9.285  67.898  1.00  0.00    -0.117 C  
HETATM    6  C   UNL     1      -7.776   8.833  69.002  1.00  0.00    -0.091 C  
HETATM    7  C   UNL     1      -7.910   7.462  69.621  1.00  0.00    -0.117 C  
HETATM    8  N   UNL     1      -6.916   9.674  69.686  1.00  0.00    -0.063 NA 
HETATM    9  C   UNL     1      -6.776  11.028  69.446  1.00  0.00    -0.112 C  
HETATM   10  C   UNL     1      -7.378  11.586  68.369  1.00  0.00    -0.097 C  
HETATM   11  C   UNL     1      -5.907  11.771  70.434  1.00  0.00    -0.156 C  
HETATM   12  C   UNL     1      -8.182  10.716  67.384  1.00  0.00    -0.115 C  
BRANCH  10  13
HETATM   13  C   UNL     1      -7.170  13.033  68.074  1.00  0.00    -0.119 C  
HETATM   14  O   UNL     1      -6.470  13.482  67.178  1.00  0.00    -0.211 OA 
BRANCH  13  15
HETATM   15  O   UNL     1      -8.035  13.770  68.811  1.00  0.00    -0.124 OA 
BRANCH  15  16
HETATM   16  C   UNL     1      -8.586  14.890  68.098  1.00  0.00    -0.159 C  
BRANCH  16  17
HETATM   17  C   UNL     1      -8.954  15.929  69.168  1.00  0.00    -0.256 C  
BRANCH  17  18
HETATM   18  N   UNL     1     -10.320  16.467  69.139  1.00  0.00    -0.269 NA 
HETATM   19  C   UNL     1     -10.525  17.289  67.943  1.00  0.00    -0.382 C  
BRANCH  18  20
HETATM   20  C   UNL     1     -11.297  15.350  69.148  1.00  0.00    -0.315 C  
BRANCH  20  21
HETATM   21  C   UNL     1     -11.941  15.130  70.504  1.00  0.00    -0.371 A  
HETATM   22  C   UNL     1     -11.802  16.089  71.518  1.00  0.00    -0.554 A  
HETATM   23  C   UNL     1     -12.312  15.854  72.794  1.00  0.00    -0.580 A  
HETATM   24  C   UNL     1     -12.975  14.660  73.071  1.00  0.00    -0.610 A  
HETATM   25  C   UNL     1     -13.139  13.705  72.069  1.00  0.00    -0.484 A  
HETATM   26  C   UNL     1     -12.628  13.938  70.789  1.00  0.00    -0.424 A  
ENDBRANCH  20  21
ENDBRANCH  18  20
ENDBRANCH  17  18
ENDBRANCH  16  17
ENDBRANCH  15  16
ENDBRANCH  13  15
ENDBRANCH  10  13
BRANCH  12  27
HETATM   27  C   UNL     1      -9.497  11.390  66.977  1.00  0.00    -0.186 A  
HETATM   28  C   UNL     1     -11.680  12.276  67.557  1.00  0.00    -0.402 A  
HETATM   29  O   UNL     1     -10.324  12.350  63.019  1.00  0.00    -0.203 OA 
HETATM   30  C   UNL     1      -9.754  11.677  65.622  1.00  0.00    -0.262 A  
HETATM   31  O   UNL     1     -12.314  13.101  63.553  1.00  0.00    -0.680 OA 
HETATM   32  C   UNL     1     -10.966  12.270  65.249  1.00  0.00    -0.307 A  
HETATM   33  C   UNL     1     -10.465  11.709  67.938  1.00  0.00    -0.217 A  
HETATM   34  C   UNL     1     -11.938  12.555  66.213  1.00  0.00    -0.410 A  
HETATM   35  N   UNL     1     -11.219  12.597  63.840  1.00  0.00    -0.410 N  
ENDBRANCH  12  27
ENDBRANCH   3   5
ENDBRANCH   2   3
TORSDOF 10
ENDMDL
MODEL       28
REMARK 921   NORMALIZED FREE ENERGY PREDICTED BY IDOCK:   -6.24 KCAL/MOL
REMARK 922        TOTAL FREE ENERGY PREDICTED BY IDOCK:  -11.41 KCAL/MOL
REMARK 923 INTER-LIGAND FREE ENERGY PREDICTED BY IDOCK:   -9.64 KCAL/MOL
REMARK 924 INTRA-LIGAND FREE ENERGY PREDICTED BY IDOCK:   -1.77 KCAL/MOL
REMARK 927      BINDING AFFINITY PREDICTED BY RF-SCORE:    0.00 PKD
ROOT
HETATM    1  C   UNL     1     -10.180  19.301  67.121  1.00  0.00    -0.402 C  
HETATM    2  O   UNL     1     -10.371  17.903  67.362  1.00  0.00    -0.348 OA 
ENDROOT
BRANCH   2   3
HETATM    3  C   UNL     1      -9.883  17.124  66.363  1.00  0.00    -0.300 C  
HETATM    4  O   UNL     1     -10.319  17.100  65.221  1.00  0.00    -0.629 OA 
BRANCH   3   5
HETATM    5  C   UNL     1      -8.774  16.261  66.843  1.00  0.00    -0.237 C  
HETATM    6  C   UNL     1      -7.486  16.633  66.653  1.00  0.00    -0.276 C  
HETATM    7  C   UNL     1      -7.006  17.940  66.067  1.00  0.00    -0.346 C  
HETATM    8  N   UNL     1      -6.465  15.762  66.990  1.00  0.00    -0.288 NA 
HETATM    9  C   UNL     1      -6.640  14.440  67.351  1.00  0.00     0.071 C  
HETATM   10  C   UNL     1      -7.889  13.960  67.565  1.00  0.00    -0.193 C  
HETATM   11  C   UNL     1      -5.367  13.639  67.505  1.00  0.00     0.123 C  
HETATM   12  C   UNL     1      -9.113  14.888  67.450  1.00  0.00    -0.196 C  
BRANCH  10  13
HETATM   13  C   UNL     1      -8.071  12.552  68.020  1.00  0.00    -0.164 C  
HETATM   14  O   UNL     1      -8.269  12.199  69.174  1.00  0.00     0.202 OA 
BRANCH  13  15
HETATM   15  O   UNL     1      -8.195  11.743  66.940  1.00  0.00    -0.163 OA 
BRANCH  15  16
HETATM   16  C   UNL     1      -8.435  10.367  67.279  1.00  0.00    -0.122 C  
BRANCH  16  17
HETATM   17  C   UNL     1      -9.860  10.059  66.795  1.00  0.00    -0.198 C  
BRANCH  17  18
HETATM   18  N   UNL     1     -10.635   9.082  67.570  1.00  0.00    -0.266 NA 
HETATM   19  C   UNL     1     -10.466   7.735  67.017  1.00  0.00    -0.349 C  
BRANCH  18  20
HETATM   20  C   UNL     1     -10.188   9.098  68.984  1.00  0.00    -0.207 C  
BRANCH  20  21
HETATM   21  C   UNL     1     -11.127   9.861  69.900  1.00  0.00    -0.318 A  
HETATM   22  C   UNL     1     -11.757   9.210  70.970  1.00  0.00    -0.363 A  
HETATM   23  C   UNL     1     -12.691   9.879  71.759  1.00  0.00    -0.523 A  
HETATM   24  C   UNL     1     -13.001  11.212  71.494  1.00  0.00    -0.542 A  
HETATM   25  C   UNL     1     -12.368  11.879  70.447  1.00  0.00    -0.334 A  
HETATM   26  C   UNL     1     -11.432  11.210  69.653  1.00  0.00    -0.383 A  
ENDBRANCH  20  21
ENDBRANCH  18  20
ENDBRANCH  17  18
ENDBRANCH  16  17
ENDBRANCH  15  16
ENDBRANCH  13  15
ENDBRANCH  10  13
BRANCH  12  27
HETATM   27  C   UNL     1     -10.267  14.213  66.704  1.00  0.00    -0.270 A  
HETATM   28  C   UNL     1     -12.606  13.579  66.566  1.00  0.00    -0.181 A  
HETATM   29  O   UNL     1      -9.681  12.262  63.080  1.00  0.00    -0.334 OA 
HETATM   30  C   UNL     1     -10.026  13.538  65.490  1.00  0.00    -0.238 A  
HETATM   31  O   UNL     1     -11.787  11.655  62.996  1.00  0.00    -0.165 OA 
HETATM   32  C   UNL     1     -11.078  12.901  64.822  1.00  0.00    -0.309 A  
HETATM   33  C   UNL     1     -11.568  14.238  67.223  1.00  0.00    -0.401 A  
HETATM   34  C   UNL     1     -12.366  12.905  65.367  1.00  0.00    -0.538 A  
HETATM   35  N   UNL     1     -10.831  12.225  63.542  1.00  0.00    -0.454 N  
ENDBRANCH  12  27
ENDBRANCH   3   5
ENDBRANCH   2   3
TORSDOF 10
ENDMDL
MODEL       29
REMARK 921   NORMALIZED FREE ENERGY PREDICTED BY IDOCK:   -6.24 KCAL/MOL
REMARK 922        TOTAL FREE ENERGY PREDICTED BY IDOCK:  -11.40 KCAL/MOL
REMARK 923 INTER-LIGAND FREE ENERGY PREDICTED BY IDOCK:   -9.92 KCAL/MOL
REMARK 924 INTRA-LIGAND FREE ENERGY PREDICTED BY IDOCK:   -1.48 KCAL/MOL
REMARK 927      BINDING AFFINITY PREDICTED BY RF-SCORE:    0.00 PKD
ROOT
HETATM    1  C   UNL     1      -9.875  10.101  64.764  1.00  0.00    -0.312 C  
HETATM    2  O   UNL     1      -9.927   9.589  66.100  1.00  0.00    -0.259 OA 
ENDROOT
BRANCH   2   3
HETATM    3  C   UNL     1      -9.158  10.297  66.966  1.00  0.00    -0.139 C  
HETATM    4  O   UNL     1      -7.962  10.507  66.826  1.00  0.00    -0.114 OA 
BRANCH   3   5
HETATM    5  C   UNL     1      -9.946  10.748  68.141  1.00  0.00    -0.176 C  
HETATM    6  C   UNL     1     -10.614   9.849  68.903  1.00  0.00    -0.218 C  
HETATM    7  C   UNL     1     -10.576   8.346  68.759  1.00  0.00    -0.154 C  
HETATM    8  N   UNL     1     -11.445  10.294  69.916  1.00  0.00    -0.264 NA 
HETATM    9  C   UNL     1     -11.807  11.611  70.121  1.00  0.00    -0.344 C  
HETATM   10  C   UNL     1     -11.204  12.594  69.410  1.00  0.00    -0.205 C  
HETATM   11  C   UNL     1     -12.862  11.833  71.180  1.00  0.00    -0.365 C  
HETATM   12  C   UNL     1     -10.086  12.258  68.405  1.00  0.00    -0.215 C  
BRANCH  10  13
HETATM   13  C   UNL     1     -11.548  14.019  69.681  1.00  0.00    -0.289 C  
HETATM   14  O   UNL     1     -12.639  14.535  69.491  1.00  0.00    -0.200 OA 
BRANCH  13  15
HETATM   15  O   UNL     1     -10.534  14.603  70.365  1.00  0.00     0.139 OA 
BRANCH  15  16
HETATM   16  C   UNL     1     -10.027  15.791  69.735  1.00  0.00    -0.250 C  
BRANCH  16  17
HETATM   17  C   UNL     1      -8.546  15.508  69.437  1.00  0.00    -0.259 C  
BRANCH  17  18
HETATM   18  N   UNL     1      -7.660  16.669  69.278  1.00  0.00    -0.194 NA 
HETATM   19  C   UNL     1      -6.289  16.327  69.668  1.00  0.00    -0.198 C  
BRANCH  18  20
HETATM   20  C   UNL     1      -7.677  17.120  67.865  1.00  0.00    -0.184 C  
BRANCH  20  21
HETATM   21  C   UNL     1      -8.726  18.181  67.589  1.00  0.00    -0.249 A  
HETATM   22  C   UNL     1      -9.068  19.114  68.580  1.00  0.00    -0.416 A  
HETATM   23  C   UNL     1     -10.094  20.032  68.368  1.00  0.00    -0.513 A  
HETATM   24  C   UNL     1     -10.788  20.036  67.159  1.00  0.00    -0.252 A  
HETATM   25  C   UNL     1     -10.448  19.129  66.158  1.00  0.00    -0.558 A  
HETATM   26  C   UNL     1      -9.420  18.206  66.368  1.00  0.00    -0.284 A  
ENDBRANCH  20  21
ENDBRANCH  18  20
ENDBRANCH  17  18
ENDBRANCH  16  17
ENDBRANCH  15  16
ENDBRANCH  13  15
ENDBRANCH  10  13
BRANCH  12  27
HETATM   27  C   UNL     1     -10.242  13.044  67.100  1.00  0.00    -0.243 A  
HETATM   28  C   UNL     1      -9.491  14.783  65.583  1.00  0.00    -0.125 A  
HETATM   29  O   UNL     1     -13.387  12.324  64.479  1.00  0.00    -0.769 OA 
HETATM   30  C   UNL     1     -11.336  12.791  66.248  1.00  0.00    -0.365 A  
HETATM   31  O   UNL     1     -12.723  13.932  63.144  1.00  0.00    -0.718 OA 
HETATM   32  C   UNL     1     -11.491  13.528  65.069  1.00  0.00    -0.318 A  
HETATM   33  C   UNL     1      -9.318  14.036  66.746  1.00  0.00    -0.289 A  
HETATM   34  C   UNL     1     -10.579  14.537  64.742  1.00  0.00    -0.401 A  
HETATM   35  N   UNL     1     -12.613  13.240  64.167  1.00  0.00    -0.219 N  
ENDBRANCH  12  27
ENDBRANCH   3   5
ENDBRANCH   2   3
TORSDOF 10
ENDMDL
MODEL       30
REMARK 921   NORMALIZED FREE ENERGY PREDICTED BY IDOCK:   -6.23 KCAL/MOL
REMARK 922        TOTAL FREE ENERGY PREDICTED BY IDOCK:  -11.38 KCAL/MOL
REMARK 923 INTER-LIGAND FREE ENERGY PREDICTED BY IDOCK:   -9.23 KCAL/MOL
REMARK 924 INTRA-LIGAND FREE ENERGY PREDICTED BY IDOCK:   -2.15 KCAL/MOL
REMARK 927      BINDING AFFINITY PREDICTED BY RF-SCORE:    0.00 PKD
ROOT
HETATM    1  C   UNL     1     -10.708   6.761  73.377  1.00  0.00    -0.305 C  
HETATM    2  O   UNL     1     -10.305   7.451  72.189  1.00  0.00    -0.192 OA 
ENDROOT
BRANCH   2   3
HETATM    3  C   UNL     1     -11.346   7.733  71.364  1.00  0.00    -0.251 C  
HETATM    4  O   UNL     1     -12.187   6.924  71.001  1.00  0.00    -0.373 OA 
BRANCH   3   5
HETATM    5  C   UNL     1     -11.309   9.147  70.911  1.00  0.00    -0.359 C  
HETATM    6  C   UNL     1     -12.318   9.992  71.228  1.00  0.00    -0.398 C  
HETATM    7  C   UNL     1     -13.498   9.688  72.120  1.00  0.00    -0.516 C  
HETATM    8  N   UNL     1     -12.334  11.269  70.695  1.00  0.00    -0.373 NA 
HETATM    9  C   UNL     1     -11.487  11.722  69.701  1.00  0.00    -0.270 C  
HETATM   10  C   UNL     1     -10.444  10.954  69.304  1.00  0.00    -0.230 C  
HETATM   11  C   UNL     1     -11.807  13.096  69.157  1.00  0.00    -0.364 C  
HETATM   12  C   UNL     1     -10.169   9.598  69.981  1.00  0.00    -0.296 C  
BRANCH  10  13
HETATM   13  C   UNL     1      -9.492  11.474  68.280  1.00  0.00    -0.189 C  
HETATM   14  O   UNL     1      -8.370  11.902  68.507  1.00  0.00    -0.156 OA 
BRANCH  13  15
HETATM   15  O   UNL     1      -9.973  11.204  67.043  1.00  0.00    -0.186 OA 
BRANCH  15  16
HETATM   16  C   UNL     1      -9.012  10.574  66.179  1.00  0.00    -0.160 C  
BRANCH  16  17
HETATM   17  C   UNL     1      -9.804  10.086  64.956  1.00  0.00    -0.304 C  
BRANCH  17  18
HETATM   18  N   UNL     1      -9.659  10.855  63.713  1.00  0.00    -0.264 NA 
HETATM   19  C   UNL     1      -9.200   9.990  62.623  1.00  0.00    -0.295 C  
BRANCH  18  20
HETATM   20  C   UNL     1     -10.962  11.464  63.348  1.00  0.00    -0.258 C  
BRANCH  20  21
HETATM   21  C   UNL     1     -11.311  12.677  64.191  1.00  0.00    -0.439 A  
HETATM   22  C   UNL     1     -10.356  13.678  64.422  1.00  0.00    -0.242 A  
HETATM   23  C   UNL     1     -10.637  14.748  65.269  1.00  0.00    -0.414 A  
HETATM   24  C   UNL     1     -11.882  14.837  65.890  1.00  0.00    -0.204 A  
HETATM   25  C   UNL     1     -12.849  13.861  65.655  1.00  0.00    -0.467 A  
HETATM   26  C   UNL     1     -12.569  12.786  64.807  1.00  0.00    -0.518 A  
ENDBRANCH  20  21
ENDBRANCH  18  20
ENDBRANCH  17  18
ENDBRANCH  16  17
ENDBRANCH  15  16
ENDBRANCH  13  15
ENDBRANCH  10  13
BRANCH  12  27
HETATM   27  C   UNL     1      -9.816   8.515  68.957  1.00  0.00    -0.184 A  
HETATM   28  C   UNL     1     -10.452   7.067  67.116  1.00  0.00    -0.383 A  
HETATM   29  O   UNL     1      -6.056   6.747  68.853  1.00  0.00    -0.024 OA 
HETATM   30  C   UNL     1      -8.539   7.920  68.968  1.00  0.00    -0.135 A  
HETATM   31  O   UNL     1      -6.661   5.412  67.223  1.00  0.00    -0.055 OA 
HETATM   32  C   UNL     1      -8.228   6.913  68.048  1.00  0.00    -0.115 A  
HETATM   33  C   UNL     1     -10.760   8.088  68.014  1.00  0.00    -0.112 A  
HETATM   34  C   UNL     1      -9.188   6.472  67.131  1.00  0.00    -0.134 A  
HETATM   35  N   UNL     1      -6.886   6.315  68.041  1.00  0.00    -0.068 N  
ENDBRANCH  12  27
ENDBRANCH   3   5
ENDBRANCH   2   3
TORSDOF 10
ENDMDL
MODEL       31
REMARK 921   NORMALIZED FREE ENERGY PREDICTED BY IDOCK:   -6.22 KCAL/MOL
REMARK 922        TOTAL FREE ENERGY PREDICTED BY IDOCK:  -11.38 KCAL/MOL
REMARK 923 INTER-LIGAND FREE ENERGY PREDICTED BY IDOCK:   -9.67 KCAL/MOL
REMARK 924 INTRA-LIGAND FREE ENERGY PREDICTED BY IDOCK:   -1.72 KCAL/MOL
REMARK 927      BINDING AFFINITY PREDICTED BY RF-SCORE:    0.00 PKD
ROOT
HETATM    1  C   UNL     1      -9.517   7.896  66.307  1.00  0.00    -0.151 C  
HETATM    2  O   UNL     1     -10.117   9.168  66.040  1.00  0.00    -0.284 OA 
ENDROOT
BRANCH   2   3
HETATM    3  C   UNL     1      -9.221  10.093  65.611  1.00  0.00    -0.187 C  
HETATM    4  O   UNL     1      -8.045   9.866  65.368  1.00  0.00    -0.125 OA 
BRANCH   3   5
HETATM    5  C   UNL     1      -9.839  11.440  65.518  1.00  0.00    -0.271 C  
HETATM    6  C   UNL     1     -10.286  11.907  64.328  1.00  0.00    -0.321 C  
HETATM    7  C   UNL     1     -10.328  11.147  63.024  1.00  0.00    -0.217 C  
HETATM    8  N   UNL     1     -10.742  13.210  64.232  1.00  0.00    -0.406 NA 
HETATM    9  C   UNL     1     -10.620  14.167  65.222  1.00  0.00    -0.373 C  
HETATM   10  C   UNL     1     -10.179  13.810  66.452  1.00  0.00    -0.292 C  
HETATM   11  C   UNL     1     -11.035  15.564  64.823  1.00  0.00    -0.416 C  
HETATM   12  C   UNL     1      -9.854  12.338  66.769  1.00  0.00    -0.218 C  
BRANCH  10  13
HETATM   13  C   UNL     1     -10.113  14.830  67.537  1.00  0.00    -0.224 C  
HETATM   14  O   UNL     1      -9.287  15.726  67.620  1.00  0.00    -0.213 OA 
BRANCH  13  15
HETATM   15  O   UNL     1     -11.228  14.744  68.302  1.00  0.00    -0.262 OA 
BRANCH  15  16
HETATM   16  C   UNL     1     -11.475  15.921  69.089  1.00  0.00    -0.377 C  
BRANCH  16  17
HETATM   17  C   UNL     1     -10.844  15.648  70.463  1.00  0.00    -0.326 C  
BRANCH  17  18
HETATM   18  N   UNL     1     -11.710  15.066  71.495  1.00  0.00    -0.357 NA 
HETATM   19  C   UNL     1     -12.273  16.117  72.348  1.00  0.00    -0.507 C  
BRANCH  18  20
HETATM   20  C   UNL     1     -12.811  14.305  70.854  1.00  0.00    -0.347 C  
BRANCH  20  21
HETATM   21  C   UNL     1     -12.646  12.801  70.973  1.00  0.00    -0.362 A  
HETATM   22  C   UNL     1     -11.912  12.091  70.012  1.00  0.00    -0.400 A  
HETATM   23  C   UNL     1     -11.833  10.700  70.063  1.00  0.00    -0.403 A  
HETATM   24  C   UNL     1     -12.480  10.001  71.080  1.00  0.00    -0.480 A  
HETATM   25  C   UNL     1     -13.197  10.694  72.054  1.00  0.00    -0.473 A  
HETATM   26  C   UNL     1     -13.279  12.088  72.005  1.00  0.00    -0.481 A  
ENDBRANCH  20  21
ENDBRANCH  18  20
ENDBRANCH  17  18
ENDBRANCH  16  17
ENDBRANCH  15  16
ENDBRANCH  13  15
ENDBRANCH  10  13
BRANCH  12  27
HETATM   27  C   UNL     1      -8.555  12.205  67.570  1.00  0.00    -0.171 A  
HETATM   28  C   UNL     1      -6.234  12.810  67.940  1.00  0.00    -0.115 A  
HETATM   29  O   UNL     1      -8.232   9.598  70.791  1.00  0.00    -0.273 OA 
HETATM   30  C   UNL     1      -8.474  11.292  68.640  1.00  0.00    -0.143 A  
HETATM   31  O   UNL     1      -6.122  10.119  71.081  1.00  0.00    -0.261 OA 
HETATM   32  C   UNL     1      -7.279  11.154  69.355  1.00  0.00    -0.091 A  
HETATM   33  C   UNL     1      -7.428  12.970  67.240  1.00  0.00    -0.083 A  
HETATM   34  C   UNL     1      -6.152  11.900  68.997  1.00  0.00    -0.071 A  
HETATM   35  N   UNL     1      -7.206  10.224  70.489  1.00  0.00     0.014 N  
ENDBRANCH  12  27
ENDBRANCH   3   5
ENDBRANCH   2   3
TORSDOF 10
ENDMDL
MODEL       32
REMARK 921   NORMALIZED FREE ENERGY PREDICTED BY IDOCK:   -6.22 KCAL/MOL
REMARK 922        TOTAL FREE ENERGY PREDICTED BY IDOCK:  -11.38 KCAL/MOL
REMARK 923 INTER-LIGAND FREE ENERGY PREDICTED BY IDOCK:  -10.48 KCAL/MOL
REMARK 924 INTRA-LIGAND FREE ENERGY PREDICTED BY IDOCK:   -0.90 KCAL/MOL
REMARK 927      BINDING AFFINITY PREDICTED BY RF-SCORE:    0.00 PKD
ROOT
HETATM    1  C   UNL     1     -11.815   9.231  71.652  1.00  0.00    -0.383 C  
HETATM    2  O   UNL     1     -11.311   9.944  70.517  1.00  0.00    -0.278 OA 
ENDROOT
BRANCH   2   3
HETATM    3  C   UNL     1     -12.199  10.846  70.025  1.00  0.00    -0.347 C  
HETATM    4  O   UNL     1     -13.254  10.560  69.479  1.00  0.00     0.147 OA 
BRANCH   3   5
HETATM    5  C   UNL     1     -11.703  12.236  70.190  1.00  0.00    -0.280 C  
HETATM    6  C   UNL     1     -12.326  13.088  71.038  1.00  0.00    -0.244 C  
HETATM    7  C   UNL     1     -13.470  12.755  71.967  1.00  0.00    -0.540 C  
HETATM    8  N   UNL     1     -11.933  14.414  71.087  1.00  0.00    -0.336 NA 
HETATM    9  C   UNL     1     -11.057  15.013  70.202  1.00  0.00    -0.242 C  
HETATM   10  C   UNL     1     -10.381  14.254  69.307  1.00  0.00    -0.072 C  
HETATM   11  C   UNL     1     -10.916  16.511  70.348  1.00  0.00    -0.135 C  
HETATM   12  C   UNL     1     -10.549  12.722  69.296  1.00  0.00     0.117 C  
BRANCH  10  13
HETATM   13  C   UNL     1      -9.386  14.893  68.399  1.00  0.00    -0.197 C  
HETATM   14  O   UNL     1      -8.201  14.601  68.327  1.00  0.00    -0.132 OA 
BRANCH  13  15
HETATM   15  O   UNL     1     -10.032  15.696  67.520  1.00  0.00    -0.228 OA 
BRANCH  15  16
HETATM   16  C   UNL     1      -9.296  15.925  66.306  1.00  0.00    -0.322 C  
BRANCH  16  17
HETATM   17  C   UNL     1      -8.587  17.275  66.494  1.00  0.00    -0.264 C  
BRANCH  17  18
HETATM   18  N   UNL     1      -9.336  18.483  66.128  1.00  0.00    -0.493 NA 
HETATM   19  C   UNL     1     -10.695  18.138  65.701  1.00  0.00    -0.032 C  
BRANCH  18  20
HETATM   20  C   UNL     1      -9.400  19.403  67.290  1.00  0.00    -0.314 C  
BRANCH  20  21
HETATM   21  C   UNL     1      -8.032  19.828  67.791  1.00  0.00    -0.334 A  
HETATM   22  C   UNL     1      -7.475  19.226  68.929  1.00  0.00    -0.397 A  
HETATM   23  C   UNL     1      -6.262  19.674  69.450  1.00  0.00    -0.350 A  
HETATM   24  C   UNL     1      -5.584  20.724  68.834  1.00  0.00    -0.391 A  
HETATM   25  C   UNL     1      -6.114  21.320  67.690  1.00  0.00    -0.420 A  
HETATM   26  C   UNL     1      -7.331  20.874  67.167  1.00  0.00    -0.369 A  
ENDBRANCH  20  21
ENDBRANCH  18  20
ENDBRANCH  17  18
ENDBRANCH  16  17
ENDBRANCH  15  16
ENDBRANCH  13  15
ENDBRANCH  10  13
BRANCH  12  27
HETATM   27  C   UNL     1     -10.674  12.177  67.870  1.00  0.00    -0.237 A  
HETATM   28  C   UNL     1      -9.959  10.646  66.128  1.00  0.00    -0.283 A  
HETATM   29  O   UNL     1     -13.372  13.781  65.146  1.00  0.00    -0.688 OA 
HETATM   30  C   UNL     1     -11.582  12.762  66.966  1.00  0.00    -0.422 A  
HETATM   31  O   UNL     1     -12.680  12.424  63.568  1.00  0.00    -0.727 OA 
HETATM   32  C   UNL     1     -11.677  12.279  65.656  1.00  0.00    -0.382 A  
HETATM   33  C   UNL     1      -9.877  11.107  67.441  1.00  0.00    -0.195 A  
HETATM   34  C   UNL     1     -10.854  11.231  65.229  1.00  0.00    -0.261 A  
HETATM   35  N   UNL     1     -12.645  12.870  64.725  1.00  0.00    -0.450 N  
ENDBRANCH  12  27
ENDBRANCH   3   5
ENDBRANCH   2   3
TORSDOF 10
ENDMDL
MODEL       33
REMARK 921   NORMALIZED FREE ENERGY PREDICTED BY IDOCK:   -6.22 KCAL/MOL
REMARK 922        TOTAL FREE ENERGY PREDICTED BY IDOCK:  -11.37 KCAL/MOL
REMARK 923 INTER-LIGAND FREE ENERGY PREDICTED BY IDOCK:   -9.70 KCAL/MOL
REMARK 924 INTRA-LIGAND FREE ENERGY PREDICTED BY IDOCK:   -1.67 KCAL/MOL
REMARK 927      BINDING AFFINITY PREDICTED BY RF-SCORE:    0.00 PKD
ROOT
HETATM    1  C   UNL     1     -12.162  12.474  63.497  1.00  0.00    -0.558 C  
HETATM    2  O   UNL     1     -11.880  11.575  64.575  1.00  0.00    -0.125 OA 
ENDROOT
BRANCH   2   3
HETATM    3  C   UNL     1     -10.903  12.030  65.400  1.00  0.00    -0.291 C  
HETATM    4  O   UNL     1      -9.732  12.174  65.081  1.00  0.00    -0.216 OA 
BRANCH   3   5
HETATM    5  C   UNL     1     -11.427  12.289  66.765  1.00  0.00    -0.421 C  
HETATM    6  C   UNL     1     -11.697  13.555  67.165  1.00  0.00    -0.379 C  
HETATM    7  C   UNL     1     -11.623  14.801  66.315  1.00  0.00    -0.298 C  
HETATM    8  N   UNL     1     -12.063  13.794  68.478  1.00  0.00    -0.354 NA 
HETATM    9  C   UNL     1     -12.008  12.862  69.497  1.00  0.00    -0.285 C  
HETATM   10  C   UNL     1     -11.742  11.565  69.210  1.00  0.00    -0.397 C  
HETATM   11  C   UNL     1     -12.290  13.401  70.881  1.00  0.00    -0.436 C  
HETATM   12  C   UNL     1     -11.542  11.113  67.750  1.00  0.00    -0.303 C  
BRANCH  10  13
HETATM   13  C   UNL     1     -11.750  10.550  70.301  1.00  0.00    -0.332 C  
HETATM   14  O   UNL     1     -10.777  10.197  70.951  1.00  0.00    -0.249 OA 
BRANCH  13  15
HETATM   15  O   UNL     1     -13.031  10.231  70.608  1.00  0.00    -0.354 OA 
BRANCH  15  16
HETATM   16  C   UNL     1     -13.162   9.505  71.842  1.00  0.00    -0.439 C  
BRANCH  16  17
HETATM   17  C   UNL     1     -13.518   8.064  71.444  1.00  0.00    -0.222 C  
BRANCH  17  18
HETATM   18  N   UNL     1     -12.482   7.040  71.635  1.00  0.00    -0.359 NA 
HETATM   19  C   UNL     1     -11.748   6.813  70.387  1.00  0.00    -0.363 C  
BRANCH  18  20
HETATM   20  C   UNL     1     -11.539   7.475  72.694  1.00  0.00    -0.282 C  
BRANCH  20  21
HETATM   21  C   UNL     1     -10.784   6.322  73.331  1.00  0.00    -0.281 A  
HETATM   22  C   UNL     1      -9.544   6.543  73.947  1.00  0.00    -0.222 A  
HETATM   23  C   UNL     1      -8.801   5.477  74.453  1.00  0.00    -0.117 A  
HETATM   24  C   UNL     1      -9.293   4.177  74.357  1.00  0.00    -0.123 A  
HETATM   25  C   UNL     1     -10.534   3.943  73.766  1.00  0.00    -0.268 A  
HETATM   26  C   UNL     1     -11.280   5.010  73.257  1.00  0.00    -0.411 A  
ENDBRANCH  20  21
ENDBRANCH  18  20
ENDBRANCH  17  18
ENDBRANCH  16  17
ENDBRANCH  15  16
ENDBRANCH  13  15
ENDBRANCH  10  13
BRANCH  12  27
HETATM   27  C   UNL     1     -10.361  10.147  67.613  1.00  0.00    -0.265 A  
HETATM   28  C   UNL     1      -7.974   9.713  67.673  1.00  0.00    -0.106 A  
HETATM   29  O   UNL     1     -10.907   6.164  66.556  1.00  0.00    -0.242 OA 
HETATM   30  C   UNL     1     -10.582   8.809  67.228  1.00  0.00    -0.303 A  
HETATM   31  O   UNL     1      -8.744   5.801  66.566  1.00  0.00    -0.118 OA 
HETATM   32  C   UNL     1      -9.500   7.936  67.079  1.00  0.00    -0.174 A  
HETATM   33  C   UNL     1      -9.050  10.582  67.848  1.00  0.00    -0.136 A  
HETATM   34  C   UNL     1      -8.192   8.389  67.285  1.00  0.00    -0.112 A  
HETATM   35  N   UNL     1      -9.734   6.535  66.708  1.00  0.00    -0.159 N  
ENDBRANCH  12  27
ENDBRANCH   3   5
ENDBRANCH   2   3
TORSDOF 10
ENDMDL
MODEL       34
REMARK 921   NORMALIZED FREE ENERGY PREDICTED BY IDOCK:   -6.20 KCAL/MOL
REMARK 922        TOTAL FREE ENERGY PREDICTED BY IDOCK:  -11.34 KCAL/MOL
REMARK 923 INTER-LIGAND FREE ENERGY PREDICTED BY IDOCK:   -9.70 KCAL/MOL
REMARK 924 INTRA-LIGAND FREE ENERGY PREDICTED BY IDOCK:   -1.64 KCAL/MOL
REMARK 927      BINDING AFFINITY PREDICTED BY RF-SCORE:    0.00 PKD
ROOT
HETATM    1  C   UNL     1     -11.404  15.787  64.717  1.00  0.00    -0.314 C  
HETATM    2  O   UNL     1     -10.224  15.018  64.974  1.00  0.00    -0.373 OA 
ENDROOT
BRANCH   2   3
HETATM    3  C   UNL     1      -9.678  15.280  66.189  1.00  0.00    -0.314 C  
HETATM    4  O   UNL     1      -8.557  15.733  66.367  1.00  0.00    -0.284 OA 
BRANCH   3   5
HETATM    5  C   UNL     1     -10.601  14.900  67.288  1.00  0.00    -0.272 C  
HETATM    6  C   UNL     1     -11.056  15.838  68.154  1.00  0.00    -0.341 C  
HETATM    7  C   UNL     1     -10.807  17.326  68.079  1.00  0.00    -0.297 C  
HETATM    8  N   UNL     1     -11.811  15.450  69.247  1.00  0.00    -0.342 NA 
HETATM    9  C   UNL     1     -12.006  14.144  69.651  1.00  0.00    -0.336 C  
HETATM   10  C   UNL     1     -11.587  13.125  68.862  1.00  0.00    -0.354 C  
HETATM   11  C   UNL     1     -12.721  13.977  70.972  1.00  0.00    -0.431 C  
HETATM   12  C   UNL     1     -10.933  13.412  67.497  1.00  0.00    -0.284 C  
BRANCH  10  13
HETATM   13  C   UNL     1     -11.859  11.717  69.268  1.00  0.00    -0.331 C  
HETATM   14  O   UNL     1     -12.648  10.960  68.721  1.00  0.00    -0.317 OA 
BRANCH  13  15
HETATM   15  O   UNL     1     -10.951  11.334  70.198  1.00  0.00    -0.079 OA 
BRANCH  15  16
HETATM   16  C   UNL     1     -10.608   9.940  70.123  1.00  0.00    -0.297 C  
BRANCH  16  17
HETATM   17  C   UNL     1     -11.044   9.329  71.464  1.00  0.00    -0.373 C  
BRANCH  17  18
HETATM   18  N   UNL     1     -10.770   7.901  71.671  1.00  0.00    -0.219 NA 
HETATM   19  C   UNL     1     -10.901   7.552  73.088  1.00  0.00    -0.395 C  
BRANCH  18  20
HETATM   20  C   UNL     1     -11.719   7.090  70.870  1.00  0.00    -0.343 C  
BRANCH  20  21
HETATM   21  C   UNL     1     -11.040   6.274  69.785  1.00  0.00    -0.473 A  
HETATM   22  C   UNL     1     -11.261   6.573  68.432  1.00  0.00    -0.274 A  
HETATM   23  C   UNL     1     -10.715   5.773  67.429  1.00  0.00    -0.332 A  
HETATM   24  C   UNL     1      -9.934   4.669  67.765  1.00  0.00    -0.150 A  
HETATM   25  C   UNL     1      -9.688   4.371  69.105  1.00  0.00    -0.240 A  
HETATM   26  C   UNL     1     -10.235   5.170  70.112  1.00  0.00    -0.348 A  
ENDBRANCH  20  21
ENDBRANCH  18  20
ENDBRANCH  17  18
ENDBRANCH  16  17
ENDBRANCH  15  16
ENDBRANCH  13  15
ENDBRANCH  10  13
BRANCH  12  27
HETATM   27  C   UNL     1      -9.708  12.524  67.258  1.00  0.00    -0.202 A  
HETATM   28  C   UNL     1      -7.468  11.814  67.864  1.00  0.00    -0.108 A  
HETATM   29  O   UNL     1      -9.539   9.843  64.087  1.00  0.00    -0.264 OA 
HETATM   30  C   UNL     1      -9.676  11.645  66.157  1.00  0.00    -0.253 A  
HETATM   31  O   UNL     1      -7.496   9.249  64.618  1.00  0.00    -0.097 OA 
HETATM   32  C   UNL     1      -8.546  10.853  65.926  1.00  0.00    -0.176 A  
HETATM   33  C   UNL     1      -8.600  12.587  68.114  1.00  0.00    -0.189 A  
HETATM   34  C   UNL     1      -7.433  10.947  66.769  1.00  0.00    -0.134 A  
HETATM   35  N   UNL     1      -8.526   9.915  64.797  1.00  0.00    -0.159 N  
ENDBRANCH  12  27
ENDBRANCH   3   5
ENDBRANCH   2   3
TORSDOF 10
ENDMDL
MODEL       35
REMARK 921   NORMALIZED FREE ENERGY PREDICTED BY IDOCK:   -6.20 KCAL/MOL
REMARK 922        TOTAL FREE ENERGY PREDICTED BY IDOCK:  -11.34 KCAL/MOL
REMARK 923 INTER-LIGAND FREE ENERGY PREDICTED BY IDOCK:   -9.79 KCAL/MOL
REMARK 924 INTRA-LIGAND FREE ENERGY PREDICTED BY IDOCK:   -1.55 KCAL/MOL
REMARK 927      BINDING AFFINITY PREDICTED BY RF-SCORE:    0.00 PKD
ROOT
HETATM    1  C   UNL     1     -10.349  16.419  67.213  1.00  0.00    -0.287 C  
HETATM    2  O   UNL     1      -9.965  15.178  67.815  1.00  0.00    -0.223 OA 
ENDROOT
BRANCH   2   3
HETATM    3  C   UNL     1      -8.770  14.720  67.361  1.00  0.00    -0.198 C  
HETATM    4  O   UNL     1      -8.210  15.116  66.350  1.00  0.00    -0.062 OA 
BRANCH   3   5
HETATM    5  C   UNL     1      -8.246  13.633  68.226  1.00  0.00    -0.156 C  
HETATM    6  C   UNL     1      -7.067  13.785  68.877  1.00  0.00    -0.107 C  
HETATM    7  C   UNL     1      -6.217  15.033  68.915  1.00  0.00    -0.089 C  
HETATM    8  N   UNL     1      -6.529  12.719  69.576  1.00  0.00    -0.106 NA 
HETATM    9  C   UNL     1      -7.003  11.422  69.529  1.00  0.00    -0.063 C  
HETATM   10  C   UNL     1      -8.173  11.155  68.901  1.00  0.00    -0.104 C  
HETATM   11  C   UNL     1      -6.147  10.397  70.238  1.00  0.00    -0.107 C  
HETATM   12  C   UNL     1      -9.001  12.293  68.274  1.00  0.00    -0.182 C  
BRANCH  10  13
HETATM   13  C   UNL     1      -8.716   9.767  68.910  1.00  0.00    -0.136 C  
HETATM   14  O   UNL     1      -8.151   8.779  68.465  1.00  0.00    -0.113 OA 
BRANCH  13  15
HETATM   15  O   UNL     1      -9.835   9.728  69.674  1.00  0.00    -0.194 OA 
BRANCH  15  16
HETATM   16  C   UNL     1      -9.690   8.934  70.863  1.00  0.00    -0.239 C  
BRANCH  16  17
HETATM   17  C   UNL     1     -10.858   9.332  71.779  1.00  0.00    -0.288 C  
BRANCH  17  18
HETATM   18  N   UNL     1     -12.211   9.256  71.212  1.00  0.00    -0.320 NA 
HETATM   19  C   UNL     1     -12.744   7.897  71.331  1.00  0.00    -0.292 C  
BRANCH  18  20
HETATM   20  C   UNL     1     -13.104  10.204  71.922  1.00  0.00    -0.466 C  
BRANCH  20  21
HETATM   21  C   UNL     1     -12.881  11.651  71.521  1.00  0.00    -0.469 A  
HETATM   22  C   UNL     1     -13.414  12.691  72.296  1.00  0.00    -0.541 A  
HETATM   23  C   UNL     1     -13.294  14.017  71.886  1.00  0.00    -0.489 A  
HETATM   24  C   UNL     1     -12.630  14.323  70.700  1.00  0.00    -0.424 A  
HETATM   25  C   UNL     1     -12.076  13.302  69.928  1.00  0.00    -0.377 A  
HETATM   26  C   UNL     1     -12.197  11.971  70.336  1.00  0.00    -0.379 A  
ENDBRANCH  20  21
ENDBRANCH  18  20
ENDBRANCH  17  18
ENDBRANCH  16  17
ENDBRANCH  15  16
ENDBRANCH  13  15
ENDBRANCH  10  13
BRANCH  12  27
HETATM   27  C   UNL     1      -9.545  11.905  66.896  1.00  0.00    -0.208 A  
HETATM   28  C   UNL     1      -9.273  10.782  64.761  1.00  0.00    -0.245 A  
HETATM   29  O   UNL     1     -13.268  13.194  65.573  1.00  0.00    -0.460 OA 
HETATM   30  C   UNL     1     -10.801  12.382  66.470  1.00  0.00    -0.284 A  
HETATM   31  O   UNL     1     -12.985  12.216  63.631  1.00  0.00    -0.780 OA 
HETATM   32  C   UNL     1     -11.284  12.047  65.201  1.00  0.00    -0.315 A  
HETATM   33  C   UNL     1      -8.796  11.091  66.034  1.00  0.00    -0.199 A  
HETATM   34  C   UNL     1     -10.514  11.260  64.337  1.00  0.00    -0.407 A  
HETATM   35  N   UNL     1     -12.606  12.519  64.771  1.00  0.00    -0.484 N  
ENDBRANCH  12  27
ENDBRANCH   3   5
ENDBRANCH   2   3
TORSDOF 10
ENDMDL
MODEL       36
REMARK 921   NORMALIZED FREE ENERGY PREDICTED BY IDOCK:   -6.19 KCAL/MOL
REMARK 922        TOTAL FREE ENERGY PREDICTED BY IDOCK:  -11.33 KCAL/MOL
REMARK 923 INTER-LIGAND FREE ENERGY PREDICTED BY IDOCK:   -9.75 KCAL/MOL
REMARK 924 INTRA-LIGAND FREE ENERGY PREDICTED BY IDOCK:   -1.58 KCAL/MOL
REMARK 927      BINDING AFFINITY PREDICTED BY RF-SCORE:    0.00 PKD
ROOT
HETATM    1  C   UNL     1     -11.389   6.203  70.958  1.00  0.00    -0.282 C  
HETATM    2  O   UNL     1     -11.921   7.532  70.922  1.00  0.00    -0.298 OA 
ENDROOT
BRANCH   2   3
HETATM    3  C   UNL     1     -11.107   8.442  71.517  1.00  0.00    -0.266 C  
HETATM    4  O   UNL     1     -10.436   8.229  72.516  1.00  0.00    -0.311 OA 
BRANCH   3   5
HETATM    5  C   UNL     1     -11.171   9.755  70.828  1.00  0.00    -0.419 C  
HETATM    6  C   UNL     1     -12.206  10.598  71.057  1.00  0.00    -0.393 C  
HETATM    7  C   UNL     1     -13.319  10.402  72.058  1.00  0.00    -0.440 C  
HETATM    8  N   UNL     1     -12.319  11.760  70.314  1.00  0.00    -0.273 NA 
HETATM    9  C   UNL     1     -11.552  12.069  69.207  1.00  0.00    -0.321 C  
HETATM   10  C   UNL     1     -10.492  11.291  68.883  1.00  0.00    -0.232 C  
HETATM   11  C   UNL     1     -11.975  13.311  68.456  1.00  0.00    -0.340 C  
HETATM   12  C   UNL     1     -10.108  10.088  69.765  1.00  0.00    -0.284 C  
BRANCH  10  13
HETATM   13  C   UNL     1      -9.625  11.665  67.729  1.00  0.00    -0.178 C  
HETATM   14  O   UNL     1      -9.862  11.422  66.555  1.00  0.00    -0.200 OA 
BRANCH  13  15
HETATM   15  O   UNL     1      -8.645  12.498  68.155  1.00  0.00    -0.177 OA 
BRANCH  15  16
HETATM   16  C   UNL     1      -8.226  13.447  67.160  1.00  0.00    -0.110 C  
BRANCH  16  17
HETATM   17  C   UNL     1      -8.807  14.799  67.600  1.00  0.00    -0.179 C  
BRANCH  17  18
HETATM   18  N   UNL     1      -9.509  15.591  66.582  1.00  0.00    -0.242 NA 
HETATM   19  C   UNL     1     -10.040  14.722  65.528  1.00  0.00    -0.380 C  
BRANCH  18  20
HETATM   20  C   UNL     1     -10.622  16.342  67.213  1.00  0.00    -0.293 C  
BRANCH  20  21
HETATM   21  C   UNL     1     -10.352  17.832  67.319  1.00  0.00    -0.364 A  
HETATM   22  C   UNL     1     -10.239  18.616  66.162  1.00  0.00    -0.450 A  
HETATM   23  C   UNL     1      -9.900  19.965  66.246  1.00  0.00    -0.570 A  
HETATM   24  C   UNL     1      -9.679  20.552  67.491  1.00  0.00    -0.554 A  
HETATM   25  C   UNL     1      -9.807  19.791  68.652  1.00  0.00    -0.491 A  
HETATM   26  C   UNL     1     -10.145  18.438  68.570  1.00  0.00    -0.413 A  
ENDBRANCH  20  21
ENDBRANCH  18  20
ENDBRANCH  17  18
ENDBRANCH  16  17
ENDBRANCH  15  16
ENDBRANCH  13  15
ENDBRANCH  10  13
BRANCH  12  27
HETATM   27  C   UNL     1      -9.752   8.859  68.923  1.00  0.00    -0.173 A  
HETATM   28  C   UNL     1     -10.314   7.257  67.188  1.00  0.00    -0.367 A  
HETATM   29  O   UNL     1      -6.211   6.762  69.503  1.00  0.00    -0.031 OA 
HETATM   30  C   UNL     1      -8.554   8.157  69.165  1.00  0.00    -0.136 A  
HETATM   31  O   UNL     1      -6.756   5.295  67.967  1.00  0.00    -0.051 OA 
HETATM   32  C   UNL     1      -8.244   7.020  68.411  1.00  0.00    -0.124 A  
HETATM   33  C   UNL     1     -10.618   8.404  67.918  1.00  0.00    -0.218 A  
HETATM   34  C   UNL     1      -9.130   6.558  67.432  1.00  0.00    -0.112 A  
HETATM   35  N   UNL     1      -6.980   6.309  68.644  1.00  0.00    -0.077 N  
ENDBRANCH  12  27
ENDBRANCH   3   5
ENDBRANCH   2   3
TORSDOF 10
ENDMDL
MODEL       37
REMARK 921   NORMALIZED FREE ENERGY PREDICTED BY IDOCK:   -6.15 KCAL/MOL
REMARK 922        TOTAL FREE ENERGY PREDICTED BY IDOCK:  -11.26 KCAL/MOL
REMARK 923 INTER-LIGAND FREE ENERGY PREDICTED BY IDOCK:   -9.68 KCAL/MOL
REMARK 924 INTRA-LIGAND FREE ENERGY PREDICTED BY IDOCK:   -1.57 KCAL/MOL
REMARK 927      BINDING AFFINITY PREDICTED BY RF-SCORE:    0.00 PKD
ROOT
HETATM    1  C   UNL     1     -11.940  16.017  72.817  1.00  0.00    -0.518 C  
HETATM    2  O   UNL     1     -11.496  15.333  71.641  1.00  0.00    -0.370 OA 
ENDROOT
BRANCH   2   3
HETATM    3  C   UNL     1     -12.487  15.156  70.729  1.00  0.00    -0.372 C  
HETATM    4  O   UNL     1     -13.419  15.927  70.553  1.00  0.00    -0.255 OA 
BRANCH   3   5
HETATM    5  C   UNL     1     -12.326  13.873  69.999  1.00  0.00    -0.378 C  
HETATM    6  C   UNL     1     -12.509  12.694  70.641  1.00  0.00    -0.239 C  
HETATM    7  C   UNL     1     -12.980  12.509  72.063  1.00  0.00    -0.379 C  
HETATM    8  N   UNL     1     -12.231  11.508  69.984  1.00  0.00    -0.294 NA 
HETATM    9  C   UNL     1     -11.600  11.411  68.758  1.00  0.00    -0.313 C  
HETATM   10  C   UNL     1     -11.365  12.530  68.032  1.00  0.00    -0.339 C  
HETATM   11  C   UNL     1     -11.249  10.006  68.323  1.00  0.00    -0.195 C  
HETATM   12  C   UNL     1     -11.834  13.905  68.542  1.00  0.00    -0.401 C  
BRANCH  10  13
HETATM   13  C   UNL     1     -10.746  12.416  66.680  1.00  0.00    -0.235 C  
HETATM   14  O   UNL     1     -11.324  12.590  65.617  1.00  0.00    -0.308 OA 
BRANCH  13  15
HETATM   15  O   UNL     1      -9.402  12.298  66.810  1.00  0.00    -0.205 OA 
BRANCH  15  16
HETATM   16  C   UNL     1      -8.800  11.464  65.806  1.00  0.00    -0.111 C  
BRANCH  16  17
HETATM   17  C   UNL     1      -7.934  10.450  66.569  1.00  0.00    -0.123 C  
BRANCH  17  18
HETATM   18  N   UNL     1      -7.984   9.053  66.119  1.00  0.00    -0.102 NA 
HETATM   19  C   UNL     1      -7.050   8.834  65.011  1.00  0.00    -0.080 C  
BRANCH  18  20
HETATM   20  C   UNL     1      -7.636   8.153  67.246  1.00  0.00    -0.097 C  
BRANCH  20  21
HETATM   21  C   UNL     1      -8.827   7.380  67.782  1.00  0.00    -0.128 A  
HETATM   22  C   UNL     1      -9.873   7.007  66.925  1.00  0.00    -0.259 A  
HETATM   23  C   UNL     1     -11.013   6.379  67.425  1.00  0.00    -0.463 A  
HETATM   24  C   UNL     1     -11.118   6.107  68.788  1.00  0.00    -0.398 A  
HETATM   25  C   UNL     1     -10.078   6.453  69.650  1.00  0.00    -0.209 A  
HETATM   26  C   UNL     1      -8.935   7.084  69.151  1.00  0.00    -0.134 A  
ENDBRANCH  20  21
ENDBRANCH  18  20
ENDBRANCH  17  18
ENDBRANCH  16  17
ENDBRANCH  15  16
ENDBRANCH  13  15
ENDBRANCH  10  13
BRANCH  12  27
HETATM   27  C   UNL     1     -10.763  14.981  68.334  1.00  0.00    -0.245 A  
HETATM   28  C   UNL     1      -8.706  16.070  69.024  1.00  0.00    -0.245 A  
HETATM   29  O   UNL     1     -11.018  17.751  65.246  1.00  0.00    -0.557 OA 
HETATM   30  C   UNL     1     -10.896  15.920  67.292  1.00  0.00    -0.279 A  
HETATM   31  O   UNL     1      -9.185  18.754  65.912  1.00  0.00    -0.457 OA 
HETATM   32  C   UNL     1      -9.929  16.917  67.120  1.00  0.00    -0.276 A  
HETATM   33  C   UNL     1      -9.653  15.059  69.185  1.00  0.00    -0.202 A  
HETATM   34  C   UNL     1      -8.841  17.005  67.995  1.00  0.00    -0.223 A  
HETATM   35  N   UNL     1     -10.053  17.875  66.014  1.00  0.00    -0.296 N  
ENDBRANCH  12  27
ENDBRANCH   3   5
ENDBRANCH   2   3
TORSDOF 10
ENDMDL
MODEL       38
REMARK 921   NORMALIZED FREE ENERGY PREDICTED BY IDOCK:   -6.15 KCAL/MOL
REMARK 922        TOTAL FREE ENERGY PREDICTED BY IDOCK:  -11.26 KCAL/MOL
REMARK 923 INTER-LIGAND FREE ENERGY PREDICTED BY IDOCK:  -10.39 KCAL/MOL
REMARK 924 INTRA-LIGAND FREE ENERGY PREDICTED BY IDOCK:   -0.87 KCAL/MOL
REMARK 927      BINDING AFFINITY PREDICTED BY RF-SCORE:    0.00 PKD
ROOT
HETATM    1  C   UNL     1      -6.386  10.340  62.770  1.00  0.00    -0.138 C  
HETATM    2  O   UNL     1      -7.643  11.011  62.908  1.00  0.00     0.088 OA 
ENDROOT
BRANCH   2   3
HETATM    3  C   UNL     1      -8.640  10.182  63.312  1.00  0.00    -0.198 C  
HETATM    4  O   UNL     1      -9.442   9.640  62.566  1.00  0.00    -0.203 OA 
BRANCH   3   5
HETATM    5  C   UNL     1      -8.669  10.053  64.791  1.00  0.00    -0.206 C  
HETATM    6  C   UNL     1      -8.443   8.853  65.377  1.00  0.00    -0.160 C  
HETATM    7  C   UNL     1      -8.044   7.574  64.680  1.00  0.00    -0.101 C  
HETATM    8  N   UNL     1      -8.598   8.720  66.746  1.00  0.00    -0.114 NA 
HETATM    9  C   UNL     1      -9.146   9.677  67.577  1.00  0.00    -0.130 C  
HETATM   10  C   UNL     1      -9.416  10.914  67.093  1.00  0.00    -0.178 C  
HETATM   11  C   UNL     1      -9.373   9.238  69.005  1.00  0.00    -0.151 C  
HETATM   12  C   UNL     1      -9.075  11.274  65.635  1.00  0.00    -0.203 C  
BRANCH  10  13
HETATM   13  C   UNL     1      -9.944  11.965  68.009  1.00  0.00    -0.190 C  
HETATM   14  O   UNL     1      -9.266  12.712  68.699  1.00  0.00    -0.106 OA 
BRANCH  13  15
HETATM   15  O   UNL     1     -11.276  12.112  67.803  1.00  0.00    -0.240 OA 
BRANCH  15  16
HETATM   16  C   UNL     1     -11.882  13.097  68.656  1.00  0.00    -0.328 C  
BRANCH  16  17
HETATM   17  C   UNL     1     -11.879  14.406  67.853  1.00  0.00    -0.349 C  
BRANCH  17  18
HETATM   18  N   UNL     1     -11.540  15.637  68.578  1.00  0.00    -0.374 NA 
HETATM   19  C   UNL     1     -11.885  15.511  69.997  1.00  0.00    -0.359 C  
BRANCH  18  20
HETATM   20  C   UNL     1     -10.089  15.913  68.443  1.00  0.00    -0.223 C  
BRANCH  20  21
HETATM   21  C   UNL     1      -9.780  17.378  68.190  1.00  0.00    -0.291 A  
HETATM   22  C   UNL     1     -10.766  18.229  67.669  1.00  0.00    -0.373 A  
HETATM   23  C   UNL     1     -10.465  19.551  67.346  1.00  0.00    -0.593 A  
HETATM   24  C   UNL     1      -9.177  20.043  67.548  1.00  0.00    -0.475 A  
HETATM   25  C   UNL     1      -8.192  19.215  68.084  1.00  0.00    -0.353 A  
HETATM   26  C   UNL     1      -8.490  17.889  68.407  1.00  0.00    -0.300 A  
ENDBRANCH  20  21
ENDBRANCH  18  20
ENDBRANCH  17  18
ENDBRANCH  16  17
ENDBRANCH  15  16
ENDBRANCH  13  15
ENDBRANCH  10  13
BRANCH  12  27
HETATM   27  C   UNL     1     -10.204  12.067  64.969  1.00  0.00    -0.308 A  
HETATM   28  C   UNL     1     -12.264  12.131  63.688  1.00  0.00    -0.663 A  
HETATM   29  O   UNL     1     -10.255  16.223  64.977  1.00  0.00    -0.553 OA 
HETATM   30  C   UNL     1     -10.175  13.476  64.969  1.00  0.00    -0.345 A  
HETATM   31  O   UNL     1     -12.090  16.264  63.777  1.00  0.00    -0.959 OA 
HETATM   32  C   UNL     1     -11.194  14.198  64.338  1.00  0.00    -0.278 A  
HETATM   33  C   UNL     1     -11.265  11.407  64.336  1.00  0.00    -0.277 A  
HETATM   34  C   UNL     1     -12.232  13.527  63.682  1.00  0.00    -0.438 A  
HETATM   35  N   UNL     1     -11.178  15.666  64.366  1.00  0.00    -0.321 N  
ENDBRANCH  12  27
ENDBRANCH   3   5
ENDBRANCH   2   3
TORSDOF 10
ENDMDL
MODEL       39
REMARK 921   NORMALIZED FREE ENERGY PREDICTED BY IDOCK:   -6.12 KCAL/MOL
REMARK 922        TOTAL FREE ENERGY PREDICTED BY IDOCK:  -11.22 KCAL/MOL
REMARK 923 INTER-LIGAND FREE ENERGY PREDICTED BY IDOCK:   -9.14 KCAL/MOL
REMARK 924 INTRA-LIGAND FREE ENERGY PREDICTED BY IDOCK:   -2.08 KCAL/MOL
REMARK 927      BINDING AFFINITY PREDICTED BY RF-SCORE:    0.00 PKD
ROOT
HETATM    1  C   UNL     1      -9.326   7.238  73.665  1.00  0.00    -0.233 C  
HETATM    2  O   UNL     1      -9.869   8.424  73.075  1.00  0.00    -0.242 OA 
ENDROOT
BRANCH   2   3
HETATM    3  C   UNL     1     -10.751   8.159  72.077  1.00  0.00    -0.278 C  
HETATM    4  O   UNL     1     -11.267   7.070  71.872  1.00  0.00    -0.237 OA 
BRANCH   3   5
HETATM    5  C   UNL     1     -10.976   9.354  71.225  1.00  0.00    -0.440 C  
HETATM    6  C   UNL     1     -12.162  10.007  71.263  1.00  0.00    -0.402 C  
HETATM    7  C   UNL     1     -13.319   9.716  72.189  1.00  0.00    -0.545 C  
HETATM    8  N   UNL     1     -12.403  11.040  70.374  1.00  0.00    -0.344 NA 
HETATM    9  C   UNL     1     -11.595  11.366  69.301  1.00  0.00    -0.317 C  
HETATM   10  C   UNL     1     -10.386  10.770  69.164  1.00  0.00    -0.238 C  
HETATM   11  C   UNL     1     -12.153  12.417  68.370  1.00  0.00    -0.114 C  
HETATM   12  C   UNL     1      -9.887   9.763  70.218  1.00  0.00    -0.296 C  
BRANCH  10  13
HETATM   13  C   UNL     1      -9.487  11.173  68.045  1.00  0.00    -0.174 C  
HETATM   14  O   UNL     1      -9.564  10.772  66.893  1.00  0.00    -0.167 OA 
BRANCH  13  15
HETATM   15  O   UNL     1      -8.707  12.206  68.445  1.00  0.00    -0.176 OA 
BRANCH  15  16
HETATM   16  C   UNL     1      -7.878  12.738  67.398  1.00  0.00    -0.172 C  
BRANCH  16  17
HETATM   17  C   UNL     1      -8.243  14.226  67.290  1.00  0.00    -0.192 C  
BRANCH  17  18
HETATM   18  N   UNL     1      -9.668  14.561  67.166  1.00  0.00    -0.235 NA 
HETATM   19  C   UNL     1      -9.998  15.722  67.997  1.00  0.00    -0.222 C  
BRANCH  18  20
HETATM   20  C   UNL     1      -9.990  14.856  65.749  1.00  0.00    -0.347 C  
BRANCH  20  21
HETATM   21  C   UNL     1     -10.826  13.775  65.088  1.00  0.00    -0.349 A  
HETATM   22  C   UNL     1     -10.223  12.831  64.245  1.00  0.00    -0.352 A  
HETATM   23  C   UNL     1     -10.995  11.892  63.561  1.00  0.00    -0.505 A  
HETATM   24  C   UNL     1     -12.379  11.880  63.720  1.00  0.00    -0.541 A  
HETATM   25  C   UNL     1     -12.992  12.799  64.570  1.00  0.00    -0.210 A  
HETATM   26  C   UNL     1     -12.220  13.742  65.255  1.00  0.00    -0.461 A  
ENDBRANCH  20  21
ENDBRANCH  18  20
ENDBRANCH  17  18
ENDBRANCH  16  17
ENDBRANCH  15  16
ENDBRANCH  13  15
ENDBRANCH  10  13
BRANCH  12  27
HETATM   27  C   UNL     1      -9.235   8.539  69.567  1.00  0.00    -0.150 A  
HETATM   28  C   UNL     1      -7.313   7.091  69.250  1.00  0.00    -0.092 A  
HETATM   29  O   UNL     1     -11.282   6.170  66.832  1.00  0.00    -0.290 OA 
HETATM   30  C   UNL     1      -9.951   7.774  68.624  1.00  0.00    -0.191 A  
HETATM   31  O   UNL     1      -9.521   4.902  66.520  1.00  0.00    -0.132 OA 
HETATM   32  C   UNL     1      -9.346   6.671  68.012  1.00  0.00    -0.113 A  
HETATM   33  C   UNL     1      -7.919   8.176  69.881  1.00  0.00    -0.109 A  
HETATM   34  C   UNL     1      -8.021   6.337  68.311  1.00  0.00    -0.108 A  
HETATM   35  N   UNL     1     -10.104   5.857  67.054  1.00  0.00    -0.163 N  
ENDBRANCH  12  27
ENDBRANCH   3   5
ENDBRANCH   2   3
TORSDOF 10
ENDMDL
MODEL       40
REMARK 921   NORMALIZED FREE ENERGY PREDICTED BY IDOCK:   -6.08 KCAL/MOL
REMARK 922        TOTAL FREE ENERGY PREDICTED BY IDOCK:  -11.16 KCAL/MOL
REMARK 923 INTER-LIGAND FREE ENERGY PREDICTED BY IDOCK:   -9.96 KCAL/MOL
REMARK 924 INTRA-LIGAND FREE ENERGY PREDICTED BY IDOCK:   -1.20 KCAL/MOL
REMARK 927      BINDING AFFINITY PREDICTED BY RF-SCORE:    0.00 PKD
ROOT
HETATM    1  C   UNL     1     -12.180  15.802  70.039  1.00  0.00    -0.285 C  
HETATM    2  O   UNL     1     -10.984  16.575  70.181  1.00  0.00    -0.347 OA 
ENDROOT
BRANCH   2   3
HETATM    3  C   UNL     1     -10.386  16.843  68.991  1.00  0.00    -0.333 C  
HETATM    4  O   UNL     1     -10.863  17.547  68.113  1.00  0.00    -0.361 OA 
BRANCH   3   5
HETATM    5  C   UNL     1      -9.090  16.129  68.866  1.00  0.00    -0.246 C  
HETATM    6  C   UNL     1      -7.927  16.822  68.843  1.00  0.00    -0.237 C  
HETATM    7  C   UNL     1      -7.764  18.311  69.040  1.00  0.00    -0.151 C  
HETATM    8  N   UNL     1      -6.738  16.157  68.599  1.00  0.00    -0.123 NA 
HETATM    9  C   UNL     1      -6.638  14.841  68.189  1.00  0.00    -0.132 C  
HETATM   10  C   UNL     1      -7.742  14.056  68.171  1.00  0.00    -0.143 C  
HETATM   11  C   UNL     1      -5.246  14.385  67.816  1.00  0.00     0.008 C  
HETATM   12  C   UNL     1      -9.101  14.606  68.644  1.00  0.00    -0.189 C  
BRANCH  10  13
HETATM   13  C   UNL     1      -7.619  12.618  67.795  1.00  0.00    -0.141 C  
HETATM   14  O   UNL     1      -7.182  12.196  66.734  1.00  0.00    -0.053 OA 
BRANCH  13  15
HETATM   15  O   UNL     1      -7.866  11.847  68.881  1.00  0.00    -0.090 OA 
BRANCH  15  16
HETATM   16  C   UNL     1      -7.002  10.703  68.980  1.00  0.00    -0.080 C  
BRANCH  16  17
HETATM   17  C   UNL     1      -7.892   9.480  68.711  1.00  0.00    -0.084 C  
BRANCH  17  18
HETATM   18  N   UNL     1      -9.337   9.644  68.920  1.00  0.00    -0.147 NA 
HETATM   19  C   UNL     1     -10.070   9.369  67.681  1.00  0.00    -0.211 C  
BRANCH  18  20
HETATM   20  C   UNL     1      -9.796   8.717  69.984  1.00  0.00    -0.178 C  
BRANCH  20  21
HETATM   21  C   UNL     1     -11.067   9.181  70.672  1.00  0.00    -0.320 A  
HETATM   22  C   UNL     1     -11.523  10.497  70.505  1.00  0.00    -0.433 A  
HETATM   23  C   UNL     1     -12.636  10.958  71.205  1.00  0.00    -0.526 A  
HETATM   24  C   UNL     1     -13.314  10.106  72.076  1.00  0.00    -0.492 A  
HETATM   25  C   UNL     1     -12.886   8.790  72.237  1.00  0.00    -0.465 A  
HETATM   26  C   UNL     1     -11.769   8.325  71.537  1.00  0.00    -0.337 A  
ENDBRANCH  20  21
ENDBRANCH  18  20
ENDBRANCH  17  18
ENDBRANCH  16  17
ENDBRANCH  15  16
ENDBRANCH  13  15
ENDBRANCH  10  13
BRANCH  12  27
HETATM   27  C   UNL     1     -10.239  14.183  67.710  1.00  0.00    -0.242 A  
HETATM   28  C   UNL     1     -12.018  12.642  67.118  1.00  0.00    -0.326 A  
HETATM   29  O   UNL     1     -11.151  16.324  64.266  1.00  0.00    -0.762 OA 
HETATM   30  C   UNL     1     -10.503  14.918  66.537  1.00  0.00    -0.297 A  
HETATM   31  O   UNL     1     -12.722  14.895  63.720  1.00  0.00    -0.754 OA 
HETATM   32  C   UNL     1     -11.527  14.515  65.673  1.00  0.00    -0.341 A  
HETATM   33  C   UNL     1     -11.016  13.052  67.996  1.00  0.00    -0.274 A  
HETATM   34  C   UNL     1     -12.276  13.367  65.952  1.00  0.00    -0.502 A  
HETATM   35  N   UNL     1     -11.820  15.301  64.468  1.00  0.00    -0.364 N  
ENDBRANCH  12  27
ENDBRANCH   3   5
ENDBRANCH   2   3
TORSDOF 10
ENDMDL
MODEL       41
REMARK 921   NORMALIZED FREE ENERGY PREDICTED BY IDOCK:   -6.07 KCAL/MOL
REMARK 922        TOTAL FREE ENERGY PREDICTED BY IDOCK:  -11.14 KCAL/MOL
REMARK 923 INTER-LIGAND FREE ENERGY PREDICTED BY IDOCK:   -8.92 KCAL/MOL
REMARK 924 INTRA-LIGAND FREE ENERGY PREDICTED BY IDOCK:   -2.22 KCAL/MOL
REMARK 927      BINDING AFFINITY PREDICTED BY RF-SCORE:    0.00 PKD
ROOT
HETATM    1  C   UNL     1      -9.925   6.436  73.851  1.00  0.00    -0.258 C  
HETATM    2  O   UNL     1     -10.550   7.674  73.493  1.00  0.00    -0.343 OA 
ENDROOT
BRANCH   2   3
HETATM    3  C   UNL     1     -11.351   7.564  72.403  1.00  0.00    -0.312 C  
HETATM    4  O   UNL     1     -11.945   6.548  72.073  1.00  0.00    -0.321 OA 
BRANCH   3   5
HETATM    5  C   UNL     1     -11.381   8.829  71.625  1.00  0.00    -0.390 C  
HETATM    6  C   UNL     1     -12.504   9.584  71.590  1.00  0.00    -0.391 C  
HETATM    7  C   UNL     1     -13.776   9.340  72.368  1.00  0.00    -0.517 C  
HETATM    8  N   UNL     1     -12.559  10.691  70.761  1.00  0.00    -0.361 NA 
HETATM    9  C   UNL     1     -11.614  11.012  69.806  1.00  0.00    -0.325 C  
HETATM   10  C   UNL     1     -10.452  10.318  69.749  1.00  0.00    -0.300 C  
HETATM   11  C   UNL     1     -11.976  12.169  68.903  1.00  0.00    -0.296 C  
HETATM   12  C   UNL     1     -10.157   9.202  70.769  1.00  0.00    -0.333 C  
BRANCH  10  13
HETATM   13  C   UNL     1      -9.406  10.710  68.762  1.00  0.00    -0.180 C  
HETATM   14  O   UNL     1      -8.299  11.149  69.037  1.00  0.00    -0.134 OA 
BRANCH  13  15
HETATM   15  O   UNL     1      -9.784  10.308  67.524  1.00  0.00    -0.164 OA 
BRANCH  15  16
HETATM   16  C   UNL     1      -8.707   9.762  66.744  1.00  0.00    -0.131 C  
BRANCH  16  17
HETATM   17  C   UNL     1      -9.301   9.462  65.360  1.00  0.00    -0.247 C  
BRANCH  17  18
HETATM   18  N   UNL     1      -9.300  10.555  64.378  1.00  0.00    -0.238 NA 
HETATM   19  C   UNL     1      -8.679  10.121  63.124  1.00  0.00    -0.211 C  
BRANCH  18  20
HETATM   20  C   UNL     1     -10.693  10.992  64.116  1.00  0.00    -0.274 C  
BRANCH  20  21
HETATM   21  C   UNL     1     -11.060  12.280  64.832  1.00  0.00    -0.356 A  
HETATM   22  C   UNL     1     -12.406  12.620  65.031  1.00  0.00    -0.561 A  
HETATM   23  C   UNL     1     -12.753  13.842  65.604  1.00  0.00    -0.534 A  
HETATM   24  C   UNL     1     -11.758  14.738  65.994  1.00  0.00    -0.248 A  
HETATM   25  C   UNL     1     -10.415  14.405  65.821  1.00  0.00    -0.329 A  
HETATM   26  C   UNL     1     -10.065  13.181  65.245  1.00  0.00    -0.250 A  
ENDBRANCH  20  21
ENDBRANCH  18  20
ENDBRANCH  17  18
ENDBRANCH  16  17
ENDBRANCH  15  16
ENDBRANCH  13  15
ENDBRANCH  10  13
BRANCH  12  27
HETATM   27  C   UNL     1      -9.544   7.969  70.098  1.00  0.00    -0.175 A  
HETATM   28  C   UNL     1      -9.707   6.119  68.536  1.00  0.00    -0.141 A  
HETATM   29  O   UNL     1      -5.761   6.581  71.116  1.00  0.00    -0.026 OA 
HETATM   30  C   UNL     1      -8.269   7.512  70.487  1.00  0.00    -0.118 A  
HETATM   31  O   UNL     1      -5.944   4.887  69.737  1.00  0.00    -0.019 OA 
HETATM   32  C   UNL     1      -7.722   6.371  69.891  1.00  0.00    -0.109 A  
HETATM   33  C   UNL     1     -10.247   7.269  69.108  1.00  0.00    -0.197 A  
HETATM   34  C   UNL     1      -8.446   5.662  68.926  1.00  0.00    -0.102 A  
HETATM   35  N   UNL     1      -6.380   5.914  70.275  1.00  0.00    -0.030 N  
ENDBRANCH  12  27
ENDBRANCH   3   5
ENDBRANCH   2   3
TORSDOF 10
ENDMDL
MODEL       42
REMARK 921   NORMALIZED FREE ENERGY PREDICTED BY IDOCK:   -6.05 KCAL/MOL
REMARK 922        TOTAL FREE ENERGY PREDICTED BY IDOCK:  -11.10 KCAL/MOL
REMARK 923 INTER-LIGAND FREE ENERGY PREDICTED BY IDOCK:   -9.75 KCAL/MOL
REMARK 924 INTRA-LIGAND FREE ENERGY PREDICTED BY IDOCK:   -1.35 KCAL/MOL
REMARK 927      BINDING AFFINITY PREDICTED BY RF-SCORE:    0.00 PKD
ROOT
HETATM    1  C   UNL     1      -9.806   5.655  67.643  1.00  0.00    -0.135 C  
HETATM    2  O   UNL     1      -9.991   6.630  66.610  1.00  0.00    -0.175 OA 
ENDROOT
BRANCH   2   3
HETATM    3  C   UNL     1      -9.167   7.701  66.743  1.00  0.00    -0.160 C  
HETATM    4  O   UNL     1      -7.966   7.635  66.959  1.00  0.00    -0.112 OA 
BRANCH   3   5
HETATM    5  C   UNL     1      -9.921   8.977  66.642  1.00  0.00    -0.349 C  
HETATM    6  C   UNL     1      -9.752   9.787  65.570  1.00  0.00    -0.312 C  
HETATM    7  C   UNL     1      -8.919   9.494  64.344  1.00  0.00    -0.255 C  
HETATM    8  N   UNL     1     -10.361  11.030  65.549  1.00  0.00    -0.263 NA 
HETATM    9  C   UNL     1     -11.004  11.614  66.623  1.00  0.00    -0.299 C  
HETATM   10  C   UNL     1     -11.223  10.894  67.749  1.00  0.00    -0.384 C  
HETATM   11  C   UNL     1     -11.439  13.046  66.414  1.00  0.00    -0.384 C  
HETATM   12  C   UNL     1     -10.801   9.414  67.826  1.00  0.00    -0.223 C  
BRANCH  10  13
HETATM   13  C   UNL     1     -11.977  11.505  68.882  1.00  0.00    -0.299 C  
HETATM   14  O   UNL     1     -12.923  10.994  69.463  1.00  0.00    -0.092 OA 
BRANCH  13  15
HETATM   15  O   UNL     1     -11.325  12.614  69.308  1.00  0.00    -0.260 OA 
BRANCH  15  16
HETATM   16  C   UNL     1     -12.098  13.421  70.212  1.00  0.00    -0.349 C  
BRANCH  16  17
HETATM   17  C   UNL     1     -12.258  14.785  69.523  1.00  0.00    -0.243 C  
BRANCH  17  18
HETATM   18  N   UNL     1     -11.613  15.939  70.162  1.00  0.00    -0.344 NA 
HETATM   19  C   UNL     1     -11.429  15.699  71.596  1.00  0.00    -0.429 C  
BRANCH  18  20
HETATM   20  C   UNL     1     -10.295  16.188  69.528  1.00  0.00    -0.282 C  
BRANCH  20  21
HETATM   21  C   UNL     1     -10.367  17.149  68.355  1.00  0.00    -0.362 A  
HETATM   22  C   UNL     1     -10.366  16.661  67.040  1.00  0.00    -0.301 A  
HETATM   23  C   UNL     1     -10.339  17.538  65.956  1.00  0.00    -0.309 A  
HETATM   24  C   UNL     1     -10.323  18.914  66.174  1.00  0.00    -0.517 A  
HETATM   25  C   UNL     1     -10.345  19.415  67.474  1.00  0.00    -0.556 A  
HETATM   26  C   UNL     1     -10.370  18.538  68.562  1.00  0.00    -0.315 A  
ENDBRANCH  20  21
ENDBRANCH  18  20
ENDBRANCH  17  18
ENDBRANCH  16  17
ENDBRANCH  15  16
ENDBRANCH  13  15
ENDBRANCH  10  13
BRANCH  12  27
HETATM   27  C   UNL     1     -10.142   9.083  69.168  1.00  0.00    -0.201 A  
HETATM   28  C   UNL     1      -8.288   9.303  70.719  1.00  0.00    -0.230 A  
HETATM   29  O   UNL     1     -11.928   6.511  71.902  1.00  0.00    -0.323 OA 
HETATM   30  C   UNL     1     -10.765   8.186  70.060  1.00  0.00    -0.243 A  
HETATM   31  O   UNL     1     -10.222   6.682  73.270  1.00  0.00    -0.197 OA 
HETATM   32  C   UNL     1     -10.149   7.865  71.275  1.00  0.00    -0.180 A  
HETATM   33  C   UNL     1      -8.908   9.646  69.519  1.00  0.00    -0.197 A  
HETATM   34  C   UNL     1      -8.902   8.409  71.600  1.00  0.00    -0.246 A  
HETATM   35  N   UNL     1     -10.814   6.955  72.215  1.00  0.00    -0.223 N  
ENDBRANCH  12  27
ENDBRANCH   3   5
ENDBRANCH   2   3
TORSDOF 10
ENDMDL
MODEL       43
REMARK 921   NORMALIZED FREE ENERGY PREDICTED BY IDOCK:   -6.05 KCAL/MOL
REMARK 922        TOTAL FREE ENERGY PREDICTED BY IDOCK:  -11.10 KCAL/MOL
REMARK 923 INTER-LIGAND FREE ENERGY PREDICTED BY IDOCK:   -8.24 KCAL/MOL
REMARK 924 INTRA-LIGAND FREE ENERGY PREDICTED BY IDOCK:   -2.86 KCAL/MOL
REMARK 927      BINDING AFFINITY PREDICTED BY RF-SCORE:    0.00 PKD
ROOT
HETATM    1  C   UNL     1      -5.902  15.009  70.011  1.00  0.00    -0.135 C  
HETATM    2  O   UNL     1      -5.796  13.855  69.170  1.00  0.00    -0.080 OA 
ENDROOT
BRANCH   2   3
HETATM    3  C   UNL     1      -6.472  13.992  68.000  1.00  0.00    -0.149 C  
HETATM    4  O   UNL     1      -6.314  14.906  67.205  1.00  0.00    -0.310 OA 
BRANCH   3   5
HETATM    5  C   UNL     1      -7.474  12.909  67.827  1.00  0.00    -0.136 C  
HETATM    6  C   UNL     1      -7.149  11.779  67.154  1.00  0.00    -0.146 C  
HETATM    7  C   UNL     1      -5.788  11.416  66.611  1.00  0.00    -0.144 C  
HETATM    8  N   UNL     1      -8.127  10.836  66.890  1.00  0.00    -0.127 NA 
HETATM    9  C   UNL     1      -9.480  11.019  67.099  1.00  0.00    -0.164 C  
HETATM   10  C   UNL     1      -9.917  12.118  67.760  1.00  0.00    -0.198 C  
HETATM   11  C   UNL     1     -10.370   9.916  66.572  1.00  0.00    -0.259 C  
HETATM   12  C   UNL     1      -8.913  13.144  68.319  1.00  0.00    -0.175 C  
BRANCH  10  13
HETATM   13  C   UNL     1     -11.372  12.279  68.044  1.00  0.00    -0.293 C  
HETATM   14  O   UNL     1     -12.245  12.448  67.206  1.00  0.00    -0.478 OA 
BRANCH  13  15
HETATM   15  O   UNL     1     -11.608  12.000  69.349  1.00  0.00    -0.288 OA 
BRANCH  15  16
HETATM   16  C   UNL     1     -12.282  10.748  69.554  1.00  0.00    -0.221 C  
BRANCH  16  17
HETATM   17  C   UNL     1     -12.136  10.434  71.051  1.00  0.00    -0.385 C  
BRANCH  17  18
HETATM   18  N   UNL     1     -11.201   9.365  71.425  1.00  0.00    -0.358 NA 
HETATM   19  C   UNL     1     -11.790   8.499  72.449  1.00  0.00    -0.367 C  
BRANCH  18  20
HETATM   20  C   UNL     1     -10.861   8.558  70.227  1.00  0.00    -0.238 C  
BRANCH  20  21
HETATM   21  C   UNL     1      -9.396   8.646  69.842  1.00  0.00    -0.160 A  
HETATM   22  C   UNL     1      -8.825   7.681  69.000  1.00  0.00    -0.135 A  
HETATM   23  C   UNL     1      -7.461   7.702  68.716  1.00  0.00    -0.100 A  
HETATM   24  C   UNL     1      -6.650   8.694  69.264  1.00  0.00    -0.049 A  
HETATM   25  C   UNL     1      -7.205   9.673  70.086  1.00  0.00    -0.128 A  
HETATM   26  C   UNL     1      -8.573   9.653  70.374  1.00  0.00    -0.200 A  
ENDBRANCH  20  21
ENDBRANCH  18  20
ENDBRANCH  17  18
ENDBRANCH  16  17
ENDBRANCH  15  16
ENDBRANCH  13  15
ENDBRANCH  10  13
BRANCH  12  27
HETATM   27  C   UNL     1      -9.369  14.583  68.056  1.00  0.00    -0.201 A  
HETATM   28  C   UNL     1      -9.809  16.833  68.849  1.00  0.00    -0.264 A  
HETATM   29  O   UNL     1     -10.694  15.805  64.311  1.00  0.00    -0.225 OA 
HETATM   30  C   UNL     1      -9.836  14.954  66.779  1.00  0.00    -0.254 A  
HETATM   31  O   UNL     1     -11.134  17.820  65.056  1.00  0.00    -0.717 OA 
HETATM   32  C   UNL     1     -10.276  16.263  66.548  1.00  0.00    -0.300 A  
HETATM   33  C   UNL     1      -9.347  15.539  69.080  1.00  0.00    -0.235 A  
HETATM   34  C   UNL     1     -10.279  17.200  67.586  1.00  0.00    -0.329 A  
HETATM   35  N   UNL     1     -10.734  16.657  65.210  1.00  0.00    -0.290 N  
ENDBRANCH  12  27
ENDBRANCH   3   5
ENDBRANCH   2   3
TORSDOF 10
ENDMDL
MODEL       44
REMARK 921   NORMALIZED FREE ENERGY PREDICTED BY IDOCK:   -6.05 KCAL/MOL
REMARK 922        TOTAL FREE ENERGY PREDICTED BY IDOCK:  -11.10 KCAL/MOL
REMARK 923 INTER-LIGAND FREE ENERGY PREDICTED BY IDOCK:   -9.30 KCAL/MOL
REMARK 924 INTRA-LIGAND FREE ENERGY PREDICTED BY IDOCK:   -1.80 KCAL/MOL
REMARK 927      BINDING AFFINITY PREDICTED BY RF-SCORE:    0.00 PKD
ROOT
HETATM    1  C   UNL     1     -10.844   3.332  73.523  1.00  0.00    -0.225 C  
HETATM    2  O   UNL     1     -10.464   3.230  72.147  1.00  0.00    -0.064 OA 
ENDROOT
BRANCH   2   3
HETATM    3  C   UNL     1      -9.356   3.958  71.851  1.00  0.00    -0.131 C  
HETATM    4  O   UNL     1      -8.629   4.489  72.677  1.00  0.00    -0.111 OA 
BRANCH   3   5
HETATM    5  C   UNL     1      -9.162   4.071  70.383  1.00  0.00    -0.204 C  
HETATM    6  C   UNL     1      -8.128   3.437  69.779  1.00  0.00    -0.048 C  
HETATM    7  C   UNL     1      -7.148   2.493  70.434  1.00  0.00    -0.033 C  
HETATM    8  N   UNL     1      -7.884   3.654  68.434  1.00  0.00    -0.063 NA 
HETATM    9  C   UNL     1      -8.504   4.618  67.663  1.00  0.00    -0.103 C  
HETATM   10  C   UNL     1      -9.550   5.316  68.169  1.00  0.00    -0.164 C  
HETATM   11  C   UNL     1      -7.950   4.782  66.266  1.00  0.00    -0.103 C  
HETATM   12  C   UNL     1     -10.080   5.013  69.583  1.00  0.00    -0.321 C  
BRANCH  10  13
HETATM   13  C   UNL     1     -10.260   6.307  67.312  1.00  0.00    -0.191 C  
HETATM   14  O   UNL     1     -11.374   6.160  66.830  1.00  0.00    -0.188 OA 
BRANCH  13  15
HETATM   15  O   UNL     1      -9.579   7.478  67.321  1.00  0.00    -0.142 OA 
BRANCH  15  16
HETATM   16  C   UNL     1     -10.358   8.598  66.866  1.00  0.00    -0.285 C  
BRANCH  16  17
HETATM   17  C   UNL     1     -10.596   9.474  68.106  1.00  0.00    -0.217 C  
BRANCH  17  18
HETATM   18  N   UNL     1     -11.414  10.680  67.927  1.00  0.00    -0.475 NA 
HETATM   19  C   UNL     1     -11.999  11.100  69.204  1.00  0.00    -0.343 C  
BRANCH  18  20
HETATM   20  C   UNL     1     -10.576  11.776  67.382  1.00  0.00    -0.224 C  
BRANCH  20  21
HETATM   21  C   UNL     1     -11.043  12.266  66.023  1.00  0.00    -0.347 A  
HETATM   22  C   UNL     1     -12.135  13.141  65.924  1.00  0.00    -0.501 A  
HETATM   23  C   UNL     1     -12.629  13.523  64.678  1.00  0.00    -0.303 A  
HETATM   24  C   UNL     1     -12.032  13.042  63.514  1.00  0.00    -0.615 A  
HETATM   25  C   UNL     1     -10.934  12.187  63.596  1.00  0.00    -0.527 A  
HETATM   26  C   UNL     1     -10.438  11.802  64.844  1.00  0.00    -0.334 A  
ENDBRANCH  20  21
ENDBRANCH  18  20
ENDBRANCH  17  18
ENDBRANCH  16  17
ENDBRANCH  15  16
ENDBRANCH  13  15
ENDBRANCH  10  13
BRANCH  12  27
HETATM   27  C   UNL     1     -10.382   6.297  70.362  1.00  0.00    -0.260 A  
HETATM   28  C   UNL     1      -9.621   8.282  71.532  1.00  0.00    -0.247 A  
HETATM   29  O   UNL     1     -14.274   7.421  71.295  1.00  0.00    -0.407 OA 
HETATM   30  C   UNL     1     -11.713   6.633  70.683  1.00  0.00    -0.452 A  
HETATM   31  O   UNL     1     -13.567   9.184  72.392  1.00  0.00    -0.453 OA 
HETATM   32  C   UNL     1     -11.985   7.794  71.415  1.00  0.00    -0.306 A  
HETATM   33  C   UNL     1      -9.345   7.141  70.781  1.00  0.00    -0.160 A  
HETATM   34  C   UNL     1     -10.939   8.612  71.856  1.00  0.00    -0.412 A  
HETATM   35  N   UNL     1     -13.374   8.158  71.722  1.00  0.00    -0.341 N  
ENDBRANCH  12  27
ENDBRANCH   3   5
ENDBRANCH   2   3
TORSDOF 10
ENDMDL
MODEL       45
REMARK 921   NORMALIZED FREE ENERGY PREDICTED BY IDOCK:   -6.04 KCAL/MOL
REMARK 922        TOTAL FREE ENERGY PREDICTED BY IDOCK:  -11.09 KCAL/MOL
REMARK 923 INTER-LIGAND FREE ENERGY PREDICTED BY IDOCK:   -9.60 KCAL/MOL
REMARK 924 INTRA-LIGAND FREE ENERGY PREDICTED BY IDOCK:   -1.49 KCAL/MOL
REMARK 927      BINDING AFFINITY PREDICTED BY RF-SCORE:    0.00 PKD
ROOT
HETATM    1  C   UNL     1      -5.895   7.443  71.030  1.00  0.00    -0.035 C  
HETATM    2  O   UNL     1      -7.067   8.241  71.224  1.00  0.00    -0.052 OA 
ENDROOT
BRANCH   2   3
HETATM    3  C   UNL     1      -8.208   7.597  70.865  1.00  0.00    -0.108 C  
HETATM    4  O   UNL     1      -8.250   6.515  70.300  1.00  0.00    -0.121 OA 
BRANCH   3   5
HETATM    5  C   UNL     1      -9.410   8.401  71.203  1.00  0.00    -0.223 C  
HETATM    6  C   UNL     1     -10.222   8.023  72.220  1.00  0.00    -0.260 C  
HETATM    7  C   UNL     1      -9.992   6.875  73.173  1.00  0.00    -0.227 C  
HETATM    8  N   UNL     1     -11.404   8.707  72.441  1.00  0.00    -0.339 NA 
HETATM    9  C   UNL     1     -11.940   9.657  71.594  1.00  0.00    -0.394 C  
HETATM   10  C   UNL     1     -11.214  10.106  70.541  1.00  0.00    -0.411 C  
HETATM   11  C   UNL     1     -13.325  10.140  71.958  1.00  0.00    -0.492 C  
HETATM   12  C   UNL     1      -9.779   9.597  70.307  1.00  0.00    -0.314 C  
BRANCH  10  13
HETATM   13  C   UNL     1     -11.766  11.181  69.668  1.00  0.00    -0.339 C  
HETATM   14  O   UNL     1     -12.464  11.004  68.680  1.00  0.00    -0.462 OA 
BRANCH  13  15
HETATM   15  O   UNL     1     -11.557  12.386  70.251  1.00  0.00    -0.180 OA 
BRANCH  15  16
HETATM   16  C   UNL     1     -11.485  13.472  69.313  1.00  0.00    -0.291 C  
BRANCH  16  17
HETATM   17  C   UNL     1     -12.404  14.569  69.871  1.00  0.00    -0.298 C  
BRANCH  17  18
HETATM   18  N   UNL     1     -11.775  15.837  70.263  1.00  0.00    -0.339 NA 
HETATM   19  C   UNL     1     -11.690  15.940  71.722  1.00  0.00    -0.491 C  
BRANCH  18  20
HETATM   20  C   UNL     1     -10.413  15.920  69.680  1.00  0.00    -0.295 C  
BRANCH  20  21
HETATM   21  C   UNL     1     -10.288  16.981  68.602  1.00  0.00    -0.351 A  
HETATM   22  C   UNL     1     -10.134  18.330  68.952  1.00  0.00    -0.358 A  
HETATM   23  C   UNL     1     -10.111  19.321  67.972  1.00  0.00    -0.496 A  
HETATM   24  C   UNL     1     -10.234  18.975  66.627  1.00  0.00    -0.475 A  
HETATM   25  C   UNL     1     -10.368  17.636  66.262  1.00  0.00    -0.342 A  
HETATM   26  C   UNL     1     -10.392  16.641  67.243  1.00  0.00    -0.298 A  
ENDBRANCH  20  21
ENDBRANCH  18  20
ENDBRANCH  17  18
ENDBRANCH  16  17
ENDBRANCH  15  16
ENDBRANCH  13  15
ENDBRANCH  10  13
BRANCH  12  27
HETATM   27  C   UNL     1      -9.521   9.291  68.828  1.00  0.00    -0.150 A  
HETATM   28  C   UNL     1      -9.928   7.943  66.851  1.00  0.00    -0.332 A  
HETATM   29  O   UNL     1      -6.811  11.500  66.581  1.00  0.00    -0.134 OA 
HETATM   30  C   UNL     1      -8.576  10.045  68.105  1.00  0.00    -0.118 A  
HETATM   31  O   UNL     1      -7.153  10.242  64.818  1.00  0.00    -0.138 OA 
HETATM   32  C   UNL     1      -8.323   9.748  66.761  1.00  0.00    -0.124 A  
HETATM   33  C   UNL     1     -10.202   8.250  68.183  1.00  0.00    -0.255 A  
HETATM   34  C   UNL     1      -8.986   8.686  66.136  1.00  0.00    -0.221 A  
HETATM   35  N   UNL     1      -7.361  10.554  66.000  1.00  0.00    -0.134 N  
ENDBRANCH  12  27
ENDBRANCH   3   5
ENDBRANCH   2   3
TORSDOF 10
ENDMDL
MODEL       46
REMARK 921   NORMALIZED FREE ENERGY PREDICTED BY IDOCK:   -6.03 KCAL/MOL
REMARK 922        TOTAL FREE ENERGY PREDICTED BY IDOCK:  -11.07 KCAL/MOL
REMARK 923 INTER-LIGAND FREE ENERGY PREDICTED BY IDOCK:   -9.94 KCAL/MOL
REMARK 924 INTRA-LIGAND FREE ENERGY PREDICTED BY IDOCK:   -1.13 KCAL/MOL
REMARK 927      BINDING AFFINITY PREDICTED BY RF-SCORE:    0.00 PKD
ROOT
HETATM    1  C   UNL     1     -10.337   4.968  66.130  1.00  0.00    -0.268 C  
HETATM    2  O   UNL     1     -10.202   5.806  67.282  1.00  0.00    -0.161 OA 
ENDROOT
BRANCH   2   3
HETATM    3  C   UNL     1      -9.160   6.671  67.185  1.00  0.00    -0.128 C  
HETATM    4  O   UNL     1      -8.011   6.419  67.516  1.00  0.00    -0.113 OA 
BRANCH   3   5
HETATM    5  C   UNL     1      -9.601   7.991  66.667  1.00  0.00    -0.297 C  
HETATM    6  C   UNL     1      -9.146   8.445  65.475  1.00  0.00    -0.049 C  
HETATM    7  C   UNL     1      -8.271   7.692  64.501  1.00  0.00    -0.053 C  
HETATM    8  N   UNL     1      -9.463   9.728  65.065  1.00  0.00    -0.269 NA 
HETATM    9  C   UNL     1     -10.074  10.683  65.855  1.00  0.00    -0.261 C  
HETATM   10  C   UNL     1     -10.564  10.338  67.070  1.00  0.00    -0.302 C  
HETATM   11  C   UNL     1     -10.161  12.064  65.247  1.00  0.00    -0.289 C  
HETATM   12  C   UNL     1     -10.486   8.880  67.560  1.00  0.00    -0.337 C  
BRANCH  10  13
HETATM   13  C   UNL     1     -11.283  11.354  67.892  1.00  0.00    -0.288 C  
HETATM   14  O   UNL     1     -12.391  11.212  68.388  1.00  0.00    -0.556 OA 
BRANCH  13  15
HETATM   15  O   UNL     1     -10.439  12.374  68.183  1.00  0.00    -0.206 OA 
BRANCH  15  16
HETATM   16  C   UNL     1     -11.075  13.466  68.869  1.00  0.00    -0.266 C  
BRANCH  16  17
HETATM   17  C   UNL     1     -11.561  14.424  67.771  1.00  0.00    -0.356 C  
BRANCH  17  18
HETATM   18  N   UNL     1     -10.674  15.537  67.410  1.00  0.00    -0.297 NA 
HETATM   19  C   UNL     1     -10.654  15.730  65.957  1.00  0.00    -0.326 C  
BRANCH  18  20
HETATM   20  C   UNL     1     -11.139  16.781  68.070  1.00  0.00    -0.220 C  
BRANCH  20  21
HETATM   21  C   UNL     1     -10.258  17.980  67.774  1.00  0.00    -0.385 A  
HETATM   22  C   UNL     1      -8.926  18.007  68.215  1.00  0.00    -0.288 A  
HETATM   23  C   UNL     1      -8.137  19.140  68.029  1.00  0.00    -0.333 A  
HETATM   24  C   UNL     1      -8.667  20.261  67.390  1.00  0.00    -0.428 A  
HETATM   25  C   UNL     1      -9.982  20.243  66.928  1.00  0.00    -0.592 A  
HETATM   26  C   UNL     1     -10.775  19.108  67.115  1.00  0.00    -0.567 A  
ENDBRANCH  20  21
ENDBRANCH  18  20
ENDBRANCH  17  18
ENDBRANCH  16  17
ENDBRANCH  15  16
ENDBRANCH  13  15
ENDBRANCH  10  13
BRANCH  12  27
HETATM   27  C   UNL     1     -10.062   8.798  69.030  1.00  0.00    -0.206 A  
HETATM   28  C   UNL     1      -8.430   9.202  70.779  1.00  0.00    -0.256 A  
HETATM   29  O   UNL     1     -12.493   7.043  71.909  1.00  0.00    -0.329 OA 
HETATM   30  C   UNL     1     -10.901   8.173  69.974  1.00  0.00    -0.233 A  
HETATM   31  O   UNL     1     -10.986   7.370  73.468  1.00  0.00    -0.344 OA 
HETATM   32  C   UNL     1     -10.501   8.077  71.311  1.00  0.00    -0.200 A  
HETATM   33  C   UNL     1      -8.833   9.322  69.451  1.00  0.00    -0.149 A  
HETATM   34  C   UNL     1      -9.258   8.576  71.714  1.00  0.00    -0.316 A  
HETATM   35  N   UNL     1     -11.390   7.452  72.299  1.00  0.00    -0.267 N  
ENDBRANCH  12  27
ENDBRANCH   3   5
ENDBRANCH   2   3
TORSDOF 10
ENDMDL
MODEL       47
REMARK 921   NORMALIZED FREE ENERGY PREDICTED BY IDOCK:   -6.02 KCAL/MOL
REMARK 922        TOTAL FREE ENERGY PREDICTED BY IDOCK:  -11.07 KCAL/MOL
REMARK 923 INTER-LIGAND FREE ENERGY PREDICTED BY IDOCK:   -9.20 KCAL/MOL
REMARK 924 INTRA-LIGAND FREE ENERGY PREDICTED BY IDOCK:   -1.87 KCAL/MOL
REMARK 927      BINDING AFFINITY PREDICTED BY RF-SCORE:    0.00 PKD
ROOT
HETATM    1  C   UNL     1     -11.922  13.021  65.043  1.00  0.00    -0.397 C  
HETATM    2  O   UNL     1     -11.523  11.958  65.915  1.00  0.00    -0.340 OA 
ENDROOT
BRANCH   2   3
HETATM    3  C   UNL     1     -10.772  12.388  66.961  1.00  0.00    -0.239 C  
HETATM    4  O   UNL     1      -9.584  12.667  66.898  1.00  0.00    -0.218 OA 
BRANCH   3   5
HETATM    5  C   UNL     1     -11.567  12.431  68.214  1.00  0.00    -0.384 C  
HETATM    6  C   UNL     1     -11.894  13.619  68.776  1.00  0.00    -0.360 C  
HETATM    7  C   UNL     1     -11.620  14.990  68.203  1.00  0.00    -0.360 C  
HETATM    8  N   UNL     1     -12.523  13.643  70.009  1.00  0.00    -0.257 NA 
HETATM    9  C   UNL     1     -12.701  12.545  70.828  1.00  0.00    -0.125 C  
HETATM   10  C   UNL     1     -12.403  11.306  70.368  1.00  0.00    -0.415 C  
HETATM   11  C   UNL     1     -13.258  12.848  72.200  1.00  0.00    -0.552 C  
HETATM   12  C   UNL     1     -11.909  11.108  68.922  1.00  0.00    -0.406 C  
BRANCH  10  13
HETATM   13  C   UNL     1     -12.660  10.117  71.229  1.00  0.00    -0.404 C  
HETATM   14  O   UNL     1     -13.676   9.438  71.218  1.00  0.00    -0.346 OA 
BRANCH  13  15
HETATM   15  O   UNL     1     -11.518   9.775  71.874  1.00  0.00    -0.238 OA 
BRANCH  15  16
HETATM   16  C   UNL     1     -11.326   8.355  71.986  1.00  0.00    -0.342 C  
BRANCH  16  17
HETATM   17  C   UNL     1     -10.120   8.167  72.919  1.00  0.00    -0.278 C  
BRANCH  17  18
HETATM   18  N   UNL     1      -9.642   6.795  73.129  1.00  0.00    -0.150 NA 
HETATM   19  C   UNL     1      -9.225   6.602  74.521  1.00  0.00    -0.212 C  
BRANCH  18  20
HETATM   20  C   UNL     1     -10.722   5.833  72.797  1.00  0.00    -0.241 C  
BRANCH  20  21
HETATM   21  C   UNL     1     -10.233   4.638  72.000  1.00  0.00    -0.258 A  
HETATM   22  C   UNL     1     -10.233   3.357  72.573  1.00  0.00    -0.217 A  
HETATM   23  C   UNL     1      -9.701   2.269  71.883  1.00  0.00    -0.212 A  
HETATM   24  C   UNL     1      -9.169   2.446  70.607  1.00  0.00    -0.200 A  
HETATM   25  C   UNL     1      -9.180   3.708  70.016  1.00  0.00    -0.223 A  
HETATM   26  C   UNL     1      -9.712   4.801  70.706  1.00  0.00    -0.267 A  
ENDBRANCH  20  21
ENDBRANCH  18  20
ENDBRANCH  17  18
ENDBRANCH  16  17
ENDBRANCH  15  16
ENDBRANCH  13  15
ENDBRANCH  10  13
BRANCH  12  27
HETATM   27  C   UNL     1     -10.743  10.117  68.854  1.00  0.00    -0.249 A  
HETATM   28  C   UNL     1      -8.440   9.533  69.349  1.00  0.00    -0.146 A  
HETATM   29  O   UNL     1     -11.094   6.461  66.907  1.00  0.00    -0.384 OA 
HETATM   30  C   UNL     1     -10.890   8.897  68.163  1.00  0.00    -0.062 A  
HETATM   31  O   UNL     1      -8.996   5.971  67.319  1.00  0.00    -0.111 OA 
HETATM   32  C   UNL     1      -9.816   8.005  68.080  1.00  0.00    -0.170 A  
HETATM   33  C   UNL     1      -9.513  10.415  69.456  1.00  0.00    -0.164 A  
HETATM   34  C   UNL     1      -8.583   8.328  68.658  1.00  0.00    -0.133 A  
HETATM   35  N   UNL     1      -9.981   6.721  67.386  1.00  0.00    -0.137 N  
ENDBRANCH  12  27
ENDBRANCH   3   5
ENDBRANCH   2   3
TORSDOF 10
ENDMDL
MODEL       48
REMARK 921   NORMALIZED FREE ENERGY PREDICTED BY IDOCK:   -6.02 KCAL/MOL
REMARK 922        TOTAL FREE ENERGY PREDICTED BY IDOCK:  -11.05 KCAL/MOL
REMARK 923 INTER-LIGAND FREE ENERGY PREDICTED BY IDOCK:   -8.62 KCAL/MOL
REMARK 924 INTRA-LIGAND FREE ENERGY PREDICTED BY IDOCK:   -2.43 KCAL/MOL
REMARK 927      BINDING AFFINITY PREDICTED BY RF-SCORE:    0.00 PKD
ROOT
HETATM    1  C   UNL     1      -8.274   6.907  65.318  1.00  0.00    -0.129 C  
HETATM    2  O   UNL     1      -9.277   7.897  65.568  1.00  0.00     0.017 OA 
ENDROOT
BRANCH   2   3
HETATM    3  C   UNL     1      -8.809   9.166  65.442  1.00  0.00    -0.196 C  
HETATM    4  O   UNL     1      -7.662   9.459  65.138  1.00  0.00    -0.104 OA 
BRANCH   3   5
HETATM    5  C   UNL     1      -9.858  10.163  65.772  1.00  0.00    -0.331 C  
HETATM    6  C   UNL     1     -10.315  11.014  64.822  1.00  0.00    -0.324 C  
HETATM    7  C   UNL     1      -9.940  11.012  63.359  1.00  0.00    -0.428 C  
HETATM    8  N   UNL     1     -11.198  12.021  65.172  1.00  0.00    -0.318 NA 
HETATM    9  C   UNL     1     -11.535  12.362  66.468  1.00  0.00    -0.371 C  
HETATM   10  C   UNL     1     -11.128  11.581  67.497  1.00  0.00    -0.329 C  
HETATM   11  C   UNL     1     -12.382  13.606  66.608  1.00  0.00    -0.381 C  
HETATM   12  C   UNL     1     -10.329  10.291  67.231  1.00  0.00    -0.284 C  
BRANCH  10  13
HETATM   13  C   UNL     1     -11.551  11.913  68.888  1.00  0.00    -0.311 C  
HETATM   14  O   UNL     1     -11.297  12.952  69.478  1.00  0.00    -0.230 OA 
BRANCH  13  15
HETATM   15  O   UNL     1     -12.435  10.982  69.323  1.00  0.00    -0.400 OA 
BRANCH  15  16
HETATM   16  C   UNL     1     -12.637  11.004  70.746  1.00  0.00    -0.369 C  
BRANCH  16  17
HETATM   17  C   UNL     1     -11.906   9.767  71.291  1.00  0.00    -0.399 C  
BRANCH  17  18
HETATM   18  N   UNL     1     -12.723   8.745  71.958  1.00  0.00    -0.360 NA 
HETATM   19  C   UNL     1     -13.968   9.329  72.464  1.00  0.00    -0.324 C  
BRANCH  18  20
HETATM   20  C   UNL     1     -13.038   7.656  71.001  1.00  0.00    -0.045 C  
BRANCH  20  21
HETATM   21  C   UNL     1     -11.877   6.706  70.773  1.00  0.00    -0.441 A  
HETATM   22  C   UNL     1     -11.105   6.258  71.855  1.00  0.00    -0.315 A  
HETATM   23  C   UNL     1      -9.981   5.461  71.645  1.00  0.00    -0.239 A  
HETATM   24  C   UNL     1      -9.619   5.092  70.351  1.00  0.00    -0.252 A  
HETATM   25  C   UNL     1     -10.388   5.512  69.266  1.00  0.00    -0.335 A  
HETATM   26  C   UNL     1     -11.514   6.313  69.474  1.00  0.00    -0.387 A  
ENDBRANCH  20  21
ENDBRANCH  18  20
ENDBRANCH  17  18
ENDBRANCH  16  17
ENDBRANCH  15  16
ENDBRANCH  13  15
ENDBRANCH  10  13
BRANCH  12  27
HETATM   27  C   UNL     1      -9.163  10.136  68.213  1.00  0.00    -0.130 A  
HETATM   28  C   UNL     1      -7.983   8.848  69.898  1.00  0.00    -0.108 A  
HETATM   29  O   UNL     1      -6.324  13.128  68.726  1.00  0.00    -0.079 OA 
HETATM   30  C   UNL     1      -8.234  11.182  68.379  1.00  0.00    -0.144 A  
HETATM   31  O   UNL     1      -5.299  11.973  70.282  1.00  0.00    -0.088 OA 
HETATM   32  C   UNL     1      -7.184  11.048  69.295  1.00  0.00    -0.124 A  
HETATM   33  C   UNL     1      -9.016   8.966  68.970  1.00  0.00    -0.137 A  
HETATM   34  C   UNL     1      -7.066   9.888  70.068  1.00  0.00    -0.127 A  
HETATM   35  N   UNL     1      -6.199  12.126  69.444  1.00  0.00    -0.097 N  
ENDBRANCH  12  27
ENDBRANCH   3   5
ENDBRANCH   2   3
TORSDOF 10
ENDMDL
MODEL       49
REMARK 921   NORMALIZED FREE ENERGY PREDICTED BY IDOCK:   -6.01 KCAL/MOL
REMARK 922        TOTAL FREE ENERGY PREDICTED BY IDOCK:  -11.05 KCAL/MOL
REMARK 923 INTER-LIGAND FREE ENERGY PREDICTED BY IDOCK:   -9.55 KCAL/MOL
REMARK 924 INTRA-LIGAND FREE ENERGY PREDICTED BY IDOCK:   -1.50 KCAL/MOL
REMARK 927      BINDING AFFINITY PREDICTED BY RF-SCORE:    0.00 PKD
ROOT
HETATM    1  C   UNL     1     -12.073  16.000  73.003  1.00  0.00    -0.522 C  
HETATM    2  O   UNL     1     -11.590  15.268  71.872  1.00  0.00    -0.384 OA 
ENDROOT
BRANCH   2   3
HETATM    3  C   UNL     1     -12.555  15.030  70.947  1.00  0.00    -0.356 C  
HETATM    4  O   UNL     1     -13.596  15.662  70.846  1.00  0.00    -0.568 OA 
BRANCH   3   5
HETATM    5  C   UNL     1     -12.209  13.865  70.094  1.00  0.00    -0.425 C  
HETATM    6  C   UNL     1     -12.318  12.605  70.580  1.00  0.00    -0.290 C  
HETATM    7  C   UNL     1     -12.875  12.207  71.927  1.00  0.00    -0.327 C  
HETATM    8  N   UNL     1     -11.873  11.538  69.821  1.00  0.00    -0.329 NA 
HETATM    9  C   UNL     1     -11.145  11.647  68.652  1.00  0.00    -0.234 C  
HETATM   10  C   UNL     1     -10.971  12.862  68.079  1.00  0.00    -0.271 C  
HETATM   11  C   UNL     1     -10.620  10.344  68.093  1.00  0.00    -0.246 C  
HETATM   12  C   UNL     1     -11.614  14.118  68.697  1.00  0.00    -0.352 C  
BRANCH  10  13
HETATM   13  C   UNL     1     -10.243  12.970  66.781  1.00  0.00    -0.246 C  
HETATM   14  O   UNL     1      -9.029  12.942  66.644  1.00  0.00    -0.209 OA 
BRANCH  13  15
HETATM   15  O   UNL     1     -11.131  12.891  65.761  1.00  0.00    -0.278 OA 
BRANCH  15  16
HETATM   16  C   UNL     1     -10.531  12.528  64.506  1.00  0.00    -0.341 C  
BRANCH  16  17
HETATM   17  C   UNL     1     -10.750  11.015  64.359  1.00  0.00    -0.269 C  
BRANCH  17  18
HETATM   18  N   UNL     1      -9.676  10.240  63.723  1.00  0.00    -0.291 NA 
HETATM   19  C   UNL     1      -9.119  10.973  62.582  1.00  0.00    -0.343 C  
BRANCH  18  20
HETATM   20  C   UNL     1      -8.603   9.969  64.711  1.00  0.00    -0.177 C  
BRANCH  20  21
HETATM   21  C   UNL     1      -8.443   8.494  65.029  1.00  0.00    -0.183 A  
HETATM   22  C   UNL     1      -7.547   7.704  64.293  1.00  0.00    -0.108 A  
HETATM   23  C   UNL     1      -7.461   6.331  64.515  1.00  0.00    -0.087 A  
HETATM   24  C   UNL     1      -8.263   5.730  65.484  1.00  0.00    -0.132 A  
HETATM   25  C   UNL     1      -9.144   6.504  66.237  1.00  0.00    -0.168 A  
HETATM   26  C   UNL     1      -9.233   7.881  66.015  1.00  0.00    -0.162 A  
ENDBRANCH  20  21
ENDBRANCH  18  20
ENDBRANCH  17  18
ENDBRANCH  16  17
ENDBRANCH  15  16
ENDBRANCH  13  15
ENDBRANCH  10  13
BRANCH  12  27
HETATM   27  C   UNL     1     -10.646  15.305  68.706  1.00  0.00    -0.240 A  
HETATM   28  C   UNL     1     -10.168  17.640  68.250  1.00  0.00    -0.374 A  
HETATM   29  O   UNL     1      -6.706  14.901  69.969  1.00  0.00    -0.175 OA 
HETATM   30  C   UNL     1      -9.310  15.125  69.117  1.00  0.00    -0.215 A  
HETATM   31  O   UNL     1      -6.278  17.001  69.505  1.00  0.00    -0.218 OA 
HETATM   32  C   UNL     1      -8.420  16.205  69.100  1.00  0.00    -0.239 A  
HETATM   33  C   UNL     1     -11.066  16.575  68.288  1.00  0.00    -0.321 A  
HETATM   34  C   UNL     1      -8.843  17.461  68.651  1.00  0.00    -0.258 A  
HETATM   35  N   UNL     1      -7.037  16.022  69.557  1.00  0.00    -0.209 N  
ENDBRANCH  12  27
ENDBRANCH   3   5
ENDBRANCH   2   3
TORSDOF 10
ENDMDL
MODEL       50
REMARK 921   NORMALIZED FREE ENERGY PREDICTED BY IDOCK:   -6.01 KCAL/MOL
REMARK 922        TOTAL FREE ENERGY PREDICTED BY IDOCK:  -11.04 KCAL/MOL
REMARK 923 INTER-LIGAND FREE ENERGY PREDICTED BY IDOCK:   -8.60 KCAL/MOL
REMARK 924 INTRA-LIGAND FREE ENERGY PREDICTED BY IDOCK:   -2.44 KCAL/MOL
REMARK 927      BINDING AFFINITY PREDICTED BY RF-SCORE:    0.00 PKD
ROOT
HETATM    1  C   UNL     1     -12.518  13.190  65.784  1.00  0.00    -0.377 C  
HETATM    2  O   UNL     1     -12.067  11.954  66.348  1.00  0.00    -0.552 OA 
ENDROOT
BRANCH   2   3
HETATM    3  C   UNL     1     -10.826  11.603  65.923  1.00  0.00    -0.287 C  
HETATM    4  O   UNL     1     -10.571  11.142  64.821  1.00  0.00    -0.317 OA 
BRANCH   3   5
HETATM    5  C   UNL     1      -9.814  11.804  66.991  1.00  0.00    -0.213 C  
HETATM    6  C   UNL     1      -9.057  12.927  67.012  1.00  0.00    -0.228 C  
HETATM    7  C   UNL     1      -9.188  14.117  66.090  1.00  0.00    -0.088 C  
HETATM    8  N   UNL     1      -8.032  13.044  67.934  1.00  0.00    -0.142 NA 
HETATM    9  C   UNL     1      -7.578  12.023  68.747  1.00  0.00    -0.070 C  
HETATM   10  C   UNL     1      -8.259  10.853  68.801  1.00  0.00    -0.151 C  
HETATM   11  C   UNL     1      -6.335  12.339  69.547  1.00  0.00    -0.121 C  
HETATM   12  C   UNL     1      -9.559  10.667  67.996  1.00  0.00    -0.167 C  
BRANCH  10  13
HETATM   13  C   UNL     1      -7.807   9.778  69.729  1.00  0.00    -0.156 C  
HETATM   14  O   UNL     1      -6.819   9.075  69.575  1.00  0.00    -0.046 OA 
BRANCH  13  15
HETATM   15  O   UNL     1      -8.532   9.837  70.872  1.00  0.00    -0.185 OA 
BRANCH  15  16
HETATM   16  C   UNL     1      -9.156   8.590  71.221  1.00  0.00    -0.196 C  
BRANCH  16  17
HETATM   17  C   UNL     1     -10.498   8.959  71.870  1.00  0.00    -0.345 C  
BRANCH  17  18
HETATM   18  N   UNL     1     -11.703   8.832  71.039  1.00  0.00    -0.284 NA 
HETATM   19  C   UNL     1     -12.107   7.428  70.929  1.00  0.00    -0.257 C  
BRANCH  18  20
HETATM   20  C   UNL     1     -12.807   9.621  71.638  1.00  0.00    -0.405 C  
BRANCH  20  21
HETATM   21  C   UNL     1     -12.757  11.093  71.272  1.00  0.00    -0.531 A  
HETATM   22  C   UNL     1     -12.085  11.512  70.114  1.00  0.00    -0.432 A  
HETATM   23  C   UNL     1     -11.954  12.868  69.819  1.00  0.00    -0.365 A  
HETATM   24  C   UNL     1     -12.501  13.823  70.673  1.00  0.00    -0.429 A  
HETATM   25  C   UNL     1     -13.190  13.422  71.817  1.00  0.00    -0.495 A  
HETATM   26  C   UNL     1     -13.321  12.064  72.116  1.00  0.00    -0.396 A  
ENDBRANCH  20  21
ENDBRANCH  18  20
ENDBRANCH  17  18
ENDBRANCH  16  17
ENDBRANCH  15  16
ENDBRANCH  13  15
ENDBRANCH  10  13
BRANCH  12  27
HETATM   27  C   UNL     1      -9.613   9.295  67.317  1.00  0.00    -0.200 A  
HETATM   28  C   UNL     1     -10.661   7.125  67.029  1.00  0.00    -0.413 A  
HETATM   29  O   UNL     1      -6.751   8.115  64.543  1.00  0.00    -0.066 OA 
HETATM   30  C   UNL     1      -8.611   8.919  66.400  1.00  0.00    -0.136 A  
HETATM   31  O   UNL     1      -7.681   6.140  64.332  1.00  0.00    -0.092 OA 
HETATM   32  C   UNL     1      -8.649   7.655  65.801  1.00  0.00    -0.139 A  
HETATM   33  C   UNL     1     -10.643   8.391  67.611  1.00  0.00    -0.265 A  
HETATM   34  C   UNL     1      -9.664   6.749  66.126  1.00  0.00     0.041 A  
HETATM   35  N   UNL     1      -7.621   7.277  64.823  1.00  0.00    -0.097 N  
ENDBRANCH  12  27
ENDBRANCH   3   5
ENDBRANCH   2   3
TORSDOF 10
ENDMDL
MODEL       51
REMARK 921   NORMALIZED FREE ENERGY PREDICTED BY IDOCK:   -6.00 KCAL/MOL
REMARK 922        TOTAL FREE ENERGY PREDICTED BY IDOCK:  -11.03 KCAL/MOL
REMARK 923 INTER-LIGAND FREE ENERGY PREDICTED BY IDOCK:   -9.52 KCAL/MOL
REMARK 924 INTRA-LIGAND FREE ENERGY PREDICTED BY IDOCK:   -1.51 KCAL/MOL
REMARK 927      BINDING AFFINITY PREDICTED BY RF-SCORE:    0.00 PKD
ROOT
HETATM    1  C   UNL     1      -8.169   6.142  66.557  1.00  0.00    -0.111 C  
HETATM    2  O   UNL     1      -8.703   6.922  65.481  1.00  0.00    -0.124 OA 
ENDROOT
BRANCH   2   3
HETATM    3  C   UNL     1      -8.072   8.115  65.332  1.00  0.00    -0.130 C  
HETATM    4  O   UNL     1      -6.878   8.301  65.515  1.00  0.00    -0.064 OA 
BRANCH   3   5
HETATM    5  C   UNL     1      -9.030   9.189  64.964  1.00  0.00    -0.221 C  
HETATM    6  C   UNL     1      -9.076   9.657  63.694  1.00  0.00    -0.174 C  
HETATM    7  C   UNL     1      -8.300   9.126  62.512  1.00  0.00    -0.189 C  
HETATM    8  N   UNL     1      -9.880  10.742  63.394  1.00  0.00    -0.334 NA 
HETATM    9  C   UNL     1     -10.527  11.529  64.326  1.00  0.00    -0.338 C  
HETATM   10  C   UNL     1     -10.542  11.156  65.629  1.00  0.00    -0.286 C  
HETATM   11  C   UNL     1     -11.205  12.762  63.772  1.00  0.00    -0.496 C  
HETATM   12  C   UNL     1      -9.879   9.838  66.071  1.00  0.00    -0.342 C  
BRANCH  10  13
HETATM   13  C   UNL     1     -11.299  11.970  66.622  1.00  0.00    -0.340 C  
HETATM   14  O   UNL     1     -12.277  11.594  67.251  1.00  0.00    -0.414 OA 
BRANCH  13  15
HETATM   15  O   UNL     1     -10.616  13.112  66.879  1.00  0.00    -0.260 OA 
BRANCH  15  16
HETATM   16  C   UNL     1     -11.420  14.135  67.490  1.00  0.00    -0.340 C  
BRANCH  16  17
HETATM   17  C   UNL     1     -10.734  14.468  68.824  1.00  0.00    -0.253 C  
BRANCH  17  18
HETATM   18  N   UNL     1     -10.946  15.815  69.370  1.00  0.00    -0.271 NA 
HETATM   19  C   UNL     1     -11.251  15.748  70.801  1.00  0.00    -0.375 C  
BRANCH  18  20
HETATM   20  C   UNL     1      -9.729  16.636  69.159  1.00  0.00    -0.226 C  
BRANCH  20  21
HETATM   21  C   UNL     1      -9.952  17.805  68.218  1.00  0.00    -0.355 A  
HETATM   22  C   UNL     1     -10.041  17.593  66.834  1.00  0.00    -0.331 A  
HETATM   23  C   UNL     1     -10.154  18.669  65.955  1.00  0.00    -0.326 A  
HETATM   24  C   UNL     1     -10.188  19.972  66.449  1.00  0.00    -0.598 A  
HETATM   25  C   UNL     1     -10.121  20.198  67.823  1.00  0.00    -0.540 A  
HETATM   26  C   UNL     1     -10.006  19.121  68.706  1.00  0.00    -0.493 A  
ENDBRANCH  20  21
ENDBRANCH  18  20
ENDBRANCH  17  18
ENDBRANCH  16  17
ENDBRANCH  15  16
ENDBRANCH  13  15
ENDBRANCH  10  13
BRANCH  12  27
HETATM   27  C   UNL     1      -9.076  10.014  67.364  1.00  0.00    -0.146 A  
HETATM   28  C   UNL     1      -7.181  10.947  68.559  1.00  0.00    -0.090 A  
HETATM   29  O   UNL     1     -10.184   8.127  70.898  1.00  0.00    -0.188 OA 
HETATM   30  C   UNL     1      -9.467   9.338  68.537  1.00  0.00    -0.150 A  
HETATM   31  O   UNL     1      -8.439   8.937  71.950  1.00  0.00    -0.348 OA 
HETATM   32  C   UNL     1      -8.718   9.480  69.710  1.00  0.00    -0.194 A  
HETATM   33  C   UNL     1      -7.937  10.829  67.394  1.00  0.00    -0.112 A  
HETATM   34  C   UNL     1      -7.565  10.271  69.720  1.00  0.00    -0.168 A  
HETATM   35  N   UNL     1      -9.145   8.800  70.939  1.00  0.00    -0.188 N  
ENDBRANCH  12  27
ENDBRANCH   3   5
ENDBRANCH   2   3
TORSDOF 10
ENDMDL
MODEL       52
REMARK 921   NORMALIZED FREE ENERGY PREDICTED BY IDOCK:   -6.00 KCAL/MOL
REMARK 922        TOTAL FREE ENERGY PREDICTED BY IDOCK:  -11.02 KCAL/MOL
REMARK 923 INTER-LIGAND FREE ENERGY PREDICTED BY IDOCK:   -9.63 KCAL/MOL
REMARK 924 INTRA-LIGAND FREE ENERGY PREDICTED BY IDOCK:   -1.38 KCAL/MOL
REMARK 927      BINDING AFFINITY PREDICTED BY RF-SCORE:    0.00 PKD
ROOT
HETATM    1  C   UNL     1      -7.982   6.476  69.081  1.00  0.00    -0.111 C  
HETATM    2  O   UNL     1      -8.555   6.766  70.360  1.00  0.00    -0.142 OA 
ENDROOT
BRANCH   2   3
HETATM    3  C   UNL     1      -8.260   8.017  70.799  1.00  0.00    -0.113 C  
HETATM    4  O   UNL     1      -7.130   8.447  70.972  1.00  0.00    -0.051 OA 
BRANCH   3   5
HETATM    5  C   UNL     1      -9.494   8.789  71.092  1.00  0.00    -0.306 C  
HETATM    6  C   UNL     1     -10.319   8.406  72.096  1.00  0.00    -0.327 C  
HETATM    7  C   UNL     1     -10.078   7.283  73.077  1.00  0.00    -0.294 C  
HETATM    8  N   UNL     1     -11.526   9.057  72.276  1.00  0.00    -0.259 NA 
HETATM    9  C   UNL     1     -12.069   9.974  71.397  1.00  0.00    -0.407 C  
HETATM   10  C   UNL     1     -11.332  10.425  70.353  1.00  0.00    -0.417 C  
HETATM   11  C   UNL     1     -13.477  10.421  71.718  1.00  0.00    -0.366 C  
HETATM   12  C   UNL     1      -9.877   9.956  70.164  1.00  0.00    -0.272 C  
BRANCH  10  13
HETATM   13  C   UNL     1     -11.895  11.465  69.446  1.00  0.00    -0.351 C  
HETATM   14  O   UNL     1     -12.531  11.248  68.425  1.00  0.00    -0.403 OA 
BRANCH  13  15
HETATM   15  O   UNL     1     -11.780  12.682  70.031  1.00  0.00    -0.293 OA 
BRANCH  15  16
HETATM   16  C   UNL     1     -11.645  13.760  69.090  1.00  0.00    -0.317 C  
BRANCH  16  17
HETATM   17  C   UNL     1     -10.207  13.672  68.555  1.00  0.00    -0.234 C  
BRANCH  17  18
HETATM   18  N   UNL     1      -9.659  14.868  67.904  1.00  0.00    -0.203 NA 
HETATM   19  C   UNL     1      -8.923  14.503  66.690  1.00  0.00    -0.219 C  
BRANCH  18  20
HETATM   20  C   UNL     1     -10.762  15.797  67.555  1.00  0.00    -0.317 C  
BRANCH  20  21
HETATM   21  C   UNL     1     -10.339  17.254  67.554  1.00  0.00    -0.346 A  
HETATM   22  C   UNL     1      -9.819  17.841  68.717  1.00  0.00    -0.343 A  
HETATM   23  C   UNL     1      -9.514  19.201  68.753  1.00  0.00    -0.454 A  
HETATM   24  C   UNL     1      -9.717  19.990  67.623  1.00  0.00    -0.535 A  
HETATM   25  C   UNL     1     -10.214  19.418  66.453  1.00  0.00    -0.556 A  
HETATM   26  C   UNL     1     -10.521  18.056  66.415  1.00  0.00    -0.345 A  
ENDBRANCH  20  21
ENDBRANCH  18  20
ENDBRANCH  17  18
ENDBRANCH  16  17
ENDBRANCH  15  16
ENDBRANCH  13  15
ENDBRANCH  10  13
BRANCH  12  27
HETATM   27  C   UNL     1      -9.574   9.630  68.698  1.00  0.00    -0.154 A  
HETATM   28  C   UNL     1     -10.042   8.369  66.678  1.00  0.00    -0.358 A  
HETATM   29  O   UNL     1      -6.452  11.461  66.654  1.00  0.00    -0.132 OA 
HETATM   30  C   UNL     1      -8.491  10.252  68.045  1.00  0.00    -0.118 A  
HETATM   31  O   UNL     1      -6.857  10.278  64.852  1.00  0.00    -0.132 OA 
HETATM   32  C   UNL     1      -8.201   9.934  66.713  1.00  0.00    -0.124 A  
HETATM   33  C   UNL     1     -10.351   8.699  67.996  1.00  0.00    -0.277 A  
HETATM   34  C   UNL     1      -8.964   8.980  66.032  1.00  0.00    -0.227 A  
HETATM   35  N   UNL     1      -7.091  10.605  66.025  1.00  0.00    -0.133 N  
ENDBRANCH  12  27
ENDBRANCH   3   5
ENDBRANCH   2   3
TORSDOF 10
ENDMDL
MODEL       53
REMARK 921   NORMALIZED FREE ENERGY PREDICTED BY IDOCK:   -5.99 KCAL/MOL
REMARK 922        TOTAL FREE ENERGY PREDICTED BY IDOCK:  -11.01 KCAL/MOL
REMARK 923 INTER-LIGAND FREE ENERGY PREDICTED BY IDOCK:   -9.31 KCAL/MOL
REMARK 924 INTRA-LIGAND FREE ENERGY PREDICTED BY IDOCK:   -1.70 KCAL/MOL
REMARK 927      BINDING AFFINITY PREDICTED BY RF-SCORE:    0.00 PKD
ROOT
HETATM    1  C   UNL     1     -12.061  14.678  69.524  1.00  0.00    -0.295 C  
HETATM    2  O   UNL     1     -11.737  14.201  68.214  1.00  0.00    -0.310 OA 
ENDROOT
BRANCH   2   3
HETATM    3  C   UNL     1     -10.405  14.232  67.956  1.00  0.00    -0.229 C  
HETATM    4  O   UNL     1      -9.575  14.813  68.640  1.00  0.00    -0.207 OA 
BRANCH   3   5
HETATM    5  C   UNL     1     -10.081  13.508  66.700  1.00  0.00    -0.277 C  
HETATM    6  C   UNL     1     -10.464  14.012  65.503  1.00  0.00    -0.327 C  
HETATM    7  C   UNL     1     -11.131  15.345  65.260  1.00  0.00    -0.367 C  
HETATM    8  N   UNL     1     -10.270  13.266  64.353  1.00  0.00    -0.357 NA 
HETATM    9  C   UNL     1      -9.869  11.944  64.326  1.00  0.00    -0.191 C  
HETATM   10  C   UNL     1      -9.467  11.339  65.469  1.00  0.00    -0.255 C  
HETATM   11  C   UNL     1      -9.894  11.290  62.963  1.00  0.00    -0.370 C  
HETATM   12  C   UNL     1      -9.413  12.125  66.793  1.00  0.00    -0.213 C  
BRANCH  10  13
HETATM   13  C   UNL     1      -8.971   9.933  65.426  1.00  0.00    -0.184 C  
HETATM   14  O   UNL     1      -7.801   9.596  65.329  1.00  0.00    -0.108 OA 
BRANCH  13  15
HETATM   15  O   UNL     1      -9.989   9.089  65.722  1.00  0.00    -0.241 OA 
BRANCH  15  16
HETATM   16  C   UNL     1      -9.560   7.879  66.368  1.00  0.00    -0.181 C  
BRANCH  16  17
HETATM   17  C   UNL     1     -10.738   7.433  67.249  1.00  0.00    -0.308 C  
BRANCH  17  18
HETATM   18  N   UNL     1     -10.771   6.025  67.663  1.00  0.00    -0.276 NA 
HETATM   19  C   UNL     1     -10.502   5.145  66.522  1.00  0.00    -0.294 C  
BRANCH  18  20
HETATM   20  C   UNL     1      -9.756   5.792  68.720  1.00  0.00    -0.132 C  
BRANCH  20  21
HETATM   21  C   UNL     1     -10.356   5.667  70.108  1.00  0.00    -0.341 A  
HETATM   22  C   UNL     1     -11.430   6.484  70.491  1.00  0.00    -0.448 A  
HETATM   23  C   UNL     1     -11.928   6.442  71.792  1.00  0.00    -0.370 A  
HETATM   24  C   UNL     1     -11.363   5.575  72.727  1.00  0.00    -0.359 A  
HETATM   25  C   UNL     1     -10.309   4.742  72.356  1.00  0.00    -0.261 A  
HETATM   26  C   UNL     1      -9.807   4.783  71.052  1.00  0.00    -0.267 A  
ENDBRANCH  20  21
ENDBRANCH  18  20
ENDBRANCH  17  18
ENDBRANCH  16  17
ENDBRANCH  15  16
ENDBRANCH  13  15
ENDBRANCH  10  13
BRANCH  12  27
HETATM   27  C   UNL     1      -9.972  11.308  67.961  1.00  0.00    -0.191 A  
HETATM   28  C   UNL     1     -11.860  10.396  69.184  1.00  0.00    -0.135 A  
HETATM   29  O   UNL     1      -7.488   9.622  70.836  1.00  0.00    -0.302 OA 
HETATM   30  C   UNL     1      -9.101  10.773  68.931  1.00  0.00    -0.170 A  
HETATM   31  O   UNL     1      -9.207   8.849  71.956  1.00  0.00    -0.348 OA 
HETATM   32  C   UNL     1      -9.617  10.048  70.011  1.00  0.00    -0.156 A  
HETATM   33  C   UNL     1     -11.351  11.098  68.093  1.00  0.00    -0.377 A  
HETATM   34  C   UNL     1     -10.997   9.872  70.149  1.00  0.00    -0.356 A  
HETATM   35  N   UNL     1      -8.705   9.465  71.005  1.00  0.00    -0.109 N  
ENDBRANCH  12  27
ENDBRANCH   3   5
ENDBRANCH   2   3
TORSDOF 10
ENDMDL
MODEL       54
REMARK 921   NORMALIZED FREE ENERGY PREDICTED BY IDOCK:   -5.98 KCAL/MOL
REMARK 922        TOTAL FREE ENERGY PREDICTED BY IDOCK:  -10.99 KCAL/MOL
REMARK 923 INTER-LIGAND FREE ENERGY PREDICTED BY IDOCK:  -10.01 KCAL/MOL
REMARK 924 INTRA-LIGAND FREE ENERGY PREDICTED BY IDOCK:   -0.98 KCAL/MOL
REMARK 927      BINDING AFFINITY PREDICTED BY RF-SCORE:    0.00 PKD
ROOT
HETATM    1  C   UNL     1     -11.993  14.790  69.868  1.00  0.00    -0.328 C  
HETATM    2  O   UNL     1     -10.941  13.888  69.512  1.00  0.00    -0.181 OA 
ENDROOT
BRANCH   2   3
HETATM    3  C   UNL     1      -9.916  14.502  68.866  1.00  0.00    -0.206 C  
HETATM    4  O   UNL     1      -9.825  15.707  68.690  1.00  0.00    -0.199 OA 
BRANCH   3   5
HETATM    5  C   UNL     1      -8.934  13.514  68.351  1.00  0.00    -0.146 C  
HETATM    6  C   UNL     1      -7.612  13.671  68.601  1.00  0.00    -0.115 C  
HETATM    7  C   UNL     1      -6.982  14.731  69.473  1.00  0.00    -0.176 C  
HETATM    8  N   UNL     1      -6.698  12.816  68.010  1.00  0.00    -0.086 NA 
HETATM    9  C   UNL     1      -6.997  11.899  67.021  1.00  0.00    -0.116 C  
HETATM   10  C   UNL     1      -8.290  11.666  66.688  1.00  0.00    -0.154 C  
HETATM   11  C   UNL     1      -5.806  11.201  66.406  1.00  0.00    -0.148 C  
HETATM   12  C   UNL     1      -9.431  12.383  67.434  1.00  0.00    -0.186 C  
BRANCH  10  13
HETATM   13  C   UNL     1      -8.614  10.627  65.668  1.00  0.00    -0.182 C  
HETATM   14  O   UNL     1      -8.711  10.819  64.465  1.00  0.00    -0.168 OA 
BRANCH  13  15
HETATM   15  O   UNL     1      -8.575   9.402  66.248  1.00  0.00    -0.126 OA 
BRANCH  15  16
HETATM   16  C   UNL     1      -9.873   8.894  66.599  1.00  0.00    -0.262 C  
BRANCH  16  17
HETATM   17  C   UNL     1      -9.616   7.628  67.431  1.00  0.00    -0.147 C  
BRANCH  17  18
HETATM   18  N   UNL     1      -9.631   7.773  68.893  1.00  0.00    -0.153 NA 
HETATM   19  C   UNL     1      -8.296   7.531  69.448  1.00  0.00    -0.132 C  
BRANCH  18  20
HETATM   20  C   UNL     1     -10.079   9.140  69.255  1.00  0.00    -0.194 C  
BRANCH  20  21
HETATM   21  C   UNL     1     -11.156   9.151  70.325  1.00  0.00    -0.272 A  
HETATM   22  C   UNL     1     -11.634   7.947  70.861  1.00  0.00    -0.286 A  
HETATM   23  C   UNL     1     -12.687   7.943  71.775  1.00  0.00    -0.353 A  
HETATM   24  C   UNL     1     -13.269   9.145  72.172  1.00  0.00    -0.524 A  
HETATM   25  C   UNL     1     -12.792  10.352  71.664  1.00  0.00    -0.579 A  
HETATM   26  C   UNL     1     -11.738  10.358  70.746  1.00  0.00    -0.464 A  
ENDBRANCH  20  21
ENDBRANCH  18  20
ENDBRANCH  17  18
ENDBRANCH  16  17
ENDBRANCH  15  16
ENDBRANCH  13  15
ENDBRANCH  10  13
BRANCH  12  27
HETATM   27  C   UNL     1     -10.515  12.876  66.470  1.00  0.00    -0.275 A  
HETATM   28  C   UNL     1     -12.519  12.469  65.164  1.00  0.00    -0.451 A  
HETATM   29  O   UNL     1     -10.478  16.738  64.933  1.00  0.00    -0.652 OA 
HETATM   30  C   UNL     1     -10.455  14.184  65.949  1.00  0.00    -0.313 A  
HETATM   31  O   UNL     1     -12.261  16.338  63.720  1.00  0.00    -0.923 OA 
HETATM   32  C   UNL     1     -11.433  14.624  65.049  1.00  0.00    -0.386 A  
HETATM   33  C   UNL     1     -11.563  12.033  66.079  1.00  0.00    -0.371 A  
HETATM   34  C   UNL     1     -12.457  13.763  64.642  1.00  0.00    -0.356 A  
HETATM   35  N   UNL     1     -11.387  15.998  64.531  1.00  0.00    -0.402 N  
ENDBRANCH  12  27
ENDBRANCH   3   5
ENDBRANCH   2   3
TORSDOF 10
ENDMDL
MODEL       55
REMARK 921   NORMALIZED FREE ENERGY PREDICTED BY IDOCK:   -5.98 KCAL/MOL
REMARK 922        TOTAL FREE ENERGY PREDICTED BY IDOCK:  -10.99 KCAL/MOL
REMARK 923 INTER-LIGAND FREE ENERGY PREDICTED BY IDOCK:   -9.04 KCAL/MOL
REMARK 924 INTRA-LIGAND FREE ENERGY PREDICTED BY IDOCK:   -1.95 KCAL/MOL
REMARK 927      BINDING AFFINITY PREDICTED BY RF-SCORE:    0.00 PKD
ROOT
HETATM    1  C   UNL     1      -9.257  15.209  66.233  1.00  0.00    -0.301 C  
HETATM    2  O   UNL     1      -9.666  14.183  67.143  1.00  0.00    -0.236 OA 
ENDROOT
BRANCH   2   3
HETATM    3  C   UNL     1     -10.945  13.774  66.936  1.00  0.00    -0.290 C  
HETATM    4  O   UNL     1     -11.476  13.672  65.841  1.00  0.00    -0.307 OA 
BRANCH   3   5
HETATM    5  C   UNL     1     -11.641  13.511  68.221  1.00  0.00    -0.381 C  
HETATM    6  C   UNL     1     -11.857  14.519  69.100  1.00  0.00    -0.319 C  
HETATM    7  C   UNL     1     -11.550  15.981  68.884  1.00  0.00    -0.354 C  
HETATM    8  N   UNL     1     -12.391  14.237  70.346  1.00  0.00    -0.333 NA 
HETATM    9  C   UNL     1     -12.570  12.968  70.862  1.00  0.00    -0.280 C  
HETATM   10  C   UNL     1     -12.377  11.886  70.069  1.00  0.00    -0.202 C  
HETATM   11  C   UNL     1     -13.006  12.915  72.308  1.00  0.00    -0.313 C  
HETATM   12  C   UNL     1     -12.004  12.061  68.585  1.00  0.00    -0.290 C  
BRANCH  10  13
HETATM   13  C   UNL     1     -12.636  10.520  70.609  1.00  0.00    -0.369 C  
HETATM   14  O   UNL     1     -13.633   9.848  70.391  1.00  0.00     0.016 OA 
BRANCH  13  15
HETATM   15  O   UNL     1     -11.511  10.052  71.202  1.00  0.00    -0.357 OA 
BRANCH  15  16
HETATM   16  C   UNL     1     -11.748   8.938  72.079  1.00  0.00    -0.367 C  
BRANCH  16  17
HETATM   17  C   UNL     1     -10.361   8.371  72.420  1.00  0.00    -0.329 C  
BRANCH  17  18
HETATM   18  N   UNL     1     -10.265   6.923  72.644  1.00  0.00    -0.182 NA 
HETATM   19  C   UNL     1     -10.400   6.612  74.070  1.00  0.00    -0.351 C  
BRANCH  18  20
HETATM   20  C   UNL     1     -11.330   6.227  71.881  1.00  0.00    -0.299 C  
BRANCH  20  21
HETATM   21  C   UNL     1     -10.900   5.828  70.482  1.00  0.00    -0.348 A  
HETATM   22  C   UNL     1      -9.862   4.903  70.297  1.00  0.00    -0.306 A  
HETATM   23  C   UNL     1      -9.397   4.601  69.018  1.00  0.00    -0.203 A  
HETATM   24  C   UNL     1      -9.971   5.213  67.905  1.00  0.00    -0.202 A  
HETATM   25  C   UNL     1     -11.017   6.119  68.071  1.00  0.00    -0.399 A  
HETATM   26  C   UNL     1     -11.484   6.425  69.352  1.00  0.00    -0.374 A  
ENDBRANCH  20  21
ENDBRANCH  18  20
ENDBRANCH  17  18
ENDBRANCH  16  17
ENDBRANCH  15  16
ENDBRANCH  13  15
ENDBRANCH  10  13
BRANCH  12  27
HETATM   27  C   UNL     1     -10.904  11.083  68.160  1.00  0.00    -0.274 A  
HETATM   28  C   UNL     1     -10.148   9.221  66.799  1.00  0.00    -0.331 A  
HETATM   29  O   UNL     1      -7.142  11.122  69.929  1.00  0.00    -0.083 OA 
HETATM   30  C   UNL     1      -9.648  11.109  68.800  1.00  0.00    -0.180 A  
HETATM   31  O   UNL     1      -6.492   9.407  68.727  1.00  0.00    -0.047 OA 
HETATM   32  C   UNL     1      -8.653  10.198  68.427  1.00  0.00    -0.119 A  
HETATM   33  C   UNL     1     -11.134  10.141  67.148  1.00  0.00    -0.122 A  
HETATM   34  C   UNL     1      -8.906   9.242  67.438  1.00  0.00    -0.124 A  
HETATM   35  N   UNL     1      -7.336  10.246  69.074  1.00  0.00    -0.084 N  
ENDBRANCH  12  27
ENDBRANCH   3   5
ENDBRANCH   2   3
TORSDOF 10
ENDMDL
MODEL       56
REMARK 921   NORMALIZED FREE ENERGY PREDICTED BY IDOCK:   -5.93 KCAL/MOL
REMARK 922        TOTAL FREE ENERGY PREDICTED BY IDOCK:  -10.92 KCAL/MOL
REMARK 923 INTER-LIGAND FREE ENERGY PREDICTED BY IDOCK:   -9.40 KCAL/MOL
REMARK 924 INTRA-LIGAND FREE ENERGY PREDICTED BY IDOCK:   -1.52 KCAL/MOL
REMARK 927      BINDING AFFINITY PREDICTED BY RF-SCORE:    0.00 PKD
ROOT
HETATM    1  C   UNL     1      -7.034   6.782  70.503  1.00  0.00    -0.063 C  
HETATM    2  O   UNL     1      -8.250   7.003  71.226  1.00  0.00    -0.111 OA 
ENDROOT
BRANCH   2   3
HETATM    3  C   UNL     1      -8.299   8.227  71.811  1.00  0.00    -0.148 C  
HETATM    4  O   UNL     1      -7.354   8.780  72.352  1.00  0.00    -0.314 OA 
BRANCH   3   5
HETATM    5  C   UNL     1      -9.670   8.796  71.756  1.00  0.00    -0.380 C  
HETATM    6  C   UNL     1     -10.667   8.250  72.492  1.00  0.00    -0.341 C  
HETATM    7  C   UNL     1     -10.532   7.131  73.498  1.00  0.00    -0.422 C  
HETATM    8  N   UNL     1     -11.964   8.708  72.335  1.00  0.00    -0.368 NA 
HETATM    9  C   UNL     1     -12.382   9.575  71.344  1.00  0.00    -0.364 C  
HETATM   10  C   UNL     1     -11.467  10.176  70.546  1.00  0.00    -0.417 C  
HETATM   11  C   UNL     1     -13.875   9.794  71.266  1.00  0.00    -0.101 C  
HETATM   12  C   UNL     1      -9.961   9.935  70.763  1.00  0.00    -0.009 C  
BRANCH  10  13
HETATM   13  C   UNL     1     -11.916  11.163  69.522  1.00  0.00    -0.355 C  
HETATM   14  O   UNL     1     -12.374  10.888  68.423  1.00  0.00    -0.477 OA 
BRANCH  13  15
HETATM   15  O   UNL     1     -11.937  12.402  70.071  1.00  0.00    -0.328 OA 
BRANCH  15  16
HETATM   16  C   UNL     1     -12.092  13.455  69.105  1.00  0.00    -0.261 C  
BRANCH  16  17
HETATM   17  C   UNL     1     -11.278  14.641  69.644  1.00  0.00    -0.272 C  
BRANCH  17  18
HETATM   18  N   UNL     1     -10.178  15.136  68.806  1.00  0.00    -0.227 NA 
HETATM   19  C   UNL     1      -9.309  14.030  68.391  1.00  0.00    -0.210 C  
BRANCH  18  20
HETATM   20  C   UNL     1     -10.729  15.811  67.606  1.00  0.00    -0.310 C  
BRANCH  20  21
HETATM   21  C   UNL     1     -10.481  17.309  67.597  1.00  0.00    -0.363 A  
HETATM   22  C   UNL     1     -10.565  18.033  66.399  1.00  0.00    -0.259 A  
HETATM   23  C   UNL     1     -10.249  19.390  66.365  1.00  0.00    -0.556 A  
HETATM   24  C   UNL     1      -9.853  20.044  67.530  1.00  0.00    -0.551 A  
HETATM   25  C   UNL     1      -9.785  19.343  68.733  1.00  0.00    -0.516 A  
HETATM   26  C   UNL     1     -10.100  17.982  68.770  1.00  0.00    -0.388 A  
ENDBRANCH  20  21
ENDBRANCH  18  20
ENDBRANCH  17  18
ENDBRANCH  16  17
ENDBRANCH  15  16
ENDBRANCH  13  15
ENDBRANCH  10  13
BRANCH  12  27
HETATM   27  C   UNL     1      -9.225   9.725  69.436  1.00  0.00    -0.214 A  
HETATM   28  C   UNL     1      -7.562  10.426  67.813  1.00  0.00    -0.089 A  
HETATM   29  O   UNL     1     -10.175   6.586  66.882  1.00  0.00    -0.183 OA 
HETATM   30  C   UNL     1      -9.591   8.664  68.583  1.00  0.00    -0.159 A  
HETATM   31  O   UNL     1      -8.703   7.262  65.404  1.00  0.00    -0.089 OA 
HETATM   32  C   UNL     1      -8.934   8.490  67.360  1.00  0.00    -0.134 A  
HETATM   33  C   UNL     1      -8.196  10.591  69.044  1.00  0.00    -0.145 A  
HETATM   34  C   UNL     1      -7.930   9.380  66.965  1.00  0.00    -0.102 A  
HETATM   35  N   UNL     1      -9.297   7.366  66.487  1.00  0.00    -0.175 N  
ENDBRANCH  12  27
ENDBRANCH   3   5
ENDBRANCH   2   3
TORSDOF 10
ENDMDL
MODEL       57
REMARK 921   NORMALIZED FREE ENERGY PREDICTED BY IDOCK:   -5.91 KCAL/MOL
REMARK 922        TOTAL FREE ENERGY PREDICTED BY IDOCK:  -10.89 KCAL/MOL
REMARK 923 INTER-LIGAND FREE ENERGY PREDICTED BY IDOCK:   -9.56 KCAL/MOL
REMARK 924 INTRA-LIGAND FREE ENERGY PREDICTED BY IDOCK:   -1.33 KCAL/MOL
REMARK 927      BINDING AFFINITY PREDICTED BY RF-SCORE:    0.00 PKD
ROOT
HETATM    1  C   UNL     1      -8.905   7.980  73.582  1.00  0.00    -0.260 C  
HETATM    2  O   UNL     1      -8.045   8.822  72.808  1.00  0.00    -0.398 OA 
ENDROOT
BRANCH   2   3
HETATM    3  C   UNL     1      -7.556   8.203  71.703  1.00  0.00    -0.087 C  
HETATM    4  O   UNL     1      -7.075   7.079  71.688  1.00  0.00    -0.068 OA 
BRANCH   3   5
HETATM    5  C   UNL     1      -7.633   9.085  70.511  1.00  0.00    -0.113 C  
HETATM    6  C   UNL     1      -6.786  10.134  70.381  1.00  0.00    -0.124 C  
HETATM    7  C   UNL     1      -5.640  10.483  71.301  1.00  0.00     0.005 C  
HETATM    8  N   UNL     1      -6.952  11.022  69.332  1.00  0.00    -0.116 NA 
HETATM    9  C   UNL     1      -8.037  11.042  68.477  1.00  0.00    -0.140 C  
HETATM   10  C   UNL     1      -8.949  10.041  68.523  1.00  0.00    -0.124 C  
HETATM   11  C   UNL     1      -8.082  12.210  67.519  1.00  0.00    -0.163 C  
HETATM   12  C   UNL     1      -8.764   8.858  69.492  1.00  0.00    -0.142 C  
BRANCH  10  13
HETATM   13  C   UNL     1     -10.082  10.030  67.553  1.00  0.00    -0.198 C  
HETATM   14  O   UNL     1     -10.114   9.399  66.507  1.00  0.00    -0.247 OA 
BRANCH  13  15
HETATM   15  O   UNL     1     -11.152  10.653  68.105  1.00  0.00    -0.244 OA 
BRANCH  15  16
HETATM   16  C   UNL     1     -11.487  11.893  67.461  1.00  0.00    -0.326 C  
BRANCH  16  17
HETATM   17  C   UNL     1     -11.791  12.885  68.595  1.00  0.00    -0.312 C  
BRANCH  17  18
HETATM   18  N   UNL     1     -11.209  14.228  68.485  1.00  0.00    -0.253 NA 
HETATM   19  C   UNL     1     -10.839  14.518  67.096  1.00  0.00    -0.296 C  
BRANCH  18  20
HETATM   20  C   UNL     1     -12.188  15.237  68.958  1.00  0.00    -0.124 C  
BRANCH  20  21
HETATM   21  C   UNL     1     -12.422  15.186  70.457  1.00  0.00    -0.429 A  
HETATM   22  C   UNL     1     -13.723  15.070  70.967  1.00  0.00    -0.417 A  
HETATM   23  C   UNL     1     -13.955  15.116  72.341  1.00  0.00    -0.616 A  
HETATM   24  C   UNL     1     -12.887  15.270  73.224  1.00  0.00    -0.634 A  
HETATM   25  C   UNL     1     -11.586  15.366  72.733  1.00  0.00    -0.464 A  
HETATM   26  C   UNL     1     -11.351  15.322  71.356  1.00  0.00    -0.419 A  
ENDBRANCH  20  21
ENDBRANCH  18  20
ENDBRANCH  17  18
ENDBRANCH  16  17
ENDBRANCH  15  16
ENDBRANCH  13  15
ENDBRANCH  10  13
BRANCH  12  27
HETATM   27  C   UNL     1     -10.077   8.483  70.184  1.00  0.00    -0.197 A  
HETATM   28  C   UNL     1     -11.705   6.812  70.855  1.00  0.00    -0.424 A  
HETATM   29  O   UNL     1     -12.549  11.357  71.888  1.00  0.00    -0.231 OA 
HETATM   30  C   UNL     1     -10.903   9.487  70.728  1.00  0.00    -0.386 A  
HETATM   31  O   UNL     1     -14.033   9.841  72.443  1.00  0.00    -0.262 OA 
HETATM   32  C   UNL     1     -12.114   9.144  71.338  1.00  0.00    -0.337 A  
HETATM   33  C   UNL     1     -10.485   7.145  70.269  1.00  0.00    -0.232 A  
HETATM   34  C   UNL     1     -12.526   7.808  71.389  1.00  0.00    -0.342 A  
HETATM   35  N   UNL     1     -12.958  10.188  71.932  1.00  0.00    -0.441 N  
ENDBRANCH  12  27
ENDBRANCH   3   5
ENDBRANCH   2   3
TORSDOF 10
ENDMDL
MODEL       58
REMARK 921   NORMALIZED FREE ENERGY PREDICTED BY IDOCK:   -5.89 KCAL/MOL
REMARK 922        TOTAL FREE ENERGY PREDICTED BY IDOCK:  -10.86 KCAL/MOL
REMARK 923 INTER-LIGAND FREE ENERGY PREDICTED BY IDOCK:   -8.51 KCAL/MOL
REMARK 924 INTRA-LIGAND FREE ENERGY PREDICTED BY IDOCK:   -2.34 KCAL/MOL
REMARK 927      BINDING AFFINITY PREDICTED BY RF-SCORE:    0.00 PKD
ROOT
HETATM    1  C   UNL     1     -12.285  14.660  64.211  1.00  0.00    -0.408 C  
HETATM    2  O   UNL     1     -11.515  14.209  65.331  1.00  0.00    -0.311 OA 
ENDROOT
BRANCH   2   3
HETATM    3  C   UNL     1     -11.593  12.866  65.518  1.00  0.00    -0.358 C  
HETATM    4  O   UNL     1     -12.632  12.223  65.533  1.00  0.00    -0.548 OA 
BRANCH   3   5
HETATM    5  C   UNL     1     -10.251  12.276  65.754  1.00  0.00    -0.281 C  
HETATM    6  C   UNL     1      -9.745  11.362  64.891  1.00  0.00    -0.247 C  
HETATM    7  C   UNL     1     -10.367  10.915  63.589  1.00  0.00    -0.364 C  
HETATM    8  N   UNL     1      -8.553  10.727  65.189  1.00  0.00    -0.162 NA 
HETATM    9  C   UNL     1      -7.895  10.807  66.402  1.00  0.00    -0.148 C  
HETATM   10  C   UNL     1      -8.319  11.686  67.341  1.00  0.00    -0.152 C  
HETATM   11  C   UNL     1      -6.704   9.888  66.552  1.00  0.00    -0.080 C  
HETATM   12  C   UNL     1      -9.503  12.629  67.051  1.00  0.00    -0.220 C  
BRANCH  10  13
HETATM   13  C   UNL     1      -7.567  11.820  68.621  1.00  0.00    -0.125 C  
HETATM   14  O   UNL     1      -7.003  12.831  69.012  1.00  0.00    -0.101 OA 
BRANCH  13  15
HETATM   15  O   UNL     1      -7.781  10.719  69.384  1.00  0.00    -0.142 OA 
BRANCH  15  16
HETATM   16  C   UNL     1      -6.681  10.403  70.253  1.00  0.00    -0.138 C  
BRANCH  16  17
HETATM   17  C   UNL     1      -7.062   9.087  70.949  1.00  0.00    -0.098 C  
BRANCH  17  18
HETATM   18  N   UNL     1      -7.130   7.882  70.114  1.00  0.00    -0.049 NA 
HETATM   19  C   UNL     1      -6.013   6.982  70.416  1.00  0.00    -0.024 C  
BRANCH  18  20
HETATM   20  C   UNL     1      -8.413   7.178  70.356  1.00  0.00    -0.140 C  
BRANCH  20  21
HETATM   21  C   UNL     1      -9.249   7.010  69.100  1.00  0.00    -0.138 A  
HETATM   22  C   UNL     1      -9.362   8.062  68.179  1.00  0.00    -0.145 A  
HETATM   23  C   UNL     1     -10.200   7.950  67.071  1.00  0.00    -0.382 A  
HETATM   24  C   UNL     1     -10.929   6.780  66.863  1.00  0.00    -0.370 A  
HETATM   25  C   UNL     1     -10.811   5.718  67.758  1.00  0.00    -0.259 A  
HETATM   26  C   UNL     1      -9.973   5.828  68.871  1.00  0.00    -0.211 A  
ENDBRANCH  20  21
ENDBRANCH  18  20
ENDBRANCH  17  18
ENDBRANCH  16  17
ENDBRANCH  15  16
ENDBRANCH  13  15
ENDBRANCH  10  13
BRANCH  12  27
HETATM   27  C   UNL     1     -10.459  12.720  68.244  1.00  0.00    -0.250 A  
HETATM   28  C   UNL     1     -11.954  11.658  69.834  1.00  0.00    -0.414 A  
HETATM   29  O   UNL     1     -11.401  16.360  70.017  1.00  0.00    -0.312 OA 
HETATM   30  C   UNL     1     -10.775  13.974  68.803  1.00  0.00    -0.272 A  
HETATM   31  O   UNL     1     -12.786  15.391  71.414  1.00  0.00    -0.370 OA 
HETATM   32  C   UNL     1     -11.669  14.057  69.877  1.00  0.00    -0.303 A  
HETATM   33  C   UNL     1     -11.046  11.566  68.781  1.00  0.00    -0.288 A  
HETATM   34  C   UNL     1     -12.273  12.902  70.384  1.00  0.00    -0.381 A  
HETATM   35  N   UNL     1     -11.973  15.362  70.478  1.00  0.00    -0.326 N  
ENDBRANCH  12  27
ENDBRANCH   3   5
ENDBRANCH   2   3
TORSDOF 10
ENDMDL
MODEL       59
REMARK 921   NORMALIZED FREE ENERGY PREDICTED BY IDOCK:   -5.89 KCAL/MOL
REMARK 922        TOTAL FREE ENERGY PREDICTED BY IDOCK:  -10.85 KCAL/MOL
REMARK 923 INTER-LIGAND FREE ENERGY PREDICTED BY IDOCK:   -9.31 KCAL/MOL
REMARK 924 INTRA-LIGAND FREE ENERGY PREDICTED BY IDOCK:   -1.54 KCAL/MOL
REMARK 927      BINDING AFFINITY PREDICTED BY RF-SCORE:    0.00 PKD
ROOT
HETATM    1  C   UNL     1     -10.731   5.726  71.724  1.00  0.00    -0.249 C  
HETATM    2  O   UNL     1     -11.558   6.889  71.613  1.00  0.00    -0.259 OA 
ENDROOT
BRANCH   2   3
HETATM    3  C   UNL     1     -10.974   8.001  72.128  1.00  0.00    -0.295 C  
HETATM    4  O   UNL     1     -10.393   8.051  73.201  1.00  0.00    -0.332 OA 
BRANCH   3   5
HETATM    5  C   UNL     1     -11.173   9.175  71.240  1.00  0.00    -0.407 C  
HETATM    6  C   UNL     1     -12.382   9.782  71.170  1.00  0.00    -0.359 C  
HETATM    7  C   UNL     1     -13.599   9.460  72.004  1.00  0.00    -0.505 C  
HETATM    8  N   UNL     1     -12.588  10.792  70.246  1.00  0.00    -0.314 NA 
HETATM    9  C   UNL     1     -11.708  11.133  69.237  1.00  0.00    -0.331 C  
HETATM   10  C   UNL     1     -10.470  10.582  69.209  1.00  0.00    -0.258 C  
HETATM   11  C   UNL     1     -12.226  12.149  68.245  1.00  0.00     0.173 C  
HETATM   12  C   UNL     1     -10.021   9.611  70.317  1.00  0.00    -0.326 C  
BRANCH  10  13
HETATM   13  C   UNL     1      -9.498  11.003  68.159  1.00  0.00    -0.172 C  
HETATM   14  O   UNL     1      -9.422  10.534  67.033  1.00  0.00    -0.160 OA 
BRANCH  13  15
HETATM   15  O   UNL     1      -8.854  12.124  68.567  1.00  0.00    -0.160 OA 
BRANCH  15  16
HETATM   16  C   UNL     1      -8.820  13.159  67.571  1.00  0.00    -0.199 C  
BRANCH  16  17
HETATM   17  C   UNL     1      -9.866  14.197  68.009  1.00  0.00    -0.223 C  
BRANCH  17  18
HETATM   18  N   UNL     1      -9.722  14.767  69.354  1.00  0.00    -0.100 NA 
HETATM   19  C   UNL     1      -8.432  15.449  69.490  1.00  0.00    -0.213 C  
BRANCH  18  20
HETATM   20  C   UNL     1     -10.821  15.731  69.608  1.00  0.00    -0.300 C  
BRANCH  20  21
HETATM   21  C   UNL     1     -11.630  15.402  70.849  1.00  0.00    -0.396 A  
HETATM   22  C   UNL     1     -12.312  14.180  70.946  1.00  0.00    -0.438 A  
HETATM   23  C   UNL     1     -13.131  13.908  72.041  1.00  0.00    -0.480 A  
HETATM   24  C   UNL     1     -13.273  14.850  73.057  1.00  0.00    -0.596 A  
HETATM   25  C   UNL     1     -12.586  16.061  72.985  1.00  0.00    -0.605 A  
HETATM   26  C   UNL     1     -11.765  16.337  71.889  1.00  0.00    -0.518 A  
ENDBRANCH  20  21
ENDBRANCH  18  20
ENDBRANCH  17  18
ENDBRANCH  16  17
ENDBRANCH  15  16
ENDBRANCH  13  15
ENDBRANCH  10  13
BRANCH  12  27
HETATM   27  C   UNL     1      -9.274   8.403  69.742  1.00  0.00    -0.157 A  
HETATM   28  C   UNL     1      -7.296   7.000  69.641  1.00  0.00    -0.086 A  
HETATM   29  O   UNL     1     -10.950   5.995  66.798  1.00  0.00    -0.316 OA 
HETATM   30  C   UNL     1      -9.863   7.624  68.726  1.00  0.00    -0.165 A  
HETATM   31  O   UNL     1      -9.136   4.768  66.683  1.00  0.00    -0.113 OA 
HETATM   32  C   UNL     1      -9.168   6.537  68.185  1.00  0.00    -0.112 A  
HETATM   33  C   UNL     1      -7.993   8.070  70.201  1.00  0.00    -0.105 A  
HETATM   34  C   UNL     1      -7.877   6.232  68.630  1.00  0.00    -0.102 A  
HETATM   35  N   UNL     1      -9.797   5.708  67.149  1.00  0.00    -0.137 N  
ENDBRANCH  12  27
ENDBRANCH   3   5
ENDBRANCH   2   3
TORSDOF 10
ENDMDL
MODEL       60
REMARK 921   NORMALIZED FREE ENERGY PREDICTED BY IDOCK:   -5.88 KCAL/MOL
REMARK 922        TOTAL FREE ENERGY PREDICTED BY IDOCK:  -10.83 KCAL/MOL
REMARK 923 INTER-LIGAND FREE ENERGY PREDICTED BY IDOCK:   -8.56 KCAL/MOL
REMARK 924 INTRA-LIGAND FREE ENERGY PREDICTED BY IDOCK:   -2.27 KCAL/MOL
REMARK 927      BINDING AFFINITY PREDICTED BY RF-SCORE:    0.00 PKD
ROOT
HETATM    1  C   UNL     1      -6.418   7.820  73.446  1.00  0.00    -0.072 C  
HETATM    2  O   UNL     1      -7.049   8.483  72.345  1.00  0.00    -0.147 OA 
ENDROOT
BRANCH   2   3
HETATM    3  C   UNL     1      -8.021   7.733  71.765  1.00  0.00    -0.094 C  
HETATM    4  O   UNL     1      -7.881   6.577  71.393  1.00  0.00    -0.098 OA 
BRANCH   3   5
HETATM    5  C   UNL     1      -9.273   8.512  71.593  1.00  0.00    -0.304 C  
HETATM    6  C   UNL     1     -10.341   8.276  72.391  1.00  0.00    -0.332 C  
HETATM    7  C   UNL     1     -10.390   7.333  73.570  1.00  0.00    -0.412 C  
HETATM    8  N   UNL     1     -11.540   8.918  72.137  1.00  0.00    -0.359 NA 
HETATM    9  C   UNL     1     -11.813   9.668  71.009  1.00  0.00    -0.347 C  
HETATM   10  C   UNL     1     -10.817   9.962  70.139  1.00  0.00    -0.356 C  
HETATM   11  C   UNL     1     -13.247  10.125  70.870  1.00  0.00    -0.360 C  
HETATM   12  C   UNL     1      -9.374   9.503  70.420  1.00  0.00    -0.311 C  
BRANCH  10  13
HETATM   13  C   UNL     1     -11.100  10.827  68.958  1.00  0.00    -0.253 C  
HETATM   14  O   UNL     1     -11.677  10.474  67.941  1.00  0.00    -0.453 OA 
BRANCH  13  15
HETATM   15  O   UNL     1     -10.810  12.115  69.267  1.00  0.00    -0.169 OA 
BRANCH  15  16
HETATM   16  C   UNL     1     -11.910  13.016  69.057  1.00  0.00    -0.316 C  
BRANCH  16  17
HETATM   17  C   UNL     1     -11.497  13.915  67.882  1.00  0.00    -0.318 C  
BRANCH  17  18
HETATM   18  N   UNL     1     -11.717  13.392  66.527  1.00  0.00    -0.354 NA 
HETATM   19  C   UNL     1     -12.820  14.103  65.873  1.00  0.00    -0.257 C  
BRANCH  18  20
HETATM   20  C   UNL     1     -10.480  13.550  65.724  1.00  0.00    -0.291 C  
BRANCH  20  21
HETATM   21  C   UNL     1     -10.110  12.301  64.945  1.00  0.00    -0.274 A  
HETATM   22  C   UNL     1      -9.437  11.246  65.579  1.00  0.00    -0.255 A  
HETATM   23  C   UNL     1      -9.011  10.135  64.852  1.00  0.00    -0.230 A  
HETATM   24  C   UNL     1      -9.260  10.061  63.482  1.00  0.00    -0.315 A  
HETATM   25  C   UNL     1      -9.945  11.093  62.842  1.00  0.00    -0.282 A  
HETATM   26  C   UNL     1     -10.372  12.208  63.568  1.00  0.00    -0.473 A  
ENDBRANCH  20  21
ENDBRANCH  18  20
ENDBRANCH  17  18
ENDBRANCH  16  17
ENDBRANCH  15  16
ENDBRANCH  13  15
ENDBRANCH  10  13
BRANCH  12  27
HETATM   27  C   UNL     1      -8.699   8.952  69.159  1.00  0.00    -0.132 A  
HETATM   28  C   UNL     1      -6.899   9.013  67.532  1.00  0.00    -0.077 A  
HETATM   29  O   UNL     1     -10.374   5.843  66.968  1.00  0.00    -0.187 OA 
HETATM   30  C   UNL     1      -9.310   7.914  68.427  1.00  0.00    -0.140 A  
HETATM   31  O   UNL     1      -8.766   5.944  65.479  1.00  0.00    -0.154 OA 
HETATM   32  C   UNL     1      -8.705   7.430  67.262  1.00  0.00    -0.121 A  
HETATM   33  C   UNL     1      -7.484   9.483  68.707  1.00  0.00    -0.075 A  
HETATM   34  C   UNL     1      -7.507   7.989  66.803  1.00  0.00    -0.090 A  
HETATM   35  N   UNL     1      -9.326   6.327  66.517  1.00  0.00    -0.150 N  
ENDBRANCH  12  27
ENDBRANCH   3   5
ENDBRANCH   2   3
TORSDOF 10
ENDMDL
MODEL       61
REMARK 921   NORMALIZED FREE ENERGY PREDICTED BY IDOCK:   -5.86 KCAL/MOL
REMARK 922        TOTAL FREE ENERGY PREDICTED BY IDOCK:  -10.80 KCAL/MOL
REMARK 923 INTER-LIGAND FREE ENERGY PREDICTED BY IDOCK:   -8.82 KCAL/MOL
REMARK 924 INTRA-LIGAND FREE ENERGY PREDICTED BY IDOCK:   -1.98 KCAL/MOL
REMARK 927      BINDING AFFINITY PREDICTED BY RF-SCORE:    0.00 PKD
ROOT
HETATM    1  C   UNL     1     -12.041  15.587  73.274  1.00  0.00    -0.487 C  
HETATM    2  O   UNL     1     -11.634  15.147  71.974  1.00  0.00    -0.407 OA 
ENDROOT
BRANCH   2   3
HETATM    3  C   UNL     1     -12.674  15.023  71.110  1.00  0.00    -0.362 C  
HETATM    4  O   UNL     1     -13.649  15.759  71.082  1.00  0.00    -0.576 OA 
BRANCH   3   5
HETATM    5  C   UNL     1     -12.504  13.841  70.228  1.00  0.00    -0.357 C  
HETATM    6  C   UNL     1     -12.652  12.590  70.724  1.00  0.00    -0.212 C  
HETATM    7  C   UNL     1     -13.093  12.224  72.122  1.00  0.00    -0.406 C  
HETATM    8  N   UNL     1     -12.366  11.497  69.924  1.00  0.00    -0.221 NA 
HETATM    9  C   UNL     1     -11.758  11.562  68.685  1.00  0.00    -0.326 C  
HETATM   10  C   UNL     1     -11.557  12.765  68.096  1.00  0.00    -0.380 C  
HETATM   11  C   UNL     1     -11.389  10.228  68.077  1.00  0.00    -0.219 C  
HETATM   12  C   UNL     1     -12.041  14.060  68.776  1.00  0.00    -0.338 C  
BRANCH  10  13
HETATM   13  C   UNL     1     -10.963  12.828  66.730  1.00  0.00    -0.270 C  
HETATM   14  O   UNL     1     -11.550  13.174  65.715  1.00  0.00    -0.322 OA 
BRANCH  13  15
HETATM   15  O   UNL     1      -9.622  12.649  66.815  1.00  0.00    -0.227 OA 
BRANCH  15  16
HETATM   16  C   UNL     1      -9.100  11.750  65.822  1.00  0.00    -0.083 C  
BRANCH  16  17
HETATM   17  C   UNL     1      -7.944  11.001  66.502  1.00  0.00    -0.158 C  
BRANCH  17  18
HETATM   18  N   UNL     1      -8.056   9.540  66.599  1.00  0.00    -0.108 NA 
HETATM   19  C   UNL     1      -7.442   8.898  65.433  1.00  0.00    -0.086 C  
BRANCH  18  20
HETATM   20  C   UNL     1      -7.386   9.068  67.836  1.00  0.00    -0.084 C  
BRANCH  20  21
HETATM   21  C   UNL     1      -8.360   8.680  68.932  1.00  0.00    -0.124 A  
HETATM   22  C   UNL     1      -8.451   9.447  70.103  1.00  0.00    -0.224 A  
HETATM   23  C   UNL     1      -9.275   9.047  71.154  1.00  0.00    -0.326 A  
HETATM   24  C   UNL     1     -10.026   7.878  71.045  1.00  0.00    -0.200 A  
HETATM   25  C   UNL     1      -9.962   7.115  69.880  1.00  0.00    -0.184 A  
HETATM   26  C   UNL     1      -9.135   7.513  68.826  1.00  0.00    -0.135 A  
ENDBRANCH  20  21
ENDBRANCH  18  20
ENDBRANCH  17  18
ENDBRANCH  16  17
ENDBRANCH  15  16
ENDBRANCH  13  15
ENDBRANCH  10  13
BRANCH  12  27
HETATM   27  C   UNL     1     -10.994  15.174  68.682  1.00  0.00    -0.256 A  
HETATM   28  C   UNL     1     -10.343  17.401  67.970  1.00  0.00    -0.362 A  
HETATM   29  O   UNL     1      -7.136  14.676  70.146  1.00  0.00    -0.101 OA 
HETATM   30  C   UNL     1      -9.688  14.960  69.167  1.00  0.00    -0.184 A  
HETATM   31  O   UNL     1      -6.549  16.672  69.452  1.00  0.00    -0.207 OA 
HETATM   32  C   UNL     1      -8.726  15.971  69.057  1.00  0.00    -0.245 A  
HETATM   33  C   UNL     1     -11.312  16.408  68.099  1.00  0.00    -0.205 A  
HETATM   34  C   UNL     1      -9.046  17.187  68.444  1.00  0.00    -0.263 A  
HETATM   35  N   UNL     1      -7.375  15.757  69.590  1.00  0.00    -0.172 N  
ENDBRANCH  12  27
ENDBRANCH   3   5
ENDBRANCH   2   3
TORSDOF 10
ENDMDL
MODEL       62
REMARK 921   NORMALIZED FREE ENERGY PREDICTED BY IDOCK:   -5.85 KCAL/MOL
REMARK 922        TOTAL FREE ENERGY PREDICTED BY IDOCK:  -10.80 KCAL/MOL
REMARK 923 INTER-LIGAND FREE ENERGY PREDICTED BY IDOCK:   -8.54 KCAL/MOL
REMARK 924 INTRA-LIGAND FREE ENERGY PREDICTED BY IDOCK:   -2.25 KCAL/MOL
REMARK 927      BINDING AFFINITY PREDICTED BY RF-SCORE:    0.00 PKD
ROOT
HETATM    1  C   UNL     1     -11.275   9.474  69.195  1.00  0.00     0.031 C  
HETATM    2  O   UNL     1     -11.769  10.439  68.260  1.00  0.00    -0.342 OA 
ENDROOT
BRANCH   2   3
HETATM    3  C   UNL     1     -10.964  10.584  67.176  1.00  0.00    -0.228 C  
HETATM    4  O   UNL     1     -10.573   9.666  66.471  1.00  0.00    -0.174 OA 
BRANCH   3   5
HETATM    5  C   UNL     1     -10.574  12.003  66.980  1.00  0.00    -0.258 C  
HETATM    6  C   UNL     1     -11.213  12.767  66.062  1.00  0.00    -0.299 C  
HETATM    7  C   UNL     1     -12.409  12.363  65.233  1.00  0.00    -0.357 C  
HETATM    8  N   UNL     1     -10.756  14.047  65.799  1.00  0.00    -0.286 NA 
HETATM    9  C   UNL     1      -9.569  14.575  66.270  1.00  0.00    -0.304 C  
HETATM   10  C   UNL     1      -8.847  13.893  67.191  1.00  0.00    -0.236 C  
HETATM   11  C   UNL     1      -9.199  15.929  65.709  1.00  0.00    -0.241 C  
HETATM   12  C   UNL     1      -9.359  12.551  67.749  1.00  0.00    -0.198 C  
BRANCH  10  13
HETATM   13  C   UNL     1      -7.602  14.496  67.748  1.00  0.00    -0.159 C  
HETATM   14  O   UNL     1      -6.635  14.860  67.094  1.00  0.00    -0.269 OA 
BRANCH  13  15
HETATM   15  O   UNL     1      -7.787  14.775  69.061  1.00  0.00    -0.141 OA 
BRANCH  15  16
HETATM   16  C   UNL     1      -8.383  16.062  69.295  1.00  0.00    -0.217 C  
BRANCH  16  17
HETATM   17  C   UNL     1      -9.697  15.785  70.042  1.00  0.00     0.048 C  
BRANCH  17  18
HETATM   18  N   UNL     1     -10.908  16.446  69.537  1.00  0.00    -0.327 NA 
HETATM   19  C   UNL     1     -10.580  17.339  68.422  1.00  0.00    -0.368 C  
BRANCH  18  20
HETATM   20  C   UNL     1     -11.882  15.424  69.084  1.00  0.00    -0.335 C  
BRANCH  20  21
HETATM   21  C   UNL     1     -12.510  14.649  70.228  1.00  0.00    -0.401 A  
HETATM   22  C   UNL     1     -13.196  15.324  71.248  1.00  0.00    -0.563 A  
HETATM   23  C   UNL     1     -13.695  14.630  72.350  1.00  0.00    -0.575 A  
HETATM   24  C   UNL     1     -13.523  13.250  72.441  1.00  0.00    -0.670 A  
HETATM   25  C   UNL     1     -12.862  12.562  71.425  1.00  0.00    -0.359 A  
HETATM   26  C   UNL     1     -12.359  13.255  70.321  1.00  0.00    -0.334 A  
ENDBRANCH  20  21
ENDBRANCH  18  20
ENDBRANCH  17  18
ENDBRANCH  16  17
ENDBRANCH  15  16
ENDBRANCH  13  15
ENDBRANCH  10  13
BRANCH  12  27
HETATM   27  C   UNL     1      -8.237  11.512  67.842  1.00  0.00    -0.134 A  
HETATM   28  C   UNL     1      -6.497  10.187  66.791  1.00  0.00    -0.071 A  
HETATM   29  O   UNL     1      -7.305   9.620  71.424  1.00  0.00    -0.302 OA 
HETATM   30  C   UNL     1      -7.967  10.872  69.068  1.00  0.00    -0.131 A  
HETATM   31  O   UNL     1      -5.770   8.395  70.448  1.00  0.00    -0.028 OA 
HETATM   32  C   UNL     1      -6.958   9.905  69.146  1.00  0.00    -0.057 A  
HETATM   33  C   UNL     1      -7.483  11.169  66.712  1.00  0.00    -0.146 A  
HETATM   34  C   UNL     1      -6.233   9.548  68.004  1.00  0.00    -0.056 A  
HETATM   35  N   UNL     1      -6.657   9.261  70.431  1.00  0.00    -0.059 N  
ENDBRANCH  12  27
ENDBRANCH   3   5
ENDBRANCH   2   3
TORSDOF 10
ENDMDL
MODEL       63
REMARK 921   NORMALIZED FREE ENERGY PREDICTED BY IDOCK:   -5.85 KCAL/MOL
REMARK 922        TOTAL FREE ENERGY PREDICTED BY IDOCK:  -10.79 KCAL/MOL
REMARK 923 INTER-LIGAND FREE ENERGY PREDICTED BY IDOCK:   -8.77 KCAL/MOL
REMARK 924 INTRA-LIGAND FREE ENERGY PREDICTED BY IDOCK:   -2.02 KCAL/MOL
REMARK 927      BINDING AFFINITY PREDICTED BY RF-SCORE:    0.00 PKD
ROOT
HETATM    1  C   UNL     1      -5.475  10.819  63.162  1.00  0.00    -0.120 C  
HETATM    2  O   UNL     1      -6.181  10.489  64.363  1.00  0.00    -0.100 OA 
ENDROOT
BRANCH   2   3
HETATM    3  C   UNL     1      -7.509  10.295  64.156  1.00  0.00    -0.069 C  
HETATM    4  O   UNL     1      -8.125  10.675  63.171  1.00  0.00    -0.132 OA 
BRANCH   3   5
HETATM    5  C   UNL     1      -8.138   9.601  65.309  1.00  0.00    -0.125 C  
HETATM    6  C   UNL     1      -8.350   8.264  65.269  1.00  0.00    -0.166 C  
HETATM    7  C   UNL     1      -7.911   7.317  64.177  1.00  0.00    -0.084 C  
HETATM    8  N   UNL     1      -9.051   7.652  66.293  1.00  0.00    -0.169 NA 
HETATM    9  C   UNL     1      -9.728   8.317  67.297  1.00  0.00    -0.177 C  
HETATM   10  C   UNL     1      -9.590   9.658  67.427  1.00  0.00    -0.183 C  
HETATM   11  C   UNL     1     -10.565   7.441  68.201  1.00  0.00    -0.216 C  
HETATM   12  C   UNL     1      -8.651  10.442  66.491  1.00  0.00    -0.134 C  
BRANCH  10  13
HETATM   13  C   UNL     1     -10.268  10.365  68.552  1.00  0.00    -0.173 C  
HETATM   14  O   UNL     1      -9.778  10.586  69.649  1.00  0.00    -0.176 OA 
BRANCH  13  15
HETATM   15  O   UNL     1     -11.427  10.908  68.107  1.00  0.00    -0.333 OA 
BRANCH  15  16
HETATM   16  C   UNL     1     -12.035  11.809  69.048  1.00  0.00    -0.280 C  
BRANCH  16  17
HETATM   17  C   UNL     1     -11.651  13.222  68.584  1.00  0.00    -0.327 C  
BRANCH  17  18
HETATM   18  N   UNL     1     -11.866  14.322  69.533  1.00  0.00    -0.308 NA 
HETATM   19  C   UNL     1     -12.627  13.857  70.697  1.00  0.00    -0.335 C  
BRANCH  18  20
HETATM   20  C   UNL     1     -10.558  14.861  69.979  1.00  0.00    -0.086 C  
BRANCH  20  21
HETATM   21  C   UNL     1     -10.021  15.952  69.070  1.00  0.00    -0.233 A  
HETATM   22  C   UNL     1      -8.648  16.238  69.042  1.00  0.00    -0.247 A  
HETATM   23  C   UNL     1      -8.158  17.298  68.282  1.00  0.00    -0.246 A  
HETATM   24  C   UNL     1      -9.033  18.082  67.532  1.00  0.00    -0.249 A  
HETATM   25  C   UNL     1     -10.398  17.798  67.534  1.00  0.00    -0.371 A  
HETATM   26  C   UNL     1     -10.892  16.737  68.296  1.00  0.00    -0.366 A  
ENDBRANCH  20  21
ENDBRANCH  18  20
ENDBRANCH  17  18
ENDBRANCH  16  17
ENDBRANCH  15  16
ENDBRANCH  13  15
ENDBRANCH  10  13
BRANCH  12  27
HETATM   27  C   UNL     1      -9.288  11.751  66.015  1.00  0.00    -0.231 A  
HETATM   28  C   UNL     1      -9.418  14.174  66.066  1.00  0.00    -0.189 A  
HETATM   29  O   UNL     1     -12.486  11.785  63.360  1.00  0.00    -0.555 OA 
HETATM   30  C   UNL     1     -10.388  11.723  65.134  1.00  0.00    -0.323 A  
HETATM   31  O   UNL     1     -12.622  13.972  63.456  1.00  0.00    -0.842 OA 
HETATM   32  C   UNL     1     -10.984  12.919  64.721  1.00  0.00    -0.318 A  
HETATM   33  C   UNL     1      -8.803  12.988  66.462  1.00  0.00    -0.009 A  
HETATM   34  C   UNL     1     -10.512  14.146  65.198  1.00  0.00    -0.422 A  
HETATM   35  N   UNL     1     -12.110  12.889  63.779  1.00  0.00    -0.481 N  
ENDBRANCH  12  27
ENDBRANCH   3   5
ENDBRANCH   2   3
TORSDOF 10
ENDMDL
MODEL       64
REMARK 921   NORMALIZED FREE ENERGY PREDICTED BY IDOCK:   -5.84 KCAL/MOL
REMARK 922        TOTAL FREE ENERGY PREDICTED BY IDOCK:  -10.78 KCAL/MOL
REMARK 923 INTER-LIGAND FREE ENERGY PREDICTED BY IDOCK:   -9.05 KCAL/MOL
REMARK 924 INTRA-LIGAND FREE ENERGY PREDICTED BY IDOCK:   -1.73 KCAL/MOL
REMARK 927      BINDING AFFINITY PREDICTED BY RF-SCORE:    0.00 PKD
ROOT
HETATM    1  C   UNL     1      -8.747   7.715  73.140  1.00  0.00    -0.172 C  
HETATM    2  O   UNL     1      -7.950   8.640  72.392  1.00  0.00    -0.323 OA 
ENDROOT
BRANCH   2   3
HETATM    3  C   UNL     1      -7.622   8.176  71.159  1.00  0.00    -0.082 C  
HETATM    4  O   UNL     1      -7.169   7.064  70.930  1.00  0.00    -0.069 OA 
BRANCH   3   5
HETATM    5  C   UNL     1      -7.836   9.213  70.118  1.00  0.00    -0.114 C  
HETATM    6  C   UNL     1      -7.067  10.328  70.095  1.00  0.00    -0.148 C  
HETATM    7  C   UNL     1      -5.884  10.622  70.986  1.00  0.00     0.016 C  
HETATM    8  N   UNL     1      -7.361  11.342  69.200  1.00  0.00    -0.107 NA 
HETATM    9  C   UNL     1      -8.501  11.407  68.424  1.00  0.00    -0.155 C  
HETATM   10  C   UNL     1      -9.344  10.348  68.375  1.00  0.00    -0.150 C  
HETATM   11  C   UNL     1      -8.685  12.695  67.654  1.00  0.00    -0.179 C  
HETATM   12  C   UNL     1      -9.018   9.054  69.146  1.00  0.00    -0.140 C  
BRANCH  10  13
HETATM   13  C   UNL     1     -10.538  10.394  67.484  1.00  0.00    -0.262 C  
HETATM   14  O   UNL     1     -11.650  10.786  67.806  1.00  0.00    -0.521 OA 
BRANCH  13  15
HETATM   15  O   UNL     1     -10.157  10.137  66.209  1.00  0.00    -0.226 OA 
BRANCH  15  16
HETATM   16  C   UNL     1     -11.022  10.724  65.222  1.00  0.00     0.122 C  
BRANCH  16  17
HETATM   17  C   UNL     1     -10.402  12.088  64.881  1.00  0.00    -0.278 C  
BRANCH  17  18
HETATM   18  N   UNL     1     -11.325  13.213  64.681  1.00  0.00    -0.319 NA 
HETATM   19  C   UNL     1     -12.131  13.010  63.475  1.00  0.00    -0.542 C  
BRANCH  18  20
HETATM   20  C   UNL     1     -12.218  13.342  65.859  1.00  0.00    -0.441 C  
BRANCH  20  21
HETATM   21  C   UNL     1     -11.756  14.398  66.847  1.00  0.00    -0.422 A  
HETATM   22  C   UNL     1     -10.944  15.459  66.420  1.00  0.00    -0.277 A  
HETATM   23  C   UNL     1     -10.440  16.381  67.335  1.00  0.00    -0.309 A  
HETATM   24  C   UNL     1     -10.747  16.259  68.689  1.00  0.00    -0.309 A  
HETATM   25  C   UNL     1     -11.570  15.222  69.126  1.00  0.00    -0.349 A  
HETATM   26  C   UNL     1     -12.076  14.295  68.211  1.00  0.00    -0.278 A  
ENDBRANCH  20  21
ENDBRANCH  18  20
ENDBRANCH  17  18
ENDBRANCH  16  17
ENDBRANCH  15  16
ENDBRANCH  13  15
ENDBRANCH  10  13
BRANCH  12  27
HETATM   27  C   UNL     1     -10.255   8.489  69.852  1.00  0.00    -0.204 A  
HETATM   28  C   UNL     1     -11.709   6.621  70.385  1.00  0.00    -0.446 A  
HETATM   29  O   UNL     1     -12.821  10.918  72.041  1.00  0.00    -0.393 OA 
HETATM   30  C   UNL     1     -11.117   9.347  70.564  1.00  0.00    -0.330 A  
HETATM   31  O   UNL     1     -14.151   9.229  72.472  1.00  0.00    -0.440 OA 
HETATM   32  C   UNL     1     -12.259   8.833  71.187  1.00  0.00    -0.244 A  
HETATM   33  C   UNL     1     -10.557   7.123  69.783  1.00  0.00    -0.250 A  
HETATM   34  C   UNL     1     -12.567   7.473  71.085  1.00  0.00    -0.293 A  
HETATM   35  N   UNL     1     -13.139   9.724  71.954  1.00  0.00    -0.418 N  
ENDBRANCH  12  27
ENDBRANCH   3   5
ENDBRANCH   2   3
TORSDOF 10
ENDMDL
MODEL       65
REMARK 921   NORMALIZED FREE ENERGY PREDICTED BY IDOCK:   -5.84 KCAL/MOL
REMARK 922        TOTAL FREE ENERGY PREDICTED BY IDOCK:  -10.77 KCAL/MOL
REMARK 923 INTER-LIGAND FREE ENERGY PREDICTED BY IDOCK:   -7.59 KCAL/MOL
REMARK 924 INTRA-LIGAND FREE ENERGY PREDICTED BY IDOCK:   -3.18 KCAL/MOL
REMARK 927      BINDING AFFINITY PREDICTED BY RF-SCORE:    0.00 PKD
ROOT
HETATM    1  C   UNL     1      -6.496  16.481  68.582  1.00  0.00    -0.142 C  
HETATM    2  O   UNL     1      -7.113  15.239  68.227  1.00  0.00    -0.106 OA 
ENDROOT
BRANCH   2   3
HETATM    3  C   UNL     1      -8.436  15.201  68.531  1.00  0.00    -0.160 C  
HETATM    4  O   UNL     1      -8.894  15.274  69.662  1.00  0.00    -0.233 OA 
BRANCH   3   5
HETATM    5  C   UNL     1      -9.264  15.011  67.313  1.00  0.00    -0.210 C  
HETATM    6  C   UNL     1     -10.107  15.987  66.900  1.00  0.00    -0.265 C  
HETATM    7  C   UNL     1     -10.248  17.366  67.499  1.00  0.00    -0.332 C  
HETATM    8  N   UNL     1     -10.965  15.747  65.840  1.00  0.00    -0.246 NA 
HETATM    9  C   UNL     1     -11.175  14.513  65.256  1.00  0.00    -0.352 C  
HETATM   10  C   UNL     1     -10.389  13.464  65.598  1.00  0.00    -0.295 C  
HETATM   11  C   UNL     1     -12.285  14.464  64.232  1.00  0.00    -0.450 C  
HETATM   12  C   UNL     1      -9.235  13.646  66.603  1.00  0.00    -0.225 C  
BRANCH  10  13
HETATM   13  C   UNL     1     -10.573  12.150  64.917  1.00  0.00    -0.293 C  
HETATM   14  O   UNL     1     -11.507  11.383  65.095  1.00  0.00    -0.096 OA 
BRANCH  13  15
HETATM   15  O   UNL     1      -9.663  12.031  63.920  1.00  0.00    -0.235 OA 
BRANCH  15  16
HETATM   16  C   UNL     1      -9.934  10.939  63.025  1.00  0.00    -0.274 C  
BRANCH  16  17
HETATM   17  C   UNL     1      -8.592  10.220  62.823  1.00  0.00    -0.191 C  
BRANCH  17  18
HETATM   18  N   UNL     1      -8.394   8.954  63.541  1.00  0.00    -0.181 NA 
HETATM   19  C   UNL     1      -7.487   8.076  62.797  1.00  0.00    -0.112 C  
BRANCH  18  20
HETATM   20  C   UNL     1      -7.830   9.225  64.886  1.00  0.00    -0.116 C  
BRANCH  20  21
HETATM   21  C   UNL     1      -8.553   8.486  65.997  1.00  0.00    -0.162 A  
HETATM   22  C   UNL     1      -7.873   7.537  66.775  1.00  0.00    -0.110 A  
HETATM   23  C   UNL     1      -8.551   6.787  67.735  1.00  0.00    -0.121 A  
HETATM   24  C   UNL     1      -9.916   6.982  67.936  1.00  0.00    -0.183 A  
HETATM   25  C   UNL     1     -10.602   7.936  67.185  1.00  0.00    -0.383 A  
HETATM   26  C   UNL     1      -9.925   8.688  66.221  1.00  0.00    -0.287 A  
ENDBRANCH  20  21
ENDBRANCH  18  20
ENDBRANCH  17  18
ENDBRANCH  16  17
ENDBRANCH  15  16
ENDBRANCH  13  15
ENDBRANCH  10  13
BRANCH  12  27
HETATM   27  C   UNL     1      -9.172  12.491  67.607  1.00  0.00    -0.190 A  
HETATM   28  C   UNL     1      -7.931  10.717  68.705  1.00  0.00    -0.136 A  
HETATM   29  O   UNL     1     -12.508  11.299  69.781  1.00  0.00    -0.232 OA 
HETATM   30  C   UNL     1     -10.330  12.098  68.308  1.00  0.00    -0.218 A  
HETATM   31  O   UNL     1     -11.385   9.670  70.727  1.00  0.00    -0.285 OA 
HETATM   32  C   UNL     1     -10.275  11.026  69.206  1.00  0.00    -0.127 A  
HETATM   33  C   UNL     1      -7.973  11.799  67.828  1.00  0.00    -0.141 A  
HETATM   34  C   UNL     1      -9.080  10.323  69.395  1.00  0.00    -0.203 A  
HETATM   35  N   UNL     1     -11.474  10.638  69.958  1.00  0.00    -0.299 N  
ENDBRANCH  12  27
ENDBRANCH   3   5
ENDBRANCH   2   3
TORSDOF 10
ENDMDL
MODEL       66
REMARK 921   NORMALIZED FREE ENERGY PREDICTED BY IDOCK:   -5.83 KCAL/MOL
REMARK 922        TOTAL FREE ENERGY PREDICTED BY IDOCK:  -10.75 KCAL/MOL
REMARK 923 INTER-LIGAND FREE ENERGY PREDICTED BY IDOCK:   -9.01 KCAL/MOL
REMARK 924 INTRA-LIGAND FREE ENERGY PREDICTED BY IDOCK:   -1.74 KCAL/MOL
REMARK 927      BINDING AFFINITY PREDICTED BY RF-SCORE:    0.00 PKD
ROOT
HETATM    1  C   UNL     1     -10.508  15.485  69.998  1.00  0.00    -0.309 C  
HETATM    2  O   UNL     1     -10.515  14.354  69.121  1.00  0.00    -0.238 OA 
ENDROOT
BRANCH   2   3
HETATM    3  C   UNL     1      -9.316  14.146  68.519  1.00  0.00    -0.191 C  
HETATM    4  O   UNL     1      -8.237  14.497  68.973  1.00  0.00    -0.145 OA 
BRANCH   3   5
HETATM    5  C   UNL     1      -9.481  13.475  67.204  1.00  0.00    -0.244 C  
HETATM    6  C   UNL     1     -10.197  14.069  66.219  1.00  0.00    -0.296 C  
HETATM    7  C   UNL     1     -10.802  15.452  66.257  1.00  0.00    -0.301 C  
HETATM    8  N   UNL     1     -10.450  13.379  65.047  1.00  0.00    -0.346 NA 
HETATM    9  C   UNL     1     -10.185  12.038  64.844  1.00  0.00    -0.270 C  
HETATM   10  C   UNL     1      -9.477  11.345  65.769  1.00  0.00    -0.256 C  
HETATM   11  C   UNL     1     -10.707  11.465  63.547  1.00  0.00    -0.453 C  
HETATM   12  C   UNL     1      -8.928  12.050  67.023  1.00  0.00    -0.198 C  
BRANCH  10  13
HETATM   13  C   UNL     1      -9.133   9.916  65.516  1.00  0.00    -0.189 C  
HETATM   14  O   UNL     1      -8.054   9.505  65.116  1.00  0.00    -0.117 OA 
BRANCH  13  15
HETATM   15  O   UNL     1     -10.123   9.125  65.997  1.00  0.00    -0.284 OA 
BRANCH  15  16
HETATM   16  C   UNL     1      -9.641   7.963  66.693  1.00  0.00    -0.226 C  
BRANCH  16  17
HETATM   17  C   UNL     1     -10.882   7.297  67.306  1.00  0.00    -0.284 C  
BRANCH  17  18
HETATM   18  N   UNL     1     -10.724   5.931  67.823  1.00  0.00    -0.269 NA 
HETATM   19  C   UNL     1     -10.392   5.005  66.737  1.00  0.00    -0.244 C  
BRANCH  18  20
HETATM   20  C   UNL     1      -9.649   5.905  68.844  1.00  0.00    -0.132 C  
BRANCH  20  21
HETATM   21  C   UNL     1     -10.146   5.519  70.225  1.00  0.00    -0.305 A  
HETATM   22  C   UNL     1     -11.071   6.332  70.898  1.00  0.00    -0.366 A  
HETATM   23  C   UNL     1     -11.462   6.035  72.202  1.00  0.00    -0.356 A  
HETATM   24  C   UNL     1     -10.941   4.916  72.849  1.00  0.00    -0.332 A  
HETATM   25  C   UNL     1     -10.036   4.087  72.187  1.00  0.00    -0.233 A  
HETATM   26  C   UNL     1      -9.641   4.383  70.880  1.00  0.00    -0.255 A  
ENDBRANCH  20  21
ENDBRANCH  18  20
ENDBRANCH  17  18
ENDBRANCH  16  17
ENDBRANCH  15  16
ENDBRANCH  13  15
ENDBRANCH  10  13
BRANCH  12  27
HETATM   27  C   UNL     1      -9.133  11.204  68.284  1.00  0.00    -0.162 A  
HETATM   28  C   UNL     1      -8.251   9.745  70.011  1.00  0.00    -0.207 A  
HETATM   29  O   UNL     1     -12.879  10.756  70.029  1.00  0.00    -0.230 OA 
HETATM   30  C   UNL     1     -10.423  11.054  68.833  1.00  0.00    -0.229 A  
HETATM   31  O   UNL     1     -12.075   9.399  71.552  1.00  0.00    -0.329 OA 
HETATM   32  C   UNL     1     -10.611  10.260  69.970  1.00  0.00    -0.269 A  
HETATM   33  C   UNL     1      -8.052  10.554  68.894  1.00  0.00    -0.138 A  
HETATM   34  C   UNL     1      -9.529   9.591  70.551  1.00  0.00    -0.306 A  
HETATM   35  N   UNL     1     -11.950  10.129  70.558  1.00  0.00    -0.301 N  
ENDBRANCH  12  27
ENDBRANCH   3   5
ENDBRANCH   2   3
TORSDOF 10
ENDMDL
MODEL       67
REMARK 921   NORMALIZED FREE ENERGY PREDICTED BY IDOCK:   -5.79 KCAL/MOL
REMARK 922        TOTAL FREE ENERGY PREDICTED BY IDOCK:  -10.70 KCAL/MOL
REMARK 923 INTER-LIGAND FREE ENERGY PREDICTED BY IDOCK:   -9.51 KCAL/MOL
REMARK 924 INTRA-LIGAND FREE ENERGY PREDICTED BY IDOCK:   -1.19 KCAL/MOL
REMARK 927      BINDING AFFINITY PREDICTED BY RF-SCORE:    0.00 PKD
ROOT
HETATM    1  C   UNL     1      -6.785  16.584  69.383  1.00  0.00    -0.213 C  
HETATM    2  O   UNL     1      -6.449  15.229  69.066  1.00  0.00    -0.103 OA 
ENDROOT
BRANCH   2   3
HETATM    3  C   UNL     1      -6.790  14.885  67.797  1.00  0.00    -0.174 C  
HETATM    4  O   UNL     1      -6.529  15.543  66.802  1.00  0.00    -0.124 OA 
BRANCH   3   5
HETATM    5  C   UNL     1      -7.571  13.621  67.772  1.00  0.00    -0.167 C  
HETATM    6  C   UNL     1      -6.958  12.445  67.501  1.00  0.00    -0.142 C  
HETATM    7  C   UNL     1      -5.476  12.227  67.307  1.00  0.00    -0.113 C  
HETATM    8  N   UNL     1      -7.716  11.296  67.355  1.00  0.00    -0.121 NA 
HETATM    9  C   UNL     1      -9.095  11.262  67.284  1.00  0.00    -0.156 C  
HETATM   10  C   UNL     1      -9.810  12.385  67.534  1.00  0.00    -0.194 C  
HETATM   11  C   UNL     1      -9.691   9.914  66.948  1.00  0.00    -0.236 C  
HETATM   12  C   UNL     1      -9.099  13.690  67.940  1.00  0.00    -0.198 C  
BRANCH  10  13
HETATM   13  C   UNL     1     -11.300  12.330  67.524  1.00  0.00    -0.325 C  
HETATM   14  O   UNL     1     -11.997  12.155  66.535  1.00  0.00    -0.618 OA 
BRANCH  13  15
HETATM   15  O   UNL     1     -11.756  12.291  68.799  1.00  0.00    -0.302 OA 
BRANCH  15  16
HETATM   16  C   UNL     1     -12.231  10.994  69.198  1.00  0.00    -0.159 C  
BRANCH  16  17
HETATM   17  C   UNL     1     -11.407  10.609  70.436  1.00  0.00    -0.304 C  
BRANCH  17  18
HETATM   18  N   UNL     1     -12.150  10.258  71.654  1.00  0.00    -0.310 NA 
HETATM   19  C   UNL     1     -13.186  11.256  71.931  1.00  0.00    -0.386 C  
BRANCH  18  20
HETATM   20  C   UNL     1     -12.778   8.924  71.489  1.00  0.00    -0.335 C  
BRANCH  20  21
HETATM   21  C   UNL     1     -11.789   7.779  71.610  1.00  0.00    -0.321 A  
HETATM   22  C   UNL     1     -11.547   6.933  70.517  1.00  0.00    -0.396 A  
HETATM   23  C   UNL     1     -10.712   5.825  70.646  1.00  0.00    -0.351 A  
HETATM   24  C   UNL     1     -10.099   5.553  71.868  1.00  0.00    -0.239 A  
HETATM   25  C   UNL     1     -10.312   6.395  72.958  1.00  0.00    -0.234 A  
HETATM   26  C   UNL     1     -11.151   7.506  72.831  1.00  0.00    -0.426 A  
ENDBRANCH  20  21
ENDBRANCH  18  20
ENDBRANCH  17  18
ENDBRANCH  16  17
ENDBRANCH  15  16
ENDBRANCH  13  15
ENDBRANCH  10  13
BRANCH  12  27
HETATM   27  C   UNL     1      -9.690  14.905  67.218  1.00  0.00    -0.228 A  
HETATM   28  C   UNL     1     -10.546  15.949  65.202  1.00  0.00    -0.421 A  
HETATM   29  O   UNL     1     -10.282  18.529  69.166  1.00  0.00    -0.320 OA 
HETATM   30  C   UNL     1      -9.852  16.125  67.904  1.00  0.00    -0.235 A  
HETATM   31  O   UNL     1     -11.006  19.471  67.323  1.00  0.00    -0.499 OA 
HETATM   32  C   UNL     1     -10.369  17.241  67.236  1.00  0.00    -0.331 A  
HETATM   33  C   UNL     1     -10.056  14.827  65.868  1.00  0.00    -0.343 A  
HETATM   34  C   UNL     1     -10.701  17.160  65.879  1.00  0.00    -0.132 A  
HETATM   35  N   UNL     1     -10.566  18.503  67.960  1.00  0.00    -0.353 N  
ENDBRANCH  12  27
ENDBRANCH   3   5
ENDBRANCH   2   3
TORSDOF 10
ENDMDL
MODEL       68
REMARK 921   NORMALIZED FREE ENERGY PREDICTED BY IDOCK:   -5.77 KCAL/MOL
REMARK 922        TOTAL FREE ENERGY PREDICTED BY IDOCK:  -10.65 KCAL/MOL
REMARK 923 INTER-LIGAND FREE ENERGY PREDICTED BY IDOCK:   -8.59 KCAL/MOL
REMARK 924 INTRA-LIGAND FREE ENERGY PREDICTED BY IDOCK:   -2.07 KCAL/MOL
REMARK 927      BINDING AFFINITY PREDICTED BY RF-SCORE:    0.00 PKD
ROOT
HETATM    1  C   UNL     1      -9.759   4.569  68.087  1.00  0.00    -0.127 C  
HETATM    2  O   UNL     1      -9.338   5.936  68.149  1.00  0.00    -0.116 OA 
ENDROOT
BRANCH   2   3
HETATM    3  C   UNL     1     -10.118   6.762  67.404  1.00  0.00    -0.175 C  
HETATM    4  O   UNL     1     -11.283   6.542  67.109  1.00  0.00    -0.388 OA 
BRANCH   3   5
HETATM    5  C   UNL     1      -9.360   7.954  66.947  1.00  0.00    -0.209 C  
HETATM    6  C   UNL     1      -8.311   7.814  66.102  1.00  0.00    -0.129 C  
HETATM    7  C   UNL     1      -7.849   6.533  65.448  1.00  0.00    -0.106 C  
HETATM    8  N   UNL     1      -7.535   8.915  65.786  1.00  0.00    -0.089 NA 
HETATM    9  C   UNL     1      -7.622  10.148  66.403  1.00  0.00    -0.108 C  
HETATM   10  C   UNL     1      -8.633  10.396  67.271  1.00  0.00    -0.126 C  
HETATM   11  C   UNL     1      -6.555  11.144  66.010  1.00  0.00     0.035 C  
HETATM   12  C   UNL     1      -9.710   9.329  67.542  1.00  0.00    -0.201 C  
BRANCH  10  13
HETATM   13  C   UNL     1      -8.764  11.749  67.884  1.00  0.00    -0.164 C  
HETATM   14  O   UNL     1      -7.972  12.254  68.666  1.00  0.00    -0.124 OA 
BRANCH  13  15
HETATM   15  O   UNL     1      -9.779  12.417  67.284  1.00  0.00    -0.196 OA 
BRANCH  15  16
HETATM   16  C   UNL     1      -9.389  13.695  66.755  1.00  0.00    -0.261 C  
BRANCH  16  17
HETATM   17  C   UNL     1     -10.376  14.713  67.348  1.00  0.00    -0.241 C  
BRANCH  17  18
HETATM   18  N   UNL     1     -10.447  14.804  68.812  1.00  0.00    -0.243 NA 
HETATM   19  C   UNL     1      -9.320  15.581  69.334  1.00  0.00    -0.279 C  
BRANCH  18  20
HETATM   20  C   UNL     1     -11.722  15.449  69.211  1.00  0.00    -0.349 C  
BRANCH  20  21
HETATM   21  C   UNL     1     -12.431  14.723  70.340  1.00  0.00    -0.405 A  
HETATM   22  C   UNL     1     -12.207  13.354  70.552  1.00  0.00    -0.425 A  
HETATM   23  C   UNL     1     -12.922  12.659  71.526  1.00  0.00    -0.380 A  
HETATM   24  C   UNL     1     -13.864  13.325  72.307  1.00  0.00    -0.637 A  
HETATM   25  C   UNL     1     -14.084  14.689  72.122  1.00  0.00    -0.604 A  
HETATM   26  C   UNL     1     -13.370  15.388  71.145  1.00  0.00    -0.580 A  
ENDBRANCH  20  21
ENDBRANCH  18  20
ENDBRANCH  17  18
ENDBRANCH  16  17
ENDBRANCH  15  16
ENDBRANCH  13  15
ENDBRANCH  10  13
BRANCH  12  27
HETATM   27  C   UNL     1     -10.043   9.227  69.034  1.00  0.00    -0.207 A  
HETATM   28  C   UNL     1     -11.627   9.441  70.860  1.00  0.00    -0.380 A  
HETATM   29  O   UNL     1      -7.171   8.171  71.847  1.00  0.00    -0.073 OA 
HETATM   30  C   UNL     1      -9.037   8.891  69.962  1.00  0.00    -0.174 A  
HETATM   31  O   UNL     1      -8.602   8.417  73.491  1.00  0.00    -0.304 OA 
HETATM   32  C   UNL     1      -9.338   8.824  71.327  1.00  0.00    -0.250 A  
HETATM   33  C   UNL     1     -11.340   9.486  69.497  1.00  0.00    -0.025 A  
HETATM   34  C   UNL     1     -10.629   9.114  71.781  1.00  0.00    -0.383 A  
HETATM   35  N   UNL     1      -8.296   8.443  72.289  1.00  0.00    -0.163 N  
ENDBRANCH  12  27
ENDBRANCH   3   5
ENDBRANCH   2   3
TORSDOF 10
ENDMDL
MODEL       69
REMARK 921   NORMALIZED FREE ENERGY PREDICTED BY IDOCK:   -5.76 KCAL/MOL
REMARK 922        TOTAL FREE ENERGY PREDICTED BY IDOCK:  -10.64 KCAL/MOL
REMARK 923 INTER-LIGAND FREE ENERGY PREDICTED BY IDOCK:  -10.48 KCAL/MOL
REMARK 924 INTRA-LIGAND FREE ENERGY PREDICTED BY IDOCK:   -0.16 KCAL/MOL
REMARK 927      BINDING AFFINITY PREDICTED BY RF-SCORE:    0.00 PKD
ROOT
HETATM    1  C   UNL     1      -8.277   6.299  71.038  1.00  0.00    -0.123 C  
HETATM    2  O   UNL     1      -9.409   7.171  71.108  1.00  0.00    -0.157 OA 
ENDROOT
BRANCH   2   3
HETATM    3  C   UNL     1      -9.084   8.427  71.509  1.00  0.00    -0.195 C  
HETATM    4  O   UNL     1      -9.001   8.788  72.674  1.00  0.00    -0.380 OA 
BRANCH   3   5
HETATM    5  C   UNL     1      -8.886   9.330  70.347  1.00  0.00    -0.271 C  
HETATM    6  C   UNL     1      -7.657   9.827  70.068  1.00  0.00    -0.163 C  
HETATM    7  C   UNL     1      -6.367   9.480  70.772  1.00  0.00    -0.091 C  
HETATM    8  N   UNL     1      -7.511  10.766  69.062  1.00  0.00    -0.108 NA 
HETATM    9  C   UNL     1      -8.554  11.396  68.410  1.00  0.00    -0.156 C  
HETATM   10  C   UNL     1      -9.827  10.980  68.618  1.00  0.00    -0.197 C  
HETATM   11  C   UNL     1      -8.149  12.510  67.472  1.00  0.00    -0.176 C  
HETATM   12  C   UNL     1     -10.117   9.783  69.542  1.00  0.00    -0.233 C  
BRANCH  10  13
HETATM   13  C   UNL     1     -10.943  11.616  67.861  1.00  0.00    -0.225 C  
HETATM   14  O   UNL     1     -11.891  11.026  67.364  1.00  0.00    -0.523 OA 
BRANCH  13  15
HETATM   15  O   UNL     1     -10.863  12.963  67.989  1.00  0.00    -0.227 OA 
BRANCH  15  16
HETATM   16  C   UNL     1     -12.116  13.635  67.779  1.00  0.00    -0.290 C  
BRANCH  16  17
HETATM   17  C   UNL     1     -12.047  14.213  66.357  1.00  0.00    -0.451 C  
BRANCH  17  18
HETATM   18  N   UNL     1     -10.712  14.441  65.789  1.00  0.00    -0.296 NA 
HETATM   19  C   UNL     1     -10.444  13.490  64.706  1.00  0.00    -0.413 C  
BRANCH  18  20
HETATM   20  C   UNL     1     -10.622  15.826  65.266  1.00  0.00    -0.423 C  
BRANCH  20  21
HETATM   21  C   UNL     1     -10.282  16.847  66.337  1.00  0.00    -0.326 A  
HETATM   22  C   UNL     1      -9.703  16.438  67.547  1.00  0.00    -0.231 A  
HETATM   23  C   UNL     1      -9.472  17.355  68.571  1.00  0.00    -0.297 A  
HETATM   24  C   UNL     1      -9.810  18.696  68.395  1.00  0.00    -0.424 A  
HETATM   25  C   UNL     1     -10.367  19.122  67.191  1.00  0.00    -0.511 A  
HETATM   26  C   UNL     1     -10.601  18.205  66.163  1.00  0.00    -0.289 A  
ENDBRANCH  20  21
ENDBRANCH  18  20
ENDBRANCH  17  18
ENDBRANCH  16  17
ENDBRANCH  15  16
ENDBRANCH  13  15
ENDBRANCH  10  13
BRANCH  12  27
HETATM   27  C   UNL     1     -11.318  10.051  70.455  1.00  0.00    -0.409 A  
HETATM   28  C   UNL     1     -13.182   9.239  71.780  1.00  0.00    -0.472 A  
HETATM   29  O   UNL     1     -12.488  13.914  71.448  1.00  0.00    -0.351 OA 
HETATM   30  C   UNL     1     -11.701  11.375  70.750  1.00  0.00    -0.068 A  
HETATM   31  O   UNL     1     -14.197  13.166  72.601  1.00  0.00    -0.677 OA 
HETATM   32  C   UNL     1     -12.813  11.618  71.563  1.00  0.00    -0.364 A  
HETATM   33  C   UNL     1     -12.061   8.991  70.991  1.00  0.00    -0.304 A  
HETATM   34  C   UNL     1     -13.566  10.551  72.067  1.00  0.00    -0.216 A  
HETATM   35  N   UNL     1     -13.192  12.997  71.894  1.00  0.00    -0.445 N  
ENDBRANCH  12  27
ENDBRANCH   3   5
ENDBRANCH   2   3
TORSDOF 10
ENDMDL
MODEL       70
REMARK 921   NORMALIZED FREE ENERGY PREDICTED BY IDOCK:   -5.75 KCAL/MOL
REMARK 922        TOTAL FREE ENERGY PREDICTED BY IDOCK:  -10.64 KCAL/MOL
REMARK 923 INTER-LIGAND FREE ENERGY PREDICTED BY IDOCK:   -9.44 KCAL/MOL
REMARK 924 INTRA-LIGAND FREE ENERGY PREDICTED BY IDOCK:   -1.19 KCAL/MOL
REMARK 927      BINDING AFFINITY PREDICTED BY RF-SCORE:    0.00 PKD
ROOT
HETATM    1  C   UNL     1     -11.930  15.415  64.276  1.00  0.00    -0.188 C  
HETATM    2  O   UNL     1     -11.443  14.890  65.516  1.00  0.00    -0.347 OA 
ENDROOT
BRANCH   2   3
HETATM    3  C   UNL     1     -12.065  13.739  65.881  1.00  0.00    -0.433 C  
HETATM    4  O   UNL     1     -13.259  13.636  66.118  1.00  0.00    -0.034 OA 
BRANCH   3   5
HETATM    5  C   UNL     1     -11.097  12.619  66.006  1.00  0.00    -0.321 C  
HETATM    6  C   UNL     1     -11.054  11.645  65.066  1.00  0.00    -0.249 C  
HETATM    7  C   UNL     1     -11.844  11.602  63.780  1.00  0.00    -0.382 C  
HETATM    8  N   UNL     1     -10.239  10.543  65.260  1.00  0.00    -0.299 NA 
HETATM    9  C   UNL     1      -9.576  10.246  66.435  1.00  0.00    -0.185 C  
HETATM   10  C   UNL     1      -9.557  11.150  67.444  1.00  0.00    -0.183 C  
HETATM   11  C   UNL     1      -8.887   8.901  66.465  1.00  0.00    -0.160 C  
HETATM   12  C   UNL     1     -10.233  12.524  67.276  1.00  0.00    -0.222 C  
BRANCH  10  13
HETATM   13  C   UNL     1      -8.784  10.856  68.685  1.00  0.00    -0.154 C  
HETATM   14  O   UNL     1      -7.754  11.417  69.030  1.00  0.00    -0.125 OA 
BRANCH  13  15
HETATM   15  O   UNL     1      -9.504  10.024  69.476  1.00  0.00    -0.204 OA 
BRANCH  15  16
HETATM   16  C   UNL     1      -8.741   9.455  70.553  1.00  0.00    -0.231 C  
BRANCH  16  17
HETATM   17  C   UNL     1      -9.772   8.961  71.580  1.00  0.00    -0.309 C  
BRANCH  17  18
HETATM   18  N   UNL     1      -9.705   7.547  71.971  1.00  0.00    -0.157 NA 
HETATM   19  C   UNL     1      -9.603   7.419  73.427  1.00  0.00    -0.249 C  
BRANCH  18  20
HETATM   20  C   UNL     1     -10.919   6.840  71.495  1.00  0.00    -0.240 C  
BRANCH  20  21
HETATM   21  C   UNL     1     -10.735   6.183  70.139  1.00  0.00    -0.366 A  
HETATM   22  C   UNL     1     -10.038   4.972  70.028  1.00  0.00    -0.342 A  
HETATM   23  C   UNL     1      -9.784   4.409  68.778  1.00  0.00    -0.200 A  
HETATM   24  C   UNL     1     -10.232   5.046  67.623  1.00  0.00    -0.168 A  
HETATM   25  C   UNL     1     -10.944   6.240  67.717  1.00  0.00    -0.427 A  
HETATM   26  C   UNL     1     -11.199   6.807  68.969  1.00  0.00    -0.214 A  
ENDBRANCH  20  21
ENDBRANCH  18  20
ENDBRANCH  17  18
ENDBRANCH  16  17
ENDBRANCH  15  16
ENDBRANCH  13  15
ENDBRANCH  10  13
BRANCH  12  27
HETATM   27  C   UNL     1     -11.024  12.922  68.525  1.00  0.00    -0.288 A  
HETATM   28  C   UNL     1     -11.805  14.619  70.075  1.00  0.00    -0.363 A  
HETATM   29  O   UNL     1     -12.952  10.094  70.884  1.00  0.00    -0.365 OA 
HETATM   30  C   UNL     1     -11.644  11.933  69.316  1.00  0.00    -0.376 A  
HETATM   31  O   UNL     1     -13.608  11.634  72.302  1.00  0.00    -0.299 OA 
HETATM   32  C   UNL     1     -12.345  12.297  70.471  1.00  0.00    -0.264 A  
HETATM   33  C   UNL     1     -11.126  14.266  68.910  1.00  0.00    -0.283 A  
HETATM   34  C   UNL     1     -12.414  13.639  70.862  1.00  0.00    -0.448 A  
HETATM   35  N   UNL     1     -13.016  11.269  71.275  1.00  0.00    -0.370 N  
ENDBRANCH  12  27
ENDBRANCH   3   5
ENDBRANCH   2   3
TORSDOF 10
ENDMDL
MODEL       71
REMARK 921   NORMALIZED FREE ENERGY PREDICTED BY IDOCK:   -5.74 KCAL/MOL
REMARK 922        TOTAL FREE ENERGY PREDICTED BY IDOCK:  -10.62 KCAL/MOL
REMARK 923 INTER-LIGAND FREE ENERGY PREDICTED BY IDOCK:   -7.77 KCAL/MOL
REMARK 924 INTRA-LIGAND FREE ENERGY PREDICTED BY IDOCK:   -2.85 KCAL/MOL
REMARK 927      BINDING AFFINITY PREDICTED BY RF-SCORE:    0.00 PKD
ROOT
HETATM    1  C   UNL     1     -12.538  15.469  70.754  1.00  0.00    -0.452 C  
HETATM    2  O   UNL     1     -11.448  16.353  70.476  1.00  0.00    -0.328 OA 
ENDROOT
BRANCH   2   3
HETATM    3  C   UNL     1     -11.104  16.370  69.162  1.00  0.00    -0.303 C  
HETATM    4  O   UNL     1     -11.881  16.572  68.241  1.00  0.00     0.015 OA 
BRANCH   3   5
HETATM    5  C   UNL     1      -9.663  16.063  68.977  1.00  0.00    -0.244 C  
HETATM    6  C   UNL     1      -8.791  17.045  68.648  1.00  0.00    -0.267 C  
HETATM    7  C   UNL     1      -9.100  18.519  68.535  1.00  0.00    -0.353 C  
HETATM    8  N   UNL     1      -7.478  16.724  68.354  1.00  0.00    -0.192 NA 
HETATM    9  C   UNL     1      -6.995  15.440  68.188  1.00  0.00    -0.124 C  
HETATM   10  C   UNL     1      -7.785  14.380  68.486  1.00  0.00    -0.135 C  
HETATM   11  C   UNL     1      -5.568  15.345  67.699  1.00  0.00    -0.080 C  
HETATM   12  C   UNL     1      -9.203  14.596  69.049  1.00  0.00    -0.108 C  
BRANCH  10  13
HETATM   13  C   UNL     1      -7.240  12.997  68.372  1.00  0.00    -0.110 C  
HETATM   14  O   UNL     1      -6.798  12.329  69.295  1.00  0.00    -0.099 OA 
BRANCH  13  15
HETATM   15  O   UNL     1      -7.501  12.513  67.133  1.00  0.00    -0.143 OA 
BRANCH  15  16
HETATM   16  C   UNL     1      -6.694  11.377  66.780  1.00  0.00    -0.137 C  
BRANCH  16  17
HETATM   17  C   UNL     1      -7.511  10.587  65.747  1.00  0.00    -0.139 C  
BRANCH  17  18
HETATM   18  N   UNL     1      -8.860  10.161  66.142  1.00  0.00    -0.143 NA 
HETATM   19  C   UNL     1      -9.747  10.113  64.976  1.00  0.00    -0.318 C  
BRANCH  18  20
HETATM   20  C   UNL     1      -8.795   8.819  66.771  1.00  0.00    -0.129 C  
BRANCH  20  21
HETATM   21  C   UNL     1      -9.180   8.829  68.240  1.00  0.00    -0.143 A  
HETATM   22  C   UNL     1     -10.419   8.316  68.650  1.00  0.00    -0.199 A  
HETATM   23  C   UNL     1     -10.820   8.405  69.982  1.00  0.00    -0.225 A  
HETATM   24  C   UNL     1      -9.983   9.001  70.924  1.00  0.00    -0.326 A  
HETATM   25  C   UNL     1      -8.740   9.498  70.535  1.00  0.00    -0.247 A  
HETATM   26  C   UNL     1      -8.336   9.411  69.200  1.00  0.00    -0.125 A  
ENDBRANCH  20  21
ENDBRANCH  18  20
ENDBRANCH  17  18
ENDBRANCH  16  17
ENDBRANCH  15  16
ENDBRANCH  13  15
ENDBRANCH  10  13
BRANCH  12  27
HETATM   27  C   UNL     1     -10.220  13.655  68.396  1.00  0.00    -0.245 A  
HETATM   28  C   UNL     1     -11.677  11.717  68.510  1.00  0.00    -0.390 A  
HETATM   29  O   UNL     1     -11.407  14.127  64.440  1.00  0.00    -0.361 OA 
HETATM   30  C   UNL     1     -10.580  13.830  67.044  1.00  0.00    -0.278 A  
HETATM   31  O   UNL     1     -12.680  12.344  64.545  1.00  0.00    -0.594 OA 
HETATM   32  C   UNL     1     -11.490  12.954  66.442  1.00  0.00    -0.341 A  
HETATM   33  C   UNL     1     -10.790  12.601  69.122  1.00  0.00    -0.127 A  
HETATM   34  C   UNL     1     -12.028  11.886  67.169  1.00  0.00    -0.045 A  
HETATM   35  N   UNL     1     -11.887  13.157  65.043  1.00  0.00    -0.336 N  
ENDBRANCH  12  27
ENDBRANCH   3   5
ENDBRANCH   2   3
TORSDOF 10
ENDMDL
MODEL       72
REMARK 921   NORMALIZED FREE ENERGY PREDICTED BY IDOCK:   -5.72 KCAL/MOL
REMARK 922        TOTAL FREE ENERGY PREDICTED BY IDOCK:  -10.58 KCAL/MOL
REMARK 923 INTER-LIGAND FREE ENERGY PREDICTED BY IDOCK:   -9.19 KCAL/MOL
REMARK 924 INTRA-LIGAND FREE ENERGY PREDICTED BY IDOCK:   -1.39 KCAL/MOL
REMARK 927      BINDING AFFINITY PREDICTED BY RF-SCORE:    0.00 PKD
ROOT
HETATM    1  C   UNL     1      -6.312  16.390  67.335  1.00  0.00    -0.171 C  
HETATM    2  O   UNL     1      -6.169  14.966  67.366  1.00  0.00    -0.329 OA 
ENDROOT
BRANCH   2   3
HETATM    3  C   UNL     1      -6.596  14.419  68.532  1.00  0.00    -0.094 C  
HETATM    4  O   UNL     1      -6.260  14.797  69.645  1.00  0.00    -0.113 OA 
BRANCH   3   5
HETATM    5  C   UNL     1      -7.493  13.261  68.288  1.00  0.00    -0.126 C  
HETATM    6  C   UNL     1      -7.007  12.126  67.730  1.00  0.00    -0.109 C  
HETATM    7  C   UNL     1      -5.563  11.836  67.396  1.00  0.00    -0.100 C  
HETATM    8  N   UNL     1      -7.877  11.104  67.391  1.00  0.00    -0.117 NA 
HETATM    9  C   UNL     1      -9.255  11.200  67.406  1.00  0.00    -0.153 C  
HETATM   10  C   UNL     1      -9.848  12.295  67.939  1.00  0.00    -0.201 C  
HETATM   11  C   UNL     1      -9.991  10.013  66.829  1.00  0.00    -0.267 C  
HETATM   12  C   UNL     1      -8.998  13.416  68.568  1.00  0.00    -0.071 C  
BRANCH  10  13
HETATM   13  C   UNL     1     -11.335  12.366  68.016  1.00  0.00    -0.287 C  
HETATM   14  O   UNL     1     -12.095  12.400  67.060  1.00  0.00    -0.549 OA 
BRANCH  13  15
HETATM   15  O   UNL     1     -11.728  12.175  69.299  1.00  0.00    -0.289 OA 
BRANCH  15  16
HETATM   16  C   UNL     1     -12.460  10.955  69.499  1.00  0.00    -0.057 C  
BRANCH  16  17
HETATM   17  C   UNL     1     -11.552  10.056  70.353  1.00  0.00    -0.302 C  
BRANCH  17  18
HETATM   18  N   UNL     1     -12.165   9.387  71.507  1.00  0.00    -0.345 NA 
HETATM   19  C   UNL     1     -13.235  10.213  72.073  1.00  0.00    -0.430 C  
BRANCH  18  20
HETATM   20  C   UNL     1     -12.717   8.076  71.089  1.00  0.00    -0.131 C  
BRANCH  20  21
HETATM   21  C   UNL     1     -11.686   6.962  71.101  1.00  0.00    -0.381 A  
HETATM   22  C   UNL     1     -10.972   6.671  72.273  1.00  0.00    -0.278 A  
HETATM   23  C   UNL     1      -9.959   5.713  72.269  1.00  0.00    -0.204 A  
HETATM   24  C   UNL     1      -9.652   5.027  71.095  1.00  0.00    -0.226 A  
HETATM   25  C   UNL     1     -10.367   5.291  69.927  1.00  0.00    -0.374 A  
HETATM   26  C   UNL     1     -11.382   6.251  69.928  1.00  0.00    -0.504 A  
ENDBRANCH  20  21
ENDBRANCH  18  20
ENDBRANCH  17  18
ENDBRANCH  16  17
ENDBRANCH  15  16
ENDBRANCH  13  15
ENDBRANCH  10  13
BRANCH  12  27
HETATM   27  C   UNL     1      -9.504  14.804  68.166  1.00  0.00    -0.208 A  
HETATM   28  C   UNL     1     -10.096  17.084  68.750  1.00  0.00    -0.307 A  
HETATM   29  O   UNL     1     -10.663  15.661  64.267  1.00  0.00    -0.171 OA 
HETATM   30  C   UNL     1      -9.913  15.051  66.840  1.00  0.00    -0.247 A  
HETATM   31  O   UNL     1     -11.239  17.703  64.822  1.00  0.00    -0.834 OA 
HETATM   32  C   UNL     1     -10.399  16.313  66.480  1.00  0.00    -0.307 A  
HETATM   33  C   UNL     1      -9.588  15.837  69.109  1.00  0.00    -0.255 A  
HETATM   34  C   UNL     1     -10.507  17.327  67.437  1.00  0.00    -0.338 A  
HETATM   35  N   UNL     1     -10.795  16.577  65.091  1.00  0.00    -0.319 N  
ENDBRANCH  12  27
ENDBRANCH   3   5
ENDBRANCH   2   3
TORSDOF 10
ENDMDL
MODEL       73
REMARK 921   NORMALIZED FREE ENERGY PREDICTED BY IDOCK:   -5.68 KCAL/MOL
REMARK 922        TOTAL FREE ENERGY PREDICTED BY IDOCK:  -10.52 KCAL/MOL
REMARK 923 INTER-LIGAND FREE ENERGY PREDICTED BY IDOCK:   -7.69 KCAL/MOL
REMARK 924 INTRA-LIGAND FREE ENERGY PREDICTED BY IDOCK:   -2.83 KCAL/MOL
REMARK 927      BINDING AFFINITY PREDICTED BY RF-SCORE:    0.00 PKD
ROOT
HETATM    1  C   UNL     1      -8.554  10.352  63.362  1.00  0.00    -0.189 C  
HETATM    2  O   UNL     1      -8.205  10.428  64.748  1.00  0.00    -0.163 OA 
ENDROOT
BRANCH   2   3
HETATM    3  C   UNL     1      -9.072   9.753  65.547  1.00  0.00    -0.196 C  
HETATM    4  O   UNL     1     -10.285   9.731  65.398  1.00  0.00    -0.246 OA 
BRANCH   3   5
HETATM    5  C   UNL     1      -8.363   9.079  66.664  1.00  0.00    -0.118 C  
HETATM    6  C   UNL     1      -7.971   7.788  66.544  1.00  0.00    -0.106 C  
HETATM    7  C   UNL     1      -8.080   6.927  65.309  1.00  0.00    -0.134 C  
HETATM    8  N   UNL     1      -7.427   7.135  67.637  1.00  0.00    -0.099 NA 
HETATM    9  C   UNL     1      -7.405   7.631  68.926  1.00  0.00    -0.090 C  
HETATM   10  C   UNL     1      -7.781   8.912  69.160  1.00  0.00    -0.092 C  
HETATM   11  C   UNL     1      -6.917   6.665  69.981  1.00  0.00    -0.062 C  
HETATM   12  C   UNL     1      -8.191   9.832  67.995  1.00  0.00    -0.109 C  
BRANCH  10  13
HETATM   13  C   UNL     1      -7.691   9.466  70.542  1.00  0.00    -0.161 C  
HETATM   14  O   UNL     1      -6.854  10.265  70.933  1.00  0.00    -0.339 OA 
BRANCH  13  15
HETATM   15  O   UNL     1      -8.800   9.116  71.238  1.00  0.00    -0.257 OA 
BRANCH  15  16
HETATM   16  C   UNL     1      -8.510   8.525  72.516  1.00  0.00    -0.111 C  
BRANCH  16  17
HETATM   17  C   UNL     1      -9.847   7.974  73.036  1.00  0.00    -0.282 C  
BRANCH  17  18
HETATM   18  N   UNL     1     -10.018   6.516  73.035  1.00  0.00    -0.166 NA 
HETATM   19  C   UNL     1     -10.176   6.015  74.403  1.00  0.00    -0.294 C  
BRANCH  18  20
HETATM   20  C   UNL     1     -11.211   6.153  72.232  1.00  0.00    -0.289 C  
BRANCH  20  21
HETATM   21  C   UNL     1     -10.878   5.789  70.797  1.00  0.00    -0.330 A  
HETATM   22  C   UNL     1     -10.082   4.668  70.518  1.00  0.00    -0.263 A  
HETATM   23  C   UNL     1      -9.694   4.378  69.211  1.00  0.00    -0.252 A  
HETATM   24  C   UNL     1     -10.104   5.201  68.164  1.00  0.00    -0.192 A  
HETATM   25  C   UNL     1     -10.912   6.308  68.422  1.00  0.00    -0.409 A  
HETATM   26  C   UNL     1     -11.301   6.601  69.732  1.00  0.00    -0.412 A  
ENDBRANCH  20  21
ENDBRANCH  18  20
ENDBRANCH  17  18
ENDBRANCH  16  17
ENDBRANCH  15  16
ENDBRANCH  13  15
ENDBRANCH  10  13
BRANCH  12  27
HETATM   27  C   UNL     1      -9.434  10.659  68.338  1.00  0.00    -0.165 A  
HETATM   28  C   UNL     1     -11.762  10.786  69.013  1.00  0.00    -0.357 A  
HETATM   29  O   UNL     1      -9.432  14.808  68.100  1.00  0.00    -0.198 OA 
HETATM   30  C   UNL     1      -9.404  12.063  68.221  1.00  0.00    -0.197 A  
HETATM   31  O   UNL     1     -11.549  14.903  68.663  1.00  0.00    -0.290 OA 
HETATM   32  C   UNL     1     -10.549  12.814  68.510  1.00  0.00    -0.252 A  
HETATM   33  C   UNL     1     -10.619  10.034  68.751  1.00  0.00    -0.241 A  
HETATM   34  C   UNL     1     -11.734  12.177  68.891  1.00  0.00    -0.381 A  
HETATM   35  N   UNL     1     -10.506  14.279  68.418  1.00  0.00    -0.242 N  
ENDBRANCH  12  27
ENDBRANCH   3   5
ENDBRANCH   2   3
TORSDOF 10
ENDMDL
MODEL       74
REMARK 921   NORMALIZED FREE ENERGY PREDICTED BY IDOCK:   -5.68 KCAL/MOL
REMARK 922        TOTAL FREE ENERGY PREDICTED BY IDOCK:  -10.52 KCAL/MOL
REMARK 923 INTER-LIGAND FREE ENERGY PREDICTED BY IDOCK:   -9.01 KCAL/MOL
REMARK 924 INTRA-LIGAND FREE ENERGY PREDICTED BY IDOCK:   -1.51 KCAL/MOL
REMARK 927      BINDING AFFINITY PREDICTED BY RF-SCORE:    0.00 PKD
ROOT
HETATM    1  C   UNL     1      -9.580   4.950  65.922  1.00  0.00    -0.175 C  
HETATM    2  O   UNL     1      -9.983   6.140  66.607  1.00  0.00    -0.161 OA 
ENDROOT
BRANCH   2   3
HETATM    3  C   UNL     1      -9.003   7.079  66.653  1.00  0.00    -0.142 C  
HETATM    4  O   UNL     1      -7.848   6.865  66.989  1.00  0.00    -0.107 OA 
BRANCH   3   5
HETATM    5  C   UNL     1      -9.524   8.421  66.289  1.00  0.00    -0.292 C  
HETATM    6  C   UNL     1      -9.164   8.999  65.118  1.00  0.00    -0.093 C  
HETATM    7  C   UNL     1      -8.330   8.374  64.026  1.00  0.00    -0.068 C  
HETATM    8  N   UNL     1      -9.553  10.300  64.850  1.00  0.00    -0.278 NA 
HETATM    9  C   UNL     1     -10.143  11.154  65.762  1.00  0.00    -0.249 C  
HETATM   10  C   UNL     1     -10.541  10.681  66.968  1.00  0.00    -0.317 C  
HETATM   11  C   UNL     1     -10.318  12.580  65.292  1.00  0.00    -0.310 C  
HETATM   12  C   UNL     1     -10.379   9.188  67.313  1.00  0.00    -0.338 C  
BRANCH  10  13
HETATM   13  C   UNL     1     -11.239  11.587  67.923  1.00  0.00    -0.279 C  
HETATM   14  O   UNL     1     -12.393  11.464  68.305  1.00  0.00    -0.506 OA 
BRANCH  13  15
HETATM   15  O   UNL     1     -10.340  12.443  68.468  1.00  0.00    -0.228 OA 
BRANCH  15  16
HETATM   16  C   UNL     1     -10.874  13.755  68.715  1.00  0.00    -0.259 C  
BRANCH  16  17
HETATM   17  C   UNL     1      -9.680  14.620  69.145  1.00  0.00    -0.103 C  
BRANCH  17  18
HETATM   18  N   UNL     1      -9.102  15.516  68.135  1.00  0.00    -0.182 NA 
HETATM   19  C   UNL     1      -8.176  14.784  67.266  1.00  0.00    -0.213 C  
BRANCH  18  20
HETATM   20  C   UNL     1     -10.186  16.110  67.316  1.00  0.00    -0.277 C  
BRANCH  20  21
HETATM   21  C   UNL     1     -10.110  17.624  67.231  1.00  0.00    -0.331 A  
HETATM   22  C   UNL     1      -9.799  18.382  68.370  1.00  0.00    -0.396 A  
HETATM   23  C   UNL     1      -9.817  19.775  68.323  1.00  0.00    -0.537 A  
HETATM   24  C   UNL     1     -10.137  20.429  67.135  1.00  0.00    -0.502 A  
HETATM   25  C   UNL     1     -10.428  19.690  65.989  1.00  0.00    -0.622 A  
HETATM   26  C   UNL     1     -10.412  18.293  66.034  1.00  0.00    -0.380 A  
ENDBRANCH  20  21
ENDBRANCH  18  20
ENDBRANCH  17  18
ENDBRANCH  16  17
ENDBRANCH  15  16
ENDBRANCH  13  15
ENDBRANCH  10  13
BRANCH  12  27
HETATM   27  C   UNL     1      -9.857   8.991  68.740  1.00  0.00    -0.180 A  
HETATM   28  C   UNL     1     -10.199   8.257  71.028  1.00  0.00    -0.230 A  
HETATM   29  O   UNL     1      -6.037  10.192  69.855  1.00  0.00    -0.044 OA 
HETATM   30  C   UNL     1      -8.565   9.434  69.089  1.00  0.00    -0.140 A  
HETATM   31  O   UNL     1      -6.380   9.570  71.930  1.00  0.00    -0.291 OA 
HETATM   32  C   UNL     1      -8.100   9.276  70.399  1.00  0.00    -0.160 A  
HETATM   33  C   UNL     1     -10.659   8.390  69.719  1.00  0.00    -0.221 A  
HETATM   34  C   UNL     1      -8.922   8.703  71.375  1.00  0.00    -0.286 A  
HETATM   35  N   UNL     1      -6.743   9.710  70.753  1.00  0.00    -0.108 N  
ENDBRANCH  12  27
ENDBRANCH   3   5
ENDBRANCH   2   3
TORSDOF 10
ENDMDL
MODEL       75
REMARK 921   NORMALIZED FREE ENERGY PREDICTED BY IDOCK:   -5.66 KCAL/MOL
REMARK 922        TOTAL FREE ENERGY PREDICTED BY IDOCK:  -10.49 KCAL/MOL
REMARK 923 INTER-LIGAND FREE ENERGY PREDICTED BY IDOCK:   -8.20 KCAL/MOL
REMARK 924 INTRA-LIGAND FREE ENERGY PREDICTED BY IDOCK:   -2.28 KCAL/MOL
REMARK 927      BINDING AFFINITY PREDICTED BY RF-SCORE:    0.00 PKD
ROOT
HETATM    1  C   UNL     1     -13.090   9.406  72.067  1.00  0.00    -0.433 C  
HETATM    2  O   UNL     1     -12.794   8.006  72.122  1.00  0.00    -0.301 OA 
ENDROOT
BRANCH   2   3
HETATM    3  C   UNL     1     -11.461   7.751  72.157  1.00  0.00    -0.310 C  
HETATM    4  O   UNL     1     -10.660   8.321  72.883  1.00  0.00    -0.320 OA 
BRANCH   3   5
HETATM    5  C   UNL     1     -11.083   6.716  71.161  1.00  0.00    -0.326 C  
HETATM    6  C   UNL     1     -10.745   5.469  71.565  1.00  0.00    -0.222 C  
HETATM    7  C   UNL     1     -10.801   4.936  72.976  1.00  0.00    -0.331 C  
HETATM    8  N   UNL     1     -10.273   4.554  70.639  1.00  0.00    -0.159 NA 
HETATM    9  C   UNL     1      -9.939   4.852  69.332  1.00  0.00    -0.212 C  
HETATM   10  C   UNL     1     -10.229   6.074  68.824  1.00  0.00    -0.236 C  
HETATM   11  C   UNL     1      -9.282   3.729  68.562  1.00  0.00    -0.214 C  
HETATM   12  C   UNL     1     -10.969   7.120  69.680  1.00  0.00    -0.236 C  
BRANCH  10  13
HETATM   13  C   UNL     1      -9.929   6.370  67.394  1.00  0.00    -0.138 C  
HETATM   14  O   UNL     1     -10.743   6.367  66.482  1.00  0.00    -0.197 OA 
BRANCH  13  15
HETATM   15  O   UNL     1      -8.666   6.849  67.291  1.00  0.00    -0.119 OA 
BRANCH  15  16
HETATM   16  C   UNL     1      -8.382   7.447  66.015  1.00  0.00    -0.143 C  
BRANCH  16  17
HETATM   17  C   UNL     1      -8.167   8.943  66.292  1.00  0.00    -0.111 C  
BRANCH  17  18
HETATM   18  N   UNL     1      -8.555   9.884  65.233  1.00  0.00    -0.147 NA 
HETATM   19  C   UNL     1      -8.056   9.430  63.932  1.00  0.00    -0.154 C  
BRANCH  18  20
HETATM   20  C   UNL     1     -10.033   9.999  65.184  1.00  0.00    -0.280 C  
BRANCH  20  21
HETATM   21  C   UNL     1     -10.513  11.396  64.834  1.00  0.00    -0.363 A  
HETATM   22  C   UNL     1     -10.170  12.486  65.647  1.00  0.00    -0.287 A  
HETATM   23  C   UNL     1     -10.681  13.756  65.387  1.00  0.00    -0.320 A  
HETATM   24  C   UNL     1     -11.535  13.955  64.304  1.00  0.00    -0.336 A  
HETATM   25  C   UNL     1     -11.870  12.886  63.474  1.00  0.00    -0.605 A  
HETATM   26  C   UNL     1     -11.360  11.611  63.734  1.00  0.00    -0.482 A  
ENDBRANCH  20  21
ENDBRANCH  18  20
ENDBRANCH  17  18
ENDBRANCH  16  17
ENDBRANCH  15  16
ENDBRANCH  13  15
ENDBRANCH  10  13
BRANCH  12  27
HETATM   27  C   UNL     1     -10.357   8.515  69.523  1.00  0.00    -0.218 A  
HETATM   28  C   UNL     1     -10.503  10.806  68.736  1.00  0.00    -0.221 A  
HETATM   29  O   UNL     1      -6.519   9.379  70.866  1.00  0.00    -0.080 OA 
HETATM   30  C   UNL     1      -9.043   8.765  69.967  1.00  0.00    -0.164 A  
HETATM   31  O   UNL     1      -6.648  11.431  70.104  1.00  0.00    -0.143 OA 
HETATM   32  C   UNL     1      -8.476  10.033  69.801  1.00  0.00    -0.172 A  
HETATM   33  C   UNL     1     -11.082   9.552  68.921  1.00  0.00    -0.050 A  
HETATM   34  C   UNL     1      -9.198  11.052  69.170  1.00  0.00    -0.022 A  
HETATM   35  N   UNL     1      -7.118  10.300  70.292  1.00  0.00    -0.149 N  
ENDBRANCH  12  27
ENDBRANCH   3   5
ENDBRANCH   2   3
TORSDOF 10
ENDMDL
MODEL       76
REMARK 921   NORMALIZED FREE ENERGY PREDICTED BY IDOCK:   -5.66 KCAL/MOL
REMARK 922        TOTAL FREE ENERGY PREDICTED BY IDOCK:  -10.49 KCAL/MOL
REMARK 923 INTER-LIGAND FREE ENERGY PREDICTED BY IDOCK:   -9.04 KCAL/MOL
REMARK 924 INTRA-LIGAND FREE ENERGY PREDICTED BY IDOCK:   -1.45 KCAL/MOL
REMARK 927      BINDING AFFINITY PREDICTED BY RF-SCORE:    0.00 PKD
ROOT
HETATM    1  C   UNL     1      -7.234   5.660  72.007  1.00  0.00    -0.088 C  
HETATM    2  O   UNL     1      -7.781   6.750  71.258  1.00  0.00    -0.091 OA 
ENDROOT
BRANCH   2   3
HETATM    3  C   UNL     1      -9.096   6.582  70.966  1.00  0.00    -0.150 C  
HETATM    4  O   UNL     1      -9.628   5.506  70.738  1.00  0.00    -0.160 OA 
BRANCH   3   5
HETATM    5  C   UNL     1      -9.807   7.885  70.910  1.00  0.00    -0.192 C  
HETATM    6  C   UNL     1     -10.642   8.252  71.911  1.00  0.00    -0.282 C  
HETATM    7  C   UNL     1     -10.880   7.505  73.202  1.00  0.00    -0.448 C  
HETATM    8  N   UNL     1     -11.394   9.407  71.785  1.00  0.00    -0.375 NA 
HETATM    9  C   UNL     1     -11.511  10.153  70.629  1.00  0.00    -0.349 C  
HETATM   10  C   UNL     1     -10.725   9.870  69.562  1.00  0.00    -0.265 C  
HETATM   11  C   UNL     1     -12.525  11.273  70.683  1.00  0.00    -0.439 C  
HETATM   12  C   UNL     1      -9.671   8.749  69.644  1.00  0.00    -0.173 C  
BRANCH  10  13
HETATM   13  C   UNL     1     -10.805  10.719  68.339  1.00  0.00    -0.232 C  
HETATM   14  O   UNL     1     -11.766  10.794  67.588  1.00  0.00    -0.538 OA 
BRANCH  13  15
HETATM   15  O   UNL     1      -9.737  11.553  68.301  1.00  0.00    -0.185 OA 
BRANCH  15  16
HETATM   16  C   UNL     1      -9.833  12.561  67.281  1.00  0.00    -0.204 C  
BRANCH  16  17
HETATM   17  C   UNL     1      -9.475  13.888  67.968  1.00  0.00    -0.208 C  
BRANCH  17  18
HETATM   18  N   UNL     1     -10.504  14.935  67.981  1.00  0.00    -0.243 NA 
HETATM   19  C   UNL     1     -11.757  14.421  68.542  1.00  0.00    -0.335 C  
BRANCH  18  20
HETATM   20  C   UNL     1     -10.035  16.087  68.789  1.00  0.00    -0.224 C  
BRANCH  20  21
HETATM   21  C   UNL     1     -10.206  17.420  68.085  1.00  0.00    -0.350 A  
HETATM   22  C   UNL     1     -10.430  17.467  66.701  1.00  0.00    -0.253 A  
HETATM   23  C   UNL     1     -10.496  18.687  66.032  1.00  0.00    -0.456 A  
HETATM   24  C   UNL     1     -10.348  19.879  66.739  1.00  0.00    -0.599 A  
HETATM   25  C   UNL     1     -10.145  19.851  68.118  1.00  0.00    -0.569 A  
HETATM   26  C   UNL     1     -10.077  18.628  68.791  1.00  0.00    -0.398 A  
ENDBRANCH  20  21
ENDBRANCH  18  20
ENDBRANCH  17  18
ENDBRANCH  16  17
ENDBRANCH  15  16
ENDBRANCH  13  15
ENDBRANCH  10  13
BRANCH  12  27
HETATM   27  C   UNL     1      -9.658   7.891  68.376  1.00  0.00    -0.155 A  
HETATM   28  C   UNL     1     -10.769   6.363  66.852  1.00  0.00    -0.408 A  
HETATM   29  O   UNL     1      -6.273   7.580  65.983  1.00  0.00    -0.040 OA 
HETATM   30  C   UNL     1      -8.484   7.789  67.602  1.00  0.00    -0.121 A  
HETATM   31  O   UNL     1      -7.276   6.161  64.644  1.00  0.00    -0.058 OA 
HETATM   32  C   UNL     1      -8.467   6.984  66.458  1.00  0.00    -0.125 A  
HETATM   33  C   UNL     1     -10.800   7.182  67.979  1.00  0.00    -0.193 A  
HETATM   34  C   UNL     1      -9.603   6.256  66.089  1.00  0.00    -0.059 A  
HETATM   35  N   UNL     1      -7.252   6.903  65.637  1.00  0.00    -0.071 N  
ENDBRANCH  12  27
ENDBRANCH   3   5
ENDBRANCH   2   3
TORSDOF 10
ENDMDL
MODEL       77
REMARK 921   NORMALIZED FREE ENERGY PREDICTED BY IDOCK:   -5.66 KCAL/MOL
REMARK 922        TOTAL FREE ENERGY PREDICTED BY IDOCK:  -10.48 KCAL/MOL
REMARK 923 INTER-LIGAND FREE ENERGY PREDICTED BY IDOCK:   -9.23 KCAL/MOL
REMARK 924 INTRA-LIGAND FREE ENERGY PREDICTED BY IDOCK:   -1.25 KCAL/MOL
REMARK 927      BINDING AFFINITY PREDICTED BY RF-SCORE:    0.00 PKD
ROOT
HETATM    1  C   UNL     1     -12.089   9.298  71.106  1.00  0.00    -0.316 C  
HETATM    2  O   UNL     1     -11.454   9.968  70.012  1.00  0.00    -0.251 OA 
ENDROOT
BRANCH   2   3
HETATM    3  C   UNL     1     -10.575   9.174  69.346  1.00  0.00    -0.223 C  
HETATM    4  O   UNL     1     -10.864   8.122  68.796  1.00  0.00    -0.093 OA 
BRANCH   3   5
HETATM    5  C   UNL     1      -9.197   9.722  69.412  1.00  0.00    -0.214 C  
HETATM    6  C   UNL     1      -8.400   9.443  70.472  1.00  0.00    -0.197 C  
HETATM    7  C   UNL     1      -8.720   8.510  71.615  1.00  0.00    -0.262 C  
HETATM    8  N   UNL     1      -7.167  10.062  70.582  1.00  0.00    -0.320 NA 
HETATM    9  C   UNL     1      -6.729  11.101  69.783  1.00  0.00    -0.121 C  
HETATM   10  C   UNL     1      -7.451  11.465  68.696  1.00  0.00    -0.119 C  
HETATM   11  C   UNL     1      -5.421  11.730  70.204  1.00  0.00    -0.116 C  
HETATM   12  C   UNL     1      -8.735  10.703  68.320  1.00  0.00    -0.135 C  
BRANCH  10  13
HETATM   13  C   UNL     1      -6.941  12.540  67.798  1.00  0.00    -0.121 C  
HETATM   14  O   UNL     1      -6.400  12.364  66.716  1.00  0.00    -0.139 OA 
BRANCH  13  15
HETATM   15  O   UNL     1      -7.355  13.745  68.259  1.00  0.00    -0.096 OA 
BRANCH  15  16
HETATM   16  C   UNL     1      -6.973  14.844  67.415  1.00  0.00    -0.130 C  
BRANCH  16  17
HETATM   17  C   UNL     1      -6.071  15.741  68.278  1.00  0.00    -0.113 C  
BRANCH  17  18
HETATM   18  N   UNL     1      -6.690  16.925  68.888  1.00  0.00    -0.187 NA 
HETATM   19  C   UNL     1      -5.893  17.393  70.026  1.00  0.00    -0.228 C  
BRANCH  18  20
HETATM   20  C   UNL     1      -6.798  18.007  67.879  1.00  0.00    -0.199 C  
BRANCH  20  21
HETATM   21  C   UNL     1      -8.211  18.538  67.722  1.00  0.00    -0.265 A  
HETATM   22  C   UNL     1      -9.310  17.681  67.879  1.00  0.00    -0.268 A  
HETATM   23  C   UNL     1     -10.607  18.136  67.645  1.00  0.00    -0.424 A  
HETATM   24  C   UNL     1     -10.822  19.458  67.259  1.00  0.00    -0.561 A  
HETATM   25  C   UNL     1      -9.742  20.328  67.119  1.00  0.00    -0.592 A  
HETATM   26  C   UNL     1      -8.441  19.873  67.351  1.00  0.00    -0.377 A  
ENDBRANCH  20  21
ENDBRANCH  18  20
ENDBRANCH  17  18
ENDBRANCH  16  17
ENDBRANCH  15  16
ENDBRANCH  13  15
ENDBRANCH  10  13
BRANCH  12  27
HETATM   27  C   UNL     1      -9.861  11.657  67.910  1.00  0.00    -0.189 A  
HETATM   28  C   UNL     1     -11.432  13.424  68.459  1.00  0.00    -0.345 A  
HETATM   29  O   UNL     1     -11.494  11.597  64.088  1.00  0.00    -0.339 OA 
HETATM   30  C   UNL     1     -10.408  11.591  66.613  1.00  0.00    -0.262 A  
HETATM   31  O   UNL     1     -12.940  13.159  64.615  1.00  0.00    -0.708 OA 
HETATM   32  C   UNL     1     -11.453  12.447  66.249  1.00  0.00    -0.371 A  
HETATM   33  C   UNL     1     -10.374  12.591  68.820  1.00  0.00    -0.138 A  
HETATM   34  C   UNL     1     -11.979  13.354  67.175  1.00  0.00    -0.415 A  
HETATM   35  N   UNL     1     -12.001  12.397  64.887  1.00  0.00    -0.397 N  
ENDBRANCH  12  27
ENDBRANCH   3   5
ENDBRANCH   2   3
TORSDOF 10
ENDMDL
MODEL       78
REMARK 921   NORMALIZED FREE ENERGY PREDICTED BY IDOCK:   -5.65 KCAL/MOL
REMARK 922        TOTAL FREE ENERGY PREDICTED BY IDOCK:  -10.48 KCAL/MOL
REMARK 923 INTER-LIGAND FREE ENERGY PREDICTED BY IDOCK:   -8.91 KCAL/MOL
REMARK 924 INTRA-LIGAND FREE ENERGY PREDICTED BY IDOCK:   -1.57 KCAL/MOL
REMARK 927      BINDING AFFINITY PREDICTED BY RF-SCORE:    0.00 PKD
ROOT
HETATM    1  C   UNL     1     -10.531  17.591  67.307  1.00  0.00    -0.327 C  
HETATM    2  O   UNL     1     -11.101  16.294  67.100  1.00  0.00    -0.179 OA 
ENDROOT
BRANCH   2   3
HETATM    3  C   UNL     1     -10.818  15.783  65.874  1.00  0.00    -0.268 C  
HETATM    4  O   UNL     1     -10.756  16.437  64.844  1.00  0.00    -0.675 OA 
BRANCH   3   5
HETATM    5  C   UNL     1     -10.640  14.310  65.931  1.00  0.00    -0.306 C  
HETATM    6  C   UNL     1     -11.711  13.488  65.827  1.00  0.00    -0.345 C  
HETATM    7  C   UNL     1     -13.136  13.899  65.543  1.00  0.00    -0.232 C  
HETATM    8  N   UNL     1     -11.547  12.125  66.009  1.00  0.00    -0.420 NA 
HETATM    9  C   UNL     1     -10.395  11.522  66.474  1.00  0.00    -0.232 C  
HETATM   10  C   UNL     1      -9.264  12.253  66.619  1.00  0.00    -0.208 C  
HETATM   11  C   UNL     1     -10.511  10.042  66.757  1.00  0.00    -0.267 C  
HETATM   12  C   UNL     1      -9.241  13.743  66.229  1.00  0.00    -0.095 C  
BRANCH  10  13
HETATM   13  C   UNL     1      -8.004  11.586  67.056  1.00  0.00    -0.161 C  
HETATM   14  O   UNL     1      -6.990  11.473  66.383  1.00  0.00    -0.062 OA 
BRANCH  13  15
HETATM   15  O   UNL     1      -8.078  11.309  68.381  1.00  0.00    -0.128 OA 
BRANCH  15  16
HETATM   16  C   UNL     1      -7.060  10.402  68.834  1.00  0.00    -0.074 C  
BRANCH  16  17
HETATM   17  C   UNL     1      -7.614   9.757  70.114  1.00  0.00    -0.171 C  
BRANCH  17  18
HETATM   18  N   UNL     1      -8.873   9.010  69.999  1.00  0.00    -0.159 NA 
HETATM   19  C   UNL     1      -8.655   7.737  69.306  1.00  0.00    -0.138 C  
BRANCH  18  20
HETATM   20  C   UNL     1      -9.426   8.751  71.351  1.00  0.00    -0.259 C  
BRANCH  20  21
HETATM   21  C   UNL     1     -10.912   9.045  71.454  1.00  0.00    -0.394 A  
HETATM   22  C   UNL     1     -11.433  10.245  70.950  1.00  0.00    -0.425 A  
HETATM   23  C   UNL     1     -12.779  10.564  71.123  1.00  0.00    -0.518 A  
HETATM   24  C   UNL     1     -13.624   9.683  71.795  1.00  0.00    -0.424 A  
HETATM   25  C   UNL     1     -13.125   8.477  72.285  1.00  0.00    -0.372 A  
HETATM   26  C   UNL     1     -11.776   8.155  72.114  1.00  0.00    -0.418 A  
ENDBRANCH  20  21
ENDBRANCH  18  20
ENDBRANCH  17  18
ENDBRANCH  16  17
ENDBRANCH  15  16
ENDBRANCH  13  15
ENDBRANCH  10  13
BRANCH  12  27
HETATM   27  C   UNL     1      -8.502  14.589  67.270  1.00  0.00    -0.234 A  
HETATM   28  C   UNL     1      -8.235  15.362  69.556  1.00  0.00    -0.207 A  
HETATM   29  O   UNL     1      -5.321  17.052  66.225  1.00  0.00    -0.346 OA 
HETATM   30  C   UNL     1      -7.444  15.433  66.875  1.00  0.00    -0.054 A  
HETATM   31  O   UNL     1      -5.126  17.778  68.285  1.00  0.00    -0.145 OA 
HETATM   32  C   UNL     1      -6.787  16.224  67.824  1.00  0.00    -0.135 A  
HETATM   33  C   UNL     1      -8.877  14.553  68.620  1.00  0.00    -0.180 A  
HETATM   34  C   UNL     1      -7.191  16.203  69.163  1.00  0.00    -0.212 A  
HETATM   35  N   UNL     1      -5.665  17.078  67.415  1.00  0.00    -0.134 N  
ENDBRANCH  12  27
ENDBRANCH   3   5
ENDBRANCH   2   3
TORSDOF 10
ENDMDL
MODEL       79
REMARK 921   NORMALIZED FREE ENERGY PREDICTED BY IDOCK:   -5.65 KCAL/MOL
REMARK 922        TOTAL FREE ENERGY PREDICTED BY IDOCK:  -10.47 KCAL/MOL
REMARK 923 INTER-LIGAND FREE ENERGY PREDICTED BY IDOCK:   -8.49 KCAL/MOL
REMARK 924 INTRA-LIGAND FREE ENERGY PREDICTED BY IDOCK:   -1.98 KCAL/MOL
REMARK 927      BINDING AFFINITY PREDICTED BY RF-SCORE:    0.00 PKD
ROOT
HETATM    1  C   UNL     1      -6.806   6.352  70.511  1.00  0.00    -0.062 C  
HETATM    2  O   UNL     1      -8.175   6.706  70.733  1.00  0.00    -0.117 OA 
ENDROOT
BRANCH   2   3
HETATM    3  C   UNL     1      -8.316   7.749  71.591  1.00  0.00    -0.110 C  
HETATM    4  O   UNL     1      -7.399   8.285  72.196  1.00  0.00    -0.090 OA 
BRANCH   3   5
HETATM    5  C   UNL     1      -9.743   8.132  71.745  1.00  0.00    -0.253 C  
HETATM    6  C   UNL     1     -10.624   7.272  72.309  1.00  0.00    -0.224 C  
HETATM    7  C   UNL     1     -10.302   5.933  72.929  1.00  0.00    -0.224 C  
HETATM    8  N   UNL     1     -11.971   7.588  72.330  1.00  0.00    -0.286 NA 
HETATM    9  C   UNL     1     -12.545   8.649  71.655  1.00  0.00    -0.338 C  
HETATM   10  C   UNL     1     -11.756   9.569  71.050  1.00  0.00    -0.419 C  
HETATM   11  C   UNL     1     -14.056   8.691  71.685  1.00  0.00    -0.468 C  
HETATM   12  C   UNL     1     -10.222   9.466  71.146  1.00  0.00    -0.361 C  
BRANCH  10  13
HETATM   13  C   UNL     1     -12.375  10.748  70.381  1.00  0.00    -0.353 C  
HETATM   14  O   UNL     1     -12.740  10.793  69.216  1.00  0.00    -0.254 OA 
BRANCH  13  15
HETATM   15  O   UNL     1     -12.667  11.690  71.311  1.00  0.00    -0.393 OA 
BRANCH  15  16
HETATM   16  C   UNL     1     -13.106  12.937  70.746  1.00  0.00     0.187 C  
BRANCH  16  17
HETATM   17  C   UNL     1     -11.880  13.863  70.772  1.00  0.00    -0.180 C  
BRANCH  17  18
HETATM   18  N   UNL     1     -11.593  14.630  69.553  1.00  0.00    -0.292 NA 
HETATM   19  C   UNL     1     -10.867  15.861  69.877  1.00  0.00    -0.333 C  
BRANCH  18  20
HETATM   20  C   UNL     1     -10.781  13.806  68.624  1.00  0.00    -0.256 C  
BRANCH  20  21
HETATM   21  C   UNL     1     -11.243  13.902  67.181  1.00  0.00    -0.328 A  
HETATM   22  C   UNL     1     -11.880  12.813  66.568  1.00  0.00    -0.471 A  
HETATM   23  C   UNL     1     -12.224  12.858  65.218  1.00  0.00    -0.524 A  
HETATM   24  C   UNL     1     -11.944  13.997  64.465  1.00  0.00    -0.470 A  
HETATM   25  C   UNL     1     -11.330  15.096  65.065  1.00  0.00    -0.381 A  
HETATM   26  C   UNL     1     -10.983  15.052  66.418  1.00  0.00    -0.336 A  
ENDBRANCH  20  21
ENDBRANCH  18  20
ENDBRANCH  17  18
ENDBRANCH  16  17
ENDBRANCH  15  16
ENDBRANCH  13  15
ENDBRANCH  10  13
BRANCH  12  27
HETATM   27  C   UNL     1      -9.550   9.750  69.799  1.00  0.00    -0.256 A  
HETATM   28  C   UNL     1      -8.113  11.124  68.407  1.00  0.00    -0.141 A  
HETATM   29  O   UNL     1     -10.207   7.338  66.478  1.00  0.00    -0.183 OA 
HETATM   30  C   UNL     1      -9.817   8.925  68.687  1.00  0.00    -0.179 A  
HETATM   31  O   UNL     1      -8.946   8.619  65.222  1.00  0.00    -0.181 OA 
HETATM   32  C   UNL     1      -9.222   9.202  67.451  1.00  0.00    -0.130 A  
HETATM   33  C   UNL     1      -8.683  10.840  69.647  1.00  0.00     0.254 A  
HETATM   34  C   UNL     1      -8.382  10.311  67.304  1.00  0.00    -0.121 A  
HETATM   35  N   UNL     1      -9.477   8.324  66.303  1.00  0.00    -0.213 N  
ENDBRANCH  12  27
ENDBRANCH   3   5
ENDBRANCH   2   3
TORSDOF 10
ENDMDL
MODEL       80
REMARK 921   NORMALIZED FREE ENERGY PREDICTED BY IDOCK:   -5.65 KCAL/MOL
REMARK 922        TOTAL FREE ENERGY PREDICTED BY IDOCK:  -10.47 KCAL/MOL
REMARK 923 INTER-LIGAND FREE ENERGY PREDICTED BY IDOCK:   -9.00 KCAL/MOL
REMARK 924 INTRA-LIGAND FREE ENERGY PREDICTED BY IDOCK:   -1.47 KCAL/MOL
REMARK 927      BINDING AFFINITY PREDICTED BY RF-SCORE:    0.00 PKD
ROOT
HETATM    1  C   UNL     1     -10.785   5.953  66.807  1.00  0.00    -0.299 C  
HETATM    2  O   UNL     1     -10.243   7.278  66.768  1.00  0.00    -0.249 OA 
ENDROOT
BRANCH   2   3
HETATM    3  C   UNL     1      -8.932   7.300  66.418  1.00  0.00    -0.158 C  
HETATM    4  O   UNL     1      -8.441   6.647  65.509  1.00  0.00    -0.151 OA 
BRANCH   3   5
HETATM    5  C   UNL     1      -8.149   8.188  67.315  1.00  0.00    -0.121 C  
HETATM    6  C   UNL     1      -8.003   7.878  68.626  1.00  0.00    -0.124 C  
HETATM    7  C   UNL     1      -8.481   6.619  69.310  1.00  0.00    -0.124 C  
HETATM    8  N   UNL     1      -7.382   8.776  69.476  1.00  0.00    -0.066 NA 
HETATM    9  C   UNL     1      -7.040  10.073  69.144  1.00  0.00    -0.069 C  
HETATM   10  C   UNL     1      -7.149  10.491  67.860  1.00  0.00    -0.083 C  
HETATM   11  C   UNL     1      -6.531  10.919  70.288  1.00  0.00    -0.106 C  
HETATM   12  C   UNL     1      -7.611   9.518  66.758  1.00  0.00    -0.098 C  
BRANCH  10  13
HETATM   13  C   UNL     1      -6.715  11.869  67.492  1.00  0.00    -0.111 C  
HETATM   14  O   UNL     1      -5.916  12.150  66.611  1.00  0.00    -0.226 OA 
BRANCH  13  15
HETATM   15  O   UNL     1      -7.495  12.772  68.135  1.00  0.00    -0.102 OA 
BRANCH  15  16
HETATM   16  C   UNL     1      -7.851  13.903  67.322  1.00  0.00    -0.114 C  
BRANCH  16  17
HETATM   17  C   UNL     1      -9.330  14.188  67.626  1.00  0.00    -0.209 C  
BRANCH  17  18
HETATM   18  N   UNL     1      -9.648  14.747  68.946  1.00  0.00    -0.219 NA 
HETATM   19  C   UNL     1      -8.766  15.877  69.253  1.00  0.00    -0.250 C  
BRANCH  18  20
HETATM   20  C   UNL     1     -11.060  15.200  68.970  1.00  0.00    -0.255 C  
BRANCH  20  21
HETATM   21  C   UNL     1     -11.745  14.952  70.301  1.00  0.00    -0.352 A  
HETATM   22  C   UNL     1     -12.331  13.707  70.575  1.00  0.00    -0.425 A  
HETATM   23  C   UNL     1     -13.041  13.499  71.756  1.00  0.00    -0.475 A  
HETATM   24  C   UNL     1     -13.168  14.532  72.684  1.00  0.00    -0.571 A  
HETATM   25  C   UNL     1     -12.575  15.768  72.436  1.00  0.00    -0.539 A  
HETATM   26  C   UNL     1     -11.863  15.979  71.252  1.00  0.00    -0.502 A  
ENDBRANCH  20  21
ENDBRANCH  18  20
ENDBRANCH  17  18
ENDBRANCH  16  17
ENDBRANCH  15  16
ENDBRANCH  13  15
ENDBRANCH  10  13
BRANCH  12  27
HETATM   27  C   UNL     1      -8.616  10.176  65.807  1.00  0.00    -0.159 A  
HETATM   28  C   UNL     1      -9.287  10.820  63.566  1.00  0.00    -0.304 A  
HETATM   29  O   UNL     1     -12.078  12.001  67.207  1.00  0.00    -0.572 OA 
HETATM   30  C   UNL     1      -9.766  10.808  66.320  1.00  0.00    -0.248 A  
HETATM   31  O   UNL     1     -12.645  12.619  65.181  1.00  0.00    -0.594 OA 
HETATM   32  C   UNL     1     -10.670  11.430  65.451  1.00  0.00    -0.253 A  
HETATM   33  C   UNL     1      -8.396  10.177  64.423  1.00  0.00    -0.171 A  
HETATM   34  C   UNL     1     -10.424  11.452  64.074  1.00  0.00    -0.435 A  
HETATM   35  N   UNL     1     -11.884  12.061  65.985  1.00  0.00    -0.262 N  
ENDBRANCH  12  27
ENDBRANCH   3   5
ENDBRANCH   2   3
TORSDOF 10
ENDMDL
MODEL       81
REMARK 921   NORMALIZED FREE ENERGY PREDICTED BY IDOCK:   -5.61 KCAL/MOL
REMARK 922        TOTAL FREE ENERGY PREDICTED BY IDOCK:  -10.40 KCAL/MOL
REMARK 923 INTER-LIGAND FREE ENERGY PREDICTED BY IDOCK:   -9.84 KCAL/MOL
REMARK 924 INTRA-LIGAND FREE ENERGY PREDICTED BY IDOCK:   -0.56 KCAL/MOL
REMARK 927      BINDING AFFINITY PREDICTED BY RF-SCORE:    0.00 PKD
ROOT
HETATM    1  C   UNL     1     -10.331   9.434  67.032  1.00  0.00    -0.252 C  
HETATM    2  O   UNL     1     -11.116  10.192  67.959  1.00  0.00    -0.278 OA 
ENDROOT
BRANCH   2   3
HETATM    3  C   UNL     1     -10.404  10.604  69.039  1.00  0.00    -0.218 C  
HETATM    4  O   UNL     1      -9.276  10.227  69.316  1.00  0.00    -0.189 OA 
BRANCH   3   5
HETATM    5  C   UNL     1     -11.192  11.543  69.878  1.00  0.00    -0.183 C  
HETATM    6  C   UNL     1     -12.191  11.081  70.667  1.00  0.00    -0.385 C  
HETATM    7  C   UNL     1     -12.564   9.634  70.891  1.00  0.00    -0.299 C  
HETATM    8  N   UNL     1     -12.999  11.978  71.344  1.00  0.00    -0.335 NA 
HETATM    9  C   UNL     1     -12.997  13.346  71.152  1.00  0.00    -0.236 C  
HETATM   10  C   UNL     1     -12.042  13.915  70.378  1.00  0.00    -0.421 C  
HETATM   11  C   UNL     1     -14.086  14.101  71.877  1.00  0.00    -0.566 C  
HETATM   12  C   UNL     1     -10.932  13.054  69.745  1.00  0.00     0.245 C  
BRANCH  10  13
HETATM   13  C   UNL     1     -12.000  15.398  70.227  1.00  0.00    -0.355 C  
HETATM   14  O   UNL     1     -12.972  16.139  70.224  1.00  0.00    -0.042 OA 
BRANCH  13  15
HETATM   15  O   UNL     1     -10.715  15.821  70.304  1.00  0.00    -0.315 OA 
BRANCH  15  16
HETATM   16  C   UNL     1     -10.513  17.139  69.767  1.00  0.00     0.080 C  
BRANCH  16  17
HETATM   17  C   UNL     1     -10.442  16.963  68.242  1.00  0.00    -0.352 C  
BRANCH  17  18
HETATM   18  N   UNL     1     -10.533  18.178  67.422  1.00  0.00    -0.392 NA 
HETATM   19  C   UNL     1     -10.522  19.374  68.269  1.00  0.00    -0.315 C  
BRANCH  18  20
HETATM   20  C   UNL     1      -9.391  18.229  66.477  1.00  0.00    -0.302 C  
BRANCH  20  21
HETATM   21  C   UNL     1      -8.078  18.592  67.146  1.00  0.00    -0.248 A  
HETATM   22  C   UNL     1      -7.584  19.903  67.073  1.00  0.00    -0.302 A  
HETATM   23  C   UNL     1      -6.336  20.224  67.605  1.00  0.00    -0.271 A  
HETATM   24  C   UNL     1      -5.568  19.239  68.224  1.00  0.00    -0.207 A  
HETATM   25  C   UNL     1      -6.053  17.936  68.322  1.00  0.00    -0.177 A  
HETATM   26  C   UNL     1      -7.303  17.612  67.789  1.00  0.00    -0.193 A  
ENDBRANCH  20  21
ENDBRANCH  18  20
ENDBRANCH  17  18
ENDBRANCH  16  17
ENDBRANCH  15  16
ENDBRANCH  13  15
ENDBRANCH  10  13
BRANCH  12  27
HETATM   27  C   UNL     1     -10.668  13.452  68.289  1.00  0.00    -0.273 A  
HETATM   28  C   UNL     1      -9.130  14.093  66.525  1.00  0.00    -0.198 A  
HETATM   29  O   UNL     1     -13.759  13.873  65.543  1.00  0.00    -0.389 OA 
HETATM   30  C   UNL     1     -11.743  13.610  67.392  1.00  0.00    -0.416 A  
HETATM   31  O   UNL     1     -12.362  14.500  63.973  1.00  0.00    -0.697 OA 
HETATM   32  C   UNL     1     -11.501  13.999  66.070  1.00  0.00    -0.338 A  
HETATM   33  C   UNL     1      -9.362  13.683  67.836  1.00  0.00    -0.206 A  
HETATM   34  C   UNL     1     -10.196  14.257  65.637  1.00  0.00    -0.366 A  
HETATM   35  N   UNL     1     -12.620  14.133  65.129  1.00  0.00    -0.444 N  
ENDBRANCH  12  27
ENDBRANCH   3   5
ENDBRANCH   2   3
TORSDOF 10
ENDMDL
MODEL       82
REMARK 921   NORMALIZED FREE ENERGY PREDICTED BY IDOCK:   -5.60 KCAL/MOL
REMARK 922        TOTAL FREE ENERGY PREDICTED BY IDOCK:  -10.39 KCAL/MOL
REMARK 923 INTER-LIGAND FREE ENERGY PREDICTED BY IDOCK:   -8.93 KCAL/MOL
REMARK 924 INTRA-LIGAND FREE ENERGY PREDICTED BY IDOCK:   -1.46 KCAL/MOL
REMARK 927      BINDING AFFINITY PREDICTED BY RF-SCORE:    0.00 PKD
ROOT
HETATM    1  C   UNL     1     -11.999  10.612  69.588  1.00  0.00    -0.268 C  
HETATM    2  O   UNL     1     -12.315  11.633  68.636  1.00  0.00    -0.394 OA 
ENDROOT
BRANCH   2   3
HETATM    3  C   UNL     1     -11.519  11.594  67.536  1.00  0.00    -0.289 C  
HETATM    4  O   UNL     1     -11.397  10.627  66.798  1.00  0.00    -0.201 OA 
BRANCH   3   5
HETATM    5  C   UNL     1     -10.770  12.865  67.367  1.00  0.00    -0.252 C  
HETATM    6  C   UNL     1     -11.254  13.841  66.562  1.00  0.00    -0.312 C  
HETATM    7  C   UNL     1     -12.587  13.842  65.852  1.00  0.00    -0.494 C  
HETATM    8  N   UNL     1     -10.486  14.965  66.313  1.00  0.00    -0.292 NA 
HETATM    9  C   UNL     1      -9.162  15.115  66.675  1.00  0.00    -0.270 C  
HETATM   10  C   UNL     1      -8.575  14.194  67.476  1.00  0.00    -0.196 C  
HETATM   11  C   UNL     1      -8.483  16.356  66.142  1.00  0.00    -0.329 C  
HETATM   12  C   UNL     1      -9.385  13.003  68.022  1.00  0.00    -0.213 C  
BRANCH  10  13
HETATM   13  C   UNL     1      -7.165  14.393  67.921  1.00  0.00    -0.160 C  
HETATM   14  O   UNL     1      -6.176  14.298  67.210  1.00  0.00    -0.301 OA 
BRANCH  13  15
HETATM   15  O   UNL     1      -7.159  14.899  69.178  1.00  0.00    -0.125 OA 
BRANCH  15  16
HETATM   16  C   UNL     1      -6.189  15.943  69.370  1.00  0.00    -0.153 C  
BRANCH  16  17
HETATM   17  C   UNL     1      -6.970  17.263  69.273  1.00  0.00    -0.178 C  
BRANCH  17  18
HETATM   18  N   UNL     1      -6.186  18.497  69.133  1.00  0.00    -0.237 NA 
HETATM   19  C   UNL     1      -5.476  18.513  67.851  1.00  0.00    -0.169 C  
BRANCH  18  20
HETATM   20  C   UNL     1      -7.087  19.673  69.216  1.00  0.00    -0.331 C  
BRANCH  20  21
HETATM   21  C   UNL     1      -8.288  19.571  68.295  1.00  0.00    -0.375 A  
HETATM   22  C   UNL     1      -8.183  19.952  66.949  1.00  0.00    -0.358 A  
HETATM   23  C   UNL     1      -9.303  19.949  66.119  1.00  0.00    -0.442 A  
HETATM   24  C   UNL     1     -10.543  19.558  66.622  1.00  0.00    -0.583 A  
HETATM   25  C   UNL     1     -10.660  19.158  67.952  1.00  0.00    -0.459 A  
HETATM   26  C   UNL     1      -9.539  19.160  68.786  1.00  0.00    -0.474 A  
ENDBRANCH  20  21
ENDBRANCH  18  20
ENDBRANCH  17  18
ENDBRANCH  16  17
ENDBRANCH  15  16
ENDBRANCH  13  15
ENDBRANCH  10  13
BRANCH  12  27
HETATM   27  C   UNL     1      -8.592  11.694  67.942  1.00  0.00    -0.150 A  
HETATM   28  C   UNL     1      -7.367  10.047  66.647  1.00  0.00    -0.103 A  
HETATM   29  O   UNL     1      -7.970   9.308  71.287  1.00  0.00    -0.322 OA 
HETATM   30  C   UNL     1      -8.423  10.898  69.092  1.00  0.00    -0.064 A  
HETATM   31  O   UNL     1      -6.909   7.805  70.094  1.00  0.00    -0.048 OA 
HETATM   32  C   UNL     1      -7.720   9.690  69.011  1.00  0.00    -0.078 A  
HETATM   33  C   UNL     1      -8.045  11.263  66.726  1.00  0.00    -0.159 A  
HETATM   34  C   UNL     1      -7.205   9.254  67.785  1.00  0.00    -0.083 A  
HETATM   35  N   UNL     1      -7.519   8.877  70.216  1.00  0.00    -0.065 N  
ENDBRANCH  12  27
ENDBRANCH   3   5
ENDBRANCH   2   3
TORSDOF 10
ENDMDL
MODEL       83
REMARK 921   NORMALIZED FREE ENERGY PREDICTED BY IDOCK:   -5.58 KCAL/MOL
REMARK 922        TOTAL FREE ENERGY PREDICTED BY IDOCK:  -10.37 KCAL/MOL
REMARK 923 INTER-LIGAND FREE ENERGY PREDICTED BY IDOCK:   -8.52 KCAL/MOL
REMARK 924 INTRA-LIGAND FREE ENERGY PREDICTED BY IDOCK:   -1.84 KCAL/MOL
REMARK 927      BINDING AFFINITY PREDICTED BY RF-SCORE:    0.00 PKD
ROOT
HETATM    1  C   UNL     1     -10.924  15.025  66.556  1.00  0.00    -0.327 C  
HETATM    2  O   UNL     1     -10.563  13.742  67.078  1.00  0.00    -0.275 OA 
ENDROOT
BRANCH   2   3
HETATM    3  C   UNL     1     -11.551  12.821  66.941  1.00  0.00    -0.366 C  
HETATM    4  O   UNL     1     -12.382  12.817  66.045  1.00  0.00    -0.547 OA 
BRANCH   3   5
HETATM    5  C   UNL     1     -11.529  11.836  68.053  1.00  0.00    -0.388 C  
HETATM    6  C   UNL     1     -11.818  12.226  69.317  1.00  0.00    -0.306 C  
HETATM    7  C   UNL     1     -12.285  13.596  69.750  1.00  0.00    -0.350 C  
HETATM    8  N   UNL     1     -11.669  11.330  70.361  1.00  0.00    -0.329 NA 
HETATM    9  C   UNL     1     -11.069  10.089  70.259  1.00  0.00    -0.318 C  
HETATM   10  C   UNL     1     -10.735   9.602  69.040  1.00  0.00    -0.232 C  
HETATM   11  C   UNL     1     -10.865   9.362  71.568  1.00  0.00    -0.398 C  
HETATM   12  C   UNL     1     -11.057  10.400  67.763  1.00  0.00    -0.365 C  
BRANCH  10  13
HETATM   13  C   UNL     1     -10.150   8.235  68.927  1.00  0.00    -0.199 C  
HETATM   14  O   UNL     1     -10.710   7.260  68.447  1.00  0.00    -0.189 OA 
BRANCH  13  15
HETATM   15  O   UNL     1      -8.832   8.283  69.240  1.00  0.00    -0.141 OA 
BRANCH  15  16
HETATM   16  C   UNL     1      -7.999   7.545  68.330  1.00  0.00    -0.123 C  
BRANCH  16  17
HETATM   17  C   UNL     1      -7.413   6.383  69.146  1.00  0.00    -0.095 C  
BRANCH  17  18
HETATM   18  N   UNL     1      -8.301   5.248  69.431  1.00  0.00    -0.094 NA 
HETATM   19  C   UNL     1      -8.118   4.188  68.435  1.00  0.00    -0.080 C  
BRANCH  18  20
HETATM   20  C   UNL     1      -8.010   4.714  70.784  1.00  0.00    -0.076 C  
BRANCH  20  21
HETATM   21  C   UNL     1      -9.235   4.654  71.678  1.00  0.00    -0.183 A  
HETATM   22  C   UNL     1     -10.165   5.705  71.676  1.00  0.00    -0.261 A  
HETATM   23  C   UNL     1     -11.242   5.703  72.560  1.00  0.00    -0.346 A  
HETATM   24  C   UNL     1     -11.410   4.645  73.452  1.00  0.00    -0.394 A  
HETATM   25  C   UNL     1     -10.506   3.584  73.453  1.00  0.00    -0.264 A  
HETATM   26  C   UNL     1      -9.424   3.584  72.568  1.00  0.00    -0.179 A  
ENDBRANCH  20  21
ENDBRANCH  18  20
ENDBRANCH  17  18
ENDBRANCH  16  17
ENDBRANCH  15  16
ENDBRANCH  13  15
ENDBRANCH  10  13
BRANCH  12  27
HETATM   27  C   UNL     1      -9.888  10.382  66.773  1.00  0.00    -0.242 A  
HETATM   28  C   UNL     1      -8.949   9.738  64.630  1.00  0.00    -0.270 A  
HETATM   29  O   UNL     1      -6.204  12.062  67.713  1.00  0.00    -0.062 OA 
HETATM   30  C   UNL     1      -8.645  10.939  67.136  1.00  0.00    -0.130 A  
HETATM   31  O   UNL     1      -5.356  11.429  65.793  1.00  0.00    -0.267 OA 
HETATM   32  C   UNL     1      -7.571  10.899  66.241  1.00  0.00    -0.136 A  
HETATM   33  C   UNL     1     -10.029   9.797  65.508  1.00  0.00    -0.329 A  
HETATM   34  C   UNL     1      -7.715  10.284  64.992  1.00  0.00    -0.129 A  
HETATM   35  N   UNL     1      -6.286  11.507  66.609  1.00  0.00    -0.133 N  
ENDBRANCH  12  27
ENDBRANCH   3   5
ENDBRANCH   2   3
TORSDOF 10
ENDMDL
MODEL       84
REMARK 921   NORMALIZED FREE ENERGY PREDICTED BY IDOCK:   -5.58 KCAL/MOL
REMARK 922        TOTAL FREE ENERGY PREDICTED BY IDOCK:  -10.35 KCAL/MOL
REMARK 923 INTER-LIGAND FREE ENERGY PREDICTED BY IDOCK:   -7.23 KCAL/MOL
REMARK 924 INTRA-LIGAND FREE ENERGY PREDICTED BY IDOCK:   -3.12 KCAL/MOL
REMARK 927      BINDING AFFINITY PREDICTED BY RF-SCORE:    0.00 PKD
ROOT
HETATM    1  C   UNL     1     -13.269  11.661  71.885  1.00  0.00    -0.369 C  
HETATM    2  O   UNL     1     -12.233  11.692  70.897  1.00  0.00    -0.364 OA 
ENDROOT
BRANCH   2   3
HETATM    3  C   UNL     1     -12.283  10.634  70.048  1.00  0.00    -0.298 C  
HETATM    4  O   UNL     1     -13.311  10.093  69.667  1.00  0.00     0.416 OA 
BRANCH   3   5
HETATM    5  C   UNL     1     -10.920  10.180  69.671  1.00  0.00    -0.305 C  
HETATM    6  C   UNL     1     -10.152   9.512  70.564  1.00  0.00    -0.285 C  
HETATM    7  C   UNL     1     -10.566   9.056  71.943  1.00  0.00    -0.388 C  
HETATM    8  N   UNL     1      -8.840   9.207  70.244  1.00  0.00    -0.192 NA 
HETATM    9  C   UNL     1      -8.163   9.685  69.139  1.00  0.00    -0.120 C  
HETATM   10  C   UNL     1      -8.835  10.371  68.183  1.00  0.00    -0.132 C  
HETATM   11  C   UNL     1      -6.689   9.357  69.093  1.00  0.00    -0.050 C  
HETATM   12  C   UNL     1     -10.357  10.584  68.297  1.00  0.00    -0.193 C  
BRANCH  10  13
HETATM   13  C   UNL     1      -8.117  10.826  66.958  1.00  0.00    -0.124 C  
HETATM   14  O   UNL     1      -7.232  11.668  66.926  1.00  0.00    -0.144 OA 
BRANCH  13  15
HETATM   15  O   UNL     1      -8.444  10.019  65.920  1.00  0.00    -0.127 OA 
BRANCH  15  16
HETATM   16  C   UNL     1      -7.435   9.042  65.614  1.00  0.00    -0.086 C  
BRANCH  16  17
HETATM   17  C   UNL     1      -8.134   7.970  64.764  1.00  0.00    -0.143 C  
BRANCH  17  18
HETATM   18  N   UNL     1      -8.378   6.667  65.397  1.00  0.00    -0.141 NA 
HETATM   19  C   UNL     1      -7.728   5.596  64.637  1.00  0.00    -0.099 C  
BRANCH  18  20
HETATM   20  C   UNL     1      -7.855   6.679  66.785  1.00  0.00    -0.107 C  
BRANCH  20  21
HETATM   21  C   UNL     1      -8.930   6.445  67.831  1.00  0.00    -0.114 A  
HETATM   22  C   UNL     1      -8.615   5.805  69.038  1.00  0.00    -0.106 A  
HETATM   23  C   UNL     1      -9.611   5.503  69.964  1.00  0.00    -0.218 A  
HETATM   24  C   UNL     1     -10.936   5.844  69.699  1.00  0.00    -0.447 A  
HETATM   25  C   UNL     1     -11.263   6.499  68.512  1.00  0.00    -0.287 A  
HETATM   26  C   UNL     1     -10.265   6.802  67.582  1.00  0.00    -0.225 A  
ENDBRANCH  20  21
ENDBRANCH  18  20
ENDBRANCH  17  18
ENDBRANCH  16  17
ENDBRANCH  15  16
ENDBRANCH  13  15
ENDBRANCH  10  13
BRANCH  12  27
HETATM   27  C   UNL     1     -10.757  12.015  67.925  1.00  0.00    -0.243 A  
HETATM   28  C   UNL     1     -12.056  13.557  66.574  1.00  0.00    -0.460 A  
HETATM   29  O   UNL     1      -9.029  15.317  69.766  1.00  0.00    -0.201 OA 
HETATM   30  C   UNL     1     -10.131  13.111  68.552  1.00  0.00    -0.203 A  
HETATM   31  O   UNL     1     -10.174  16.697  68.503  1.00  0.00    -0.251 OA 
HETATM   32  C   UNL     1     -10.481  14.417  68.192  1.00  0.00    -0.237 A  
HETATM   33  C   UNL     1     -11.731  12.254  66.946  1.00  0.00    -0.404 A  
HETATM   34  C   UNL     1     -11.431  14.644  67.191  1.00  0.00    -0.380 A  
HETATM   35  N   UNL     1      -9.850  15.557  68.869  1.00  0.00    -0.207 N  
ENDBRANCH  12  27
ENDBRANCH   3   5
ENDBRANCH   2   3
TORSDOF 10
ENDMDL
MODEL       85
REMARK 921   NORMALIZED FREE ENERGY PREDICTED BY IDOCK:   -5.57 KCAL/MOL
REMARK 922        TOTAL FREE ENERGY PREDICTED BY IDOCK:  -10.35 KCAL/MOL
REMARK 923 INTER-LIGAND FREE ENERGY PREDICTED BY IDOCK:   -9.40 KCAL/MOL
REMARK 924 INTRA-LIGAND FREE ENERGY PREDICTED BY IDOCK:   -0.95 KCAL/MOL
REMARK 927      BINDING AFFINITY PREDICTED BY RF-SCORE:    0.00 PKD
ROOT
HETATM    1  C   UNL     1     -12.365  14.995  73.428  1.00  0.00    -0.443 C  
HETATM    2  O   UNL     1     -11.953  14.266  72.266  1.00  0.00    -0.073 OA 
ENDROOT
BRANCH   2   3
HETATM    3  C   UNL     1     -12.956  14.097  71.367  1.00  0.00    -0.351 C  
HETATM    4  O   UNL     1     -14.022  14.694  71.390  1.00  0.00    -0.398 OA 
BRANCH   3   5
HETATM    5  C   UNL     1     -12.615  13.050  70.370  1.00  0.00    -0.165 C  
HETATM    6  C   UNL     1     -12.672  11.740  70.709  1.00  0.00    -0.167 C  
HETATM    7  C   UNL     1     -13.161  11.170  72.019  1.00  0.00    -0.428 C  
HETATM    8  N   UNL     1     -12.230  10.782  69.812  1.00  0.00    -0.320 NA 
HETATM    9  C   UNL     1     -11.554  11.050  68.637  1.00  0.00    -0.316 C  
HETATM   10  C   UNL     1     -11.436  12.328  68.205  1.00  0.00    -0.367 C  
HETATM   11  C   UNL     1     -11.020   9.838  67.910  1.00  0.00    -0.246 C  
HETATM   12  C   UNL     1     -12.085  13.483  68.992  1.00  0.00    -0.330 C  
BRANCH  10  13
HETATM   13  C   UNL     1     -10.765  12.609  66.903  1.00  0.00    -0.242 C  
HETATM   14  O   UNL     1      -9.563  12.543  66.695  1.00  0.00    -0.227 OA 
BRANCH  13  15
HETATM   15  O   UNL     1     -11.704  12.741  65.935  1.00  0.00    -0.368 OA 
BRANCH  15  16
HETATM   16  C   UNL     1     -12.282  14.056  65.873  1.00  0.00    -0.456 C  
BRANCH  16  17
HETATM   17  C   UNL     1     -11.297  14.909  65.059  1.00  0.00    -0.398 C  
BRANCH  17  18
HETATM   18  N   UNL     1     -10.507  15.905  65.793  1.00  0.00    -0.351 NA 
HETATM   19  C   UNL     1      -9.080  15.577  65.734  1.00  0.00    -0.070 C  
BRANCH  18  20
HETATM   20  C   UNL     1     -10.732  17.250  65.208  1.00  0.00    -0.010 C  
BRANCH  20  21
HETATM   21  C   UNL     1     -10.079  18.365  66.005  1.00  0.00    -0.293 A  
HETATM   22  C   UNL     1     -10.866  19.351  66.618  1.00  0.00    -0.462 A  
HETATM   23  C   UNL     1     -10.273  20.429  67.273  1.00  0.00    -0.432 A  
HETATM   24  C   UNL     1      -8.884  20.531  67.331  1.00  0.00    -0.393 A  
HETATM   25  C   UNL     1      -8.088  19.548  66.745  1.00  0.00    -0.313 A  
HETATM   26  C   UNL     1      -8.680  18.467  66.086  1.00  0.00    -0.126 A  
ENDBRANCH  20  21
ENDBRANCH  18  20
ENDBRANCH  17  18
ENDBRANCH  16  17
ENDBRANCH  15  16
ENDBRANCH  13  15
ENDBRANCH  10  13
BRANCH  12  27
HETATM   27  C   UNL     1     -11.149  14.690  69.103  1.00  0.00    -0.285 A  
HETATM   28  C   UNL     1     -10.794  17.090  69.107  1.00  0.00    -0.164 A  
HETATM   29  O   UNL     1      -7.044  14.233  69.572  1.00  0.00    -0.118 OA 
HETATM   30  C   UNL     1      -9.759  14.496  69.236  1.00  0.00     0.007 A  
HETATM   31  O   UNL     1      -6.735  16.404  69.523  1.00  0.00    -0.213 OA 
HETATM   32  C   UNL     1      -8.903  15.601  69.312  1.00  0.00    -0.264 A  
HETATM   33  C   UNL     1     -11.655  15.995  69.055  1.00  0.00    -0.350 A  
HETATM   34  C   UNL     1      -9.416  16.899  69.231  1.00  0.00    -0.051 A  
HETATM   35  N   UNL     1      -7.458  15.398  69.482  1.00  0.00    -0.217 N  
ENDBRANCH  12  27
ENDBRANCH   3   5
ENDBRANCH   2   3
TORSDOF 10
ENDMDL
MODEL       86
REMARK 921   NORMALIZED FREE ENERGY PREDICTED BY IDOCK:   -5.55 KCAL/MOL
REMARK 922        TOTAL FREE ENERGY PREDICTED BY IDOCK:  -10.32 KCAL/MOL
REMARK 923 INTER-LIGAND FREE ENERGY PREDICTED BY IDOCK:   -7.02 KCAL/MOL
REMARK 924 INTRA-LIGAND FREE ENERGY PREDICTED BY IDOCK:   -3.30 KCAL/MOL
REMARK 927      BINDING AFFINITY PREDICTED BY RF-SCORE:    0.00 PKD
ROOT
HETATM    1  C   UNL     1      -7.784   7.112  65.318  1.00  0.00    -0.114 C  
HETATM    2  O   UNL     1      -8.065   8.054  66.359  1.00  0.00    -0.101 OA 
ENDROOT
BRANCH   2   3
HETATM    3  C   UNL     1      -9.387   8.346  66.462  1.00  0.00    -0.201 C  
HETATM    4  O   UNL     1     -10.034   8.955  65.624  1.00  0.00    -0.108 OA 
BRANCH   3   5
HETATM    5  C   UNL     1      -9.944   7.873  67.755  1.00  0.00    -0.221 C  
HETATM    6  C   UNL     1     -10.635   6.710  67.817  1.00  0.00    -0.252 C  
HETATM    7  C   UNL     1     -10.838   5.725  66.691  1.00  0.00    -0.290 C  
HETATM    8  N   UNL     1     -11.257   6.346  68.999  1.00  0.00    -0.353 NA 
HETATM    9  C   UNL     1     -11.392   7.162  70.106  1.00  0.00    -0.241 C  
HETATM   10  C   UNL     1     -10.746   8.351  70.148  1.00  0.00    -0.238 C  
HETATM   11  C   UNL     1     -12.260   6.608  71.212  1.00  0.00    -0.369 C  
HETATM   12  C   UNL     1      -9.826   8.783  68.991  1.00  0.00    -0.183 C  
BRANCH  10  13
HETATM   13  C   UNL     1     -10.839   9.199  71.372  1.00  0.00    -0.349 C  
HETATM   14  O   UNL     1     -11.865   9.688  71.820  1.00  0.00    -0.386 OA 
BRANCH  13  15
HETATM   15  O   UNL     1      -9.653   9.171  72.028  1.00  0.00    -0.300 OA 
BRANCH  15  16
HETATM   16  C   UNL     1      -9.580   8.147  73.034  1.00  0.00    -0.266 C  
BRANCH  16  17
HETATM   17  C   UNL     1      -8.082   7.873  73.243  1.00  0.00    -0.167 C  
BRANCH  17  18
HETATM   18  N   UNL     1      -7.582   6.548  72.855  1.00  0.00    -0.097 NA 
HETATM   19  C   UNL     1      -6.971   5.871  74.002  1.00  0.00    -0.081 C  
BRANCH  18  20
HETATM   20  C   UNL     1      -8.701   5.726  72.331  1.00  0.00    -0.128 C  
BRANCH  20  21
HETATM   21  C   UNL     1      -8.463   5.222  70.920  1.00  0.00    -0.121 A  
HETATM   22  C   UNL     1      -9.065   4.034  70.481  1.00  0.00    -0.182 A  
HETATM   23  C   UNL     1      -8.779   3.515  69.219  1.00  0.00    -0.133 A  
HETATM   24  C   UNL     1      -7.894   4.183  68.375  1.00  0.00    -0.073 A  
HETATM   25  C   UNL     1      -7.303   5.376  68.788  1.00  0.00    -0.074 A  
HETATM   26  C   UNL     1      -7.586   5.897  70.054  1.00  0.00    -0.087 A  
ENDBRANCH  20  21
ENDBRANCH  18  20
ENDBRANCH  17  18
ENDBRANCH  16  17
ENDBRANCH  15  16
ENDBRANCH  13  15
ENDBRANCH  10  13
BRANCH  12  27
HETATM   27  C   UNL     1     -10.029  10.257  68.626  1.00  0.00    -0.183 A  
HETATM   28  C   UNL     1     -11.484  12.086  67.975  1.00  0.00    -0.392 A  
HETATM   29  O   UNL     1      -6.840  12.914  68.409  1.00  0.00    -0.080 OA 
HETATM   30  C   UNL     1      -8.921  11.123  68.537  1.00  0.00    -0.168 A  
HETATM   31  O   UNL     1      -8.162  14.544  67.774  1.00  0.00    -0.142 OA 
HETATM   32  C   UNL     1      -9.106  12.463  68.178  1.00  0.00    -0.200 A  
HETATM   33  C   UNL     1     -11.309  10.757  68.356  1.00  0.00    -0.367 A  
HETATM   34  C   UNL     1     -10.386  12.943  67.880  1.00  0.00    -0.233 A  
HETATM   35  N   UNL     1      -7.954  13.371  68.116  1.00  0.00    -0.139 N  
ENDBRANCH  12  27
ENDBRANCH   3   5
ENDBRANCH   2   3
TORSDOF 10
ENDMDL
MODEL       87
REMARK 921   NORMALIZED FREE ENERGY PREDICTED BY IDOCK:   -5.54 KCAL/MOL
REMARK 922        TOTAL FREE ENERGY PREDICTED BY IDOCK:  -10.30 KCAL/MOL
REMARK 923 INTER-LIGAND FREE ENERGY PREDICTED BY IDOCK:   -9.49 KCAL/MOL
REMARK 924 INTRA-LIGAND FREE ENERGY PREDICTED BY IDOCK:   -0.81 KCAL/MOL
REMARK 927      BINDING AFFINITY PREDICTED BY RF-SCORE:    0.00 PKD
ROOT
HETATM    1  C   UNL     1      -6.006   7.290  64.965  1.00  0.00    -0.037 C  
HETATM    2  O   UNL     1      -6.860   8.379  65.334  1.00  0.00    -0.065 OA 
ENDROOT
BRANCH   2   3
HETATM    3  C   UNL     1      -8.162   8.011  65.449  1.00  0.00    -0.151 C  
HETATM    4  O   UNL     1      -8.547   6.913  65.824  1.00  0.00    -0.145 OA 
BRANCH   3   5
HETATM    5  C   UNL     1      -9.071   9.101  65.011  1.00  0.00    -0.215 C  
HETATM    6  C   UNL     1      -9.085   9.501  63.717  1.00  0.00    -0.109 C  
HETATM    7  C   UNL     1      -8.319   8.876  62.575  1.00  0.00    -0.203 C  
HETATM    8  N   UNL     1      -9.841  10.600  63.349  1.00  0.00    -0.330 NA 
HETATM    9  C   UNL     1     -10.465  11.462  64.230  1.00  0.00    -0.342 C  
HETATM   10  C   UNL     1     -10.508  11.161  65.550  1.00  0.00    -0.317 C  
HETATM   11  C   UNL     1     -11.086  12.689  63.602  1.00  0.00    -0.496 C  
HETATM   12  C   UNL     1      -9.904   9.843  66.071  1.00  0.00    -0.330 C  
BRANCH  10  13
HETATM   13  C   UNL     1     -11.241  12.058  66.489  1.00  0.00    -0.334 C  
HETATM   14  O   UNL     1     -12.149  11.718  67.233  1.00  0.00    -0.595 OA 
BRANCH  13  15
HETATM   15  O   UNL     1     -10.612  13.257  66.548  1.00  0.00    -0.281 OA 
BRANCH  15  16
HETATM   16  C   UNL     1     -11.506  14.363  66.752  1.00  0.00    -0.370 C  
BRANCH  16  17
HETATM   17  C   UNL     1     -10.664  15.465  67.415  1.00  0.00    -0.296 C  
BRANCH  17  18
HETATM   18  N   UNL     1     -10.335  15.293  68.836  1.00  0.00    -0.234 NA 
HETATM   19  C   UNL     1      -8.941  15.668  69.091  1.00  0.00    -0.257 C  
BRANCH  18  20
HETATM   20  C   UNL     1     -11.234  16.136  69.662  1.00  0.00    -0.331 C  
BRANCH  20  21
HETATM   21  C   UNL     1     -11.973  15.351  70.731  1.00  0.00    -0.402 A  
HETATM   22  C   UNL     1     -12.339  14.017  70.503  1.00  0.00    -0.437 A  
HETATM   23  C   UNL     1     -13.098  13.317  71.440  1.00  0.00    -0.361 A  
HETATM   24  C   UNL     1     -13.494  13.941  72.622  1.00  0.00    -0.652 A  
HETATM   25  C   UNL     1     -13.121  15.261  72.872  1.00  0.00    -0.592 A  
HETATM   26  C   UNL     1     -12.362  15.964  71.934  1.00  0.00    -0.541 A  
ENDBRANCH  20  21
ENDBRANCH  18  20
ENDBRANCH  17  18
ENDBRANCH  16  17
ENDBRANCH  15  16
ENDBRANCH  13  15
ENDBRANCH  10  13
BRANCH  12  27
HETATM   27  C   UNL     1      -9.108  10.056  67.363  1.00  0.00    -0.146 A  
HETATM   28  C   UNL     1      -8.425   9.306  69.567  1.00  0.00    -0.144 A  
HETATM   29  O   UNL     1      -6.866  13.497  68.004  1.00  0.00    -0.101 OA 
HETATM   30  C   UNL     1      -8.380  11.247  67.556  1.00  0.00    -0.131 A  
HETATM   31  O   UNL     1      -6.298  12.827  70.013  1.00  0.00    -0.097 OA 
HETATM   32  C   UNL     1      -7.674  11.451  68.747  1.00  0.00    -0.135 A  
HETATM   33  C   UNL     1      -9.110   9.086  68.373  1.00  0.00    -0.133 A  
HETATM   34  C   UNL     1      -7.709  10.489  69.762  1.00  0.00    -0.079 A  
HETATM   35  N   UNL     1      -6.891  12.679  68.934  1.00  0.00    -0.097 N  
ENDBRANCH  12  27
ENDBRANCH   3   5
ENDBRANCH   2   3
TORSDOF 10
ENDMDL
MODEL       88
REMARK 921   NORMALIZED FREE ENERGY PREDICTED BY IDOCK:   -5.52 KCAL/MOL
REMARK 922        TOTAL FREE ENERGY PREDICTED BY IDOCK:  -10.27 KCAL/MOL
REMARK 923 INTER-LIGAND FREE ENERGY PREDICTED BY IDOCK:   -8.51 KCAL/MOL
REMARK 924 INTRA-LIGAND FREE ENERGY PREDICTED BY IDOCK:   -1.76 KCAL/MOL
REMARK 927      BINDING AFFINITY PREDICTED BY RF-SCORE:    0.00 PKD
ROOT
HETATM    1  C   UNL     1      -9.946  17.021  68.239  1.00  0.00    -0.285 C  
HETATM    2  O   UNL     1      -8.931  16.104  68.660  1.00  0.00    -0.200 OA 
ENDROOT
BRANCH   2   3
HETATM    3  C   UNL     1      -8.493  15.305  67.653  1.00  0.00    -0.161 C  
HETATM    4  O   UNL     1      -8.335  15.663  66.496  1.00  0.00    -0.269 OA 
BRANCH   3   5
HETATM    5  C   UNL     1      -8.275  13.914  68.126  1.00  0.00    -0.158 C  
HETATM    6  C   UNL     1      -7.018  13.431  68.272  1.00  0.00    -0.108 C  
HETATM    7  C   UNL     1      -5.732  14.204  68.100  1.00  0.00    -0.128 C  
HETATM    8  N   UNL     1      -6.830  12.097  68.589  1.00  0.00    -0.083 NA 
HETATM    9  C   UNL     1      -7.825  11.138  68.600  1.00  0.00    -0.138 C  
HETATM   10  C   UNL     1      -9.120  11.511  68.460  1.00  0.00    -0.157 C  
HETATM   11  C   UNL     1      -7.351   9.718  68.806  1.00  0.00    -0.074 C  
HETATM   12  C   UNL     1      -9.496  12.999  68.330  1.00  0.00    -0.165 C  
BRANCH  10  13
HETATM   13  C   UNL     1     -10.197  10.483  68.541  1.00  0.00    -0.174 C  
HETATM   14  O   UNL     1     -10.685   9.889  67.591  1.00  0.00    -0.254 OA 
BRANCH  13  15
HETATM   15  O   UNL     1     -10.407  10.154  69.839  1.00  0.00    -0.250 OA 
BRANCH  15  16
HETATM   16  C   UNL     1     -11.721  10.493  70.311  1.00  0.00    -0.332 C  
BRANCH  16  17
HETATM   17  C   UNL     1     -12.203   9.279  71.119  1.00  0.00    -0.301 C  
BRANCH  17  18
HETATM   18  N   UNL     1     -11.255   8.170  71.293  1.00  0.00    -0.254 NA 
HETATM   19  C   UNL     1     -10.810   8.087  72.687  1.00  0.00    -0.368 C  
BRANCH  18  20
HETATM   20  C   UNL     1     -11.902   6.894  70.901  1.00  0.00    -0.376 C  
BRANCH  20  21
HETATM   21  C   UNL     1     -11.138   6.141  69.828  1.00  0.00    -0.486 A  
HETATM   22  C   UNL     1     -10.491   4.935  70.134  1.00  0.00    -0.144 A  
HETATM   23  C   UNL     1      -9.710   4.285  69.179  1.00  0.00    -0.226 A  
HETATM   24  C   UNL     1      -9.574   4.827  67.903  1.00  0.00    -0.198 A  
HETATM   25  C   UNL     1     -10.227   6.015  67.577  1.00  0.00    -0.225 A  
HETATM   26  C   UNL     1     -11.009   6.670  68.533  1.00  0.00    -0.314 A  
ENDBRANCH  20  21
ENDBRANCH  18  20
ENDBRANCH  17  18
ENDBRANCH  16  17
ENDBRANCH  15  16
ENDBRANCH  13  15
ENDBRANCH  10  13
BRANCH  12  27
HETATM   27  C   UNL     1     -10.554  13.224  67.245  1.00  0.00    -0.250 A  
HETATM   28  C   UNL     1     -12.750  14.006  66.572  1.00  0.00    -0.037 A  
HETATM   29  O   UNL     1      -9.936  12.033  63.311  1.00  0.00    -0.423 OA 
HETATM   30  C   UNL     1     -10.320  12.783  65.927  1.00  0.00    -0.298 A  
HETATM   31  O   UNL     1     -11.943  12.699  62.730  1.00  0.00     0.035 OA 
HETATM   32  C   UNL     1     -11.298  12.967  64.943  1.00  0.00    -0.307 A  
HETATM   33  C   UNL     1     -11.770  13.848  67.550  1.00  0.00    -0.416 A  
HETATM   34  C   UNL     1     -12.521  13.563  65.267  1.00  0.00    -0.525 A  
HETATM   35  N   UNL     1     -11.040  12.535  63.564  1.00  0.00    -0.462 N  
ENDBRANCH  12  27
ENDBRANCH   3   5
ENDBRANCH   2   3
TORSDOF 10
ENDMDL
MODEL       89
REMARK 921   NORMALIZED FREE ENERGY PREDICTED BY IDOCK:   -5.52 KCAL/MOL
REMARK 922        TOTAL FREE ENERGY PREDICTED BY IDOCK:  -10.26 KCAL/MOL
REMARK 923 INTER-LIGAND FREE ENERGY PREDICTED BY IDOCK:   -8.44 KCAL/MOL
REMARK 924 INTRA-LIGAND FREE ENERGY PREDICTED BY IDOCK:   -1.82 KCAL/MOL
REMARK 927      BINDING AFFINITY PREDICTED BY RF-SCORE:    0.00 PKD
ROOT
HETATM    1  C   UNL     1      -8.839   5.628  65.804  1.00  0.00    -0.153 C  
HETATM    2  O   UNL     1      -9.442   6.727  66.496  1.00  0.00    -0.164 OA 
ENDROOT
BRANCH   2   3
HETATM    3  C   UNL     1      -8.800   7.903  66.276  1.00  0.00    -0.159 C  
HETATM    4  O   UNL     1      -7.593   8.022  66.127  1.00  0.00    -0.082 OA 
BRANCH   3   5
HETATM    5  C   UNL     1      -9.749   9.046  66.288  1.00  0.00    -0.345 C  
HETATM    6  C   UNL     1      -9.820   9.887  65.229  1.00  0.00    -0.303 C  
HETATM    7  C   UNL     1      -9.083   9.745  63.918  1.00  0.00    -0.275 C  
HETATM    8  N   UNL     1     -10.614  11.018  65.305  1.00  0.00    -0.248 NA 
HETATM    9  C   UNL     1     -11.225  11.480  66.455  1.00  0.00    -0.243 C  
HETATM   10  C   UNL     1     -11.213  10.719  67.576  1.00  0.00    -0.346 C  
HETATM   11  C   UNL     1     -11.897  12.828  66.331  1.00  0.00    -0.472 C  
HETATM   12  C   UNL     1     -10.560   9.324  67.566  1.00  0.00    -0.329 C  
BRANCH  10  13
HETATM   13  C   UNL     1     -11.931  11.189  68.795  1.00  0.00    -0.268 C  
HETATM   14  O   UNL     1     -12.889  10.634  69.313  1.00  0.00    -0.103 OA 
BRANCH  13  15
HETATM   15  O   UNL     1     -11.235  12.203  69.363  1.00  0.00    -0.237 OA 
BRANCH  15  16
HETATM   16  C   UNL     1     -12.021  13.007  70.258  1.00  0.00    -0.285 C  
BRANCH  16  17
HETATM   17  C   UNL     1     -12.221  14.353  69.546  1.00  0.00    -0.282 C  
BRANCH  17  18
HETATM   18  N   UNL     1     -11.821  15.564  70.275  1.00  0.00    -0.329 NA 
HETATM   19  C   UNL     1     -11.939  15.358  71.721  1.00  0.00    -0.403 C  
BRANCH  18  20
HETATM   20  C   UNL     1     -10.418  15.909  69.936  1.00  0.00    -0.310 C  
BRANCH  20  21
HETATM   21  C   UNL     1     -10.084  15.683  68.473  1.00  0.00    -0.211 A  
HETATM   22  C   UNL     1      -9.273  14.604  68.090  1.00  0.00    -0.192 A  
HETATM   23  C   UNL     1      -8.885  14.442  66.762  1.00  0.00    -0.225 A  
HETATM   24  C   UNL     1      -9.310  15.352  65.795  1.00  0.00    -0.265 A  
HETATM   25  C   UNL     1     -10.132  16.418  66.156  1.00  0.00    -0.364 A  
HETATM   26  C   UNL     1     -10.522  16.584  67.488  1.00  0.00    -0.310 A  
ENDBRANCH  20  21
ENDBRANCH  18  20
ENDBRANCH  17  18
ENDBRANCH  16  17
ENDBRANCH  15  16
ENDBRANCH  13  15
ENDBRANCH  10  13
BRANCH  12  27
HETATM   27  C   UNL     1      -9.722   9.082  68.826  1.00  0.00    -0.165 A  
HETATM   28  C   UNL     1      -9.382   7.954  70.948  1.00  0.00    -0.162 A  
HETATM   29  O   UNL     1      -6.204  11.175  69.545  1.00  0.00    -0.067 OA 
HETATM   30  C   UNL     1      -8.548   9.829  69.049  1.00  0.00    -0.146 A  
HETATM   31  O   UNL     1      -5.938  10.183  71.483  1.00  0.00    -0.295 OA 
HETATM   32  C   UNL     1      -7.798   9.625  70.212  1.00  0.00    -0.178 A  
HETATM   33  C   UNL     1     -10.120   8.135  69.779  1.00  0.00    -0.197 A  
HETATM   34  C   UNL     1      -8.222   8.699  71.172  1.00  0.00    -0.187 A  
HETATM   35  N   UNL     1      -6.559  10.381  70.428  1.00  0.00    -0.142 N  
ENDBRANCH  12  27
ENDBRANCH   3   5
ENDBRANCH   2   3
TORSDOF 10
ENDMDL
MODEL       90
REMARK 921   NORMALIZED FREE ENERGY PREDICTED BY IDOCK:   -5.50 KCAL/MOL
REMARK 922        TOTAL FREE ENERGY PREDICTED BY IDOCK:  -10.23 KCAL/MOL
REMARK 923 INTER-LIGAND FREE ENERGY PREDICTED BY IDOCK:   -8.61 KCAL/MOL
REMARK 924 INTRA-LIGAND FREE ENERGY PREDICTED BY IDOCK:   -1.62 KCAL/MOL
REMARK 927      BINDING AFFINITY PREDICTED BY RF-SCORE:    0.00 PKD
ROOT
HETATM    1  C   UNL     1      -7.798   3.971  72.850  1.00  0.00    -0.080 C  
HETATM    2  O   UNL     1      -7.962   5.182  72.106  1.00  0.00    -0.108 OA 
ENDROOT
BRANCH   2   3
HETATM    3  C   UNL     1      -9.088   5.185  71.346  1.00  0.00    -0.144 C  
HETATM    4  O   UNL     1      -9.502   4.229  70.708  1.00  0.00    -0.141 OA 
BRANCH   3   5
HETATM    5  C   UNL     1      -9.735   6.522  71.347  1.00  0.00    -0.184 C  
HETATM    6  C   UNL     1     -10.927   6.704  71.963  1.00  0.00    -0.242 C  
HETATM    7  C   UNL     1     -11.679   5.684  72.784  1.00  0.00    -0.233 C  
HETATM    8  N   UNL     1     -11.579   7.920  71.847  1.00  0.00    -0.277 NA 
HETATM    9  C   UNL     1     -11.205   8.940  70.994  1.00  0.00    -0.281 C  
HETATM   10  C   UNL     1     -10.031   8.859  70.323  1.00  0.00    -0.214 C  
HETATM   11  C   UNL     1     -12.169  10.101  70.915  1.00  0.00    -0.455 C  
HETATM   12  C   UNL     1      -9.089   7.660  70.537  1.00  0.00    -0.151 C  
BRANCH  10  13
HETATM   13  C   UNL     1      -9.597   9.992  69.455  1.00  0.00    -0.230 C  
HETATM   14  O   UNL     1      -8.607  10.685  69.634  1.00  0.00    -0.052 OA 
BRANCH  13  15
HETATM   15  O   UNL     1     -10.345  10.003  68.325  1.00  0.00    -0.175 OA 
BRANCH  15  16
HETATM   16  C   UNL     1     -10.207  11.212  67.559  1.00  0.00    -0.186 C  
BRANCH  16  17
HETATM   17  C   UNL     1     -11.322  12.149  68.051  1.00  0.00    -0.295 C  
BRANCH  17  18
HETATM   18  N   UNL     1     -10.917  13.304  68.861  1.00  0.00    -0.251 NA 
HETATM   19  C   UNL     1      -9.872  14.072  68.178  1.00  0.00    -0.235 C  
BRANCH  18  20
HETATM   20  C   UNL     1     -12.091  14.176  69.109  1.00  0.00    -0.325 C  
BRANCH  20  21
HETATM   21  C   UNL     1     -12.270  14.535  70.573  1.00  0.00    -0.399 A  
HETATM   22  C   UNL     1     -13.146  13.796  71.382  1.00  0.00    -0.413 A  
HETATM   23  C   UNL     1     -13.386  14.174  72.702  1.00  0.00    -0.638 A  
HETATM   24  C   UNL     1     -12.747  15.292  73.234  1.00  0.00    -0.628 A  
HETATM   25  C   UNL     1     -11.859  16.026  72.449  1.00  0.00    -0.639 A  
HETATM   26  C   UNL     1     -11.617  15.649  71.125  1.00  0.00    -0.462 A  
ENDBRANCH  20  21
ENDBRANCH  18  20
ENDBRANCH  17  18
ENDBRANCH  16  17
ENDBRANCH  15  16
ENDBRANCH  13  15
ENDBRANCH  10  13
BRANCH  12  27
HETATM   27  C   UNL     1      -8.513   7.149  69.212  1.00  0.00    -0.133 A  
HETATM   28  C   UNL     1      -6.645   6.897  67.683  1.00  0.00    -0.055 A  
HETATM   29  O   UNL     1     -10.883   5.212  66.401  1.00  0.00    -0.283 OA 
HETATM   30  C   UNL     1      -9.352   6.520  68.271  1.00  0.00    -0.118 A  
HETATM   31  O   UNL     1      -9.197   5.037  65.009  1.00  0.00    -0.146 OA 
HETATM   32  C   UNL     1      -8.829   6.077  67.052  1.00  0.00    -0.113 A  
HETATM   33  C   UNL     1      -7.155   7.318  68.910  1.00  0.00    -0.084 A  
HETATM   34  C   UNL     1      -7.478   6.279  66.747  1.00  0.00    -0.087 A  
HETATM   35  N   UNL     1      -9.698   5.393  66.086  1.00  0.00    -0.158 N  
ENDBRANCH  12  27
ENDBRANCH   3   5
ENDBRANCH   2   3
TORSDOF 10
ENDMDL
MODEL       91
REMARK 921   NORMALIZED FREE ENERGY PREDICTED BY IDOCK:   -5.48 KCAL/MOL
REMARK 922        TOTAL FREE ENERGY PREDICTED BY IDOCK:  -10.21 KCAL/MOL
REMARK 923 INTER-LIGAND FREE ENERGY PREDICTED BY IDOCK:   -7.97 KCAL/MOL
REMARK 924 INTRA-LIGAND FREE ENERGY PREDICTED BY IDOCK:   -2.24 KCAL/MOL
REMARK 927      BINDING AFFINITY PREDICTED BY RF-SCORE:    0.00 PKD
ROOT
HETATM    1  C   UNL     1     -13.560   9.253  71.882  1.00  0.00    -0.427 C  
HETATM    2  O   UNL     1     -12.135   9.375  71.815  1.00  0.00    -0.354 OA 
ENDROOT
BRANCH   2   3
HETATM    3  C   UNL     1     -11.563   8.440  71.014  1.00  0.00    -0.275 C  
HETATM    4  O   UNL     1     -12.164   7.527  70.468  1.00  0.00    -0.103 OA 
BRANCH   3   5
HETATM    5  C   UNL     1     -10.094   8.637  70.919  1.00  0.00    -0.262 C  
HETATM    6  C   UNL     1      -9.308   8.447  72.005  1.00  0.00    -0.262 C  
HETATM    7  C   UNL     1      -9.749   7.934  73.356  1.00  0.00    -0.318 C  
HETATM    8  N   UNL     1      -7.960   8.756  71.937  1.00  0.00    -0.326 NA 
HETATM    9  C   UNL     1      -7.354   9.425  70.891  1.00  0.00    -0.075 C  
HETATM   10  C   UNL     1      -8.050   9.671  69.755  1.00  0.00    -0.160 C  
HETATM   11  C   UNL     1      -5.909   9.803  71.119  1.00  0.00    -0.071 C  
HETATM   12  C   UNL     1      -9.500   9.173  69.604  1.00  0.00    -0.178 C  
BRANCH  10  13
HETATM   13  C   UNL     1      -7.374  10.331  68.603  1.00  0.00    -0.083 C  
HETATM   14  O   UNL     1      -6.804   9.755  67.688  1.00  0.00    -0.082 OA 
BRANCH  13  15
HETATM   15  O   UNL     1      -7.666  11.655  68.609  1.00  0.00    -0.130 OA 
BRANCH  15  16
HETATM   16  C   UNL     1      -7.825  12.213  67.294  1.00  0.00    -0.176 C  
BRANCH  16  17
HETATM   17  C   UNL     1      -7.983  13.727  67.499  1.00  0.00    -0.181 C  
BRANCH  17  18
HETATM   18  N   UNL     1      -9.323  14.295  67.301  1.00  0.00    -0.205 NA 
HETATM   19  C   UNL     1      -9.597  15.330  68.301  1.00  0.00    -0.206 C  
BRANCH  18  20
HETATM   20  C   UNL     1      -9.423  14.879  65.941  1.00  0.00    -0.254 C  
BRANCH  20  21
HETATM   21  C   UNL     1     -10.438  14.174  65.061  1.00  0.00    -0.447 A  
HETATM   22  C   UNL     1     -11.779  14.583  65.058  1.00  0.00    -0.392 A  
HETATM   23  C   UNL     1     -12.736  13.884  64.324  1.00  0.00    -0.012 A  
HETATM   24  C   UNL     1     -12.362  12.770  63.575  1.00  0.00    -0.559 A  
HETATM   25  C   UNL     1     -11.029  12.362  63.551  1.00  0.00    -0.506 A  
HETATM   26  C   UNL     1     -10.069  13.061  64.287  1.00  0.00    -0.216 A  
ENDBRANCH  20  21
ENDBRANCH  18  20
ENDBRANCH  17  18
ENDBRANCH  16  17
ENDBRANCH  15  16
ENDBRANCH  13  15
ENDBRANCH  10  13
BRANCH  12  27
HETATM   27  C   UNL     1     -10.402  10.238  68.974  1.00  0.00    -0.229 A  
HETATM   28  C   UNL     1     -11.530  11.169  67.037  1.00  0.00    -0.109 A  
HETATM   29  O   UNL     1     -11.915  13.411  71.192  1.00  0.00    -0.150 OA 
HETATM   30  C   UNL     1     -10.876  11.314  69.751  1.00  0.00    -0.089 A  
HETATM   31  O   UNL     1     -12.886  14.266  69.422  1.00  0.00     0.083 OA 
HETATM   32  C   UNL     1     -11.679  12.300  69.167  1.00  0.00    -0.323 A  
HETATM   33  C   UNL     1     -10.750  10.171  67.618  1.00  0.00    -0.339 A  
HETATM   34  C   UNL     1     -11.994  12.239  67.805  1.00  0.00    -0.229 A  
HETATM   35  N   UNL     1     -12.197  13.404  69.986  1.00  0.00    -0.321 N  
ENDBRANCH  12  27
ENDBRANCH   3   5
ENDBRANCH   2   3
TORSDOF 10
ENDMDL
MODEL       92
REMARK 921   NORMALIZED FREE ENERGY PREDICTED BY IDOCK:   -5.48 KCAL/MOL
REMARK 922        TOTAL FREE ENERGY PREDICTED BY IDOCK:  -10.21 KCAL/MOL
REMARK 923 INTER-LIGAND FREE ENERGY PREDICTED BY IDOCK:   -7.47 KCAL/MOL
REMARK 924 INTRA-LIGAND FREE ENERGY PREDICTED BY IDOCK:   -2.74 KCAL/MOL
REMARK 927      BINDING AFFINITY PREDICTED BY RF-SCORE:    0.00 PKD
ROOT
HETATM    1  C   UNL     1     -12.192  13.740  66.648  1.00  0.00    -0.409 C  
HETATM    2  O   UNL     1     -12.141  12.479  67.325  1.00  0.00    -0.490 OA 
ENDROOT
BRANCH   2   3
HETATM    3  C   UNL     1     -11.365  12.511  68.439  1.00  0.00    -0.291 C  
HETATM    4  O   UNL     1     -10.498  13.343  68.662  1.00  0.00    -0.243 OA 
BRANCH   3   5
HETATM    5  C   UNL     1     -11.669  11.371  69.341  1.00  0.00    -0.406 C  
HETATM    6  C   UNL     1     -12.248  11.589  70.547  1.00  0.00    -0.377 C  
HETATM    7  C   UNL     1     -12.742  12.912  71.080  1.00  0.00    -0.366 C  
HETATM    8  N   UNL     1     -12.409  10.534  71.428  1.00  0.00    -0.376 NA 
HETATM    9  C   UNL     1     -11.862   9.276  71.265  1.00  0.00    -0.343 C  
HETATM   10  C   UNL     1     -11.257   8.951  70.097  1.00  0.00    -0.175 C  
HETATM   11  C   UNL     1     -12.029   8.342  72.442  1.00  0.00    -0.451 C  
HETATM   12  C   UNL     1     -11.210   9.960  68.934  1.00  0.00    -0.126 C  
BRANCH  10  13
HETATM   13  C   UNL     1     -10.728   7.571  69.898  1.00  0.00    -0.246 C  
HETATM   14  O   UNL     1     -11.183   6.742  69.124  1.00  0.00    -0.236 OA 
BRANCH  13  15
HETATM   15  O   UNL     1      -9.545   7.446  70.546  1.00  0.00    -0.172 OA 
BRANCH  15  16
HETATM   16  C   UNL     1      -9.337   6.141  71.112  1.00  0.00    -0.164 C  
BRANCH  16  17
HETATM   17  C   UNL     1      -7.829   5.871  71.000  1.00  0.00    -0.110 C  
BRANCH  17  18
HETATM   18  N   UNL     1      -7.104   6.551  69.919  1.00  0.00    -0.066 NA 
HETATM   19  C   UNL     1      -5.865   7.149  70.426  1.00  0.00    -0.024 C  
BRANCH  18  20
HETATM   20  C   UNL     1      -6.783   5.581  68.845  1.00  0.00    -0.053 C  
BRANCH  20  21
HETATM   21  C   UNL     1      -7.919   5.385  67.858  1.00  0.00    -0.096 A  
HETATM   22  C   UNL     1      -8.350   6.450  67.054  1.00  0.00    -0.112 A  
HETATM   23  C   UNL     1      -9.452   6.306  66.212  1.00  0.00    -0.135 A  
HETATM   24  C   UNL     1     -10.132   5.091  66.157  1.00  0.00    -0.262 A  
HETATM   25  C   UNL     1      -9.704   4.016  66.934  1.00  0.00    -0.215 A  
HETATM   26  C   UNL     1      -8.601   4.159  67.780  1.00  0.00    -0.109 A  
ENDBRANCH  20  21
ENDBRANCH  18  20
ENDBRANCH  17  18
ENDBRANCH  16  17
ENDBRANCH  15  16
ENDBRANCH  13  15
ENDBRANCH  10  13
BRANCH  12  27
HETATM   27  C   UNL     1      -9.832   9.989  68.266  1.00  0.00    -0.163 A  
HETATM   28  C   UNL     1      -7.417  10.174  68.419  1.00  0.00    -0.086 A  
HETATM   29  O   UNL     1      -9.400   9.739  64.139  1.00  0.00    -0.266 OA 
HETATM   30  C   UNL     1      -9.725   9.928  66.862  1.00  0.00    -0.236 A  
HETATM   31  O   UNL     1      -7.224   9.957  64.292  1.00  0.00    -0.125 OA 
HETATM   32  C   UNL     1      -8.467   9.980  66.251  1.00  0.00    -0.130 A  
HETATM   33  C   UNL     1      -8.665  10.097  69.034  1.00  0.00    -0.161 A  
HETATM   34  C   UNL     1      -7.311  10.120  67.027  1.00  0.00    -0.091 A  
HETATM   35  N   UNL     1      -8.356   9.885  64.791  1.00  0.00    -0.150 N  
ENDBRANCH  12  27
ENDBRANCH   3   5
ENDBRANCH   2   3
TORSDOF 10
ENDMDL
MODEL       93
REMARK 921   NORMALIZED FREE ENERGY PREDICTED BY IDOCK:   -5.48 KCAL/MOL
REMARK 922        TOTAL FREE ENERGY PREDICTED BY IDOCK:  -10.20 KCAL/MOL
REMARK 923 INTER-LIGAND FREE ENERGY PREDICTED BY IDOCK:   -7.16 KCAL/MOL
REMARK 924 INTRA-LIGAND FREE ENERGY PREDICTED BY IDOCK:   -3.04 KCAL/MOL
REMARK 927      BINDING AFFINITY PREDICTED BY RF-SCORE:    0.00 PKD
ROOT
HETATM    1  C   UNL     1     -10.657  15.449  69.992  1.00  0.00    -0.303 C  
HETATM    2  O   UNL     1     -10.583  14.331  69.101  1.00  0.00    -0.236 OA 
ENDROOT
BRANCH   2   3
HETATM    3  C   UNL     1      -9.403  14.268  68.432  1.00  0.00    -0.208 C  
HETATM    4  O   UNL     1      -8.331  14.655  68.871  1.00  0.00    -0.162 OA 
BRANCH   3   5
HETATM    5  C   UNL     1      -9.587  13.712  67.067  1.00  0.00    -0.251 C  
HETATM    6  C   UNL     1     -10.243  14.425  66.121  1.00  0.00    -0.306 C  
HETATM    7  C   UNL     1     -10.756  15.838  66.255  1.00  0.00    -0.282 C  
HETATM    8  N   UNL     1     -10.518  13.844  64.895  1.00  0.00    -0.410 NA 
HETATM    9  C   UNL     1     -10.337  12.507  64.594  1.00  0.00    -0.317 C  
HETATM   10  C   UNL     1      -9.694  11.701  65.472  1.00  0.00    -0.259 C  
HETATM   11  C   UNL     1     -10.871  12.071  63.249  1.00  0.00    -0.400 C  
HETATM   12  C   UNL     1      -9.125  12.271  66.785  1.00  0.00    -0.211 C  
BRANCH  10  13
HETATM   13  C   UNL     1      -9.439  10.275  65.116  1.00  0.00    -0.252 C  
HETATM   14  O   UNL     1     -10.266   9.376  65.153  1.00  0.00     0.164 OA 
BRANCH  13  15
HETATM   15  O   UNL     1      -8.215  10.167  64.545  1.00  0.00    -0.153 OA 
BRANCH  15  16
HETATM   16  C   UNL     1      -7.272   9.437  65.347  1.00  0.00    -0.092 C  
BRANCH  16  17
HETATM   17  C   UNL     1      -7.130   8.061  64.679  1.00  0.00    -0.076 C  
BRANCH  17  18
HETATM   18  N   UNL     1      -7.367   6.880  65.519  1.00  0.00    -0.076 NA 
HETATM   19  C   UNL     1      -6.320   5.876  65.303  1.00  0.00    -0.038 C  
BRANCH  18  20
HETATM   20  C   UNL     1      -7.385   7.279  66.948  1.00  0.00    -0.092 C  
BRANCH  20  21
HETATM   21  C   UNL     1      -8.640   6.834  67.676  1.00  0.00    -0.121 A  
HETATM   22  C   UNL     1      -9.891   6.920  67.049  1.00  0.00    -0.228 A  
HETATM   23  C   UNL     1     -11.058   6.602  67.741  1.00  0.00    -0.332 A  
HETATM   24  C   UNL     1     -10.988   6.184  69.069  1.00  0.00    -0.436 A  
HETATM   25  C   UNL     1      -9.751   6.074  69.701  1.00  0.00    -0.188 A  
HETATM   26  C   UNL     1      -8.579   6.394  69.009  1.00  0.00    -0.124 A  
ENDBRANCH  20  21
ENDBRANCH  18  20
ENDBRANCH  17  18
ENDBRANCH  16  17
ENDBRANCH  15  16
ENDBRANCH  13  15
ENDBRANCH  10  13
BRANCH  12  27
HETATM   27  C   UNL     1      -9.409  11.348  67.974  1.00  0.00    -0.171 A  
HETATM   28  C   UNL     1     -10.978  10.143  69.380  1.00  0.00    -0.285 A  
HETATM   29  O   UNL     1      -6.362   9.941  70.426  1.00  0.00    -0.080 OA 
HETATM   30  C   UNL     1      -8.354  10.911  68.799  1.00  0.00    -0.151 A  
HETATM   31  O   UNL     1      -7.797   8.899  71.716  1.00  0.00    -0.299 OA 
HETATM   32  C   UNL     1      -8.619  10.088  69.899  1.00  0.00    -0.146 A  
HETATM   33  C   UNL     1     -10.718  10.942  68.269  1.00  0.00    -0.244 A  
HETATM   34  C   UNL     1      -9.933   9.715  70.202  1.00  0.00    -0.309 A  
HETATM   35  N   UNL     1      -7.514   9.609  70.740  1.00  0.00    -0.087 N  
ENDBRANCH  12  27
ENDBRANCH   3   5
ENDBRANCH   2   3
TORSDOF 10
ENDMDL
MODEL       94
REMARK 921   NORMALIZED FREE ENERGY PREDICTED BY IDOCK:   -5.48 KCAL/MOL
REMARK 922        TOTAL FREE ENERGY PREDICTED BY IDOCK:  -10.19 KCAL/MOL
REMARK 923 INTER-LIGAND FREE ENERGY PREDICTED BY IDOCK:   -8.72 KCAL/MOL
REMARK 924 INTRA-LIGAND FREE ENERGY PREDICTED BY IDOCK:   -1.48 KCAL/MOL
REMARK 927      BINDING AFFINITY PREDICTED BY RF-SCORE:    0.00 PKD
ROOT
HETATM    1  C   UNL     1     -11.265   6.324  70.273  1.00  0.00    -0.388 C  
HETATM    2  O   UNL     1     -11.780   7.577  70.737  1.00  0.00    -0.291 OA 
ENDROOT
BRANCH   2   3
HETATM    3  C   UNL     1     -10.807   8.418  71.171  1.00  0.00    -0.237 C  
HETATM    4  O   UNL     1      -9.918   8.113  71.952  1.00  0.00    -0.180 OA 
BRANCH   3   5
HETATM    5  C   UNL     1     -10.985   9.783  70.613  1.00  0.00    -0.398 C  
HETATM    6  C   UNL     1     -12.063  10.527  70.958  1.00  0.00    -0.387 C  
HETATM    7  C   UNL     1     -13.119  10.162  71.975  1.00  0.00    -0.538 C  
HETATM    8  N   UNL     1     -12.283  11.742  70.334  1.00  0.00    -0.348 NA 
HETATM    9  C   UNL     1     -11.585  12.206  69.236  1.00  0.00    -0.318 C  
HETATM   10  C   UNL     1     -10.490  11.536  68.803  1.00  0.00    -0.227 C  
HETATM   11  C   UNL     1     -12.119  13.480  68.622  1.00  0.00    -0.303 C  
HETATM   12  C   UNL     1      -9.992  10.286  69.551  1.00  0.00    -0.252 C  
BRANCH  10  13
HETATM   13  C   UNL     1      -9.698  12.076  67.660  1.00  0.00    -0.187 C  
HETATM   14  O   UNL     1     -10.051  12.077  66.490  1.00  0.00    -0.197 OA 
BRANCH  13  15
HETATM   15  O   UNL     1      -8.626  12.753  68.137  1.00  0.00    -0.174 OA 
BRANCH  15  16
HETATM   16  C   UNL     1      -8.406  14.013  67.480  1.00  0.00    -0.192 C  
BRANCH  16  17
HETATM   17  C   UNL     1      -8.869  15.090  68.474  1.00  0.00    -0.181 C  
BRANCH  17  18
HETATM   18  N   UNL     1      -9.081  16.444  67.945  1.00  0.00    -0.200 NA 
HETATM   19  C   UNL     1     -10.481  16.846  68.106  1.00  0.00    -0.350 C  
BRANCH  18  20
HETATM   20  C   UNL     1      -8.203  17.402  68.661  1.00  0.00    -0.264 C  
BRANCH  20  21
HETATM   21  C   UNL     1      -7.591  18.448  67.747  1.00  0.00    -0.238 A  
HETATM   22  C   UNL     1      -7.446  19.773  68.185  1.00  0.00    -0.343 A  
HETATM   23  C   UNL     1      -6.971  20.759  67.322  1.00  0.00    -0.414 A  
HETATM   24  C   UNL     1      -6.626  20.432  66.012  1.00  0.00    -0.257 A  
HETATM   25  C   UNL     1      -6.745  19.116  65.568  1.00  0.00    -0.300 A  
HETATM   26  C   UNL     1      -7.223  18.126  66.430  1.00  0.00    -0.282 A  
ENDBRANCH  20  21
ENDBRANCH  18  20
ENDBRANCH  17  18
ENDBRANCH  16  17
ENDBRANCH  15  16
ENDBRANCH  13  15
ENDBRANCH  10  13
BRANCH  12  27
HETATM   27  C   UNL     1      -9.591   9.168  68.583  1.00  0.00    -0.157 A  
HETATM   28  C   UNL     1     -10.123   7.689  66.734  1.00  0.00    -0.325 A  
HETATM   29  O   UNL     1      -5.880   7.309  68.806  1.00  0.00    -0.021 OA 
HETATM   30  C   UNL     1      -8.334   8.543  68.705  1.00  0.00    -0.123 A  
HETATM   31  O   UNL     1      -6.396   5.947  67.167  1.00  0.00    -0.035 OA 
HETATM   32  C   UNL     1      -7.980   7.506  67.835  1.00  0.00    -0.119 A  
HETATM   33  C   UNL     1     -10.472   8.740  67.581  1.00  0.00    -0.310 A  
HETATM   34  C   UNL     1      -8.880   7.065  66.859  1.00  0.00    -0.127 A  
HETATM   35  N   UNL     1      -6.658   6.876  67.944  1.00  0.00    -0.056 N  
ENDBRANCH  12  27
ENDBRANCH   3   5
ENDBRANCH   2   3
TORSDOF 10
ENDMDL
MODEL       95
REMARK 921   NORMALIZED FREE ENERGY PREDICTED BY IDOCK:   -5.47 KCAL/MOL
REMARK 922        TOTAL FREE ENERGY PREDICTED BY IDOCK:  -10.19 KCAL/MOL
REMARK 923 INTER-LIGAND FREE ENERGY PREDICTED BY IDOCK:   -7.19 KCAL/MOL
REMARK 924 INTRA-LIGAND FREE ENERGY PREDICTED BY IDOCK:   -3.00 KCAL/MOL
REMARK 927      BINDING AFFINITY PREDICTED BY RF-SCORE:    0.00 PKD
ROOT
HETATM    1  C   UNL     1     -12.668  11.923  71.006  1.00  0.00    -0.258 C  
HETATM    2  O   UNL     1     -11.500  11.896  70.179  1.00  0.00    -0.210 OA 
ENDROOT
BRANCH   2   3
HETATM    3  C   UNL     1     -11.512  10.874  69.284  1.00  0.00    -0.302 C  
HETATM    4  O   UNL     1     -12.521  10.355  68.831  1.00  0.00    -0.053 OA 
BRANCH   3   5
HETATM    5  C   UNL     1     -10.134  10.428  68.956  1.00  0.00    -0.227 C  
HETATM    6  C   UNL     1      -9.383   9.790  69.886  1.00  0.00    -0.231 C  
HETATM    7  C   UNL     1      -9.831   9.361  71.263  1.00  0.00    -0.245 C  
HETATM    8  N   UNL     1      -8.059   9.494  69.610  1.00  0.00    -0.113 NA 
HETATM    9  C   UNL     1      -7.357   9.955  68.513  1.00  0.00    -0.078 C  
HETATM   10  C   UNL     1      -8.010  10.610  67.522  1.00  0.00    -0.110 C  
HETATM   11  C   UNL     1      -5.878   9.644  68.516  1.00  0.00    -0.040 C  
HETATM   12  C   UNL     1      -9.536  10.807  67.590  1.00  0.00    -0.174 C  
BRANCH  10  13
HETATM   13  C   UNL     1      -7.263  11.046  66.308  1.00  0.00    -0.095 C  
HETATM   14  O   UNL     1      -6.304  11.804  66.298  1.00  0.00     0.001 OA 
BRANCH  13  15
HETATM   15  O   UNL     1      -7.671  10.314  65.243  1.00  0.00    -0.141 OA 
BRANCH  15  16
HETATM   16  C   UNL     1      -6.717   9.321  64.831  1.00  0.00    -0.079 C  
BRANCH  16  17
HETATM   17  C   UNL     1      -7.543   8.153  64.271  1.00  0.00    -0.116 C  
BRANCH  17  18
HETATM   18  N   UNL     1      -7.452   6.868  64.977  1.00  0.00    -0.089 NA 
HETATM   19  C   UNL     1      -6.266   6.124  64.541  1.00  0.00    -0.030 C  
BRANCH  18  20
HETATM   20  C   UNL     1      -7.380   7.105  66.439  1.00  0.00    -0.079 C  
BRANCH  20  21
HETATM   21  C   UNL     1      -8.687   6.817  67.156  1.00  0.00    -0.119 A  
HETATM   22  C   UNL     1      -9.908   7.208  66.587  1.00  0.00    -0.237 A  
HETATM   23  C   UNL     1     -11.104   7.032  67.279  1.00  0.00    -0.302 A  
HETATM   24  C   UNL     1     -11.097   6.452  68.547  1.00  0.00    -0.385 A  
HETATM   25  C   UNL     1      -9.894   6.040  69.118  1.00  0.00    -0.185 A  
HETATM   26  C   UNL     1      -8.693   6.217  68.426  1.00  0.00    -0.116 A  
ENDBRANCH  20  21
ENDBRANCH  18  20
ENDBRANCH  17  18
ENDBRANCH  16  17
ENDBRANCH  15  16
ENDBRANCH  13  15
ENDBRANCH  10  13
BRANCH  12  27
HETATM   27  C   UNL     1      -9.943  12.224  67.173  1.00  0.00    -0.213 A  
HETATM   28  C   UNL     1      -9.809  14.630  67.468  1.00  0.00    -0.218 A  
HETATM   29  O   UNL     1     -12.665  12.903  64.106  1.00  0.00    -0.653 OA 
HETATM   30  C   UNL     1     -10.888  12.415  66.145  1.00  0.00    -0.308 A  
HETATM   31  O   UNL     1     -12.570  15.071  64.419  1.00  0.00    -0.546 OA 
HETATM   32  C   UNL     1     -11.277  13.710  65.783  1.00  0.00    -0.295 A  
HETATM   33  C   UNL     1      -9.399  13.344  67.817  1.00  0.00    -0.211 A  
HETATM   34  C   UNL     1     -10.751  14.819  66.454  1.00  0.00    -0.313 A  
HETATM   35  N   UNL     1     -12.239  13.908  64.692  1.00  0.00    -0.418 N  
ENDBRANCH  12  27
ENDBRANCH   3   5
ENDBRANCH   2   3
TORSDOF 10
ENDMDL
MODEL       96
REMARK 921   NORMALIZED FREE ENERGY PREDICTED BY IDOCK:   -5.46 KCAL/MOL
REMARK 922        TOTAL FREE ENERGY PREDICTED BY IDOCK:  -10.18 KCAL/MOL
REMARK 923 INTER-LIGAND FREE ENERGY PREDICTED BY IDOCK:   -8.85 KCAL/MOL
REMARK 924 INTRA-LIGAND FREE ENERGY PREDICTED BY IDOCK:   -1.33 KCAL/MOL
REMARK 927      BINDING AFFINITY PREDICTED BY RF-SCORE:    0.00 PKD
ROOT
HETATM    1  C   UNL     1     -11.772  10.517  69.506  1.00  0.00    -0.241 C  
HETATM    2  O   UNL     1     -12.259  11.524  68.611  1.00  0.00    -0.492 OA 
ENDROOT
BRANCH   2   3
HETATM    3  C   UNL     1     -11.564  11.573  67.446  1.00  0.00    -0.228 C  
HETATM    4  O   UNL     1     -11.519  10.672  66.622  1.00  0.00    -0.104 OA 
BRANCH   3   5
HETATM    5  C   UNL     1     -10.818  12.851  67.317  1.00  0.00    -0.277 C  
HETATM    6  C   UNL     1     -11.299  13.848  66.537  1.00  0.00    -0.331 C  
HETATM    7  C   UNL     1     -12.627  13.864  65.818  1.00  0.00    -0.533 C  
HETATM    8  N   UNL     1     -10.534  14.981  66.324  1.00  0.00    -0.294 NA 
HETATM    9  C   UNL     1      -9.211  15.124  66.699  1.00  0.00    -0.270 C  
HETATM   10  C   UNL     1      -8.627  14.182  67.478  1.00  0.00    -0.196 C  
HETATM   11  C   UNL     1      -8.534  16.382  66.206  1.00  0.00    -0.372 C  
HETATM   12  C   UNL     1      -9.437  12.974  67.985  1.00  0.00    -0.217 C  
BRANCH  10  13
HETATM   13  C   UNL     1      -7.221  14.373  67.938  1.00  0.00    -0.160 C  
HETATM   14  O   UNL     1      -6.228  14.311  67.228  1.00  0.00    -0.301 OA 
BRANCH  13  15
HETATM   15  O   UNL     1      -7.224  14.831  69.213  1.00  0.00    -0.147 OA 
BRANCH  15  16
HETATM   16  C   UNL     1      -6.275  15.885  69.445  1.00  0.00    -0.153 C  
BRANCH  16  17
HETATM   17  C   UNL     1      -7.036  17.197  69.197  1.00  0.00    -0.224 C  
BRANCH  17  18
HETATM   18  N   UNL     1      -6.242  18.431  69.129  1.00  0.00    -0.231 NA 
HETATM   19  C   UNL     1      -5.576  18.543  67.828  1.00  0.00    -0.163 C  
BRANCH  18  20
HETATM   20  C   UNL     1      -7.125  19.605  69.338  1.00  0.00    -0.291 C  
BRANCH  20  21
HETATM   21  C   UNL     1      -8.319  19.628  68.401  1.00  0.00    -0.346 A  
HETATM   22  C   UNL     1      -9.541  19.065  68.798  1.00  0.00    -0.451 A  
HETATM   23  C   UNL     1     -10.615  18.999  67.912  1.00  0.00    -0.441 A  
HETATM   24  C   UNL     1     -10.484  19.504  66.619  1.00  0.00    -0.593 A  
HETATM   25  C   UNL     1      -9.283  20.085  66.217  1.00  0.00    -0.426 A  
HETATM   26  C   UNL     1      -8.204  20.151  67.103  1.00  0.00    -0.378 A  
ENDBRANCH  20  21
ENDBRANCH  18  20
ENDBRANCH  17  18
ENDBRANCH  16  17
ENDBRANCH  15  16
ENDBRANCH  13  15
ENDBRANCH  10  13
BRANCH  12  27
HETATM   27  C   UNL     1      -8.640  11.671  67.873  1.00  0.00    -0.150 A  
HETATM   28  C   UNL     1      -7.506   9.796  68.917  1.00  0.00    -0.075 A  
HETATM   29  O   UNL     1      -7.497  10.118  64.190  1.00  0.00    -0.137 OA 
HETATM   30  C   UNL     1      -8.248  11.188  66.608  1.00  0.00    -0.158 A  
HETATM   31  O   UNL     1      -6.435   8.458  65.151  1.00  0.00    -0.055 OA 
HETATM   32  C   UNL     1      -7.498  10.011  66.510  1.00  0.00    -0.105 A  
HETATM   33  C   UNL     1      -8.273  10.955  69.020  1.00  0.00    -0.126 A  
HETATM   34  C   UNL     1      -7.111   9.321  67.664  1.00  0.00    -0.082 A  
HETATM   35  N   UNL     1      -7.117   9.492  65.190  1.00  0.00    -0.100 N  
ENDBRANCH  12  27
ENDBRANCH   3   5
ENDBRANCH   2   3
TORSDOF 10
ENDMDL
MODEL       97
REMARK 921   NORMALIZED FREE ENERGY PREDICTED BY IDOCK:   -5.43 KCAL/MOL
REMARK 922        TOTAL FREE ENERGY PREDICTED BY IDOCK:  -10.12 KCAL/MOL
REMARK 923 INTER-LIGAND FREE ENERGY PREDICTED BY IDOCK:   -7.56 KCAL/MOL
REMARK 924 INTRA-LIGAND FREE ENERGY PREDICTED BY IDOCK:   -2.56 KCAL/MOL
REMARK 927      BINDING AFFINITY PREDICTED BY RF-SCORE:    0.00 PKD
ROOT
HETATM    1  C   UNL     1      -5.744   6.870  66.562  1.00  0.00    -0.022 C  
HETATM    2  O   UNL     1      -6.716   6.002  67.153  1.00  0.00    -0.057 OA 
ENDROOT
BRANCH   2   3
HETATM    3  C   UNL     1      -7.985   6.287  66.763  1.00  0.00    -0.108 C  
HETATM    4  O   UNL     1      -8.331   6.488  65.609  1.00  0.00    -0.135 OA 
BRANCH   3   5
HETATM    5  C   UNL     1      -8.901   6.374  67.929  1.00  0.00    -0.113 C  
HETATM    6  C   UNL     1      -9.830   5.412  68.142  1.00  0.00    -0.145 C  
HETATM    7  C   UNL     1      -9.998   4.135  67.353  1.00  0.00    -0.076 C  
HETATM    8  N   UNL     1     -10.759   5.570  69.156  1.00  0.00    -0.237 NA 
HETATM    9  C   UNL     1     -10.946   6.730  69.883  1.00  0.00    -0.291 C  
HETATM   10  C   UNL     1     -10.076   7.759  69.746  1.00  0.00    -0.194 C  
HETATM   11  C   UNL     1     -12.135   6.720  70.817  1.00  0.00    -0.402 C  
HETATM   12  C   UNL     1      -8.854   7.630  68.817  1.00  0.00    -0.131 C  
BRANCH  10  13
HETATM   13  C   UNL     1     -10.241   8.982  70.582  1.00  0.00    -0.229 C  
HETATM   14  O   UNL     1      -9.486   9.340  71.474  1.00  0.00    -0.266 OA 
BRANCH  13  15
HETATM   15  O   UNL     1     -11.234   9.747  70.067  1.00  0.00    -0.242 OA 
BRANCH  15  16
HETATM   16  C   UNL     1     -10.828  11.098  69.785  1.00  0.00    -0.090 C  
BRANCH  16  17
HETATM   17  C   UNL     1     -12.062  11.971  70.061  1.00  0.00    -0.280 C  
BRANCH  17  18
HETATM   18  N   UNL     1     -12.178  13.225  69.306  1.00  0.00    -0.223 NA 
HETATM   19  C   UNL     1     -12.395  14.355  70.214  1.00  0.00    -0.348 C  
BRANCH  18  20
HETATM   20  C   UNL     1     -10.941  13.451  68.519  1.00  0.00    -0.268 C  
BRANCH  20  21
HETATM   21  C   UNL     1     -11.192  13.542  67.025  1.00  0.00    -0.330 A  
HETATM   22  C   UNL     1     -12.152  12.719  66.417  1.00  0.00    -0.370 A  
HETATM   23  C   UNL     1     -12.324  12.729  65.034  1.00  0.00    -0.559 A  
HETATM   24  C   UNL     1     -11.544  13.569  64.240  1.00  0.00    -0.433 A  
HETATM   25  C   UNL     1     -10.599  14.407  64.831  1.00  0.00    -0.456 A  
HETATM   26  C   UNL     1     -10.424  14.398  66.217  1.00  0.00    -0.292 A  
ENDBRANCH  20  21
ENDBRANCH  18  20
ENDBRANCH  17  18
ENDBRANCH  16  17
ENDBRANCH  15  16
ENDBRANCH  13  15
ENDBRANCH  10  13
BRANCH  12  27
HETATM   27  C   UNL     1      -8.639   8.899  67.985  1.00  0.00    -0.130 A  
HETATM   28  C   UNL     1      -9.338  10.400  66.211  1.00  0.00    -0.202 A  
HETATM   29  O   UNL     1      -5.337  11.356  68.561  1.00  0.00    -0.043 OA 
HETATM   30  C   UNL     1      -7.494   9.694  68.191  1.00  0.00    -0.082 A  
HETATM   31  O   UNL     1      -5.956  12.675  66.922  1.00  0.00    -0.262 OA 
HETATM   32  C   UNL     1      -7.287  10.838  67.413  1.00  0.00    -0.094 A  
HETATM   33  C   UNL     1      -9.562   9.273  67.000  1.00  0.00    -0.223 A  
HETATM   34  C   UNL     1      -8.199  11.185  66.410  1.00  0.00    -0.164 A  
HETATM   35  N   UNL     1      -6.110  11.683  67.649  1.00  0.00    -0.060 N  
ENDBRANCH  12  27
ENDBRANCH   3   5
ENDBRANCH   2   3
TORSDOF 10
ENDMDL
MODEL       98
REMARK 921   NORMALIZED FREE ENERGY PREDICTED BY IDOCK:   -5.41 KCAL/MOL
REMARK 922        TOTAL FREE ENERGY PREDICTED BY IDOCK:  -10.08 KCAL/MOL
REMARK 923 INTER-LIGAND FREE ENERGY PREDICTED BY IDOCK:   -8.73 KCAL/MOL
REMARK 924 INTRA-LIGAND FREE ENERGY PREDICTED BY IDOCK:   -1.35 KCAL/MOL
REMARK 927      BINDING AFFINITY PREDICTED BY RF-SCORE:    0.00 PKD
ROOT
HETATM    1  C   UNL     1      -8.505   5.535  71.248  1.00  0.00    -0.127 C  
HETATM    2  O   UNL     1      -9.269   6.652  71.715  1.00  0.00    -0.149 OA 
ENDROOT
BRANCH   2   3
HETATM    3  C   UNL     1     -10.417   6.835  71.014  1.00  0.00    -0.212 C  
HETATM    4  O   UNL     1     -11.186   5.943  70.689  1.00  0.00    -0.294 OA 
BRANCH   3   5
HETATM    5  C   UNL     1     -10.603   8.262  70.645  1.00  0.00    -0.235 C  
HETATM    6  C   UNL     1     -11.510   9.025  71.300  1.00  0.00    -0.320 C  
HETATM    7  C   UNL     1     -12.337   8.612  72.494  1.00  0.00    -0.378 C  
HETATM    8  N   UNL     1     -11.763  10.314  70.863  1.00  0.00    -0.360 NA 
HETATM    9  C   UNL     1     -11.293  10.855  69.681  1.00  0.00    -0.292 C  
HETATM   10  C   UNL     1     -10.383  10.174  68.944  1.00  0.00    -0.223 C  
HETATM   11  C   UNL     1     -11.844  12.219  69.333  1.00  0.00    -0.370 C  
HETATM   12  C   UNL     1      -9.835   8.821  69.434  1.00  0.00    -0.186 C  
BRANCH  10  13
HETATM   13  C   UNL     1      -9.827  10.790  67.705  1.00  0.00    -0.166 C  
HETATM   14  O   UNL     1      -8.639  10.950  67.463  1.00  0.00    -0.126 OA 
BRANCH  13  15
HETATM   15  O   UNL     1     -10.821  10.953  66.800  1.00  0.00    -0.261 OA 
BRANCH  15  16
HETATM   16  C   UNL     1     -10.373  10.873  65.436  1.00  0.00    -0.261 C  
BRANCH  16  17
HETATM   17  C   UNL     1     -10.203  12.325  64.965  1.00  0.00    -0.285 C  
BRANCH  17  18
HETATM   18  N   UNL     1     -11.300  12.911  64.184  1.00  0.00    -0.370 NA 
HETATM   19  C   UNL     1     -12.045  11.864  63.479  1.00  0.00    -0.470 C  
BRANCH  18  20
HETATM   20  C   UNL     1     -12.216  13.651  65.086  1.00  0.00    -0.433 C  
BRANCH  20  21
HETATM   21  C   UNL     1     -11.532  14.780  65.836  1.00  0.00    -0.319 A  
HETATM   22  C   UNL     1     -11.658  14.882  67.229  1.00  0.00    -0.337 A  
HETATM   23  C   UNL     1     -11.112  15.965  67.915  1.00  0.00    -0.317 A  
HETATM   24  C   UNL     1     -10.425  16.957  67.218  1.00  0.00    -0.301 A  
HETATM   25  C   UNL     1     -10.274  16.860  65.835  1.00  0.00    -0.330 A  
HETATM   26  C   UNL     1     -10.822  15.775  65.145  1.00  0.00    -0.444 A  
ENDBRANCH  20  21
ENDBRANCH  18  20
ENDBRANCH  17  18
ENDBRANCH  16  17
ENDBRANCH  15  16
ENDBRANCH  13  15
ENDBRANCH  10  13
BRANCH  12  27
HETATM   27  C   UNL     1      -9.757   7.797  68.297  1.00  0.00    -0.169 A  
HETATM   28  C   UNL     1     -10.843   6.439  66.604  1.00  0.00    -0.252 A  
HETATM   29  O   UNL     1      -6.149   6.086  67.142  1.00  0.00    -0.020 OA 
HETATM   30  C   UNL     1      -8.519   7.219  67.950  1.00  0.00    -0.118 A  
HETATM   31  O   UNL     1      -7.152   4.830  65.651  1.00  0.00    -0.062 OA 
HETATM   32  C   UNL     1      -8.454   6.265  66.928  1.00  0.00    -0.109 A  
HETATM   33  C   UNL     1     -10.910   7.407  67.604  1.00  0.00    -0.220 A  
HETATM   34  C   UNL     1      -9.617   5.860  66.264  1.00  0.00    -0.148 A  
HETATM   35  N   UNL     1      -7.160   5.686  66.547  1.00  0.00    -0.071 N  
ENDBRANCH  12  27
ENDBRANCH   3   5
ENDBRANCH   2   3
TORSDOF 10
ENDMDL
MODEL       99
REMARK 921   NORMALIZED FREE ENERGY PREDICTED BY IDOCK:   -5.40 KCAL/MOL
REMARK 922        TOTAL FREE ENERGY PREDICTED BY IDOCK:  -10.08 KCAL/MOL
REMARK 923 INTER-LIGAND FREE ENERGY PREDICTED BY IDOCK:   -9.67 KCAL/MOL
REMARK 924 INTRA-LIGAND FREE ENERGY PREDICTED BY IDOCK:   -0.40 KCAL/MOL
REMARK 927      BINDING AFFINITY PREDICTED BY RF-SCORE:    0.00 PKD
ROOT
HETATM    1  C   UNL     1     -10.859  17.688  68.204  1.00  0.00    -0.216 C  
HETATM    2  O   UNL     1     -10.283  18.176  66.987  1.00  0.00    -0.332 OA 
ENDROOT
BRANCH   2   3
HETATM    3  C   UNL     1      -9.966  17.181  66.118  1.00  0.00    -0.281 C  
HETATM    4  O   UNL     1     -10.443  17.052  65.001  1.00  0.00    -0.660 OA 
BRANCH   3   5
HETATM    5  C   UNL     1      -8.995  16.230  66.718  1.00  0.00    -0.259 C  
HETATM    6  C   UNL     1      -7.666  16.478  66.651  1.00  0.00    -0.283 C  
HETATM    7  C   UNL     1      -7.010  17.721  66.097  1.00  0.00    -0.338 C  
HETATM    8  N   UNL     1      -6.769  15.524  67.099  1.00  0.00    -0.278 NA 
HETATM    9  C   UNL     1      -7.101  14.233  67.460  1.00  0.00    -0.167 C  
HETATM   10  C   UNL     1      -8.404  13.875  67.556  1.00  0.00    -0.202 C  
HETATM   11  C   UNL     1      -5.930  13.322  67.750  1.00  0.00    -0.145 C  
HETATM   12  C   UNL     1      -9.519  14.909  67.308  1.00  0.00    -0.216 C  
BRANCH  10  13
HETATM   13  C   UNL     1      -8.761  12.501  68.011  1.00  0.00    -0.186 C  
HETATM   14  O   UNL     1      -8.208  11.470  67.659  1.00  0.00    -0.122 OA 
BRANCH  13  15
HETATM   15  O   UNL     1      -9.649  12.583  69.032  1.00  0.00     0.139 OA 
BRANCH  15  16
HETATM   16  C   UNL     1     -10.906  11.944  68.751  1.00  0.00    -0.231 C  
BRANCH  16  17
HETATM   17  C   UNL     1     -11.917  12.560  69.731  1.00  0.00    -0.289 C  
BRANCH  17  18
HETATM   18  N   UNL     1     -12.164  11.834  70.984  1.00  0.00    -0.281 NA 
HETATM   19  C   UNL     1     -13.189  12.515  71.780  1.00  0.00    -0.344 C  
BRANCH  18  20
HETATM   20  C   UNL     1     -12.609  10.452  70.680  1.00  0.00    -0.348 C  
BRANCH  20  21
HETATM   21  C   UNL     1     -11.809   9.392  71.416  1.00  0.00    -0.447 A  
HETATM   22  C   UNL     1     -12.449   8.507  72.296  1.00  0.00    -0.448 A  
HETATM   23  C   UNL     1     -11.712   7.592  73.046  1.00  0.00    -0.046 A  
HETATM   24  C   UNL     1     -10.325   7.544  72.919  1.00  0.00    -0.349 A  
HETATM   25  C   UNL     1      -9.676   8.404  72.035  1.00  0.00    -0.353 A  
HETATM   26  C   UNL     1     -10.413   9.323  71.283  1.00  0.00    -0.408 A  
ENDBRANCH  20  21
ENDBRANCH  18  20
ENDBRANCH  17  18
ENDBRANCH  16  17
ENDBRANCH  15  16
ENDBRANCH  13  15
ENDBRANCH  10  13
BRANCH  12  27
HETATM   27  C   UNL     1     -10.654  14.326  66.461  1.00  0.00    -0.286 A  
HETATM   28  C   UNL     1     -13.021  13.958  66.073  1.00  0.00    -0.139 A  
HETATM   29  O   UNL     1      -9.899  12.102  63.031  1.00  0.00    -0.365 OA 
HETATM   30  C   UNL     1     -10.360  13.555  65.318  1.00  0.00    -0.344 A  
HETATM   31  O   UNL     1     -12.039  11.736  62.723  1.00  0.00     0.123 OA 
HETATM   32  C   UNL     1     -11.397  13.002  64.560  1.00  0.00    -0.339 A  
HETATM   33  C   UNL     1     -11.993  14.532  66.818  1.00  0.00    -0.364 A  
HETATM   34  C   UNL     1     -12.730  13.188  64.944  1.00  0.00    -0.421 A  
HETATM   35  N   UNL     1     -11.090  12.225  63.353  1.00  0.00    -0.446 N  
ENDBRANCH  12  27
ENDBRANCH   3   5
ENDBRANCH   2   3
TORSDOF 10
ENDMDL
MODEL      100
REMARK 921   NORMALIZED FREE ENERGY PREDICTED BY IDOCK:   -5.38 KCAL/MOL
REMARK 922        TOTAL FREE ENERGY PREDICTED BY IDOCK:  -10.05 KCAL/MOL
REMARK 923 INTER-LIGAND FREE ENERGY PREDICTED BY IDOCK:   -7.71 KCAL/MOL
REMARK 924 INTRA-LIGAND FREE ENERGY PREDICTED BY IDOCK:   -2.33 KCAL/MOL
REMARK 927      BINDING AFFINITY PREDICTED BY RF-SCORE:    0.00 PKD
ROOT
HETATM    1  C   UNL     1     -12.264  10.981  69.387  1.00  0.00    -0.259 C  
HETATM    2  O   UNL     1     -12.230  12.374  69.060  1.00  0.00    -0.190 OA 
ENDROOT
BRANCH   2   3
HETATM    3  C   UNL     1     -11.657  12.618  67.853  1.00  0.00    -0.349 C  
HETATM    4  O   UNL     1     -12.156  12.334  66.774  1.00  0.00    -0.593 OA 
BRANCH   3   5
HETATM    5  C   UNL     1     -10.315  13.234  68.007  1.00  0.00    -0.243 C  
HETATM    6  C   UNL     1     -10.177  14.581  68.009  1.00  0.00    -0.233 C  
HETATM    7  C   UNL     1     -11.293  15.598  67.971  1.00  0.00    -0.324 C  
HETATM    8  N   UNL     1      -8.911  15.140  68.025  1.00  0.00    -0.168 NA 
HETATM    9  C   UNL     1      -7.734  14.436  67.858  1.00  0.00    -0.146 C  
HETATM   10  C   UNL     1      -7.756  13.081  67.839  1.00  0.00    -0.145 C  
HETATM   11  C   UNL     1      -6.487  15.282  67.738  1.00  0.00    -0.179 C  
HETATM   12  C   UNL     1      -9.078  12.318  68.045  1.00  0.00    -0.191 C  
BRANCH  10  13
HETATM   13  C   UNL     1      -6.477  12.323  67.727  1.00  0.00    -0.106 C  
HETATM   14  O   UNL     1      -5.823  12.181  66.705  1.00  0.00    -0.261 OA 
BRANCH  13  15
HETATM   15  O   UNL     1      -6.040  11.995  68.967  1.00  0.00    -0.063 OA 
BRANCH  15  16
HETATM   16  C   UNL     1      -5.849  10.582  69.152  1.00  0.00    -0.040 C  
BRANCH  16  17
HETATM   17  C   UNL     1      -6.816  10.172  70.273  1.00  0.00    -0.148 C  
BRANCH  17  18
HETATM   18  N   UNL     1      -7.340   8.800  70.239  1.00  0.00    -0.053 NA 
HETATM   19  C   UNL     1      -6.259   7.842  69.992  1.00  0.00    -0.030 C  
BRANCH  18  20
HETATM   20  C   UNL     1      -7.998   8.484  71.530  1.00  0.00    -0.133 C  
BRANCH  20  21
HETATM   21  C   UNL     1      -9.435   8.023  71.371  1.00  0.00    -0.194 A  
HETATM   22  C   UNL     1      -9.791   7.165  70.320  1.00  0.00    -0.177 A  
HETATM   23  C   UNL     1     -11.122   6.810  70.111  1.00  0.00    -0.365 A  
HETATM   24  C   UNL     1     -12.116   7.302  70.956  1.00  0.00    -0.361 A  
HETATM   25  C   UNL     1     -11.776   8.139  72.017  1.00  0.00    -0.389 A  
HETATM   26  C   UNL     1     -10.442   8.498  72.228  1.00  0.00    -0.402 A  
ENDBRANCH  20  21
ENDBRANCH  18  20
ENDBRANCH  17  18
ENDBRANCH  16  17
ENDBRANCH  15  16
ENDBRANCH  13  15
ENDBRANCH  10  13
BRANCH  12  27
HETATM   27  C   UNL     1      -9.215  11.149  67.065  1.00  0.00    -0.172 A  
HETATM   28  C   UNL     1      -9.441   8.770  66.639  1.00  0.00    -0.263 A  
HETATM   29  O   UNL     1      -9.170  11.729  62.949  1.00  0.00    -0.321 OA 
HETATM   30  C   UNL     1      -9.170  11.381  65.676  1.00  0.00    -0.209 A  
HETATM   31  O   UNL     1      -9.323   9.573  62.582  1.00  0.00    -0.210 OA 
HETATM   32  C   UNL     1      -9.270  10.308  64.783  1.00  0.00    -0.241 A  
HETATM   33  C   UNL     1      -9.367   9.837  67.533  1.00  0.00    -0.152 A  
HETATM   34  C   UNL     1      -9.389   8.999  65.262  1.00  0.00    -0.158 A  
HETATM   35  N   UNL     1      -9.253  10.555  63.335  1.00  0.00    -0.247 N  
ENDBRANCH  12  27
ENDBRANCH   3   5
ENDBRANCH   2   3
TORSDOF 10
ENDMDL
MODEL      101
REMARK 921   NORMALIZED FREE ENERGY PREDICTED BY IDOCK:   -5.38 KCAL/MOL
REMARK 922        TOTAL FREE ENERGY PREDICTED BY IDOCK:  -10.04 KCAL/MOL
REMARK 923 INTER-LIGAND FREE ENERGY PREDICTED BY IDOCK:   -7.81 KCAL/MOL
REMARK 924 INTRA-LIGAND FREE ENERGY PREDICTED BY IDOCK:   -2.23 KCAL/MOL
REMARK 927      BINDING AFFINITY PREDICTED BY RF-SCORE:    0.00 PKD
ROOT
HETATM    1  C   UNL     1     -12.612  15.083  70.698  1.00  0.00    -0.374 C  
HETATM    2  O   UNL     1     -11.549  15.983  70.370  1.00  0.00    -0.349 OA 
ENDROOT
BRANCH   2   3
HETATM    3  C   UNL     1     -11.205  15.936  69.057  1.00  0.00    -0.327 C  
HETATM    4  O   UNL     1     -11.998  15.857  68.131  1.00  0.00    -0.130 OA 
BRANCH   3   5
HETATM    5  C   UNL     1      -9.730  15.943  68.885  1.00  0.00    -0.230 C  
HETATM    6  C   UNL     1      -9.080  17.098  68.606  1.00  0.00    -0.268 C  
HETATM    7  C   UNL     1      -9.688  18.479  68.542  1.00  0.00    -0.399 C  
HETATM    8  N   UNL     1      -7.725  17.070  68.323  1.00  0.00    -0.201 NA 
HETATM    9  C   UNL     1      -6.984  15.922  68.119  1.00  0.00    -0.116 C  
HETATM   10  C   UNL     1      -7.537  14.710  68.365  1.00  0.00    -0.119 C  
HETATM   11  C   UNL     1      -5.564  16.146  67.651  1.00  0.00    -0.167 C  
HETATM   12  C   UNL     1      -8.973  14.603  68.911  1.00  0.00    -0.136 C  
BRANCH  10  13
HETATM   13  C   UNL     1      -6.714  13.477  68.210  1.00  0.00    -0.107 C  
HETATM   14  O   UNL     1      -6.335  13.005  67.148  1.00  0.00    -0.257 OA 
BRANCH  13  15
HETATM   15  O   UNL     1      -6.271  13.077  69.427  1.00  0.00    -0.100 OA 
BRANCH  15  16
HETATM   16  C   UNL     1      -5.872  11.696  69.466  1.00  0.00    -0.080 C  
BRANCH  16  17
HETATM   17  C   UNL     1      -7.152  10.899  69.761  1.00  0.00    -0.088 C  
BRANCH  17  18
HETATM   18  N   UNL     1      -7.414   9.717  68.930  1.00  0.00    -0.073 NA 
HETATM   19  C   UNL     1      -6.155   9.117  68.478  1.00  0.00    -0.045 C  
BRANCH  18  20
HETATM   20  C   UNL     1      -8.188   8.720  69.708  1.00  0.00    -0.117 C  
BRANCH  20  21
HETATM   21  C   UNL     1      -9.241   8.004  68.882  1.00  0.00    -0.147 A  
HETATM   22  C   UNL     1     -10.015   6.983  69.453  1.00  0.00    -0.165 A  
HETATM   23  C   UNL     1     -10.919   6.258  68.678  1.00  0.00    -0.423 A  
HETATM   24  C   UNL     1     -11.066   6.550  67.323  1.00  0.00    -0.429 A  
HETATM   25  C   UNL     1     -10.319   7.575  66.745  1.00  0.00    -0.332 A  
HETATM   26  C   UNL     1      -9.411   8.302  67.520  1.00  0.00    -0.182 A  
ENDBRANCH  20  21
ENDBRANCH  18  20
ENDBRANCH  17  18
ENDBRANCH  16  17
ENDBRANCH  15  16
ENDBRANCH  13  15
ENDBRANCH  10  13
BRANCH  12  27
HETATM   27  C   UNL     1      -9.766  13.497  68.208  1.00  0.00    -0.224 A  
HETATM   28  C   UNL     1     -11.042  11.434  68.296  1.00  0.00    -0.300 A  
HETATM   29  O   UNL     1     -10.239  13.437  64.079  1.00  0.00    -0.336 OA 
HETATM   30  C   UNL     1      -9.884  13.495  66.803  1.00  0.00    -0.267 A  
HETATM   31  O   UNL     1     -11.347  11.547  64.172  1.00  0.00    -0.342 OA 
HETATM   32  C   UNL     1     -10.587  12.470  66.161  1.00  0.00    -0.253 A  
HETATM   33  C   UNL     1     -10.364  12.466  68.944  1.00  0.00    -0.074 A  
HETATM   34  C   UNL     1     -11.153  11.429  66.904  1.00  0.00    -0.356 A  
HETATM   35  N   UNL     1     -10.735  12.486  64.700  1.00  0.00    -0.294 N  
ENDBRANCH  12  27
ENDBRANCH   3   5
ENDBRANCH   2   3
TORSDOF 10
ENDMDL
MODEL      102
REMARK 921   NORMALIZED FREE ENERGY PREDICTED BY IDOCK:   -5.38 KCAL/MOL
REMARK 922        TOTAL FREE ENERGY PREDICTED BY IDOCK:  -10.04 KCAL/MOL
REMARK 923 INTER-LIGAND FREE ENERGY PREDICTED BY IDOCK:   -8.06 KCAL/MOL
REMARK 924 INTRA-LIGAND FREE ENERGY PREDICTED BY IDOCK:   -1.97 KCAL/MOL
REMARK 927      BINDING AFFINITY PREDICTED BY RF-SCORE:    0.00 PKD
ROOT
HETATM    1  C   UNL     1      -6.904   4.138  67.486  1.00  0.00    -0.051 C  
HETATM    2  O   UNL     1      -7.383   3.876  68.810  1.00  0.00    -0.054 OA 
ENDROOT
BRANCH   2   3
HETATM    3  C   UNL     1      -8.709   4.133  68.950  1.00  0.00    -0.092 C  
HETATM    4  O   UNL     1      -9.572   3.803  68.150  1.00  0.00    -0.169 OA 
BRANCH   3   5
HETATM    5  C   UNL     1      -8.980   4.913  70.184  1.00  0.00    -0.146 C  
HETATM    6  C   UNL     1      -9.544   4.316  71.261  1.00  0.00    -0.172 C  
HETATM    7  C   UNL     1      -9.861   2.847  71.410  1.00  0.00    -0.170 C  
HETATM    8  N   UNL     1      -9.907   5.081  72.356  1.00  0.00    -0.164 NA 
HETATM    9  C   UNL     1      -9.911   6.462  72.390  1.00  0.00    -0.166 C  
HETATM   10  C   UNL     1      -9.373   7.162  71.362  1.00  0.00    -0.155 C  
HETATM   11  C   UNL     1     -10.512   7.076  73.633  1.00  0.00    -0.414 C  
HETATM   12  C   UNL     1      -8.719   6.430  70.175  1.00  0.00    -0.139 C  
BRANCH  10  13
HETATM   13  C   UNL     1      -9.316   8.651  71.432  1.00  0.00    -0.236 C  
HETATM   14  O   UNL     1      -8.297   9.319  71.519  1.00  0.00    -0.323 OA 
BRANCH  13  15
HETATM   15  O   UNL     1     -10.545   9.159  71.171  1.00  0.00    -0.255 OA 
BRANCH  15  16
HETATM   16  C   UNL     1     -10.547  10.144  70.124  1.00  0.00    -0.281 C  
BRANCH  16  17
HETATM   17  C   UNL     1     -11.995  10.651  70.028  1.00  0.00    -0.329 C  
BRANCH  17  18
HETATM   18  N   UNL     1     -12.193  12.034  69.576  1.00  0.00    -0.177 NA 
HETATM   19  C   UNL     1     -12.364  12.931  70.723  1.00  0.00    -0.299 C  
BRANCH  18  20
HETATM   20  C   UNL     1     -11.023  12.471  68.776  1.00  0.00    -0.253 C  
BRANCH  20  21
HETATM   21  C   UNL     1     -11.351  12.694  67.311  1.00  0.00    -0.372 A  
HETATM   22  C   UNL     1     -12.148  13.780  66.922  1.00  0.00    -0.454 A  
HETATM   23  C   UNL     1     -12.531  13.941  65.591  1.00  0.00    -0.538 A  
HETATM   24  C   UNL     1     -12.114  13.022  64.630  1.00  0.00    -0.463 A  
HETATM   25  C   UNL     1     -11.305  11.948  64.997  1.00  0.00    -0.333 A  
HETATM   26  C   UNL     1     -10.921  11.784  66.331  1.00  0.00    -0.341 A  
ENDBRANCH  20  21
ENDBRANCH  18  20
ENDBRANCH  17  18
ENDBRANCH  16  17
ENDBRANCH  15  16
ENDBRANCH  13  15
ENDBRANCH  10  13
BRANCH  12  27
HETATM   27  C   UNL     1      -9.113   7.059  68.835  1.00  0.00    -0.134 A  
HETATM   28  C   UNL     1     -10.774   7.509  67.123  1.00  0.00    -0.379 A  
HETATM   29  O   UNL     1      -6.348   9.068  66.469  1.00  0.00    -0.063 OA 
HETATM   30  C   UNL     1      -8.143   7.711  68.047  1.00  0.00    -0.123 A  
HETATM   31  O   UNL     1      -7.849   9.423  64.909  1.00  0.00    -0.109 OA 
HETATM   32  C   UNL     1      -8.499   8.263  66.812  1.00  0.00    -0.122 A  
HETATM   33  C   UNL     1     -10.431   6.979  68.366  1.00  0.00    -0.231 A  
HETATM   34  C   UNL     1      -9.811   8.149  66.340  1.00  0.00    -0.261 A  
HETATM   35  N   UNL     1      -7.494   8.968  66.007  1.00  0.00    -0.093 N  
ENDBRANCH  12  27
ENDBRANCH   3   5
ENDBRANCH   2   3
TORSDOF 10
ENDMDL
MODEL      103
REMARK 921   NORMALIZED FREE ENERGY PREDICTED BY IDOCK:   -5.34 KCAL/MOL
REMARK 922        TOTAL FREE ENERGY PREDICTED BY IDOCK:   -9.98 KCAL/MOL
REMARK 923 INTER-LIGAND FREE ENERGY PREDICTED BY IDOCK:   -8.08 KCAL/MOL
REMARK 924 INTRA-LIGAND FREE ENERGY PREDICTED BY IDOCK:   -1.90 KCAL/MOL
REMARK 927      BINDING AFFINITY PREDICTED BY RF-SCORE:    0.00 PKD
ROOT
HETATM    1  C   UNL     1      -8.950   5.389  73.104  1.00  0.00    -0.118 C  
HETATM    2  O   UNL     1      -8.659   5.985  71.836  1.00  0.00    -0.135 OA 
ENDROOT
BRANCH   2   3
HETATM    3  C   UNL     1      -9.731   6.001  71.002  1.00  0.00    -0.177 C  
HETATM    4  O   UNL     1     -10.253   5.007  70.518  1.00  0.00    -0.246 OA 
BRANCH   3   5
HETATM    5  C   UNL     1     -10.166   7.390  70.709  1.00  0.00    -0.200 C  
HETATM    6  C   UNL     1     -11.372   7.834  71.137  1.00  0.00    -0.269 C  
HETATM    7  C   UNL     1     -12.346   7.083  72.013  1.00  0.00    -0.302 C  
HETATM    8  N   UNL     1     -11.817   9.085  70.749  1.00  0.00    -0.249 NA 
HETATM    9  C   UNL     1     -11.212   9.880  69.795  1.00  0.00    -0.235 C  
HETATM   10  C   UNL     1     -10.003   9.528  69.295  1.00  0.00    -0.191 C  
HETATM   11  C   UNL     1     -11.977  11.126  69.413  1.00  0.00    -0.420 C  
HETATM   12  C   UNL     1      -9.278   8.271  69.812  1.00  0.00    -0.154 C  
BRANCH  10  13
HETATM   13  C   UNL     1      -9.320  10.423  68.316  1.00  0.00    -0.149 C  
HETATM   14  O   UNL     1      -8.336  11.109  68.549  1.00  0.00    -0.141 OA 
BRANCH  13  15
HETATM   15  O   UNL     1      -9.823  10.200  67.078  1.00  0.00    -0.176 OA 
BRANCH  15  16
HETATM   16  C   UNL     1      -8.812  10.054  66.067  1.00  0.00    -0.145 C  
BRANCH  16  17
HETATM   17  C   UNL     1      -9.561  10.031  64.725  1.00  0.00    -0.308 C  
BRANCH  17  18
HETATM   18  N   UNL     1      -9.585  11.277  63.949  1.00  0.00    -0.246 NA 
HETATM   19  C   UNL     1      -9.111  11.042  62.582  1.00  0.00    -0.343 C  
BRANCH  18  20
HETATM   20  C   UNL     1     -10.968  11.814  63.909  1.00  0.00    -0.407 C  
BRANCH  20  21
HETATM   21  C   UNL     1     -11.198  12.945  64.895  1.00  0.00    -0.331 A  
HETATM   22  C   UNL     1     -10.570  14.185  64.709  1.00  0.00    -0.439 A  
HETATM   23  C   UNL     1     -10.702  15.198  65.656  1.00  0.00    -0.374 A  
HETATM   24  C   UNL     1     -11.471  14.988  66.800  1.00  0.00    -0.252 A  
HETATM   25  C   UNL     1     -12.118  13.768  66.989  1.00  0.00    -0.436 A  
HETATM   26  C   UNL     1     -11.986  12.750  66.041  1.00  0.00    -0.491 A  
ENDBRANCH  20  21
ENDBRANCH  18  20
ENDBRANCH  17  18
ENDBRANCH  16  17
ENDBRANCH  15  16
ENDBRANCH  13  15
ENDBRANCH  10  13
BRANCH  12  27
HETATM   27  C   UNL     1      -8.658   7.463  68.668  1.00  0.00    -0.129 A  
HETATM   28  C   UNL     1      -6.717   6.766  67.389  1.00  0.00    -0.067 A  
HETATM   29  O   UNL     1     -10.991   5.196  66.080  1.00  0.00    -0.237 OA 
HETATM   30  C   UNL     1      -9.483   6.727  67.794  1.00  0.00    -0.121 A  
HETATM   31  O   UNL     1      -9.233   4.616  64.905  1.00  0.00    -0.155 OA 
HETATM   32  C   UNL     1      -8.917   6.010  66.734  1.00  0.00    -0.122 A  
HETATM   33  C   UNL     1      -7.272   7.462  68.461  1.00  0.00    -0.087 A  
HETATM   34  C   UNL     1      -7.535   6.041  66.519  1.00  0.00    -0.090 A  
HETATM   35  N   UNL     1      -9.775   5.218  65.844  1.00  0.00    -0.138 N  
ENDBRANCH  12  27
ENDBRANCH   3   5
ENDBRANCH   2   3
TORSDOF 10
ENDMDL
MODEL      104
REMARK 921   NORMALIZED FREE ENERGY PREDICTED BY IDOCK:   -5.32 KCAL/MOL
REMARK 922        TOTAL FREE ENERGY PREDICTED BY IDOCK:   -9.94 KCAL/MOL
REMARK 923 INTER-LIGAND FREE ENERGY PREDICTED BY IDOCK:   -9.19 KCAL/MOL
REMARK 924 INTRA-LIGAND FREE ENERGY PREDICTED BY IDOCK:   -0.75 KCAL/MOL
REMARK 927      BINDING AFFINITY PREDICTED BY RF-SCORE:    0.00 PKD
ROOT
HETATM    1  C   UNL     1      -7.700  17.200  68.951  1.00  0.00    -0.230 C  
HETATM    2  O   UNL     1      -8.547  16.107  69.322  1.00  0.00    -0.250 OA 
ENDROOT
BRANCH   2   3
HETATM    3  C   UNL     1      -9.837  16.284  68.936  1.00  0.00    -0.246 C  
HETATM    4  O   UNL     1     -10.689  16.863  69.594  1.00  0.00    -0.318 OA 
BRANCH   3   5
HETATM    5  C   UNL     1     -10.100  15.641  67.624  1.00  0.00    -0.248 C  
HETATM    6  C   UNL     1     -10.328  16.398  66.524  1.00  0.00    -0.303 C  
HETATM    7  C   UNL     1     -10.245  17.904  66.437  1.00  0.00    -0.372 C  
HETATM    8  N   UNL     1     -10.697  15.788  65.338  1.00  0.00    -0.391 NA 
HETATM    9  C   UNL     1     -11.037  14.456  65.206  1.00  0.00    -0.342 C  
HETATM   10  C   UNL     1     -10.853  13.607  66.246  1.00  0.00    -0.282 C  
HETATM   11  C   UNL     1     -11.574  14.058  63.850  1.00  0.00    -0.091 C  
HETATM   12  C   UNL     1     -10.227  14.108  67.562  1.00  0.00    -0.241 C  
BRANCH  10  13
HETATM   13  C   UNL     1     -11.156  12.157  66.079  1.00  0.00    -0.313 C  
HETATM   14  O   UNL     1     -12.249  11.636  66.245  1.00  0.00    -0.150 OA 
BRANCH  13  15
HETATM   15  O   UNL     1     -10.092  11.539  65.512  1.00  0.00    -0.223 OA 
BRANCH  15  16
HETATM   16  C   UNL     1      -9.251  10.861  66.461  1.00  0.00    -0.171 C  
BRANCH  16  17
HETATM   17  C   UNL     1      -9.360   9.366  66.125  1.00  0.00    -0.205 C  
BRANCH  17  18
HETATM   18  N   UNL     1      -8.986   8.413  67.177  1.00  0.00    -0.135 NA 
HETATM   19  C   UNL     1      -7.910   7.531  66.715  1.00  0.00    -0.110 C  
BRANCH  18  20
HETATM   20  C   UNL     1      -8.538   9.151  68.384  1.00  0.00    -0.129 C  
BRANCH  20  21
HETATM   21  C   UNL     1      -9.256   8.718  69.649  1.00  0.00    -0.150 A  
HETATM   22  C   UNL     1     -10.480   8.039  69.572  1.00  0.00    -0.226 A  
HETATM   23  C   UNL     1     -11.191   7.719  70.727  1.00  0.00    -0.281 A  
HETATM   24  C   UNL     1     -10.682   8.067  71.977  1.00  0.00    -0.319 A  
HETATM   25  C   UNL     1      -9.457   8.725  72.072  1.00  0.00    -0.336 A  
HETATM   26  C   UNL     1      -8.743   9.048  70.915  1.00  0.00    -0.280 A  
ENDBRANCH  20  21
ENDBRANCH  18  20
ENDBRANCH  17  18
ENDBRANCH  16  17
ENDBRANCH  15  16
ENDBRANCH  13  15
ENDBRANCH  10  13
BRANCH  12  27
HETATM   27  C   UNL     1     -10.964  13.555  68.785  1.00  0.00    -0.291 A  
HETATM   28  C   UNL     1     -11.493  11.713  70.274  1.00  0.00    -0.118 A  
HETATM   29  O   UNL     1     -13.548  15.915  71.029  1.00  0.00    -0.455 OA 
HETATM   30  C   UNL     1     -11.853  14.378  69.507  1.00  0.00    -0.376 A  
HETATM   31  O   UNL     1     -14.053  14.227  72.335  1.00  0.00    -0.495 OA 
HETATM   32  C   UNL     1     -12.544  13.863  70.610  1.00  0.00    -0.335 A  
HETATM   33  C   UNL     1     -10.783  12.226  69.190  1.00  0.00    -0.089 A  
HETATM   34  C   UNL     1     -12.379  12.526  70.986  1.00  0.00    -0.307 A  
HETATM   35  N   UNL     1     -13.445  14.730  71.379  1.00  0.00    -0.381 N  
ENDBRANCH  12  27
ENDBRANCH   3   5
ENDBRANCH   2   3
TORSDOF 10
ENDMDL
MODEL      105
REMARK 921   NORMALIZED FREE ENERGY PREDICTED BY IDOCK:   -5.31 KCAL/MOL
REMARK 922        TOTAL FREE ENERGY PREDICTED BY IDOCK:   -9.94 KCAL/MOL
REMARK 923 INTER-LIGAND FREE ENERGY PREDICTED BY IDOCK:   -7.48 KCAL/MOL
REMARK 924 INTRA-LIGAND FREE ENERGY PREDICTED BY IDOCK:   -2.46 KCAL/MOL
REMARK 927      BINDING AFFINITY PREDICTED BY RF-SCORE:    0.00 PKD
ROOT
HETATM    1  C   UNL     1     -11.131   6.345  66.752  1.00  0.00    -0.170 C  
HETATM    2  O   UNL     1     -10.440   5.531  67.705  1.00  0.00    -0.205 OA 
ENDROOT
BRANCH   2   3
HETATM    3  C   UNL     1     -10.553   5.997  68.976  1.00  0.00    -0.291 C  
HETATM    4  O   UNL     1     -11.607   6.123  69.582  1.00  0.00    -0.407 OA 
BRANCH   3   5
HETATM    5  C   UNL     1      -9.230   6.385  69.528  1.00  0.00    -0.144 C  
HETATM    6  C   UNL     1      -8.594   5.578  70.411  1.00  0.00    -0.130 C  
HETATM    7  C   UNL     1      -9.041   4.206  70.856  1.00  0.00    -0.180 C  
HETATM    8  N   UNL     1      -7.425   6.010  71.013  1.00  0.00    -0.089 NA 
HETATM    9  C   UNL     1      -6.921   7.294  70.931  1.00  0.00    -0.056 C  
HETATM   10  C   UNL     1      -7.483   8.185  70.081  1.00  0.00    -0.061 C  
HETATM   11  C   UNL     1      -5.726   7.574  71.814  1.00  0.00    -0.036 C  
HETATM   12  C   UNL     1      -8.654   7.767  69.172  1.00  0.00    -0.138 C  
BRANCH  10  13
HETATM   13  C   UNL     1      -6.894   9.549  69.944  1.00  0.00    -0.067 C  
HETATM   14  O   UNL     1      -6.753  10.355  70.852  1.00  0.00    -0.341 OA 
BRANCH  13  15
HETATM   15  O   UNL     1      -6.347   9.680  68.711  1.00  0.00    -0.046 OA 
BRANCH  15  16
HETATM   16  C   UNL     1      -5.895  11.014  68.424  1.00  0.00    -0.042 C  
BRANCH  16  17
HETATM   17  C   UNL     1      -7.047  11.694  67.669  1.00  0.00    -0.095 C  
BRANCH  17  18
HETATM   18  N   UNL     1      -7.644  12.885  68.288  1.00  0.00    -0.126 NA 
HETATM   19  C   UNL     1      -6.678  13.546  69.170  1.00  0.00    -0.103 C  
BRANCH  18  20
HETATM   20  C   UNL     1      -8.080  13.831  67.232  1.00  0.00    -0.139 C  
BRANCH  20  21
HETATM   21  C   UNL     1      -9.557  13.717  66.902  1.00  0.00    -0.262 A  
HETATM   22  C   UNL     1      -9.971  13.110  65.707  1.00  0.00    -0.260 A  
HETATM   23  C   UNL     1     -11.319  13.084  65.352  1.00  0.00    -0.327 A  
HETATM   24  C   UNL     1     -12.272  13.656  66.191  1.00  0.00    -0.490 A  
HETATM   25  C   UNL     1     -11.879  14.245  67.392  1.00  0.00    -0.441 A  
HETATM   26  C   UNL     1     -10.529  14.274  67.750  1.00  0.00    -0.245 A  
ENDBRANCH  20  21
ENDBRANCH  18  20
ENDBRANCH  17  18
ENDBRANCH  16  17
ENDBRANCH  15  16
ENDBRANCH  13  15
ENDBRANCH  10  13
BRANCH  12  27
HETATM   27  C   UNL     1      -9.749   8.838  69.130  1.00  0.00    -0.175 A  
HETATM   28  C   UNL     1     -10.923  10.609  67.957  1.00  0.00    -0.336 A  
HETATM   29  O   UNL     1     -12.203   9.582  72.401  1.00  0.00    -0.202 OA 
HETATM   30  C   UNL     1     -10.545   9.080  70.267  1.00  0.00    -0.250 A  
HETATM   31  O   UNL     1     -13.220  11.213  71.345  1.00  0.00    -0.350 OA 
HETATM   32  C   UNL     1     -11.528  10.076  70.235  1.00  0.00    -0.300 A  
HETATM   33  C   UNL     1      -9.959   9.602  67.974  1.00  0.00    -0.190 A  
HETATM   34  C   UNL     1     -11.708  10.854  69.086  1.00  0.00    -0.397 A  
HETATM   35  N   UNL     1     -12.377  10.306  71.410  1.00  0.00    -0.384 N  
ENDBRANCH  12  27
ENDBRANCH   3   5
ENDBRANCH   2   3
TORSDOF 10
ENDMDL
MODEL      106
REMARK 921   NORMALIZED FREE ENERGY PREDICTED BY IDOCK:   -5.31 KCAL/MOL
REMARK 922        TOTAL FREE ENERGY PREDICTED BY IDOCK:   -9.93 KCAL/MOL
REMARK 923 INTER-LIGAND FREE ENERGY PREDICTED BY IDOCK:   -7.85 KCAL/MOL
REMARK 924 INTRA-LIGAND FREE ENERGY PREDICTED BY IDOCK:   -2.08 KCAL/MOL
REMARK 927      BINDING AFFINITY PREDICTED BY RF-SCORE:    0.00 PKD
ROOT
HETATM    1  C   UNL     1     -12.881  12.119  63.141  1.00  0.00    -0.011 C  
HETATM    2  O   UNL     1     -11.884  11.433  63.905  1.00  0.00    -0.206 OA 
ENDROOT
BRANCH   2   3
HETATM    3  C   UNL     1     -10.923  12.265  64.385  1.00  0.00    -0.329 C  
HETATM    4  O   UNL     1      -9.903  12.571  63.786  1.00  0.00    -0.284 OA 
BRANCH   3   5
HETATM    5  C   UNL     1     -11.244  12.722  65.761  1.00  0.00    -0.341 C  
HETATM    6  C   UNL     1     -11.443  14.037  66.015  1.00  0.00    -0.338 C  
HETATM    7  C   UNL     1     -11.480  15.153  64.999  1.00  0.00    -0.339 C  
HETATM    8  N   UNL     1     -11.615  14.464  67.321  1.00  0.00    -0.362 NA 
HETATM    9  C   UNL     1     -11.423  13.678  68.441  1.00  0.00    -0.311 C  
HETATM   10  C   UNL     1     -11.213  12.347  68.302  1.00  0.00    -0.309 C  
HETATM   11  C   UNL     1     -11.500  14.409  69.762  1.00  0.00    -0.328 C  
HETATM   12  C   UNL     1     -11.229  11.695  66.907  1.00  0.00    -0.376 C  
BRANCH  10  13
HETATM   13  C   UNL     1     -11.075  11.490  69.515  1.00  0.00    -0.191 C  
HETATM   14  O   UNL     1     -10.066  10.885  69.846  1.00  0.00     0.053 OA 
BRANCH  13  15
HETATM   15  O   UNL     1     -12.165  11.652  70.305  1.00  0.00    -0.331 OA 
BRANCH  15  16
HETATM   16  C   UNL     1     -12.940  10.452  70.463  1.00  0.00    -0.212 C  
BRANCH  16  17
HETATM   17  C   UNL     1     -12.517   9.855  71.814  1.00  0.00    -0.397 C  
BRANCH  17  18
HETATM   18  N   UNL     1     -11.688   8.643  71.782  1.00  0.00    -0.307 NA 
HETATM   19  C   UNL     1     -12.141   7.682  72.791  1.00  0.00     0.001 C  
BRANCH  18  20
HETATM   20  C   UNL     1     -11.762   8.022  70.437  1.00  0.00     0.007 C  
BRANCH  20  21
HETATM   21  C   UNL     1     -10.620   7.063  70.157  1.00  0.00    -0.249 A  
HETATM   22  C   UNL     1      -9.295   7.522  70.155  1.00  0.00    -0.157 A  
HETATM   23  C   UNL     1      -8.247   6.669  69.809  1.00  0.00    -0.127 A  
HETATM   24  C   UNL     1      -8.511   5.344  69.469  1.00  0.00    -0.100 A  
HETATM   25  C   UNL     1      -9.820   4.867  69.486  1.00  0.00    -0.287 A  
HETATM   26  C   UNL     1     -10.872   5.720  69.831  1.00  0.00    -0.417 A  
ENDBRANCH  20  21
ENDBRANCH  18  20
ENDBRANCH  17  18
ENDBRANCH  16  17
ENDBRANCH  15  16
ENDBRANCH  13  15
ENDBRANCH  10  13
BRANCH  12  27
HETATM   27  C   UNL     1     -10.089  10.685  66.741  1.00  0.00    -0.272 A  
HETATM   28  C   UNL     1      -7.725  10.197  66.481  1.00  0.00    -0.108 A  
HETATM   29  O   UNL     1     -10.809   6.601  66.464  1.00  0.00    -0.171 OA 
HETATM   30  C   UNL     1     -10.373   9.310  66.625  1.00  0.00    -0.292 A  
HETATM   31  O   UNL     1      -8.675   6.182  66.181  1.00  0.00    -0.138 OA 
HETATM   32  C   UNL     1      -9.331   8.392  66.448  1.00  0.00    -0.214 A  
HETATM   33  C   UNL     1      -8.756  11.114  66.682  1.00  0.00    -0.166 A  
HETATM   34  C   UNL     1      -8.007   8.835  66.359  1.00  0.00    -0.103 A  
HETATM   35  N   UNL     1      -9.627   6.957  66.358  1.00  0.00    -0.139 N  
ENDBRANCH  12  27
ENDBRANCH   3   5
ENDBRANCH   2   3
TORSDOF 10
ENDMDL
MODEL      107
REMARK 921   NORMALIZED FREE ENERGY PREDICTED BY IDOCK:   -5.30 KCAL/MOL
REMARK 922        TOTAL FREE ENERGY PREDICTED BY IDOCK:   -9.91 KCAL/MOL
REMARK 923 INTER-LIGAND FREE ENERGY PREDICTED BY IDOCK:   -8.33 KCAL/MOL
REMARK 924 INTRA-LIGAND FREE ENERGY PREDICTED BY IDOCK:   -1.58 KCAL/MOL
REMARK 927      BINDING AFFINITY PREDICTED BY RF-SCORE:    0.00 PKD
ROOT
HETATM    1  C   UNL     1      -6.850   4.488  71.326  1.00  0.00    -0.031 C  
HETATM    2  O   UNL     1      -6.141   5.729  71.406  1.00  0.00    -0.028 OA 
ENDROOT
BRANCH   2   3
HETATM    3  C   UNL     1      -6.868   6.714  71.992  1.00  0.00    -0.064 C  
HETATM    4  O   UNL     1      -7.574   6.568  72.979  1.00  0.00    -0.093 OA 
BRANCH   3   5
HETATM    5  C   UNL     1      -6.738   7.994  71.251  1.00  0.00    -0.043 C  
HETATM    6  C   UNL     1      -6.046   9.028  71.788  1.00  0.00    -0.075 C  
HETATM    7  C   UNL     1      -5.261   9.010  73.078  1.00  0.00    -0.076 C  
HETATM    8  N   UNL     1      -6.040  10.254  71.146  1.00  0.00    -0.319 NA 
HETATM    9  C   UNL     1      -6.837  10.587  70.067  1.00  0.00    -0.153 C  
HETATM   10  C   UNL     1      -7.575   9.629  69.455  1.00  0.00    -0.097 C  
HETATM   11  C   UNL     1      -6.782  12.037  69.647  1.00  0.00     0.016 C  
HETATM   12  C   UNL     1      -7.498   8.164  69.923  1.00  0.00    -0.069 C  
BRANCH  10  13
HETATM   13  C   UNL     1      -8.381   9.977  68.250  1.00  0.00    -0.110 C  
HETATM   14  O   UNL     1      -8.243   9.488  67.138  1.00  0.00    -0.112 OA 
BRANCH  13  15
HETATM   15  O   UNL     1      -9.426  10.757  68.619  1.00  0.00    -0.172 OA 
BRANCH  15  16
HETATM   16  C   UNL     1      -9.831  11.690  67.603  1.00  0.00    -0.186 C  
BRANCH  16  17
HETATM   17  C   UNL     1      -9.846  13.068  68.282  1.00  0.00    -0.225 C  
BRANCH  17  18
HETATM   18  N   UNL     1     -11.159  13.666  68.557  1.00  0.00    -0.262 NA 
HETATM   19  C   UNL     1     -12.035  13.546  67.388  1.00  0.00    -0.357 C  
BRANCH  18  20
HETATM   20  C   UNL     1     -11.784  12.986  69.718  1.00  0.00    -0.276 C  
BRANCH  20  21
HETATM   21  C   UNL     1     -12.292  13.951  70.773  1.00  0.00    -0.449 A  
HETATM   22  C   UNL     1     -11.649  15.181  70.976  1.00  0.00    -0.390 A  
HETATM   23  C   UNL     1     -12.050  16.033  72.004  1.00  0.00    -0.606 A  
HETATM   24  C   UNL     1     -13.107  15.669  72.838  1.00  0.00    -0.621 A  
HETATM   25  C   UNL     1     -13.769  14.459  72.637  1.00  0.00    -0.546 A  
HETATM   26  C   UNL     1     -13.367  13.603  71.608  1.00  0.00    -0.424 A  
ENDBRANCH  20  21
ENDBRANCH  18  20
ENDBRANCH  17  18
ENDBRANCH  16  17
ENDBRANCH  15  16
ENDBRANCH  13  15
ENDBRANCH  10  13
BRANCH  12  27
HETATM   27  C   UNL     1      -8.884   7.515  69.983  1.00  0.00    -0.144 A  
HETATM   28  C   UNL     1     -10.445   5.805  69.257  1.00  0.00    -0.358 A  
HETATM   29  O   UNL     1     -11.926   9.076  72.348  1.00  0.00    -0.316 OA 
HETATM   30  C   UNL     1      -9.899   8.087  70.777  1.00  0.00    -0.197 A  
HETATM   31  O   UNL     1     -13.338   7.553  71.644  1.00  0.00    -0.353 OA 
HETATM   32  C   UNL     1     -11.172   7.508  70.810  1.00  0.00    -0.270 A  
HETATM   33  C   UNL     1      -9.168   6.363  69.239  1.00  0.00    -0.135 A  
HETATM   34  C   UNL     1     -11.453   6.375  70.038  1.00  0.00    -0.496 A  
HETATM   35  N   UNL     1     -12.219   8.087  71.661  1.00  0.00    -0.296 N  
ENDBRANCH  12  27
ENDBRANCH   3   5
ENDBRANCH   2   3
TORSDOF 10
ENDMDL
MODEL      108
REMARK 921   NORMALIZED FREE ENERGY PREDICTED BY IDOCK:   -5.30 KCAL/MOL
REMARK 922        TOTAL FREE ENERGY PREDICTED BY IDOCK:   -9.91 KCAL/MOL
REMARK 923 INTER-LIGAND FREE ENERGY PREDICTED BY IDOCK:   -8.59 KCAL/MOL
REMARK 924 INTRA-LIGAND FREE ENERGY PREDICTED BY IDOCK:   -1.32 KCAL/MOL
REMARK 927      BINDING AFFINITY PREDICTED BY RF-SCORE:    0.00 PKD
ROOT
HETATM    1  C   UNL     1     -12.092  11.154  69.903  1.00  0.00    -0.344 C  
HETATM    2  O   UNL     1     -11.385   9.910  69.885  1.00  0.00    -0.244 OA 
ENDROOT
BRANCH   2   3
HETATM    3  C   UNL     1     -10.620   9.755  68.774  1.00  0.00    -0.219 C  
HETATM    4  O   UNL     1     -11.031   9.357  67.694  1.00  0.00    -0.223 OA 
BRANCH   3   5
HETATM    5  C   UNL     1      -9.198  10.084  69.047  1.00  0.00    -0.180 C  
HETATM    6  C   UNL     1      -8.592   9.621  70.166  1.00  0.00    -0.214 C  
HETATM    7  C   UNL     1      -9.185   8.674  71.182  1.00  0.00    -0.269 C  
HETATM    8  N   UNL     1      -7.309  10.040  70.473  1.00  0.00    -0.298 NA 
HETATM    9  C   UNL     1      -6.630  11.051  69.820  1.00  0.00    -0.143 C  
HETATM   10  C   UNL     1      -7.147  11.589  68.690  1.00  0.00    -0.098 C  
HETATM   11  C   UNL     1      -5.311  11.449  70.443  1.00  0.00    -0.113 C  
HETATM   12  C   UNL     1      -8.467  11.054  68.102  1.00  0.00    -0.135 C  
BRANCH  10  13
HETATM   13  C   UNL     1      -6.380  12.632  67.950  1.00  0.00    -0.111 C  
HETATM   14  O   UNL     1      -5.875  12.493  66.846  1.00  0.00    -0.304 OA 
BRANCH  13  15
HETATM   15  O   UNL     1      -6.506  13.820  68.590  1.00  0.00    -0.081 OA 
BRANCH  15  16
HETATM   16  C   UNL     1      -5.595  14.826  68.115  1.00  0.00    -0.122 C  
BRANCH  16  17
HETATM   17  C   UNL     1      -5.896  16.087  68.940  1.00  0.00    -0.113 C  
BRANCH  17  18
HETATM   18  N   UNL     1      -6.656  17.155  68.279  1.00  0.00    -0.154 NA 
HETATM   19  C   UNL     1      -6.368  17.180  66.842  1.00  0.00    -0.202 C  
BRANCH  18  20
HETATM   20  C   UNL     1      -8.109  16.938  68.490  1.00  0.00    -0.244 C  
BRANCH  20  21
HETATM   21  C   UNL     1      -8.975  17.965  67.784  1.00  0.00    -0.254 A  
HETATM   22  C   UNL     1      -9.693  17.613  66.632  1.00  0.00    -0.304 A  
HETATM   23  C   UNL     1     -10.417  18.572  65.925  1.00  0.00    -0.379 A  
HETATM   24  C   UNL     1     -10.440  19.894  66.365  1.00  0.00    -0.589 A  
HETATM   25  C   UNL     1      -9.747  20.255  67.520  1.00  0.00    -0.575 A  
HETATM   26  C   UNL     1      -9.020  19.297  68.230  1.00  0.00    -0.381 A  
ENDBRANCH  20  21
ENDBRANCH  18  20
ENDBRANCH  17  18
ENDBRANCH  16  17
ENDBRANCH  15  16
ENDBRANCH  13  15
ENDBRANCH  10  13
BRANCH  12  27
HETATM   27  C   UNL     1      -9.385  12.191  67.643  1.00  0.00    -0.187 A  
HETATM   28  C   UNL     1     -10.545  13.382  65.875  1.00  0.00    -0.286 A  
HETATM   29  O   UNL     1     -10.892  14.995  70.316  1.00  0.00    -0.237 OA 
HETATM   30  C   UNL     1      -9.856  13.139  68.574  1.00  0.00    -0.155 A  
HETATM   31  O   UNL     1     -11.893  16.088  68.700  1.00  0.00    -0.367 OA 
HETATM   32  C   UNL     1     -10.674  14.191  68.148  1.00  0.00    -0.245 A  
HETATM   33  C   UNL     1      -9.750  12.317  66.297  1.00  0.00    -0.254 A  
HETATM   34  C   UNL     1     -11.007  14.325  66.796  1.00  0.00    -0.304 A  
HETATM   35  N   UNL     1     -11.190  15.160  69.124  1.00  0.00    -0.261 N  
ENDBRANCH  12  27
ENDBRANCH   3   5
ENDBRANCH   2   3
TORSDOF 10
ENDMDL
MODEL      109
REMARK 921   NORMALIZED FREE ENERGY PREDICTED BY IDOCK:   -5.28 KCAL/MOL
REMARK 922        TOTAL FREE ENERGY PREDICTED BY IDOCK:   -9.88 KCAL/MOL
REMARK 923 INTER-LIGAND FREE ENERGY PREDICTED BY IDOCK:   -9.07 KCAL/MOL
REMARK 924 INTRA-LIGAND FREE ENERGY PREDICTED BY IDOCK:   -0.81 KCAL/MOL
REMARK 927      BINDING AFFINITY PREDICTED BY RF-SCORE:    0.00 PKD
ROOT
HETATM    1  C   UNL     1     -10.692   8.005  67.822  1.00  0.00    -0.104 C  
HETATM    2  O   UNL     1     -11.123   9.323  68.175  1.00  0.00    -0.070 OA 
ENDROOT
BRANCH   2   3
HETATM    3  C   UNL     1     -10.402   9.859  69.194  1.00  0.00    -0.209 C  
HETATM    4  O   UNL     1      -9.411   9.347  69.691  1.00  0.00    -0.166 OA 
BRANCH   3   5
HETATM    5  C   UNL     1     -11.002  11.132  69.668  1.00  0.00    -0.254 C  
HETATM    6  C   UNL     1     -11.993  11.120  70.590  1.00  0.00    -0.360 C  
HETATM    7  C   UNL     1     -12.531   9.909  71.315  1.00  0.00    -0.479 C  
HETATM    8  N   UNL     1     -12.629  12.302  70.928  1.00  0.00    -0.304 NA 
HETATM    9  C   UNL     1     -12.465  13.505  70.268  1.00  0.00    -0.239 C  
HETATM   10  C   UNL     1     -11.503  13.628  69.322  1.00  0.00    -0.344 C  
HETATM   11  C   UNL     1     -13.395  14.613  70.706  1.00  0.00    -0.272 C  
HETATM   12  C   UNL     1     -10.561  12.451  69.007  1.00  0.00    -0.087 C  
BRANCH  10  13
HETATM   13  C   UNL     1     -11.283  14.946  68.660  1.00  0.00    -0.275 C  
HETATM   14  O   UNL     1     -11.861  15.343  67.659  1.00  0.00    -0.217 OA 
BRANCH  13  15
HETATM   15  O   UNL     1     -10.502  15.721  69.451  1.00  0.00    -0.218 OA 
BRANCH  15  16
HETATM   16  C   UNL     1      -9.574  16.537  68.717  1.00  0.00    -0.248 C  
BRANCH  16  17
HETATM   17  C   UNL     1      -8.315  15.676  68.531  1.00  0.00    -0.166 C  
BRANCH  17  18
HETATM   18  N   UNL     1      -7.765  15.577  67.173  1.00  0.00    -0.211 NA 
HETATM   19  C   UNL     1      -8.654  16.229  66.208  1.00  0.00    -0.339 C  
BRANCH  18  20
HETATM   20  C   UNL     1      -6.428  16.218  67.128  1.00  0.00    -0.179 C  
BRANCH  20  21
HETATM   21  C   UNL     1      -6.494  17.731  67.022  1.00  0.00    -0.189 A  
HETATM   22  C   UNL     1      -6.652  18.515  68.175  1.00  0.00    -0.227 A  
HETATM   23  C   UNL     1      -6.807  19.897  68.079  1.00  0.00    -0.309 A  
HETATM   24  C   UNL     1      -6.796  20.515  66.830  1.00  0.00    -0.326 A  
HETATM   25  C   UNL     1      -6.619  19.752  65.677  1.00  0.00    -0.281 A  
HETATM   26  C   UNL     1      -6.466  18.366  65.770  1.00  0.00    -0.305 A  
ENDBRANCH  20  21
ENDBRANCH  18  20
ENDBRANCH  17  18
ENDBRANCH  16  17
ENDBRANCH  15  16
ENDBRANCH  13  15
ENDBRANCH  10  13
BRANCH  12  27
HETATM   27  C   UNL     1     -10.352  12.281  67.499  1.00  0.00    -0.214 A  
HETATM   28  C   UNL     1      -8.879  11.962  65.597  1.00  0.00     0.191 A  
HETATM   29  O   UNL     1     -13.530  12.422  64.823  1.00  0.00    -0.600 OA 
HETATM   30  C   UNL     1     -11.450  12.360  66.619  1.00  0.00    -0.429 A  
HETATM   31  O   UNL     1     -12.179  12.184  63.112  1.00  0.00    -0.447 OA 
HETATM   32  C   UNL     1     -11.253  12.230  65.240  1.00  0.00    -0.328 A  
HETATM   33  C   UNL     1      -9.071  12.066  66.973  1.00  0.00    -0.191 A  
HETATM   34  C   UNL     1      -9.966  12.047  64.724  1.00  0.00    -0.241 A  
HETATM   35  N   UNL     1     -12.403  12.282  64.328  1.00  0.00    -0.435 N  
ENDBRANCH  12  27
ENDBRANCH   3   5
ENDBRANCH   2   3
TORSDOF 10
ENDMDL
MODEL      110
REMARK 921   NORMALIZED FREE ENERGY PREDICTED BY IDOCK:   -5.27 KCAL/MOL
REMARK 922        TOTAL FREE ENERGY PREDICTED BY IDOCK:   -9.87 KCAL/MOL
REMARK 923 INTER-LIGAND FREE ENERGY PREDICTED BY IDOCK:   -7.36 KCAL/MOL
REMARK 924 INTRA-LIGAND FREE ENERGY PREDICTED BY IDOCK:   -2.51 KCAL/MOL
REMARK 927      BINDING AFFINITY PREDICTED BY RF-SCORE:    0.00 PKD
ROOT
HETATM    1  C   UNL     1     -10.800   6.966  69.116  1.00  0.00    -0.228 C  
HETATM    2  O   UNL     1     -11.482   7.782  70.074  1.00  0.00    -0.129 OA 
ENDROOT
BRANCH   2   3
HETATM    3  C   UNL     1     -10.653   8.641  70.721  1.00  0.00    -0.210 C  
HETATM    4  O   UNL     1      -9.562   8.344  71.182  1.00  0.00    -0.158 OA 
BRANCH   3   5
HETATM    5  C   UNL     1     -11.263   9.990  70.842  1.00  0.00    -0.415 C  
HETATM    6  C   UNL     1     -12.392  10.167  71.569  1.00  0.00    -0.408 C  
HETATM    7  C   UNL     1     -13.096   9.124  72.404  1.00  0.00    -0.493 C  
HETATM    8  N   UNL     1     -13.019  11.401  71.569  1.00  0.00    -0.440 NA 
HETATM    9  C   UNL     1     -12.694  12.454  70.736  1.00  0.00    -0.123 C  
HETATM   10  C   UNL     1     -11.585  12.382  69.961  1.00  0.00    -0.216 C  
HETATM   11  C   UNL     1     -13.631  13.639  70.798  1.00  0.00     0.325 C  
HETATM   12  C   UNL     1     -10.660  11.152  70.033  1.00  0.00     0.289 C  
BRANCH  10  13
HETATM   13  C   UNL     1     -11.199  13.546  69.113  1.00  0.00    -0.260 C  
HETATM   14  O   UNL     1     -11.844  13.984  68.172  1.00  0.00    -0.338 OA 
BRANCH  13  15
HETATM   15  O   UNL     1     -10.137  14.175  69.672  1.00  0.00     0.192 OA 
BRANCH  15  16
HETATM   16  C   UNL     1     -10.243  15.609  69.651  1.00  0.00    -0.291 C  
BRANCH  16  17
HETATM   17  C   UNL     1      -9.115  16.099  68.731  1.00  0.00    -0.229 C  
BRANCH  17  18
HETATM   18  N   UNL     1      -9.496  16.949  67.596  1.00  0.00    -0.239 NA 
HETATM   19  C   UNL     1      -9.042  18.327  67.808  1.00  0.00    -0.267 C  
BRANCH  18  20
HETATM   20  C   UNL     1      -8.896  16.416  66.348  1.00  0.00    -0.311 C  
BRANCH  20  21
HETATM   21  C   UNL     1      -9.792  15.422  65.632  1.00  0.00    -0.387 A  
HETATM   22  C   UNL     1     -10.925  15.866  64.934  1.00  0.00    -0.427 A  
HETATM   23  C   UNL     1     -11.803  14.955  64.351  1.00  0.00    -0.372 A  
HETATM   24  C   UNL     1     -11.556  13.587  64.451  1.00  0.00    -0.429 A  
HETATM   25  C   UNL     1     -10.424  13.130  65.124  1.00  0.00    -0.339 A  
HETATM   26  C   UNL     1      -9.542  14.042  65.710  1.00  0.00    -0.138 A  
ENDBRANCH  20  21
ENDBRANCH  18  20
ENDBRANCH  17  18
ENDBRANCH  16  17
ENDBRANCH  15  16
ENDBRANCH  13  15
ENDBRANCH  10  13
BRANCH  12  27
HETATM   27  C   UNL     1     -10.215  10.696  68.640  1.00  0.00    -0.196 A  
HETATM   28  C   UNL     1     -10.751   9.926  66.402  1.00  0.00    -0.034 A  
HETATM   29  O   UNL     1      -6.196  10.335  67.640  1.00  0.00    -0.056 OA 
HETATM   30  C   UNL     1      -8.843  10.561  68.345  1.00  0.00    -0.140 A  
HETATM   31  O   UNL     1      -6.698   9.593  65.638  1.00  0.00    -0.080 OA 
HETATM   32  C   UNL     1      -8.440  10.119  67.080  1.00  0.00    -0.129 A  
HETATM   33  C   UNL     1     -11.159  10.389  67.652  1.00  0.00    -0.361 A  
HETATM   34  C   UNL     1      -9.392   9.785  66.111  1.00  0.00    -0.243 A  
HETATM   35  N   UNL     1      -7.010  10.008  66.764  1.00  0.00    -0.088 N  
ENDBRANCH  12  27
ENDBRANCH   3   5
ENDBRANCH   2   3
TORSDOF 10
ENDMDL
MODEL      111
REMARK 921   NORMALIZED FREE ENERGY PREDICTED BY IDOCK:   -5.26 KCAL/MOL
REMARK 922        TOTAL FREE ENERGY PREDICTED BY IDOCK:   -9.85 KCAL/MOL
REMARK 923 INTER-LIGAND FREE ENERGY PREDICTED BY IDOCK:   -8.09 KCAL/MOL
REMARK 924 INTRA-LIGAND FREE ENERGY PREDICTED BY IDOCK:   -1.76 KCAL/MOL
REMARK 927      BINDING AFFINITY PREDICTED BY RF-SCORE:    0.00 PKD
ROOT
HETATM    1  C   UNL     1     -12.554  13.468  65.224  1.00  0.00    -0.468 C  
HETATM    2  O   UNL     1     -12.383  12.414  66.178  1.00  0.00    -0.606 OA 
ENDROOT
BRANCH   2   3
HETATM    3  C   UNL     1     -11.449  12.702  67.120  1.00  0.00    -0.346 C  
HETATM    4  O   UNL     1     -10.660  13.634  67.058  1.00  0.00    -0.271 OA 
BRANCH   3   5
HETATM    5  C   UNL     1     -11.470  11.708  68.223  1.00  0.00    -0.369 C  
HETATM    6  C   UNL     1     -11.784  12.092  69.483  1.00  0.00    -0.336 C  
HETATM    7  C   UNL     1     -12.239  13.465  69.917  1.00  0.00    -0.337 C  
HETATM    8  N   UNL     1     -11.676  11.184  70.522  1.00  0.00    -0.332 NA 
HETATM    9  C   UNL     1     -11.094   9.935  70.423  1.00  0.00    -0.319 C  
HETATM   10  C   UNL     1     -10.738   9.452  69.209  1.00  0.00    -0.228 C  
HETATM   11  C   UNL     1     -10.935   9.192  71.730  1.00  0.00    -0.429 C  
HETATM   12  C   UNL     1     -11.015  10.267  67.931  1.00  0.00    -0.350 C  
BRANCH  10  13
HETATM   13  C   UNL     1     -10.173   8.076  69.098  1.00  0.00    -0.217 C  
HETATM   14  O   UNL     1     -10.788   7.083  68.739  1.00  0.00    -0.211 OA 
BRANCH  13  15
HETATM   15  O   UNL     1      -8.827   8.130  69.249  1.00  0.00    -0.142 OA 
BRANCH  15  16
HETATM   16  C   UNL     1      -8.200   6.837  69.261  1.00  0.00    -0.124 C  
BRANCH  16  17
HETATM   17  C   UNL     1      -7.477   6.710  67.911  1.00  0.00    -0.098 C  
BRANCH  17  18
HETATM   18  N   UNL     1      -7.807   5.544  67.081  1.00  0.00    -0.101 NA 
HETATM   19  C   UNL     1      -8.132   4.388  67.921  1.00  0.00    -0.094 C  
BRANCH  18  20
HETATM   20  C   UNL     1      -8.964   5.863  66.208  1.00  0.00    -0.148 C  
BRANCH  20  21
HETATM   21  C   UNL     1      -9.039   4.987  64.971  1.00  0.00    -0.106 A  
HETATM   22  C   UNL     1      -8.141   5.180  63.912  1.00  0.00    -0.119 A  
HETATM   23  C   UNL     1      -8.260   4.444  62.734  1.00  0.00    -0.086 A  
HETATM   24  C   UNL     1      -9.275   3.497  62.604  1.00  0.00    -0.095 A  
HETATM   25  C   UNL     1     -10.164   3.280  63.656  1.00  0.00    -0.204 A  
HETATM   26  C   UNL     1     -10.047   4.018  64.837  1.00  0.00    -0.214 A  
ENDBRANCH  20  21
ENDBRANCH  18  20
ENDBRANCH  17  18
ENDBRANCH  16  17
ENDBRANCH  15  16
ENDBRANCH  13  15
ENDBRANCH  10  13
BRANCH  12  27
HETATM   27  C   UNL     1      -9.822  10.238  66.971  1.00  0.00    -0.238 A  
HETATM   28  C   UNL     1      -8.777   9.443  64.930  1.00  0.00    -0.220 A  
HETATM   29  O   UNL     1      -6.313  12.312  67.783  1.00  0.00    -0.075 OA 
HETATM   30  C   UNL     1      -8.638  10.933  67.292  1.00  0.00    -0.128 A  
HETATM   31  O   UNL     1      -5.365  11.545  65.960  1.00  0.00    -0.288 OA 
HETATM   32  C   UNL     1      -7.541  10.884  66.425  1.00  0.00    -0.146 A  
HETATM   33  C   UNL     1      -9.882   9.507  65.777  1.00  0.00    -0.363 A  
HETATM   34  C   UNL     1      -7.601  10.126  65.251  1.00  0.00    -0.144 A  
HETATM   35  N   UNL     1      -6.320  11.634  66.746  1.00  0.00    -0.140 N  
ENDBRANCH  12  27
ENDBRANCH   3   5
ENDBRANCH   2   3
TORSDOF 10
ENDMDL
MODEL      112
REMARK 921   NORMALIZED FREE ENERGY PREDICTED BY IDOCK:   -5.22 KCAL/MOL
REMARK 922        TOTAL FREE ENERGY PREDICTED BY IDOCK:   -9.79 KCAL/MOL
REMARK 923 INTER-LIGAND FREE ENERGY PREDICTED BY IDOCK:   -7.22 KCAL/MOL
REMARK 924 INTRA-LIGAND FREE ENERGY PREDICTED BY IDOCK:   -2.57 KCAL/MOL
REMARK 927      BINDING AFFINITY PREDICTED BY RF-SCORE:    0.00 PKD
ROOT
HETATM    1  C   UNL     1      -8.134   8.119  64.656  1.00  0.00    -0.148 C  
HETATM    2  O   UNL     1      -8.309   8.239  66.072  1.00  0.00    -0.114 OA 
ENDROOT
BRANCH   2   3
HETATM    3  C   UNL     1      -9.554   8.656  66.415  1.00  0.00    -0.247 C  
HETATM    4  O   UNL     1     -10.233   9.436  65.764  1.00  0.00    -0.231 OA 
BRANCH   3   5
HETATM    5  C   UNL     1      -9.976   8.081  67.718  1.00  0.00    -0.224 C  
HETATM    6  C   UNL     1     -10.588   6.874  67.767  1.00  0.00    -0.244 C  
HETATM    7  C   UNL     1     -10.822   5.938  66.605  1.00  0.00    -0.292 C  
HETATM    8  N   UNL     1     -11.089   6.409  68.970  1.00  0.00    -0.353 NA 
HETATM    9  C   UNL     1     -11.183   7.155  70.129  1.00  0.00    -0.262 C  
HETATM   10  C   UNL     1     -10.608   8.380  70.190  1.00  0.00    -0.235 C  
HETATM   11  C   UNL     1     -11.924   6.489  71.266  1.00  0.00    -0.364 C  
HETATM   12  C   UNL     1      -9.812   8.930  68.991  1.00  0.00    -0.182 C  
BRANCH  10  13
HETATM   13  C   UNL     1     -10.652   9.154  71.464  1.00  0.00    -0.358 C  
HETATM   14  O   UNL     1     -11.648   9.675  71.944  1.00  0.00    -0.339 OA 
BRANCH  13  15
HETATM   15  O   UNL     1      -9.472   9.015  72.114  1.00  0.00    -0.340 OA 
BRANCH  15  16
HETATM   16  C   UNL     1      -9.478   7.963  73.094  1.00  0.00    -0.278 C  
BRANCH  16  17
HETATM   17  C   UNL     1      -8.229   8.189  73.959  1.00  0.00    -0.253 C  
BRANCH  17  18
HETATM   18  N   UNL     1      -7.024   8.686  73.282  1.00  0.00    -0.325 NA 
HETATM   19  C   UNL     1      -5.963   8.961  74.254  1.00  0.00    -0.104 C  
BRANCH  18  20
HETATM   20  C   UNL     1      -6.551   7.679  72.301  1.00  0.00    -0.056 C  
BRANCH  20  21
HETATM   21  C   UNL     1      -6.368   8.244  70.905  1.00  0.00    -0.037 A  
HETATM   22  C   UNL     1      -6.318   7.388  69.795  1.00  0.00    -0.031 A  
HETATM   23  C   UNL     1      -6.058   7.889  68.521  1.00  0.00    -0.040 A  
HETATM   24  C   UNL     1      -5.853   9.255  68.338  1.00  0.00    -0.041 A  
HETATM   25  C   UNL     1      -5.919  10.122  69.427  1.00  0.00    -0.037 A  
HETATM   26  C   UNL     1      -6.178   9.622  70.706  1.00  0.00    -0.092 A  
ENDBRANCH  20  21
ENDBRANCH  18  20
ENDBRANCH  17  18
ENDBRANCH  16  17
ENDBRANCH  15  16
ENDBRANCH  13  15
ENDBRANCH  10  13
BRANCH  12  27
HETATM   27  C   UNL     1     -10.133  10.405  68.728  1.00  0.00    -0.198 A  
HETATM   28  C   UNL     1     -11.747  12.179  68.358  1.00  0.00    -0.388 A  
HETATM   29  O   UNL     1      -7.132  13.240  68.245  1.00  0.00    -0.087 OA 
HETATM   30  C   UNL     1      -9.089  11.334  68.544  1.00  0.00    -0.173 A  
HETATM   31  O   UNL     1      -8.603  14.821  67.863  1.00  0.00    -0.155 OA 
HETATM   32  C   UNL     1      -9.384  12.675  68.279  1.00  0.00    -0.195 A  
HETATM   33  C   UNL     1     -11.460  10.846  68.647  1.00  0.00    -0.380 A  
HETATM   34  C   UNL     1     -10.713  13.098  68.169  1.00  0.00    -0.258 A  
HETATM   35  N   UNL     1      -8.295  13.648  68.118  1.00  0.00    -0.158 N  
ENDBRANCH  12  27
ENDBRANCH   3   5
ENDBRANCH   2   3
TORSDOF 10
ENDMDL
MODEL      113
REMARK 921   NORMALIZED FREE ENERGY PREDICTED BY IDOCK:   -5.22 KCAL/MOL
REMARK 922        TOTAL FREE ENERGY PREDICTED BY IDOCK:   -9.79 KCAL/MOL
REMARK 923 INTER-LIGAND FREE ENERGY PREDICTED BY IDOCK:   -7.50 KCAL/MOL
REMARK 924 INTRA-LIGAND FREE ENERGY PREDICTED BY IDOCK:   -2.29 KCAL/MOL
REMARK 927      BINDING AFFINITY PREDICTED BY RF-SCORE:    0.00 PKD
ROOT
HETATM    1  C   UNL     1     -12.502  13.778  65.606  1.00  0.00    -0.503 C  
HETATM    2  O   UNL     1     -12.269  12.571  66.340  1.00  0.00    -0.584 OA 
ENDROOT
BRANCH   2   3
HETATM    3  C   UNL     1     -11.244  12.682  67.224  1.00  0.00    -0.298 C  
HETATM    4  O   UNL     1     -10.346  13.507  67.151  1.00  0.00    -0.248 OA 
BRANCH   3   5
HETATM    5  C   UNL     1     -11.323  11.636  68.275  1.00  0.00    -0.348 C  
HETATM    6  C   UNL     1     -11.746  11.950  69.523  1.00  0.00    -0.345 C  
HETATM    7  C   UNL     1     -12.272  13.289  69.982  1.00  0.00    -0.345 C  
HETATM    8  N   UNL     1     -11.693  10.996  70.524  1.00  0.00    -0.334 NA 
HETATM    9  C   UNL     1     -11.070   9.768  70.415  1.00  0.00    -0.307 C  
HETATM   10  C   UNL     1     -10.606   9.354  69.211  1.00  0.00    -0.239 C  
HETATM   11  C   UNL     1     -10.992   8.968  71.695  1.00  0.00    -0.435 C  
HETATM   12  C   UNL     1     -10.806  10.222  67.955  1.00  0.00    -0.325 C  
BRANCH  10  13
HETATM   13  C   UNL     1      -9.995   8.000  69.082  1.00  0.00    -0.188 C  
HETATM   14  O   UNL     1      -8.883   7.682  69.477  1.00  0.00    -0.139 OA 
BRANCH  13  15
HETATM   15  O   UNL     1     -10.934   7.122  68.653  1.00  0.00    -0.144 OA 
BRANCH  15  16
HETATM   16  C   UNL     1     -10.514   5.750  68.729  1.00  0.00    -0.242 C  
BRANCH  16  17
HETATM   17  C   UNL     1     -10.410   5.263  67.275  1.00  0.00    -0.199 C  
BRANCH  17  18
HETATM   18  N   UNL     1      -9.099   5.375  66.622  1.00  0.00    -0.121 NA 
HETATM   19  C   UNL     1      -8.877   4.245  65.715  1.00  0.00    -0.121 C  
BRANCH  18  20
HETATM   20  C   UNL     1      -9.028   6.645  65.859  1.00  0.00    -0.074 C  
BRANCH  20  21
HETATM   21  C   UNL     1      -7.780   6.758  65.002  1.00  0.00    -0.108 A  
HETATM   22  C   UNL     1      -7.878   6.734  63.603  1.00  0.00    -0.106 A  
HETATM   23  C   UNL     1      -6.732   6.744  62.810  1.00  0.00    -0.046 A  
HETATM   24  C   UNL     1      -5.472   6.787  63.405  1.00  0.00    -0.031 A  
HETATM   25  C   UNL     1      -5.359   6.832  64.794  1.00  0.00    -0.027 A  
HETATM   26  C   UNL     1      -6.507   6.821  65.592  1.00  0.00    -0.050 A  
ENDBRANCH  20  21
ENDBRANCH  18  20
ENDBRANCH  17  18
ENDBRANCH  16  17
ENDBRANCH  15  16
ENDBRANCH  13  15
ENDBRANCH  10  13
BRANCH  12  27
HETATM   27  C   UNL     1      -9.541  10.269  67.092  1.00  0.00    -0.199 A  
HETATM   28  C   UNL     1      -7.130  10.458  66.893  1.00  0.00    -0.094 A  
HETATM   29  O   UNL     1      -9.720  10.101  62.943  1.00  0.00    -0.261 OA 
HETATM   30  C   UNL     1      -9.642  10.236  65.687  1.00  0.00    -0.289 A  
HETATM   31  O   UNL     1      -7.545  10.323  62.778  1.00  0.00    -0.139 OA 
HETATM   32  C   UNL     1      -8.487  10.304  64.900  1.00  0.00    -0.177 A  
HETATM   33  C   UNL     1      -8.274  10.366  67.683  1.00  0.00    -0.110 A  
HETATM   34  C   UNL     1      -7.230  10.432  65.500  1.00  0.00    -0.138 A  
HETATM   35  N   UNL     1      -8.592  10.238  63.437  1.00  0.00    -0.181 N  
ENDBRANCH  12  27
ENDBRANCH   3   5
ENDBRANCH   2   3
TORSDOF 10
ENDMDL
MODEL      114
REMARK 921   NORMALIZED FREE ENERGY PREDICTED BY IDOCK:   -5.21 KCAL/MOL
REMARK 922        TOTAL FREE ENERGY PREDICTED BY IDOCK:   -9.78 KCAL/MOL
REMARK 923 INTER-LIGAND FREE ENERGY PREDICTED BY IDOCK:   -9.23 KCAL/MOL
REMARK 924 INTRA-LIGAND FREE ENERGY PREDICTED BY IDOCK:   -0.55 KCAL/MOL
REMARK 927      BINDING AFFINITY PREDICTED BY RF-SCORE:    0.00 PKD
ROOT
HETATM    1  C   UNL     1      -8.906   9.227  70.462  1.00  0.00    -0.241 C  
HETATM    2  O   UNL     1      -8.958   9.693  69.109  1.00  0.00    -0.138 OA 
ENDROOT
BRANCH   2   3
HETATM    3  C   UNL     1      -9.886   9.040  68.362  1.00  0.00    -0.166 C  
HETATM    4  O   UNL     1     -10.523   8.067  68.736  1.00  0.00    -0.208 OA 
BRANCH   3   5
HETATM    5  C   UNL     1      -9.997   9.630  67.004  1.00  0.00    -0.263 C  
HETATM    6  C   UNL     1      -9.064   9.357  66.062  1.00  0.00    -0.183 C  
HETATM    7  C   UNL     1      -7.909   8.393  66.193  1.00  0.00    -0.101 C  
HETATM    8  N   UNL     1      -9.109  10.013  64.844  1.00  0.00    -0.202 NA 
HETATM    9  C   UNL     1      -9.937  11.079  64.550  1.00  0.00    -0.310 C  
HETATM   10  C   UNL     1     -10.905  11.441  65.425  1.00  0.00    -0.292 C  
HETATM   11  C   UNL     1      -9.685  11.742  63.215  1.00  0.00    -0.350 C  
HETATM   12  C   UNL     1     -11.120  10.646  66.726  1.00  0.00    -0.103 C  
BRANCH  10  13
HETATM   13  C   UNL     1     -11.840  12.549  65.075  1.00  0.00    -0.396 C  
HETATM   14  O   UNL     1     -13.056  12.518  65.199  1.00  0.00    -0.659 OA 
BRANCH  13  15
HETATM   15  O   UNL     1     -11.127  13.668  64.800  1.00  0.00    -0.336 OA 
BRANCH  15  16
HETATM   16  C   UNL     1     -11.563  14.821  65.540  1.00  0.00    -0.301 C  
BRANCH  16  17
HETATM   17  C   UNL     1     -10.885  16.028  64.873  1.00  0.00    -0.372 C  
BRANCH  17  18
HETATM   18  N   UNL     1     -10.051  16.885  65.725  1.00  0.00    -0.558 NA 
HETATM   19  C   UNL     1     -10.516  18.274  65.672  1.00  0.00    -0.095 C  
BRANCH  18  20
HETATM   20  C   UNL     1     -10.102  16.398  67.125  1.00  0.00    -0.271 C  
BRANCH  20  21
HETATM   21  C   UNL     1      -8.763  15.892  67.630  1.00  0.00    -0.174 A  
HETATM   22  C   UNL     1      -8.043  16.625  68.584  1.00  0.00    -0.237 A  
HETATM   23  C   UNL     1      -6.772  16.217  68.985  1.00  0.00    -0.182 A  
HETATM   24  C   UNL     1      -6.207  15.064  68.444  1.00  0.00    -0.106 A  
HETATM   25  C   UNL     1      -6.918  14.313  67.509  1.00  0.00    -0.177 A  
HETATM   26  C   UNL     1      -8.192  14.721  67.105  1.00  0.00    -0.239 A  
ENDBRANCH  20  21
ENDBRANCH  18  20
ENDBRANCH  17  18
ENDBRANCH  16  17
ENDBRANCH  15  16
ENDBRANCH  13  15
ENDBRANCH  10  13
BRANCH  12  27
HETATM   27  C   UNL     1     -11.349  11.572  67.925  1.00  0.00    -0.372 A  
HETATM   28  C   UNL     1     -10.967  13.681  69.063  1.00  0.00    -0.271 A  
HETATM   29  O   UNL     1     -13.617  10.387  71.200  1.00  0.00    -0.195 OA 
HETATM   30  C   UNL     1     -12.102  11.126  69.029  1.00  0.00    -0.315 A  
HETATM   31  O   UNL     1     -13.222  12.278  72.236  1.00  0.00    -0.470 OA 
HETATM   32  C   UNL     1     -12.289  11.965  70.134  1.00  0.00    -0.171 A  
HETATM   33  C   UNL     1     -10.798  12.860  67.950  1.00  0.00    -0.246 A  
HETATM   34  C   UNL     1     -11.708  13.237  70.161  1.00  0.00    -0.254 A  
HETATM   35  N   UNL     1     -13.100  11.511  71.270  1.00  0.00    -0.276 N  
ENDBRANCH  12  27
ENDBRANCH   3   5
ENDBRANCH   2   3
TORSDOF 10
ENDMDL
MODEL      115
REMARK 921   NORMALIZED FREE ENERGY PREDICTED BY IDOCK:   -5.20 KCAL/MOL
REMARK 922        TOTAL FREE ENERGY PREDICTED BY IDOCK:   -9.75 KCAL/MOL
REMARK 923 INTER-LIGAND FREE ENERGY PREDICTED BY IDOCK:   -8.76 KCAL/MOL
REMARK 924 INTRA-LIGAND FREE ENERGY PREDICTED BY IDOCK:   -1.00 KCAL/MOL
REMARK 927      BINDING AFFINITY PREDICTED BY RF-SCORE:    0.00 PKD
ROOT
HETATM    1  C   UNL     1      -7.598   6.046  69.268  1.00  0.00    -0.094 C  
HETATM    2  O   UNL     1      -7.715   7.141  68.354  1.00  0.00    -0.115 OA 
ENDROOT
BRANCH   2   3
HETATM    3  C   UNL     1      -8.990   7.342  67.933  1.00  0.00    -0.131 C  
HETATM    4  O   UNL     1      -9.541   6.704  67.048  1.00  0.00    -0.138 OA 
BRANCH   3   5
HETATM    5  C   UNL     1      -9.624   8.477  68.651  1.00  0.00    -0.153 C  
HETATM    6  C   UNL     1     -10.612   8.251  69.550  1.00  0.00    -0.213 C  
HETATM    7  C   UNL     1     -11.112   6.904  70.015  1.00  0.00    -0.344 C  
HETATM    8  N   UNL     1     -11.279   9.322  70.117  1.00  0.00    -0.237 NA 
HETATM    9  C   UNL     1     -11.152  10.637  69.713  1.00  0.00    -0.295 C  
HETATM   10  C   UNL     1     -10.196  10.976  68.814  1.00  0.00    -0.211 C  
HETATM   11  C   UNL     1     -12.111  11.608  70.363  1.00  0.00    -0.462 C  
HETATM   12  C   UNL     1      -9.223   9.913  68.271  1.00  0.00    -0.130 C  
BRANCH  10  13
HETATM   13  C   UNL     1     -10.016  12.405  68.431  1.00  0.00    -0.210 C  
HETATM   14  O   UNL     1      -9.114  13.135  68.815  1.00  0.00    -0.017 OA 
BRANCH  13  15
HETATM   15  O   UNL     1     -10.877  12.714  67.431  1.00  0.00    -0.234 OA 
BRANCH  15  16
HETATM   16  C   UNL     1     -11.914  13.626  67.829  1.00  0.00    -0.352 C  
BRANCH  16  17
HETATM   17  C   UNL     1     -11.433  15.021  67.400  1.00  0.00    -0.317 C  
BRANCH  17  18
HETATM   18  N   UNL     1     -11.344  16.050  68.444  1.00  0.00    -0.365 NA 
HETATM   19  C   UNL     1     -11.861  15.539  69.717  1.00  0.00    -0.359 C  
BRANCH  18  20
HETATM   20  C   UNL     1      -9.931  16.469  68.614  1.00  0.00    -0.248 C  
BRANCH  20  21
HETATM   21  C   UNL     1      -9.657  17.869  68.098  1.00  0.00    -0.306 A  
HETATM   22  C   UNL     1      -8.448  18.513  68.404  1.00  0.00    -0.352 A  
HETATM   23  C   UNL     1      -8.226  19.832  68.012  1.00  0.00    -0.335 A  
HETATM   24  C   UNL     1      -9.206  20.523  67.302  1.00  0.00    -0.500 A  
HETATM   25  C   UNL     1     -10.404  19.891  66.973  1.00  0.00    -0.592 A  
HETATM   26  C   UNL     1     -10.630  18.569  67.365  1.00  0.00    -0.463 A  
ENDBRANCH  20  21
ENDBRANCH  18  20
ENDBRANCH  17  18
ENDBRANCH  16  17
ENDBRANCH  15  16
ENDBRANCH  13  15
ENDBRANCH  10  13
BRANCH  12  27
HETATM   27  C   UNL     1      -9.014  10.056  66.760  1.00  0.00    -0.151 A  
HETATM   28  C   UNL     1      -9.916  10.228  64.513  1.00  0.00    -0.359 A  
HETATM   29  O   UNL     1      -5.213  10.201  65.083  1.00  0.00    -0.052 OA 
HETATM   30  C   UNL     1      -7.711  10.076  66.224  1.00  0.00    -0.105 A  
HETATM   31  O   UNL     1      -6.045  10.305  63.057  1.00  0.00    -0.131 OA 
HETATM   32  C   UNL     1      -7.523  10.181  64.842  1.00  0.00    -0.137 A  
HETATM   33  C   UNL     1     -10.110  10.148  65.891  1.00  0.00    -0.325 A  
HETATM   34  C   UNL     1      -8.625  10.241  63.982  1.00  0.00    -0.194 A  
HETATM   35  N   UNL     1      -6.164  10.233  64.288  1.00  0.00    -0.129 N  
ENDBRANCH  12  27
ENDBRANCH   3   5
ENDBRANCH   2   3
TORSDOF 10
ENDMDL
MODEL      116
REMARK 921   NORMALIZED FREE ENERGY PREDICTED BY IDOCK:   -5.17 KCAL/MOL
REMARK 922        TOTAL FREE ENERGY PREDICTED BY IDOCK:   -9.71 KCAL/MOL
REMARK 923 INTER-LIGAND FREE ENERGY PREDICTED BY IDOCK:   -7.96 KCAL/MOL
REMARK 924 INTRA-LIGAND FREE ENERGY PREDICTED BY IDOCK:   -1.75 KCAL/MOL
REMARK 927      BINDING AFFINITY PREDICTED BY RF-SCORE:    0.00 PKD
ROOT
HETATM    1  C   UNL     1     -12.780  13.329  65.398  1.00  0.00    -0.399 C  
HETATM    2  O   UNL     1     -11.832  12.452  66.017  1.00  0.00    -0.444 OA 
ENDROOT
BRANCH   2   3
HETATM    3  C   UNL     1     -10.569  12.628  65.551  1.00  0.00    -0.276 C  
HETATM    4  O   UNL     1     -10.241  12.547  64.376  1.00  0.00    -0.330 OA 
BRANCH   3   5
HETATM    5  C   UNL     1      -9.616  12.886  66.660  1.00  0.00    -0.257 C  
HETATM    6  C   UNL     1      -9.151  14.138  66.885  1.00  0.00    -0.245 C  
HETATM    7  C   UNL     1      -9.580  15.397  66.171  1.00  0.00    -0.362 C  
HETATM    8  N   UNL     1      -8.168  14.341  67.838  1.00  0.00    -0.143 NA 
HETATM    9  C   UNL     1      -7.468  13.338  68.480  1.00  0.00    -0.115 C  
HETATM   10  C   UNL     1      -7.847  12.047  68.323  1.00  0.00    -0.145 C  
HETATM   11  C   UNL     1      -6.323  13.804  69.350  1.00  0.00    -0.111 C  
HETATM   12  C   UNL     1      -9.078  11.691  67.468  1.00  0.00    -0.172 C  
BRANCH  10  13
HETATM   13  C   UNL     1      -7.133  10.972  69.070  1.00  0.00    -0.106 C  
HETATM   14  O   UNL     1      -5.940  10.721  68.987  1.00  0.00    -0.041 OA 
BRANCH  13  15
HETATM   15  O   UNL     1      -7.961  10.454  70.011  1.00  0.00    -0.103 OA 
BRANCH  15  16
HETATM   16  C   UNL     1      -7.642   9.099  70.370  1.00  0.00    -0.115 C  
BRANCH  16  17
HETATM   17  C   UNL     1      -8.750   8.650  71.336  1.00  0.00    -0.204 C  
BRANCH  17  18
HETATM   18  N   UNL     1      -9.448   7.398  71.020  1.00  0.00    -0.158 NA 
HETATM   19  C   UNL     1      -9.865   6.716  72.249  1.00  0.00    -0.152 C  
BRANCH  18  20
HETATM   20  C   UNL     1     -10.640   7.687  70.185  1.00  0.00    -0.236 C  
BRANCH  20  21
HETATM   21  C   UNL     1     -11.433   8.886  70.671  1.00  0.00    -0.280 A  
HETATM   22  C   UNL     1     -12.370   8.743  71.705  1.00  0.00    -0.394 A  
HETATM   23  C   UNL     1     -13.169   9.817  72.095  1.00  0.00    -0.530 A  
HETATM   24  C   UNL     1     -13.035  11.051  71.461  1.00  0.00    -0.553 A  
HETATM   25  C   UNL     1     -12.095  11.214  70.445  1.00  0.00    -0.475 A  
HETATM   26  C   UNL     1     -11.294  10.139  70.052  1.00  0.00    -0.351 A  
ENDBRANCH  20  21
ENDBRANCH  18  20
ENDBRANCH  17  18
ENDBRANCH  16  17
ENDBRANCH  15  16
ENDBRANCH  13  15
ENDBRANCH  10  13
BRANCH  12  27
HETATM   27  C   UNL     1      -8.813  10.479  66.570  1.00  0.00    -0.155 A  
HETATM   28  C   UNL     1      -9.327   8.207  65.888  1.00  0.00    -0.126 A  
HETATM   29  O   UNL     1      -5.763  10.477  63.746  1.00  0.00    -0.145 OA 
HETATM   30  C   UNL     1      -7.753  10.505  65.641  1.00  0.00    -0.139 A  
HETATM   31  O   UNL     1      -6.208   8.407  63.177  1.00  0.00    -0.080 OA 
HETATM   32  C   UNL     1      -7.497   9.387  64.839  1.00  0.00    -0.107 A  
HETATM   33  C   UNL     1      -9.602   9.326  66.672  1.00  0.00    -0.263 A  
HETATM   34  C   UNL     1      -8.272   8.230  64.972  1.00  0.00    -0.160 A  
HETATM   35  N   UNL     1      -6.412   9.427  63.851  1.00  0.00    -0.092 N  
ENDBRANCH  12  27
ENDBRANCH   3   5
ENDBRANCH   2   3
TORSDOF 10
ENDMDL
MODEL      117
REMARK 921   NORMALIZED FREE ENERGY PREDICTED BY IDOCK:   -5.17 KCAL/MOL
REMARK 922        TOTAL FREE ENERGY PREDICTED BY IDOCK:   -9.71 KCAL/MOL
REMARK 923 INTER-LIGAND FREE ENERGY PREDICTED BY IDOCK:   -7.01 KCAL/MOL
REMARK 924 INTRA-LIGAND FREE ENERGY PREDICTED BY IDOCK:   -2.70 KCAL/MOL
REMARK 927      BINDING AFFINITY PREDICTED BY RF-SCORE:    0.00 PKD
ROOT
HETATM    1  C   UNL     1     -10.923  12.287  65.048  1.00  0.00    -0.302 C  
HETATM    2  O   UNL     1     -10.577  11.256  65.978  1.00  0.00    -0.258 OA 
ENDROOT
BRANCH   2   3
HETATM    3  C   UNL     1     -10.078  11.743  67.144  1.00  0.00    -0.203 C  
HETATM    4  O   UNL     1      -9.020  12.343  67.253  1.00  0.00    -0.175 OA 
BRANCH   3   5
HETATM    5  C   UNL     1     -10.964  11.412  68.289  1.00  0.00    -0.266 C  
HETATM    6  C   UNL     1     -11.669  12.386  68.912  1.00  0.00    -0.324 C  
HETATM    7  C   UNL     1     -11.752  13.837  68.503  1.00  0.00    -0.391 C  
HETATM    8  N   UNL     1     -12.389  12.084  70.055  1.00  0.00    -0.163 NA 
HETATM    9  C   UNL     1     -12.316  10.889  70.744  1.00  0.00    -0.390 C  
HETATM   10  C   UNL     1     -11.633   9.847  70.214  1.00  0.00    -0.319 C  
HETATM   11  C   UNL     1     -13.061  10.856  72.059  1.00  0.00    -0.462 C  
HETATM   12  C   UNL     1     -10.972   9.970  68.828  1.00  0.00    -0.242 C  
BRANCH  10  13
HETATM   13  C   UNL     1     -11.612   8.537  70.926  1.00  0.00    -0.263 C  
HETATM   14  O   UNL     1     -12.123   7.502  70.524  1.00  0.00    -0.150 OA 
BRANCH  13  15
HETATM   15  O   UNL     1     -10.765   8.614  71.982  1.00  0.00    -0.311 OA 
BRANCH  15  16
HETATM   16  C   UNL     1     -11.003   7.608  72.981  1.00  0.00    -0.400 C  
BRANCH  16  17
HETATM   17  C   UNL     1      -9.642   7.348  73.645  1.00  0.00    -0.287 C  
BRANCH  17  18
HETATM   18  N   UNL     1      -8.471   7.263  72.764  1.00  0.00    -0.109 NA 
HETATM   19  C   UNL     1      -7.415   8.172  73.220  1.00  0.00    -0.142 C  
BRANCH  18  20
HETATM   20  C   UNL     1      -7.956   5.871  72.752  1.00  0.00    -0.104 C  
BRANCH  20  21
HETATM   21  C   UNL     1      -8.216   5.150  71.442  1.00  0.00    -0.115 A  
HETATM   22  C   UNL     1      -9.291   5.530  70.626  1.00  0.00    -0.195 A  
HETATM   23  C   UNL     1      -9.593   4.814  69.468  1.00  0.00    -0.250 A  
HETATM   24  C   UNL     1      -8.817   3.715  69.106  1.00  0.00    -0.157 A  
HETATM   25  C   UNL     1      -7.732   3.337  69.895  1.00  0.00    -0.043 A  
HETATM   26  C   UNL     1      -7.429   4.052  71.057  1.00  0.00    -0.041 A  
ENDBRANCH  20  21
ENDBRANCH  18  20
ENDBRANCH  17  18
ENDBRANCH  16  17
ENDBRANCH  15  16
ENDBRANCH  13  15
ENDBRANCH  10  13
BRANCH  12  27
HETATM   27  C   UNL     1      -9.568   9.357  68.813  1.00  0.00    -0.156 A  
HETATM   28  C   UNL     1      -7.999   7.699  67.989  1.00  0.00    -0.122 A  
HETATM   29  O   UNL     1      -6.531  10.795  71.261  1.00  0.00    -0.090 OA 
HETATM   30  C   UNL     1      -8.570   9.854  69.676  1.00  0.00    -0.207 A  
HETATM   31  O   UNL     1      -5.141   9.259  70.542  1.00  0.00    -0.026 OA 
HETATM   32  C   UNL     1      -7.296   9.276  69.679  1.00  0.00    -0.068 A  
HETATM   33  C   UNL     1      -9.263   8.286  67.963  1.00  0.00    -0.142 A  
HETATM   34  C   UNL     1      -7.012   8.188  68.848  1.00  0.00    -0.062 A  
HETATM   35  N   UNL     1      -6.249   9.816  70.556  1.00  0.00    -0.075 N  
ENDBRANCH  12  27
ENDBRANCH   3   5
ENDBRANCH   2   3
TORSDOF 10
ENDMDL
MODEL      118
REMARK 921   NORMALIZED FREE ENERGY PREDICTED BY IDOCK:   -5.16 KCAL/MOL
REMARK 922        TOTAL FREE ENERGY PREDICTED BY IDOCK:   -9.69 KCAL/MOL
REMARK 923 INTER-LIGAND FREE ENERGY PREDICTED BY IDOCK:   -8.27 KCAL/MOL
REMARK 924 INTRA-LIGAND FREE ENERGY PREDICTED BY IDOCK:   -1.43 KCAL/MOL
REMARK 927      BINDING AFFINITY PREDICTED BY RF-SCORE:    0.00 PKD
ROOT
HETATM    1  C   UNL     1      -8.212   9.312  70.337  1.00  0.00    -0.178 C  
HETATM    2  O   UNL     1      -8.744  10.330  69.482  1.00  0.00    -0.175 OA 
ENDROOT
BRANCH   2   3
HETATM    3  C   UNL     1     -10.076  10.187  69.259  1.00  0.00    -0.222 C  
HETATM    4  O   UNL     1     -10.900   9.903  70.115  1.00  0.00    -0.258 OA 
BRANCH   3   5
HETATM    5  C   UNL     1     -10.405  10.374  67.823  1.00  0.00    -0.245 C  
HETATM    6  C   UNL     1      -9.860   9.561  66.886  1.00  0.00    -0.204 C  
HETATM    7  C   UNL     1      -8.987   8.356  67.140  1.00  0.00    -0.153 C  
HETATM    8  N   UNL     1     -10.074   9.825  65.544  1.00  0.00    -0.263 NA 
HETATM    9  C   UNL     1     -10.662  10.972  65.047  1.00  0.00    -0.194 C  
HETATM   10  C   UNL     1     -11.235  11.857  65.897  1.00  0.00    -0.373 C  
HETATM   11  C   UNL     1     -10.629  11.114  63.542  1.00  0.00    -0.393 C  
HETATM   12  C   UNL     1     -11.275  11.574  67.411  1.00  0.00    -0.367 C  
BRANCH  10  13
HETATM   13  C   UNL     1     -11.929  13.060  65.354  1.00  0.00    -0.414 C  
HETATM   14  O   UNL     1     -13.101  13.350  65.542  1.00  0.00    -0.519 OA 
BRANCH  13  15
HETATM   15  O   UNL     1     -11.015  13.891  64.796  1.00  0.00    -0.361 OA 
BRANCH  15  16
HETATM   16  C   UNL     1     -11.009  15.207  65.376  1.00  0.00    -0.374 C  
BRANCH  16  17
HETATM   17  C   UNL     1      -9.545  15.672  65.344  1.00  0.00    -0.085 C  
BRANCH  17  18
HETATM   18  N   UNL     1      -9.133  16.660  66.349  1.00  0.00    -0.271 NA 
HETATM   19  C   UNL     1      -7.675  16.809  66.358  1.00  0.00    -0.310 C  
BRANCH  18  20
HETATM   20  C   UNL     1      -9.763  17.969  66.050  1.00  0.00    -0.118 C  
BRANCH  20  21
HETATM   21  C   UNL     1      -9.815  18.896  67.251  1.00  0.00    -0.368 A  
HETATM   22  C   UNL     1      -9.988  18.373  68.541  1.00  0.00    -0.415 A  
HETATM   23  C   UNL     1     -10.129  19.221  69.639  1.00  0.00     0.184 A  
HETATM   24  C   UNL     1     -10.091  20.603  69.462  1.00  0.00     0.506 A  
HETATM   25  C   UNL     1      -9.900  21.137  68.189  1.00  0.00     0.422 A  
HETATM   26  C   UNL     1      -9.759  20.290  67.087  1.00  0.00    -0.592 A  
ENDBRANCH  20  21
ENDBRANCH  18  20
ENDBRANCH  17  18
ENDBRANCH  16  17
ENDBRANCH  15  16
ENDBRANCH  13  15
ENDBRANCH  10  13
BRANCH  12  27
HETATM   27  C   UNL     1     -10.935  12.822  68.230  1.00  0.00    -0.278 A  
HETATM   28  C   UNL     1      -9.369  14.564  68.867  1.00  0.00    -0.136 A  
HETATM   29  O   UNL     1     -13.628  14.461  70.939  1.00  0.00    -0.295 OA 
HETATM   30  C   UNL     1     -11.863  13.335  69.158  1.00  0.00    -0.378 A  
HETATM   31  O   UNL     1     -12.183  15.997  71.539  1.00  0.00    -0.440 OA 
HETATM   32  C   UNL     1     -11.540  14.461  69.923  1.00  0.00    -0.284 A  
HETATM   33  C   UNL     1      -9.694  13.458  68.084  1.00  0.00    -0.226 A  
HETATM   34  C   UNL     1     -10.286  15.068  69.791  1.00  0.00    -0.172 A  
HETATM   35  N   UNL     1     -12.520  15.012  70.867  1.00  0.00    -0.317 N  
ENDBRANCH  12  27
ENDBRANCH   3   5
ENDBRANCH   2   3
TORSDOF 10
ENDMDL
MODEL      119
REMARK 921   NORMALIZED FREE ENERGY PREDICTED BY IDOCK:   -5.15 KCAL/MOL
REMARK 922        TOTAL FREE ENERGY PREDICTED BY IDOCK:   -9.68 KCAL/MOL
REMARK 923 INTER-LIGAND FREE ENERGY PREDICTED BY IDOCK:   -8.13 KCAL/MOL
REMARK 924 INTRA-LIGAND FREE ENERGY PREDICTED BY IDOCK:   -1.55 KCAL/MOL
REMARK 927      BINDING AFFINITY PREDICTED BY RF-SCORE:    0.00 PKD
ROOT
HETATM    1  C   UNL     1      -8.364   6.606  74.116  1.00  0.00    -0.132 C  
HETATM    2  O   UNL     1      -8.266   7.639  73.130  1.00  0.00    -0.113 OA 
ENDROOT
BRANCH   2   3
HETATM    3  C   UNL     1      -7.418   7.323  72.118  1.00  0.00    -0.080 C  
HETATM    4  O   UNL     1      -6.759   6.295  72.055  1.00  0.00    -0.064 OA 
BRANCH   3   5
HETATM    5  C   UNL     1      -7.349   8.412  71.111  1.00  0.00    -0.074 C  
HETATM    6  C   UNL     1      -6.518   9.465  71.299  1.00  0.00    -0.037 C  
HETATM    7  C   UNL     1      -5.520   9.634  72.419  1.00  0.00     0.038 C  
HETATM    8  N   UNL     1      -6.558  10.533  70.419  1.00  0.00    -0.265 NA 
HETATM    9  C   UNL     1      -7.513  10.715  69.438  1.00  0.00    -0.135 C  
HETATM   10  C   UNL     1      -8.399   9.725  69.169  1.00  0.00    -0.137 C  
HETATM   11  C   UNL     1      -7.453  12.042  68.716  1.00  0.00    -0.086 C  
HETATM   12  C   UNL     1      -8.321   8.382  69.919  1.00  0.00    -0.124 C  
BRANCH  10  13
HETATM   13  C   UNL     1      -9.385   9.897  68.064  1.00  0.00    -0.130 C  
HETATM   14  O   UNL     1     -10.450  10.491  68.148  1.00  0.00    -0.166 OA 
BRANCH  13  15
HETATM   15  O   UNL     1      -8.831   9.480  66.899  1.00  0.00    -0.126 OA 
BRANCH  15  16
HETATM   16  C   UNL     1      -9.800   9.165  65.885  1.00  0.00    -0.235 C  
BRANCH  16  17
HETATM   17  C   UNL     1      -9.131   9.512  64.545  1.00  0.00    -0.197 C  
BRANCH  17  18
HETATM   18  N   UNL     1      -9.325  10.874  64.031  1.00  0.00    -0.229 NA 
HETATM   19  C   UNL     1      -8.840  10.978  62.652  1.00  0.00    -0.298 C  
BRANCH  18  20
HETATM   20  C   UNL     1     -10.766  11.225  64.078  1.00  0.00    -0.377 C  
BRANCH  20  21
HETATM   21  C   UNL     1     -11.073  12.360  65.037  1.00  0.00    -0.344 A  
HETATM   22  C   UNL     1     -12.376  12.869  65.138  1.00  0.00    -0.547 A  
HETATM   23  C   UNL     1     -12.649  13.971  65.946  1.00  0.00    -0.484 A  
HETATM   24  C   UNL     1     -11.624  14.574  66.673  1.00  0.00    -0.385 A  
HETATM   25  C   UNL     1     -10.327  14.067  66.599  1.00  0.00    -0.278 A  
HETATM   26  C   UNL     1     -10.051  12.964  65.788  1.00  0.00    -0.294 A  
ENDBRANCH  20  21
ENDBRANCH  18  20
ENDBRANCH  17  18
ENDBRANCH  16  17
ENDBRANCH  15  16
ENDBRANCH  13  15
ENDBRANCH  10  13
BRANCH  12  27
HETATM   27  C   UNL     1      -9.709   7.887  70.337  1.00  0.00    -0.179 A  
HETATM   28  C   UNL     1     -11.358   6.113  70.488  1.00  0.00    -0.381 A  
HETATM   29  O   UNL     1     -12.506  10.429  72.067  1.00  0.00    -0.290 OA 
HETATM   30  C   UNL     1     -10.641   8.784  70.897  1.00  0.00    -0.276 A  
HETATM   31  O   UNL     1     -14.002   8.827  72.150  1.00  0.00    -0.421 OA 
HETATM   32  C   UNL     1     -11.917   8.335  71.256  1.00  0.00    -0.287 A  
HETATM   33  C   UNL     1     -10.078   6.548  70.152  1.00  0.00    -0.204 A  
HETATM   34  C   UNL     1     -12.284   7.003  71.037  1.00  0.00    -0.419 A  
HETATM   35  N   UNL     1     -12.876   9.263  71.868  1.00  0.00    -0.372 N  
ENDBRANCH  12  27
ENDBRANCH   3   5
ENDBRANCH   2   3
TORSDOF 10
ENDMDL
MODEL      120
REMARK 921   NORMALIZED FREE ENERGY PREDICTED BY IDOCK:   -5.14 KCAL/MOL
REMARK 922        TOTAL FREE ENERGY PREDICTED BY IDOCK:   -9.67 KCAL/MOL
REMARK 923 INTER-LIGAND FREE ENERGY PREDICTED BY IDOCK:   -8.48 KCAL/MOL
REMARK 924 INTRA-LIGAND FREE ENERGY PREDICTED BY IDOCK:   -1.19 KCAL/MOL
REMARK 927      BINDING AFFINITY PREDICTED BY RF-SCORE:    0.00 PKD
ROOT
HETATM    1  C   UNL     1     -11.678   6.624  69.852  1.00  0.00    -0.270 C  
HETATM    2  O   UNL     1     -10.954   7.833  69.602  1.00  0.00    -0.220 OA 
ENDROOT
BRANCH   2   3
HETATM    3  C   UNL     1      -9.965   7.675  68.685  1.00  0.00    -0.174 C  
HETATM    4  O   UNL     1     -10.045   6.978  67.685  1.00  0.00    -0.151 OA 
BRANCH   3   5
HETATM    5  C   UNL     1      -8.742   8.422  69.077  1.00  0.00    -0.142 C  
HETATM    6  C   UNL     1      -8.177   8.219  70.291  1.00  0.00    -0.121 C  
HETATM    7  C   UNL     1      -8.599   7.197  71.319  1.00  0.00    -0.124 C  
HETATM    8  N   UNL     1      -7.116   9.012  70.693  1.00  0.00    -0.073 NA 
HETATM    9  C   UNL     1      -6.676  10.140  70.028  1.00  0.00    -0.127 C  
HETATM   10  C   UNL     1      -7.177  10.441  68.806  1.00  0.00    -0.085 C  
HETATM   11  C   UNL     1      -5.616  10.941  70.749  1.00  0.00    -0.113 C  
HETATM   12  C   UNL     1      -8.203   9.510  68.132  1.00  0.00    -0.114 C  
BRANCH  10  13
HETATM   13  C   UNL     1      -6.651  11.621  68.061  1.00  0.00    -0.062 C  
HETATM   14  O   UNL     1      -5.827  11.582  67.160  1.00  0.00    -0.079 OA 
BRANCH  13  15
HETATM   15  O   UNL     1      -7.377  12.718  68.388  1.00  0.00    -0.104 OA 
BRANCH  15  16
HETATM   16  C   UNL     1      -7.735  13.526  67.255  1.00  0.00    -0.077 C  
BRANCH  16  17
HETATM   17  C   UNL     1      -8.829  14.484  67.753  1.00  0.00    -0.183 C  
BRANCH  17  18
HETATM   18  N   UNL     1      -9.447  15.370  66.759  1.00  0.00    -0.228 NA 
HETATM   19  C   UNL     1      -9.950  14.597  65.620  1.00  0.00    -0.351 C  
BRANCH  18  20
HETATM   20  C   UNL     1     -10.566  16.118  67.384  1.00  0.00    -0.311 C  
BRANCH  20  21
HETATM   21  C   UNL     1     -10.341  17.619  67.408  1.00  0.00    -0.360 A  
HETATM   22  C   UNL     1     -10.041  18.271  68.613  1.00  0.00    -0.407 A  
HETATM   23  C   UNL     1      -9.925  19.659  68.661  1.00  0.00    -0.553 A  
HETATM   24  C   UNL     1     -10.099  20.414  67.502  1.00  0.00    -0.495 A  
HETATM   25  C   UNL     1     -10.378  19.779  66.293  1.00  0.00    -0.626 A  
HETATM   26  C   UNL     1     -10.496  18.388  66.242  1.00  0.00    -0.421 A  
ENDBRANCH  20  21
ENDBRANCH  18  20
ENDBRANCH  17  18
ENDBRANCH  16  17
ENDBRANCH  15  16
ENDBRANCH  13  15
ENDBRANCH  10  13
BRANCH  12  27
HETATM   27  C   UNL     1      -9.341  10.301  67.479  1.00  0.00    -0.164 A  
HETATM   28  C   UNL     1     -11.345  11.659  67.667  1.00  0.00    -0.362 A  
HETATM   29  O   UNL     1      -9.755  10.529  63.350  1.00  0.00    -0.307 OA 
HETATM   30  C   UNL     1      -9.465  10.335  66.076  1.00  0.00    -0.234 A  
HETATM   31  O   UNL     1     -11.591  11.713  63.537  1.00  0.00    -0.428 OA 
HETATM   32  C   UNL     1     -10.520  11.037  65.482  1.00  0.00    -0.238 A  
HETATM   33  C   UNL     1     -10.282  10.982  68.264  1.00  0.00    -0.192 A  
HETATM   34  C   UNL     1     -11.471  11.687  66.276  1.00  0.00    -0.217 A  
HETATM   35  N   UNL     1     -10.629  11.097  64.019  1.00  0.00    -0.367 N  
ENDBRANCH  12  27
ENDBRANCH   3   5
ENDBRANCH   2   3
TORSDOF 10
ENDMDL
MODEL      121
REMARK 921   NORMALIZED FREE ENERGY PREDICTED BY IDOCK:   -5.13 KCAL/MOL
REMARK 922        TOTAL FREE ENERGY PREDICTED BY IDOCK:   -9.64 KCAL/MOL
REMARK 923 INTER-LIGAND FREE ENERGY PREDICTED BY IDOCK:   -7.87 KCAL/MOL
REMARK 924 INTRA-LIGAND FREE ENERGY PREDICTED BY IDOCK:   -1.78 KCAL/MOL
REMARK 927      BINDING AFFINITY PREDICTED BY RF-SCORE:    0.00 PKD
ROOT
HETATM    1  C   UNL     1     -11.275  11.693  66.018  1.00  0.00    -0.240 C  
HETATM    2  O   UNL     1     -12.221  12.268  66.926  1.00  0.00    -0.530 OA 
ENDROOT
BRANCH   2   3
HETATM    3  C   UNL     1     -11.654  12.673  68.091  1.00  0.00    -0.338 C  
HETATM    4  O   UNL     1     -12.112  13.534  68.827  1.00  0.00    -0.344 OA 
BRANCH   3   5
HETATM    5  C   UNL     1     -10.370  11.970  68.339  1.00  0.00    -0.220 C  
HETATM    6  C   UNL     1     -10.327  10.895  69.163  1.00  0.00    -0.208 C  
HETATM    7  C   UNL     1     -11.507  10.221  69.821  1.00  0.00    -0.320 C  
HETATM    8  N   UNL     1      -9.107  10.328  69.485  1.00  0.00    -0.197 NA 
HETATM    9  C   UNL     1      -7.875  10.875  69.180  1.00  0.00    -0.119 C  
HETATM   10  C   UNL     1      -7.801  11.955  68.366  1.00  0.00    -0.141 C  
HETATM   11  C   UNL     1      -6.686  10.166  69.787  1.00  0.00    -0.096 C  
HETATM   12  C   UNL     1      -9.076  12.553  67.743  1.00  0.00    -0.191 C  
BRANCH  10  13
HETATM   13  C   UNL     1      -6.467  12.501  67.983  1.00  0.00    -0.087 C  
HETATM   14  O   UNL     1      -5.630  12.939  68.758  1.00  0.00    -0.068 OA 
BRANCH  13  15
HETATM   15  O   UNL     1      -6.237  12.246  66.672  1.00  0.00    -0.130 OA 
BRANCH  15  16
HETATM   16  C   UNL     1      -5.407  11.094  66.450  1.00  0.00    -0.130 C  
BRANCH  16  17
HETATM   17  C   UNL     1      -5.843  10.519  65.094  1.00  0.00    -0.125 C  
BRANCH  17  18
HETATM   18  N   UNL     1      -6.886   9.485  65.108  1.00  0.00    -0.088 NA 
HETATM   19  C   UNL     1      -6.803   8.654  63.903  1.00  0.00    -0.086 C  
BRANCH  18  20
HETATM   20  C   UNL     1      -6.727   8.632  66.311  1.00  0.00    -0.069 C  
BRANCH  20  21
HETATM   21  C   UNL     1      -8.042   8.081  66.830  1.00  0.00    -0.108 A  
HETATM   22  C   UNL     1      -9.260   8.556  66.321  1.00  0.00    -0.262 A  
HETATM   23  C   UNL     1     -10.472   8.124  66.856  1.00  0.00    -0.379 A  
HETATM   24  C   UNL     1     -10.484   7.204  67.902  1.00  0.00    -0.268 A  
HETATM   25  C   UNL     1      -9.283   6.707  68.407  1.00  0.00    -0.122 A  
HETATM   26  C   UNL     1      -8.066   7.139  67.873  1.00  0.00    -0.119 A  
ENDBRANCH  20  21
ENDBRANCH  18  20
ENDBRANCH  17  18
ENDBRANCH  16  17
ENDBRANCH  15  16
ENDBRANCH  13  15
ENDBRANCH  10  13
BRANCH  12  27
HETATM   27  C   UNL     1      -9.071  14.084  67.802  1.00  0.00    -0.192 A  
HETATM   28  C   UNL     1      -8.564  16.147  68.974  1.00  0.00    -0.251 A  
HETATM   29  O   UNL     1     -10.655  16.393  64.730  1.00  0.00    -0.676 OA 
HETATM   30  C   UNL     1      -9.641  14.834  66.753  1.00  0.00    -0.267 A  
HETATM   31  O   UNL     1     -10.236  18.247  65.825  1.00  0.00    -0.576 OA 
HETATM   32  C   UNL     1      -9.657  16.231  66.820  1.00  0.00    -0.239 A  
HETATM   33  C   UNL     1      -8.522  14.756  68.901  1.00  0.00    -0.159 A  
HETATM   34  C   UNL     1      -9.134  16.891  67.938  1.00  0.00    -0.233 A  
HETATM   35  N   UNL     1     -10.223  17.012  65.713  1.00  0.00    -0.288 N  
ENDBRANCH  12  27
ENDBRANCH   3   5
ENDBRANCH   2   3
TORSDOF 10
ENDMDL
MODEL      122
REMARK 921   NORMALIZED FREE ENERGY PREDICTED BY IDOCK:   -5.11 KCAL/MOL
REMARK 922        TOTAL FREE ENERGY PREDICTED BY IDOCK:   -9.61 KCAL/MOL
REMARK 923 INTER-LIGAND FREE ENERGY PREDICTED BY IDOCK:   -8.14 KCAL/MOL
REMARK 924 INTRA-LIGAND FREE ENERGY PREDICTED BY IDOCK:   -1.48 KCAL/MOL
REMARK 927      BINDING AFFINITY PREDICTED BY RF-SCORE:    0.00 PKD
ROOT
HETATM    1  C   UNL     1      -7.703   5.216  72.158  1.00  0.00    -0.099 C  
HETATM    2  O   UNL     1      -8.443   6.189  71.414  1.00  0.00    -0.126 OA 
ENDROOT
BRANCH   2   3
HETATM    3  C   UNL     1      -8.153   7.465  71.779  1.00  0.00    -0.102 C  
HETATM    4  O   UNL     1      -7.076   7.836  72.220  1.00  0.00    -0.066 OA 
BRANCH   3   5
HETATM    5  C   UNL     1      -9.334   8.352  71.622  1.00  0.00    -0.280 C  
HETATM    6  C   UNL     1     -10.452   8.138  72.355  1.00  0.00    -0.319 C  
HETATM    7  C   UNL     1     -10.627   7.110  73.448  1.00  0.00    -0.424 C  
HETATM    8  N   UNL     1     -11.587   8.891  72.107  1.00  0.00    -0.359 NA 
HETATM    9  C   UNL     1     -11.750   9.747  71.036  1.00  0.00    -0.370 C  
HETATM   10  C   UNL     1     -10.695  10.031  70.234  1.00  0.00    -0.367 C  
HETATM   11  C   UNL     1     -13.137  10.327  70.878  1.00  0.00    -0.423 C  
HETATM   12  C   UNL     1      -9.305   9.439  70.533  1.00  0.00    -0.319 C  
BRANCH  10  13
HETATM   13  C   UNL     1     -10.857  11.008  69.119  1.00  0.00    -0.237 C  
HETATM   14  O   UNL     1     -10.460  12.164  69.125  1.00  0.00    -0.098 OA 
BRANCH  13  15
HETATM   15  O   UNL     1     -11.319  10.363  68.020  1.00  0.00    -0.302 OA 
BRANCH  15  16
HETATM   16  C   UNL     1     -10.638  10.732  66.810  1.00  0.00    -0.250 C  
BRANCH  16  17
HETATM   17  C   UNL     1     -11.654  11.539  65.987  1.00  0.00     0.102 C  
BRANCH  17  18
HETATM   18  N   UNL     1     -11.125  12.607  65.129  1.00  0.00    -0.287 NA 
HETATM   19  C   UNL     1     -11.176  12.209  63.719  1.00  0.00    -0.436 C  
BRANCH  18  20
HETATM   20  C   UNL     1     -11.920  13.844  65.324  1.00  0.00    -0.375 C  
BRANCH  20  21
HETATM   21  C   UNL     1     -11.309  14.793  66.340  1.00  0.00    -0.339 A  
HETATM   22  C   UNL     1     -11.806  14.842  67.651  1.00  0.00    -0.268 A  
HETATM   23  C   UNL     1     -11.315  15.774  68.563  1.00  0.00    -0.374 A  
HETATM   24  C   UNL     1     -10.312  16.663  68.180  1.00  0.00    -0.303 A  
HETATM   25  C   UNL     1      -9.794  16.613  66.887  1.00  0.00    -0.267 A  
HETATM   26  C   UNL     1     -10.286  15.681  65.970  1.00  0.00    -0.351 A  
ENDBRANCH  20  21
ENDBRANCH  18  20
ENDBRANCH  17  18
ENDBRANCH  16  17
ENDBRANCH  15  16
ENDBRANCH  13  15
ENDBRANCH  10  13
BRANCH  12  27
HETATM   27  C   UNL     1      -8.616   8.939  69.259  1.00  0.00    -0.133 A  
HETATM   28  C   UNL     1      -6.797   9.064  67.657  1.00  0.00    -0.070 A  
HETATM   29  O   UNL     1     -10.267   5.923  66.923  1.00  0.00    -0.169 OA 
HETATM   30  C   UNL     1      -9.218   7.932  68.478  1.00  0.00    -0.138 A  
HETATM   31  O   UNL     1      -8.642   6.083  65.459  1.00  0.00    -0.152 OA 
HETATM   32  C   UNL     1      -8.600   7.495  67.301  1.00  0.00    -0.118 A  
HETATM   33  C   UNL     1      -7.396   9.487  68.843  1.00  0.00    -0.073 A  
HETATM   34  C   UNL     1      -7.397   8.071  66.879  1.00  0.00    -0.090 A  
HETATM   35  N   UNL     1      -9.213   6.424  66.505  1.00  0.00    -0.153 N  
ENDBRANCH  12  27
ENDBRANCH   3   5
ENDBRANCH   2   3
TORSDOF 10
ENDMDL
MODEL      123
REMARK 921   NORMALIZED FREE ENERGY PREDICTED BY IDOCK:   -5.10 KCAL/MOL
REMARK 922        TOTAL FREE ENERGY PREDICTED BY IDOCK:   -9.60 KCAL/MOL
REMARK 923 INTER-LIGAND FREE ENERGY PREDICTED BY IDOCK:   -9.04 KCAL/MOL
REMARK 924 INTRA-LIGAND FREE ENERGY PREDICTED BY IDOCK:   -0.55 KCAL/MOL
REMARK 927      BINDING AFFINITY PREDICTED BY RF-SCORE:    0.00 PKD
ROOT
HETATM    1  C   UNL     1      -6.251  17.152  69.553  1.00  0.00    -0.242 C  
HETATM    2  O   UNL     1      -6.208  15.723  69.484  1.00  0.00    -0.135 OA 
ENDROOT
BRANCH   2   3
HETATM    3  C   UNL     1      -6.645  15.241  68.292  1.00  0.00    -0.112 C  
HETATM    4  O   UNL     1      -6.234  15.602  67.200  1.00  0.00    -0.317 OA 
BRANCH   3   5
HETATM    5  C   UNL     1      -7.731  14.244  68.479  1.00  0.00    -0.137 C  
HETATM    6  C   UNL     1      -7.476  12.922  68.337  1.00  0.00    -0.124 C  
HETATM    7  C   UNL     1      -6.128  12.287  68.094  1.00  0.00    -0.058 C  
HETATM    8  N   UNL     1      -8.521  12.015  68.388  1.00  0.00    -0.163 NA 
HETATM    9  C   UNL     1      -9.861  12.351  68.396  1.00  0.00    -0.198 C  
HETATM   10  C   UNL     1     -10.229  13.648  68.531  1.00  0.00    -0.234 C  
HETATM   11  C   UNL     1     -10.819  11.188  68.277  1.00  0.00    -0.258 C  
HETATM   12  C   UNL     1      -9.165  14.747  68.719  1.00  0.00    -0.196 C  
BRANCH  10  13
HETATM   13  C   UNL     1     -11.675  14.001  68.608  1.00  0.00    -0.354 C  
HETATM   14  O   UNL     1     -12.162  14.845  69.347  1.00  0.00    -0.274 OA 
BRANCH  13  15
HETATM   15  O   UNL     1     -12.339  13.399  67.591  1.00  0.00    -0.228 OA 
BRANCH  15  16
HETATM   16  C   UNL     1     -12.258  14.119  66.350  1.00  0.00    -0.446 C  
BRANCH  16  17
HETATM   17  C   UNL     1     -12.738  13.140  65.266  1.00  0.00    -0.394 C  
BRANCH  17  18
HETATM   18  N   UNL     1     -11.963  13.087  64.020  1.00  0.00    -0.423 NA 
HETATM   19  C   UNL     1     -10.608  13.603  64.232  1.00  0.00    -0.225 C  
BRANCH  18  20
HETATM   20  C   UNL     1     -11.890  11.686  63.537  1.00  0.00    -0.260 C  
BRANCH  20  21
HETATM   21  C   UNL     1     -10.534  11.045  63.766  1.00  0.00    -0.408 A  
HETATM   22  C   UNL     1      -9.660  10.832  62.689  1.00  0.00    -0.296 A  
HETATM   23  C   UNL     1      -8.453  10.162  62.874  1.00  0.00    -0.180 A  
HETATM   24  C   UNL     1      -8.098   9.702  64.141  1.00  0.00    -0.151 A  
HETATM   25  C   UNL     1      -8.946   9.923  65.225  1.00  0.00    -0.228 A  
HETATM   26  C   UNL     1     -10.158  10.594  65.042  1.00  0.00    -0.388 A  
ENDBRANCH  20  21
ENDBRANCH  18  20
ENDBRANCH  17  18
ENDBRANCH  16  17
ENDBRANCH  15  16
ENDBRANCH  13  15
ENDBRANCH  10  13
BRANCH  12  27
HETATM   27  C   UNL     1      -9.476  15.985  67.873  1.00  0.00    -0.210 A  
HETATM   28  C   UNL     1      -9.836  17.025  65.710  1.00  0.00    -0.129 A  
HETATM   29  O   UNL     1      -9.984  19.735  69.593  1.00  0.00    -0.275 OA 
HETATM   30  C   UNL     1      -9.616  17.245  68.488  1.00  0.00    -0.291 A  
HETATM   31  O   UNL     1     -10.258  20.667  67.627  1.00  0.00    -0.304 OA 
HETATM   32  C   UNL     1      -9.874  18.380  67.710  1.00  0.00    -0.319 A  
HETATM   33  C   UNL     1      -9.603  15.888  66.481  1.00  0.00    -0.291 A  
HETATM   34  C   UNL     1      -9.968  18.275  66.319  1.00  0.00    -0.361 A  
HETATM   35  N   UNL     1     -10.051  19.686  68.356  1.00  0.00    -0.433 N  
ENDBRANCH  12  27
ENDBRANCH   3   5
ENDBRANCH   2   3
TORSDOF 10
ENDMDL
MODEL      124
REMARK 921   NORMALIZED FREE ENERGY PREDICTED BY IDOCK:   -5.09 KCAL/MOL
REMARK 922        TOTAL FREE ENERGY PREDICTED BY IDOCK:   -9.58 KCAL/MOL
REMARK 923 INTER-LIGAND FREE ENERGY PREDICTED BY IDOCK:   -6.98 KCAL/MOL
REMARK 924 INTRA-LIGAND FREE ENERGY PREDICTED BY IDOCK:   -2.60 KCAL/MOL
REMARK 927      BINDING AFFINITY PREDICTED BY RF-SCORE:    0.00 PKD
ROOT
HETATM    1  C   UNL     1      -6.469   4.110  70.798  1.00  0.00    -0.030 C  
HETATM    2  O   UNL     1      -6.508   5.338  70.063  1.00  0.00    -0.032 OA 
ENDROOT
BRANCH   2   3
HETATM    3  C   UNL     1      -7.557   6.127  70.411  1.00  0.00    -0.096 C  
HETATM    4  O   UNL     1      -8.569   5.735  70.973  1.00  0.00    -0.127 OA 
BRANCH   3   5
HETATM    5  C   UNL     1      -7.342   7.531  69.978  1.00  0.00    -0.081 C  
HETATM    6  C   UNL     1      -7.150   8.508  70.897  1.00  0.00    -0.063 C  
HETATM    7  C   UNL     1      -7.020   8.324  72.390  1.00  0.00    -0.104 C  
HETATM    8  N   UNL     1      -7.080   9.828  70.487  1.00  0.00    -0.192 NA 
HETATM    9  C   UNL     1      -7.369  10.277  69.212  1.00  0.00    -0.099 C  
HETATM   10  C   UNL     1      -7.581   9.385  68.216  1.00  0.00    -0.082 C  
HETATM   11  C   UNL     1      -7.391  11.780  69.048  1.00  0.00    -0.055 C  
HETATM   12  C   UNL     1      -7.461   7.872  68.482  1.00  0.00    -0.096 C  
BRANCH  10  13
HETATM   13  C   UNL     1      -7.825   9.872  66.828  1.00  0.00    -0.109 C  
HETATM   14  O   UNL     1      -6.963  10.083  65.987  1.00  0.00    -0.098 OA 
BRANCH  13  15
HETATM   15  O   UNL     1      -9.155   9.843  66.570  1.00  0.00    -0.147 OA 
BRANCH  15  16
HETATM   16  C   UNL     1      -9.699  11.128  66.223  1.00  0.00    -0.211 C  
BRANCH  16  17
HETATM   17  C   UNL     1     -10.992  11.270  67.041  1.00  0.00    -0.294 C  
BRANCH  17  18
HETATM   18  N   UNL     1     -10.867  11.792  68.408  1.00  0.00    -0.211 NA 
HETATM   19  C   UNL     1     -10.568  13.227  68.386  1.00  0.00    -0.252 C  
BRANCH  18  20
HETATM   20  C   UNL     1     -12.132  11.561  69.148  1.00  0.00    -0.263 C  
BRANCH  20  21
HETATM   21  C   UNL     1     -12.017  10.475  70.202  1.00  0.00    -0.398 A  
HETATM   22  C   UNL     1     -13.117  10.155  71.012  1.00  0.00    -0.458 A  
HETATM   23  C   UNL     1     -12.994   9.225  72.043  1.00  0.00    -0.504 A  
HETATM   24  C   UNL     1     -11.772   8.595  72.272  1.00  0.00    -0.428 A  
HETATM   25  C   UNL     1     -10.676   8.886  71.462  1.00  0.00    -0.398 A  
HETATM   26  C   UNL     1     -10.795   9.820  70.429  1.00  0.00    -0.370 A  
ENDBRANCH  20  21
ENDBRANCH  18  20
ENDBRANCH  17  18
ENDBRANCH  16  17
ENDBRANCH  15  16
ENDBRANCH  13  15
ENDBRANCH  10  13
BRANCH  12  27
HETATM   27  C   UNL     1      -8.595   7.088  67.815  1.00  0.00    -0.122 A  
HETATM   28  C   UNL     1     -10.934   6.454  67.695  1.00  0.00    -0.441 A  
HETATM   29  O   UNL     1      -7.898   4.553  64.596  1.00  0.00    -0.083 OA 
HETATM   30  C   UNL     1      -8.317   6.218  66.742  1.00  0.00    -0.110 A  
HETATM   31  O   UNL     1     -10.007   3.953  64.533  1.00  0.00    -0.181 OA 
HETATM   32  C   UNL     1      -9.351   5.483  66.150  1.00  0.00    -0.157 A  
HETATM   33  C   UNL     1      -9.914   7.207  68.273  1.00  0.00    -0.171 A  
HETATM   34  C   UNL     1     -10.658   5.587  66.636  1.00  0.00    -0.365 A  
HETATM   35  N   UNL     1      -9.064   4.601  65.012  1.00  0.00    -0.154 N  
ENDBRANCH  12  27
ENDBRANCH   3   5
ENDBRANCH   2   3
TORSDOF 10
ENDMDL
MODEL      125
REMARK 921   NORMALIZED FREE ENERGY PREDICTED BY IDOCK:   -5.09 KCAL/MOL
REMARK 922        TOTAL FREE ENERGY PREDICTED BY IDOCK:   -9.58 KCAL/MOL
REMARK 923 INTER-LIGAND FREE ENERGY PREDICTED BY IDOCK:   -7.69 KCAL/MOL
REMARK 924 INTRA-LIGAND FREE ENERGY PREDICTED BY IDOCK:   -1.89 KCAL/MOL
REMARK 927      BINDING AFFINITY PREDICTED BY RF-SCORE:    0.00 PKD
ROOT
HETATM    1  C   UNL     1     -11.124   7.201  73.121  1.00  0.00    -0.262 C  
HETATM    2  O   UNL     1     -10.802   6.716  71.813  1.00  0.00    -0.224 OA 
ENDROOT
BRANCH   2   3
HETATM    3  C   UNL     1     -11.424   7.410  70.825  1.00  0.00    -0.288 C  
HETATM    4  O   UNL     1     -12.535   7.152  70.385  1.00  0.00    -0.102 OA 
BRANCH   3   5
HETATM    5  C   UNL     1     -10.562   8.502  70.308  1.00  0.00    -0.238 C  
HETATM    6  C   UNL     1     -10.956   9.793  70.413  1.00  0.00    -0.312 C  
HETATM    7  C   UNL     1     -12.190  10.301  71.122  1.00  0.00    -0.500 C  
HETATM    8  N   UNL     1     -10.205  10.789  69.814  1.00  0.00    -0.075 NA 
HETATM    9  C   UNL     1      -9.154  10.573  68.944  1.00  0.00    -0.177 C  
HETATM   10  C   UNL     1      -8.680   9.317  68.761  1.00  0.00    -0.132 C  
HETATM   11  C   UNL     1      -8.599  11.813  68.282  1.00  0.00    -0.162 C  
HETATM   12  C   UNL     1      -9.275   8.134  69.547  1.00  0.00    -0.158 C  
BRANCH  10  13
HETATM   13  C   UNL     1      -7.502   9.095  67.874  1.00  0.00    -0.084 C  
HETATM   14  O   UNL     1      -6.468   8.527  68.196  1.00  0.00    -0.054 OA 
BRANCH  13  15
HETATM   15  O   UNL     1      -7.829   9.426  66.601  1.00  0.00    -0.103 OA 
BRANCH  15  16
HETATM   16  C   UNL     1      -7.664   8.346  65.668  1.00  0.00    -0.099 C  
BRANCH  16  17
HETATM   17  C   UNL     1      -8.523   8.712  64.448  1.00  0.00    -0.095 C  
BRANCH  17  18
HETATM   18  N   UNL     1      -8.422  10.087  63.944  1.00  0.00    -0.164 NA 
HETATM   19  C   UNL     1      -7.266  10.226  63.053  1.00  0.00    -0.125 C  
BRANCH  18  20
HETATM   20  C   UNL     1      -9.660  10.443  63.208  1.00  0.00    -0.308 C  
BRANCH  20  21
HETATM   21  C   UNL     1     -10.611  11.303  64.020  1.00  0.00    -0.450 A  
HETATM   22  C   UNL     1     -11.389  12.285  63.391  1.00  0.00    -0.508 A  
HETATM   23  C   UNL     1     -12.196  13.141  64.139  1.00  0.00    -0.465 A  
HETATM   24  C   UNL     1     -12.242  13.020  65.527  1.00  0.00    -0.521 A  
HETATM   25  C   UNL     1     -11.490  12.035  66.166  1.00  0.00    -0.401 A  
HETATM   26  C   UNL     1     -10.679  11.177  65.418  1.00  0.00    -0.259 A  
ENDBRANCH  20  21
ENDBRANCH  18  20
ENDBRANCH  17  18
ENDBRANCH  16  17
ENDBRANCH  15  16
ENDBRANCH  13  15
ENDBRANCH  10  13
BRANCH  12  27
HETATM   27  C   UNL     1      -9.483   6.907  68.653  1.00  0.00    -0.134 A  
HETATM   28  C   UNL     1     -10.616   5.810  66.808  1.00  0.00    -0.373 A  
HETATM   29  O   UNL     1      -7.381   3.374  69.268  1.00  0.00    -0.048 OA 
HETATM   30  C   UNL     1      -8.771   5.718  68.908  1.00  0.00    -0.111 A  
HETATM   31  O   UNL     1      -8.450   2.382  67.631  1.00  0.00    -0.079 OA 
HETATM   32  C   UNL     1      -8.981   4.591  68.105  1.00  0.00    -0.116 A  
HETATM   33  C   UNL     1     -10.393   6.943  67.588  1.00  0.00    -0.260 A  
HETATM   34  C   UNL     1      -9.915   4.629  67.065  1.00  0.00    -0.227 A  
HETATM   35  N   UNL     1      -8.216   3.362  68.353  1.00  0.00    -0.072 N  
ENDBRANCH  12  27
ENDBRANCH   3   5
ENDBRANCH   2   3
TORSDOF 10
ENDMDL
MODEL      126
REMARK 921   NORMALIZED FREE ENERGY PREDICTED BY IDOCK:   -5.08 KCAL/MOL
REMARK 922        TOTAL FREE ENERGY PREDICTED BY IDOCK:   -9.56 KCAL/MOL
REMARK 923 INTER-LIGAND FREE ENERGY PREDICTED BY IDOCK:   -7.99 KCAL/MOL
REMARK 924 INTRA-LIGAND FREE ENERGY PREDICTED BY IDOCK:   -1.57 KCAL/MOL
REMARK 927      BINDING AFFINITY PREDICTED BY RF-SCORE:    0.00 PKD
ROOT
HETATM    1  C   UNL     1     -11.351   6.785  69.741  1.00  0.00    -0.296 C  
HETATM    2  O   UNL     1     -10.487   7.919  69.614  1.00  0.00    -0.219 OA 
ENDROOT
BRANCH   2   3
HETATM    3  C   UNL     1      -9.327   7.629  68.971  1.00  0.00    -0.146 C  
HETATM    4  O   UNL     1      -9.167   6.684  68.213  1.00  0.00    -0.124 OA 
BRANCH   3   5
HETATM    5  C   UNL     1      -8.251   8.582  69.344  1.00  0.00    -0.114 C  
HETATM    6  C   UNL     1      -7.811   8.651  70.623  1.00  0.00    -0.099 C  
HETATM    7  C   UNL     1      -8.231   7.758  71.766  1.00  0.00    -0.126 C  
HETATM    8  N   UNL     1      -6.900   9.629  70.982  1.00  0.00    -0.300 NA 
HETATM    9  C   UNL     1      -6.517  10.686  70.179  1.00  0.00    -0.152 C  
HETATM   10  C   UNL     1      -6.904  10.720  68.881  1.00  0.00    -0.069 C  
HETATM   11  C   UNL     1      -5.645  11.723  70.849  1.00  0.00    -0.067 C  
HETATM   12  C   UNL     1      -7.733   9.568  68.282  1.00  0.00    -0.086 C  
BRANCH  10  13
HETATM   13  C   UNL     1      -6.432  11.825  67.998  1.00  0.00    -0.056 C  
HETATM   14  O   UNL     1      -5.747  11.690  66.995  1.00  0.00    -0.100 OA 
BRANCH  13  15
HETATM   15  O   UNL     1      -7.050  12.978  68.354  1.00  0.00    -0.087 OA 
BRANCH  15  16
HETATM   16  C   UNL     1      -7.440  13.788  67.232  1.00  0.00    -0.027 C  
BRANCH  16  17
HETATM   17  C   UNL     1      -8.767  14.449  67.634  1.00  0.00    -0.189 C  
BRANCH  17  18
HETATM   18  N   UNL     1      -9.351  15.410  66.689  1.00  0.00    -0.243 NA 
HETATM   19  C   UNL     1      -9.923  14.714  65.533  1.00  0.00    -0.352 C  
BRANCH  18  20
HETATM   20  C   UNL     1     -10.410  16.197  67.368  1.00  0.00    -0.294 C  
BRANCH  20  21
HETATM   21  C   UNL     1     -10.127  17.688  67.386  1.00  0.00    -0.331 A  
HETATM   22  C   UNL     1      -9.550  18.286  68.516  1.00  0.00    -0.358 A  
HETATM   23  C   UNL     1      -9.372  19.667  68.578  1.00  0.00    -0.412 A  
HETATM   24  C   UNL     1      -9.760  20.468  67.505  1.00  0.00    -0.554 A  
HETATM   25  C   UNL     1     -10.316  19.888  66.367  1.00  0.00    -0.611 A  
HETATM   26  C   UNL     1     -10.497  18.503  66.303  1.00  0.00    -0.441 A  
ENDBRANCH  20  21
ENDBRANCH  18  20
ENDBRANCH  17  18
ENDBRANCH  16  17
ENDBRANCH  15  16
ENDBRANCH  13  15
ENDBRANCH  10  13
BRANCH  12  27
HETATM   27  C   UNL     1      -8.870  10.089  67.397  1.00  0.00    -0.132 A  
HETATM   28  C   UNL     1     -10.008  10.169  65.255  1.00  0.00    -0.381 A  
HETATM   29  O   UNL     1     -11.670  12.813  68.817  1.00  0.00    -0.286 OA 
HETATM   30  C   UNL     1      -9.786  11.032  67.905  1.00  0.00    -0.183 A  
HETATM   31  O   UNL     1     -12.657  12.912  66.861  1.00  0.00    -0.170 OA 
HETATM   32  C   UNL     1     -10.808  11.526  67.087  1.00  0.00    -0.268 A  
HETATM   33  C   UNL     1      -9.002   9.655  66.072  1.00  0.00    -0.195 A  
HETATM   34  C   UNL     1     -10.912  11.109  65.756  1.00  0.00    -0.160 A  
HETATM   35  N   UNL     1     -11.780  12.485  67.627  1.00  0.00    -0.360 N  
ENDBRANCH  12  27
ENDBRANCH   3   5
ENDBRANCH   2   3
TORSDOF 10
ENDMDL
MODEL      127
REMARK 921   NORMALIZED FREE ENERGY PREDICTED BY IDOCK:   -5.07 KCAL/MOL
REMARK 922        TOTAL FREE ENERGY PREDICTED BY IDOCK:   -9.56 KCAL/MOL
REMARK 923 INTER-LIGAND FREE ENERGY PREDICTED BY IDOCK:   -8.09 KCAL/MOL
REMARK 924 INTRA-LIGAND FREE ENERGY PREDICTED BY IDOCK:   -1.47 KCAL/MOL
REMARK 927      BINDING AFFINITY PREDICTED BY RF-SCORE:    0.00 PKD
ROOT
HETATM    1  C   UNL     1      -9.209   4.460  67.934  1.00  0.00    -0.136 C  
HETATM    2  O   UNL     1      -9.610   5.691  67.323  1.00  0.00    -0.112 OA 
ENDROOT
BRANCH   2   3
HETATM    3  C   UNL     1      -8.559   6.503  67.036  1.00  0.00    -0.113 C  
HETATM    4  O   UNL     1      -7.432   6.371  67.488  1.00  0.00    -0.088 OA 
BRANCH   3   5
HETATM    5  C   UNL     1      -8.965   7.612  66.135  1.00  0.00    -0.197 C  
HETATM    6  C   UNL     1      -8.448   7.702  64.887  1.00  0.00     0.023 C  
HETATM    7  C   UNL     1      -7.532   6.703  64.219  1.00  0.00    -0.096 C  
HETATM    8  N   UNL     1      -8.736   8.807  64.105  1.00  0.00    -0.069 NA 
HETATM    9  C   UNL     1      -9.377   9.947  64.552  1.00  0.00    -0.275 C  
HETATM   10  C   UNL     1      -9.929   9.967  65.789  1.00  0.00    -0.346 C  
HETATM   11  C   UNL     1      -9.423  11.090  63.564  1.00  0.00    -0.315 C  
HETATM   12  C   UNL     1      -9.886   8.715  66.685  1.00  0.00    -0.336 C  
BRANCH  10  13
HETATM   13  C   UNL     1     -10.680  11.173  66.242  1.00  0.00    -0.240 C  
HETATM   14  O   UNL     1     -11.897  11.279  66.281  1.00  0.00    -0.142 OA 
BRANCH  13  15
HETATM   15  O   UNL     1      -9.816  12.055  66.803  1.00  0.00    -0.199 OA 
BRANCH  15  16
HETATM   16  C   UNL     1     -10.282  12.600  68.048  1.00  0.00    -0.230 C  
BRANCH  16  17
HETATM   17  C   UNL     1     -10.391  14.116  67.827  1.00  0.00    -0.242 C  
BRANCH  17  18
HETATM   18  N   UNL     1     -10.256  14.978  69.008  1.00  0.00    -0.235 NA 
HETATM   19  C   UNL     1      -9.224  15.995  68.789  1.00  0.00    -0.224 C  
BRANCH  18  20
HETATM   20  C   UNL     1     -11.552  15.641  69.294  1.00  0.00    -0.366 C  
BRANCH  20  21
HETATM   21  C   UNL     1     -12.304  15.008  70.452  1.00  0.00    -0.401 A  
HETATM   22  C   UNL     1     -12.751  15.798  71.521  1.00  0.00    -0.512 A  
HETATM   23  C   UNL     1     -13.360  15.214  72.630  1.00  0.00    -0.564 A  
HETATM   24  C   UNL     1     -13.537  13.833  72.682  1.00  0.00    -0.617 A  
HETATM   25  C   UNL     1     -13.116  13.036  71.619  1.00  0.00    -0.440 A  
HETATM   26  C   UNL     1     -12.504  13.619  70.506  1.00  0.00    -0.394 A  
ENDBRANCH  20  21
ENDBRANCH  18  20
ENDBRANCH  17  18
ENDBRANCH  16  17
ENDBRANCH  15  16
ENDBRANCH  13  15
ENDBRANCH  10  13
BRANCH  12  27
HETATM   27  C   UNL     1      -9.536   9.068  68.134  1.00  0.00    -0.164 A  
HETATM   28  C   UNL     1     -10.188   9.329  70.457  1.00  0.00    -0.309 A  
HETATM   29  O   UNL     1      -5.736  10.362  69.211  1.00  0.00    -0.038 OA 
HETATM   30  C   UNL     1      -8.244   9.528  68.458  1.00  0.00    -0.113 A  
HETATM   31  O   UNL     1      -6.355  10.640  71.297  1.00  0.00    -0.300 OA 
HETATM   32  C   UNL     1      -7.934   9.874  69.778  1.00  0.00    -0.174 A  
HETATM   33  C   UNL     1     -10.496   8.960  69.149  1.00  0.00    -0.236 A  
HETATM   34  C   UNL     1      -8.910   9.792  70.777  1.00  0.00     0.236 A  
HETATM   35  N   UNL     1      -6.579  10.324  70.119  1.00  0.00    -0.123 N  
ENDBRANCH  12  27
ENDBRANCH   3   5
ENDBRANCH   2   3
TORSDOF 10
ENDMDL
MODEL      128
REMARK 921   NORMALIZED FREE ENERGY PREDICTED BY IDOCK:   -5.05 KCAL/MOL
REMARK 922        TOTAL FREE ENERGY PREDICTED BY IDOCK:   -9.52 KCAL/MOL
REMARK 923 INTER-LIGAND FREE ENERGY PREDICTED BY IDOCK:   -8.00 KCAL/MOL
REMARK 924 INTRA-LIGAND FREE ENERGY PREDICTED BY IDOCK:   -1.52 KCAL/MOL
REMARK 927      BINDING AFFINITY PREDICTED BY RF-SCORE:    0.00 PKD
ROOT
HETATM    1  C   UNL     1      -6.186   8.654  72.170  1.00  0.00    -0.073 C  
HETATM    2  O   UNL     1      -7.507   8.583  72.718  1.00  0.00    -0.271 OA 
ENDROOT
BRANCH   2   3
HETATM    3  C   UNL     1      -8.349   7.827  71.967  1.00  0.00    -0.115 C  
HETATM    4  O   UNL     1      -8.026   6.814  71.363  1.00  0.00    -0.107 OA 
BRANCH   3   5
HETATM    5  C   UNL     1      -9.712   8.413  71.929  1.00  0.00    -0.331 C  
HETATM    6  C   UNL     1     -10.735   7.810  72.580  1.00  0.00    -0.314 C  
HETATM    7  C   UNL     1     -10.639   6.597  73.475  1.00  0.00    -0.334 C  
HETATM    8  N   UNL     1     -12.022   8.295  72.431  1.00  0.00    -0.383 NA 
HETATM    9  C   UNL     1     -12.404   9.259  71.517  1.00  0.00    -0.360 C  
HETATM   10  C   UNL     1     -11.461   9.925  70.808  1.00  0.00    -0.433 C  
HETATM   11  C   UNL     1     -13.893   9.501  71.420  1.00  0.00    -0.225 C  
HETATM   12  C   UNL     1      -9.965   9.646  71.043  1.00  0.00    -0.151 C  
BRANCH  10  13
HETATM   13  C   UNL     1     -11.872  11.011  69.873  1.00  0.00    -0.353 C  
HETATM   14  O   UNL     1     -12.409  10.848  68.787  1.00  0.00    -0.495 OA 
BRANCH  13  15
HETATM   15  O   UNL     1     -11.752  12.208  70.496  1.00  0.00    -0.205 OA 
BRANCH  15  16
HETATM   16  C   UNL     1     -12.504  13.259  69.866  1.00  0.00    -0.054 C  
BRANCH  16  17
HETATM   17  C   UNL     1     -11.540  14.451  69.748  1.00  0.00    -0.298 C  
BRANCH  17  18
HETATM   18  N   UNL     1     -11.567  15.213  68.493  1.00  0.00    -0.325 NA 
HETATM   19  C   UNL     1     -10.936  16.524  68.673  1.00  0.00    -0.344 C  
BRANCH  18  20
HETATM   20  C   UNL     1     -10.852  14.459  67.435  1.00  0.00    -0.292 C  
BRANCH  20  21
HETATM   21  C   UNL     1      -9.346  14.639  67.487  1.00  0.00    -0.195 A  
HETATM   22  C   UNL     1      -8.564  13.823  68.317  1.00  0.00    -0.175 A  
HETATM   23  C   UNL     1      -7.193  14.041  68.442  1.00  0.00    -0.108 A  
HETATM   24  C   UNL     1      -6.584  15.073  67.731  1.00  0.00    -0.189 A  
HETATM   25  C   UNL     1      -7.344  15.881  66.886  1.00  0.00    -0.207 A  
HETATM   26  C   UNL     1      -8.718  15.665  66.760  1.00  0.00    -0.306 A  
ENDBRANCH  20  21
ENDBRANCH  18  20
ENDBRANCH  17  18
ENDBRANCH  16  17
ENDBRANCH  15  16
ENDBRANCH  13  15
ENDBRANCH  10  13
BRANCH  12  27
HETATM   27  C   UNL     1      -9.192   9.558  69.723  1.00  0.00    -0.224 A  
HETATM   28  C   UNL     1      -7.342  10.249  68.313  1.00  0.00    -0.085 A  
HETATM   29  O   UNL     1     -10.475   7.138  66.597  1.00  0.00    -0.235 OA 
HETATM   30  C   UNL     1      -9.671   8.746  68.676  1.00  0.00    -0.170 A  
HETATM   31  O   UNL     1      -8.826   7.811  65.318  1.00  0.00    -0.044 OA 
HETATM   32  C   UNL     1      -8.977   8.686  67.462  1.00  0.00    -0.134 A  
HETATM   33  C   UNL     1      -8.015  10.294  69.532  1.00  0.00    -0.171 A  
HETATM   34  C   UNL     1      -7.820   9.450  67.272  1.00  0.00    -0.099 A  
HETATM   35  N   UNL     1      -9.460   7.816  66.383  1.00  0.00    -0.198 N  
ENDBRANCH  12  27
ENDBRANCH   3   5
ENDBRANCH   2   3
TORSDOF 10
ENDMDL
MODEL      129
REMARK 921   NORMALIZED FREE ENERGY PREDICTED BY IDOCK:   -5.05 KCAL/MOL
REMARK 922        TOTAL FREE ENERGY PREDICTED BY IDOCK:   -9.52 KCAL/MOL
REMARK 923 INTER-LIGAND FREE ENERGY PREDICTED BY IDOCK:   -8.57 KCAL/MOL
REMARK 924 INTRA-LIGAND FREE ENERGY PREDICTED BY IDOCK:   -0.95 KCAL/MOL
REMARK 927      BINDING AFFINITY PREDICTED BY RF-SCORE:    0.00 PKD
ROOT
HETATM    1  C   UNL     1      -6.885   7.805  73.568  1.00  0.00    -0.089 C  
HETATM    2  O   UNL     1      -7.139   8.041  72.180  1.00  0.00    -0.067 OA 
ENDROOT
BRANCH   2   3
HETATM    3  C   UNL     1      -8.241   7.391  71.727  1.00  0.00    -0.103 C  
HETATM    4  O   UNL     1      -8.291   6.197  71.471  1.00  0.00    -0.124 OA 
BRANCH   3   5
HETATM    5  C   UNL     1      -9.377   8.327  71.531  1.00  0.00    -0.236 C  
HETATM    6  C   UNL     1     -10.452   8.279  72.354  1.00  0.00    -0.334 C  
HETATM    7  C   UNL     1     -10.608   7.408  73.578  1.00  0.00    -0.388 C  
HETATM    8  N   UNL     1     -11.557   9.068  72.084  1.00  0.00    -0.334 NA 
HETATM    9  C   UNL     1     -11.746   9.794  70.924  1.00  0.00    -0.347 C  
HETATM   10  C   UNL     1     -10.736   9.906  70.028  1.00  0.00    -0.338 C  
HETATM   11  C   UNL     1     -13.105  10.438  70.780  1.00  0.00    -0.362 C  
HETATM   12  C   UNL     1      -9.364   9.266  70.312  1.00  0.00    -0.277 C  
BRANCH  10  13
HETATM   13  C   UNL     1     -10.919  10.746  68.809  1.00  0.00    -0.247 C  
HETATM   14  O   UNL     1     -11.596  10.447  67.836  1.00  0.00    -0.406 OA 
BRANCH  13  15
HETATM   15  O   UNL     1     -10.397  11.977  69.030  1.00  0.00    -0.143 OA 
BRANCH  15  16
HETATM   16  C   UNL     1     -11.160  13.038  68.433  1.00  0.00    -0.262 C  
BRANCH  16  17
HETATM   17  C   UNL     1     -11.731  13.854  69.603  1.00  0.00    -0.311 C  
BRANCH  17  18
HETATM   18  N   UNL     1     -11.990  15.280  69.364  1.00  0.00    -0.326 NA 
HETATM   19  C   UNL     1     -11.466  16.090  70.467  1.00  0.00    -0.389 C  
BRANCH  18  20
HETATM   20  C   UNL     1     -11.348  15.697  68.093  1.00  0.00    -0.340 C  
BRANCH  20  21
HETATM   21  C   UNL     1     -10.368  16.843  68.267  1.00  0.00    -0.335 A  
HETATM   22  C   UNL     1     -10.770  18.163  68.013  1.00  0.00    -0.297 A  
HETATM   23  C   UNL     1      -9.853  19.211  68.081  1.00  0.00    -0.444 A  
HETATM   24  C   UNL     1      -8.524  18.954  68.411  1.00  0.00    -0.385 A  
HETATM   25  C   UNL     1      -8.113  17.650  68.685  1.00  0.00    -0.269 A  
HETATM   26  C   UNL     1      -9.030  16.598  68.617  1.00  0.00    -0.246 A  
ENDBRANCH  20  21
ENDBRANCH  18  20
ENDBRANCH  17  18
ENDBRANCH  16  17
ENDBRANCH  15  16
ENDBRANCH  13  15
ENDBRANCH  10  13
BRANCH  12  27
HETATM   27  C   UNL     1      -8.796   8.569  69.072  1.00  0.00    -0.145 A  
HETATM   28  C   UNL     1      -7.131   8.421  67.312  1.00  0.00    -0.079 A  
HETATM   29  O   UNL     1     -10.660   5.261  67.381  1.00  0.00    -0.185 OA 
HETATM   30  C   UNL     1      -9.469   7.465  68.511  1.00  0.00    -0.144 A  
HETATM   31  O   UNL     1      -9.176   5.172  65.769  1.00  0.00    -0.153 OA 
HETATM   32  C   UNL     1      -8.962   6.845  67.363  1.00  0.00    -0.116 A  
HETATM   33  C   UNL     1      -7.617   9.028  68.469  1.00  0.00    -0.093 A  
HETATM   34  C   UNL     1      -7.802   7.332  66.752  1.00  0.00    -0.113 A  
HETATM   35  N   UNL     1      -9.648   5.677  66.798  1.00  0.00    -0.139 N  
ENDBRANCH  12  27
ENDBRANCH   3   5
ENDBRANCH   2   3
TORSDOF 10
ENDMDL
MODEL      130
REMARK 921   NORMALIZED FREE ENERGY PREDICTED BY IDOCK:   -5.04 KCAL/MOL
REMARK 922        TOTAL FREE ENERGY PREDICTED BY IDOCK:   -9.51 KCAL/MOL
REMARK 923 INTER-LIGAND FREE ENERGY PREDICTED BY IDOCK:   -7.25 KCAL/MOL
REMARK 924 INTRA-LIGAND FREE ENERGY PREDICTED BY IDOCK:   -2.26 KCAL/MOL
REMARK 927      BINDING AFFINITY PREDICTED BY RF-SCORE:    0.00 PKD
ROOT
HETATM    1  C   UNL     1     -11.038  14.698  66.750  1.00  0.00    -0.335 C  
HETATM    2  O   UNL     1     -10.670  13.532  67.495  1.00  0.00    -0.255 OA 
ENDROOT
BRANCH   2   3
HETATM    3  C   UNL     1     -11.456  12.460  67.218  1.00  0.00    -0.354 C  
HETATM    4  O   UNL     1     -12.193  12.367  66.248  1.00  0.00    -0.620 OA 
BRANCH   3   5
HETATM    5  C   UNL     1     -11.345  11.423  68.276  1.00  0.00    -0.354 C  
HETATM    6  C   UNL     1     -11.644  11.725  69.562  1.00  0.00    -0.332 C  
HETATM    7  C   UNL     1     -12.203  13.031  70.072  1.00  0.00    -0.306 C  
HETATM    8  N   UNL     1     -11.415  10.788  70.555  1.00  0.00    -0.313 NA 
HETATM    9  C   UNL     1     -10.728   9.602  70.381  1.00  0.00    -0.298 C  
HETATM   10  C   UNL     1     -10.376   9.205  69.135  1.00  0.00    -0.223 C  
HETATM   11  C   UNL     1     -10.452   8.824  71.648  1.00  0.00    -0.387 C  
HETATM   12  C   UNL     1     -10.774  10.043  67.905  1.00  0.00    -0.322 C  
BRANCH  10  13
HETATM   13  C   UNL     1      -9.695   7.892  68.943  1.00  0.00    -0.158 C  
HETATM   14  O   UNL     1      -8.519   7.661  69.183  1.00  0.00    -0.135 OA 
BRANCH  13  15
HETATM   15  O   UNL     1     -10.621   6.943  68.665  1.00  0.00    -0.205 OA 
BRANCH  15  16
HETATM   16  C   UNL     1     -10.501   5.768  69.485  1.00  0.00    -0.293 C  
BRANCH  16  17
HETATM   17  C   UNL     1     -10.011   4.652  68.550  1.00  0.00    -0.060 C  
BRANCH  17  18
HETATM   18  N   UNL     1      -8.590   4.663  68.180  1.00  0.00    -0.101 NA 
HETATM   19  C   UNL     1      -7.889   3.531  68.791  1.00  0.00    -0.055 C  
BRANCH  18  20
HETATM   20  C   UNL     1      -8.458   4.590  66.704  1.00  0.00    -0.105 C  
BRANCH  20  21
HETATM   21  C   UNL     1      -7.538   5.654  66.133  1.00  0.00    -0.091 A  
HETATM   22  C   UNL     1      -7.463   5.855  64.747  1.00  0.00    -0.078 A  
HETATM   23  C   UNL     1      -6.555   6.765  64.208  1.00  0.00    -0.042 A  
HETATM   24  C   UNL     1      -5.715   7.492  65.049  1.00  0.00    -0.037 A  
HETATM   25  C   UNL     1      -5.791   7.319  66.430  1.00  0.00    -0.035 A  
HETATM   26  C   UNL     1      -6.700   6.406  66.973  1.00  0.00    -0.060 A  
ENDBRANCH  20  21
ENDBRANCH  18  20
ENDBRANCH  17  18
ENDBRANCH  16  17
ENDBRANCH  15  16
ENDBRANCH  13  15
ENDBRANCH  10  13
BRANCH  12  27
HETATM   27  C   UNL     1      -9.621  10.163  66.904  1.00  0.00    -0.219 A  
HETATM   28  C   UNL     1      -8.681   9.728  64.709  1.00  0.00    -0.216 A  
HETATM   29  O   UNL     1      -6.024  11.981  67.920  1.00  0.00    -0.051 OA 
HETATM   30  C   UNL     1      -8.407  10.763  67.292  1.00  0.00    -0.124 A  
HETATM   31  O   UNL     1      -5.172  11.536  65.950  1.00  0.00    -0.308 OA 
HETATM   32  C   UNL     1      -7.346  10.848  66.383  1.00  0.00    -0.141 A  
HETATM   33  C   UNL     1      -9.749   9.662  65.602  1.00  0.00    -0.363 A  
HETATM   34  C   UNL     1      -7.474  10.316  65.096  1.00  0.00    -0.130 A  
HETATM   35  N   UNL     1      -6.092  11.501  66.780  1.00  0.00    -0.147 N  
ENDBRANCH  12  27
ENDBRANCH   3   5
ENDBRANCH   2   3
TORSDOF 10
ENDMDL
MODEL      131
REMARK 921   NORMALIZED FREE ENERGY PREDICTED BY IDOCK:   -5.04 KCAL/MOL
REMARK 922        TOTAL FREE ENERGY PREDICTED BY IDOCK:   -9.51 KCAL/MOL
REMARK 923 INTER-LIGAND FREE ENERGY PREDICTED BY IDOCK:   -6.97 KCAL/MOL
REMARK 924 INTRA-LIGAND FREE ENERGY PREDICTED BY IDOCK:   -2.54 KCAL/MOL
REMARK 927      BINDING AFFINITY PREDICTED BY RF-SCORE:    0.00 PKD
ROOT
HETATM    1  C   UNL     1     -10.464  15.265  67.569  1.00  0.00    -0.265 C  
HETATM    2  O   UNL     1     -10.376  13.952  68.133  1.00  0.00    -0.234 OA 
ENDROOT
BRANCH   2   3
HETATM    3  C   UNL     1     -11.406  13.149  67.762  1.00  0.00    -0.290 C  
HETATM    4  O   UNL     1     -12.152  13.362  66.818  1.00  0.00    -0.391 OA 
BRANCH   3   5
HETATM    5  C   UNL     1     -11.547  11.992  68.683  1.00  0.00    -0.372 C  
HETATM    6  C   UNL     1     -12.025  12.172  69.938  1.00  0.00    -0.309 C  
HETATM    7  C   UNL     1     -12.557  13.460  70.521  1.00  0.00    -0.281 C  
HETATM    8  N   UNL     1     -12.031  11.111  70.826  1.00  0.00    -0.338 NA 
HETATM    9  C   UNL     1     -11.418   9.892  70.607  1.00  0.00    -0.334 C  
HETATM   10  C   UNL     1     -10.902   9.608  69.387  1.00  0.00    -0.239 C  
HETATM   11  C   UNL     1     -11.410   8.952  71.790  1.00  0.00    -0.431 C  
HETATM   12  C   UNL     1     -11.032  10.615  68.229  1.00  0.00    -0.314 C  
BRANCH  10  13
HETATM   13  C   UNL     1     -10.301   8.267  69.134  1.00  0.00    -0.217 C  
HETATM   14  O   UNL     1      -9.439   7.734  69.816  1.00  0.00    -0.160 OA 
BRANCH  13  15
HETATM   15  O   UNL     1     -11.002   7.638  68.159  1.00  0.00    -0.036 OA 
BRANCH  15  16
HETATM   16  C   UNL     1     -10.988   6.206  68.276  1.00  0.00    -0.308 C  
BRANCH  16  17
HETATM   17  C   UNL     1     -10.665   5.673  66.871  1.00  0.00    -0.272 C  
BRANCH  17  18
HETATM   18  N   UNL     1      -9.399   4.949  66.703  1.00  0.00    -0.132 NA 
HETATM   19  C   UNL     1      -9.563   3.837  65.762  1.00  0.00    -0.162 C  
BRANCH  18  20
HETATM   20  C   UNL     1      -8.356   5.876  66.200  1.00  0.00    -0.124 C  
BRANCH  20  21
HETATM   21  C   UNL     1      -7.389   6.329  67.279  1.00  0.00    -0.083 A  
HETATM   22  C   UNL     1      -6.928   5.421  68.243  1.00  0.00    -0.061 A  
HETATM   23  C   UNL     1      -6.114   5.849  69.291  1.00  0.00    -0.028 A  
HETATM   24  C   UNL     1      -5.743   7.189  69.384  1.00  0.00    -0.015 A  
HETATM   25  C   UNL     1      -6.178   8.100  68.422  1.00  0.00    -0.049 A  
HETATM   26  C   UNL     1      -6.995   7.674  67.371  1.00  0.00    -0.084 A  
ENDBRANCH  20  21
ENDBRANCH  18  20
ENDBRANCH  17  18
ENDBRANCH  16  17
ENDBRANCH  15  16
ENDBRANCH  13  15
ENDBRANCH  10  13
BRANCH  12  27
HETATM   27  C   UNL     1      -9.727  10.737  67.436  1.00  0.00    -0.194 A  
HETATM   28  C   UNL     1      -7.374  11.324  67.323  1.00  0.00    -0.122 A  
HETATM   29  O   UNL     1      -9.534   9.806  63.390  1.00  0.00    -0.211 OA 
HETATM   30  C   UNL     1      -9.705  10.437  66.059  1.00  0.00    -0.265 A  
HETATM   31  O   UNL     1      -7.422  10.387  63.294  1.00  0.00    -0.135 OA 
HETATM   32  C   UNL     1      -8.518  10.574  65.331  1.00  0.00    -0.170 A  
HETATM   33  C   UNL     1      -8.547  11.166  68.059  1.00  0.00    -0.140 A  
HETATM   34  C   UNL     1      -7.354  11.033  65.958  1.00  0.00    -0.025 A  
HETATM   35  N   UNL     1      -8.490  10.231  63.904  1.00  0.00    -0.173 N  
ENDBRANCH  12  27
ENDBRANCH   3   5
ENDBRANCH   2   3
TORSDOF 10
ENDMDL
MODEL      132
REMARK 921   NORMALIZED FREE ENERGY PREDICTED BY IDOCK:   -5.03 KCAL/MOL
REMARK 922        TOTAL FREE ENERGY PREDICTED BY IDOCK:   -9.49 KCAL/MOL
REMARK 923 INTER-LIGAND FREE ENERGY PREDICTED BY IDOCK:   -7.05 KCAL/MOL
REMARK 924 INTRA-LIGAND FREE ENERGY PREDICTED BY IDOCK:   -2.44 KCAL/MOL
REMARK 927      BINDING AFFINITY PREDICTED BY RF-SCORE:    0.00 PKD
ROOT
HETATM    1  C   UNL     1      -8.059  12.373  68.215  1.00  0.00    -0.166 C  
HETATM    2  O   UNL     1      -8.489  11.292  69.049  1.00  0.00    -0.106 OA 
ENDROOT
BRANCH   2   3
HETATM    3  C   UNL     1      -9.375  10.469  68.431  1.00  0.00    -0.158 C  
HETATM    4  O   UNL     1      -9.332  10.159  67.249  1.00  0.00    -0.150 OA 
BRANCH   3   5
HETATM    5  C   UNL     1     -10.442  10.026  69.364  1.00  0.00    -0.252 C  
HETATM    6  C   UNL     1     -11.464  10.858  69.678  1.00  0.00    -0.305 C  
HETATM    7  C   UNL     1     -11.725  12.223  69.088  1.00  0.00    -0.377 C  
HETATM    8  N   UNL     1     -12.380  10.481  70.644  1.00  0.00    -0.328 NA 
HETATM    9  C   UNL     1     -12.251   9.382  71.471  1.00  0.00    -0.369 C  
HETATM   10  C   UNL     1     -11.261   8.485  71.249  1.00  0.00    -0.321 C  
HETATM   11  C   UNL     1     -13.289   9.272  72.565  1.00  0.00    -0.463 C  
HETATM   12  C   UNL     1     -10.302   8.659  70.055  1.00  0.00    -0.213 C  
BRANCH  10  13
HETATM   13  C   UNL     1     -11.165   7.264  72.099  1.00  0.00    -0.252 C  
HETATM   14  O   UNL     1     -11.148   7.249  73.321  1.00  0.00    -0.331 OA 
BRANCH  13  15
HETATM   15  O   UNL     1     -11.313   6.163  71.322  1.00  0.00    -0.292 OA 
BRANCH  15  16
HETATM   16  C   UNL     1     -10.685   4.990  71.865  1.00  0.00    -0.111 C  
BRANCH  16  17
HETATM   17  C   UNL     1      -9.213   5.062  71.429  1.00  0.00    -0.146 C  
BRANCH  17  18
HETATM   18  N   UNL     1      -8.741   4.038  70.489  1.00  0.00    -0.073 NA 
HETATM   19  C   UNL     1      -8.515   2.767  71.182  1.00  0.00    -0.062 C  
BRANCH  18  20
HETATM   20  C   UNL     1      -9.745   3.846  69.414  1.00  0.00    -0.102 C  
BRANCH  20  21
HETATM   21  C   UNL     1      -9.592   4.831  68.270  1.00  0.00    -0.204 A  
HETATM   22  C   UNL     1      -8.397   4.884  67.537  1.00  0.00    -0.105 A  
HETATM   23  C   UNL     1      -8.213   5.847  66.546  1.00  0.00    -0.110 A  
HETATM   24  C   UNL     1      -9.225   6.764  66.268  1.00  0.00    -0.161 A  
HETATM   25  C   UNL     1     -10.426   6.711  66.974  1.00  0.00    -0.369 A  
HETATM   26  C   UNL     1     -10.612   5.748  67.969  1.00  0.00    -0.295 A  
ENDBRANCH  20  21
ENDBRANCH  18  20
ENDBRANCH  17  18
ENDBRANCH  16  17
ENDBRANCH  15  16
ENDBRANCH  13  15
ENDBRANCH  10  13
BRANCH  12  27
HETATM   27  C   UNL     1      -8.849   8.375  70.450  1.00  0.00    -0.149 A  
HETATM   28  C   UNL     1      -6.622   7.599  69.879  1.00  0.00    -0.041 A  
HETATM   29  O   UNL     1      -7.482   8.979  74.329  1.00  0.00    -0.405 OA 
HETATM   30  C   UNL     1      -8.428   8.567  71.781  1.00  0.00    -0.236 A  
HETATM   31  O   UNL     1      -5.488   8.228  73.808  1.00  0.00    -0.057 OA 
HETATM   32  C   UNL     1      -7.107   8.283  72.145  1.00  0.00    -0.090 A  
HETATM   33  C   UNL     1      -7.929   7.903  69.504  1.00  0.00    -0.116 A  
HETATM   34  C   UNL     1      -6.205   7.783  71.199  1.00  0.00    -0.034 A  
HETATM   35  N   UNL     1      -6.661   8.513  73.525  1.00  0.00    -0.101 N  
ENDBRANCH  12  27
ENDBRANCH   3   5
ENDBRANCH   2   3
TORSDOF 10
ENDMDL
MODEL      133
REMARK 921   NORMALIZED FREE ENERGY PREDICTED BY IDOCK:   -4.99 KCAL/MOL
REMARK 922        TOTAL FREE ENERGY PREDICTED BY IDOCK:   -9.43 KCAL/MOL
REMARK 923 INTER-LIGAND FREE ENERGY PREDICTED BY IDOCK:   -7.66 KCAL/MOL
REMARK 924 INTRA-LIGAND FREE ENERGY PREDICTED BY IDOCK:   -1.77 KCAL/MOL
REMARK 927      BINDING AFFINITY PREDICTED BY RF-SCORE:    0.00 PKD
ROOT
HETATM    1  C   UNL     1     -12.206  12.728  69.903  1.00  0.00    -0.175 C  
HETATM    2  O   UNL     1     -12.324  13.975  69.210  1.00  0.00    -0.324 OA 
ENDROOT
BRANCH   2   3
HETATM    3  C   UNL     1     -11.690  13.972  68.009  1.00  0.00    -0.359 C  
HETATM    4  O   UNL     1     -12.201  13.636  66.952  1.00  0.00    -0.399 OA 
BRANCH   3   5
HETATM    5  C   UNL     1     -10.270  14.384  68.148  1.00  0.00    -0.232 C  
HETATM    6  C   UNL     1      -9.926  15.691  68.065  1.00  0.00    -0.222 C  
HETATM    7  C   UNL     1     -10.871  16.862  67.941  1.00  0.00    -0.310 C  
HETATM    8  N   UNL     1      -8.589  16.049  68.068  1.00  0.00    -0.164 NA 
HETATM    9  C   UNL     1      -7.533  15.163  67.969  1.00  0.00    -0.120 C  
HETATM   10  C   UNL     1      -7.763  13.830  68.037  1.00  0.00    -0.152 C  
HETATM   11  C   UNL     1      -6.170  15.799  67.817  1.00  0.00    -0.175 C  
HETATM   12  C   UNL     1      -9.189  13.294  68.268  1.00  0.00    -0.197 C  
BRANCH  10  13
HETATM   13  C   UNL     1      -6.616  12.879  67.998  1.00  0.00    -0.107 C  
HETATM   14  O   UNL     1      -5.880  12.693  67.041  1.00  0.00    -0.319 OA 
BRANCH  13  15
HETATM   15  O   UNL     1      -6.381  12.408  69.247  1.00  0.00    -0.092 OA 
BRANCH  15  16
HETATM   16  C   UNL     1      -5.987  11.026  69.274  1.00  0.00    -0.046 C  
BRANCH  16  17
HETATM   17  C   UNL     1      -6.614  10.436  70.547  1.00  0.00    -0.069 C  
BRANCH  17  18
HETATM   18  N   UNL     1      -7.589   9.352  70.374  1.00  0.00    -0.129 NA 
HETATM   19  C   UNL     1      -7.224   8.509  69.231  1.00  0.00    -0.063 C  
BRANCH  18  20
HETATM   20  C   UNL     1      -7.638   8.524  71.604  1.00  0.00    -0.108 C  
BRANCH  20  21
HETATM   21  C   UNL     1      -8.986   7.862  71.825  1.00  0.00    -0.172 A  
HETATM   22  C   UNL     1     -10.065   8.604  72.328  1.00  0.00    -0.363 A  
HETATM   23  C   UNL     1     -11.279   7.984  72.621  1.00  0.00    -0.462 A  
HETATM   24  C   UNL     1     -11.433   6.616  72.406  1.00  0.00    -0.300 A  
HETATM   25  C   UNL     1     -10.377   5.869  71.887  1.00  0.00    -0.255 A  
HETATM   26  C   UNL     1      -9.159   6.487  71.594  1.00  0.00    -0.143 A  
ENDBRANCH  20  21
ENDBRANCH  18  20
ENDBRANCH  17  18
ENDBRANCH  16  17
ENDBRANCH  15  16
ENDBRANCH  13  15
ENDBRANCH  10  13
BRANCH  12  27
HETATM   27  C   UNL     1      -9.497  12.097  67.363  1.00  0.00    -0.179 A  
HETATM   28  C   UNL     1      -9.753  11.137  65.149  1.00  0.00    -0.296 A  
HETATM   29  O   UNL     1     -10.556   8.394  68.927  1.00  0.00    -0.212 OA 
HETATM   30  C   UNL     1      -9.878  10.863  67.928  1.00  0.00    -0.189 A  
HETATM   31  O   UNL     1     -10.832   7.556  66.919  1.00  0.00    -0.345 OA 
HETATM   32  C   UNL     1     -10.183   9.777  67.100  1.00  0.00    -0.228 A  
HETATM   33  C   UNL     1      -9.424  12.215  65.969  1.00  0.00    -0.215 A  
HETATM   34  C   UNL     1     -10.137   9.916  65.708  1.00  0.00    -0.317 A  
HETATM   35  N   UNL     1     -10.549   8.484  67.691  1.00  0.00    -0.230 N  
ENDBRANCH  12  27
ENDBRANCH   3   5
ENDBRANCH   2   3
TORSDOF 10
ENDMDL
MODEL      134
REMARK 921   NORMALIZED FREE ENERGY PREDICTED BY IDOCK:   -4.99 KCAL/MOL
REMARK 922        TOTAL FREE ENERGY PREDICTED BY IDOCK:   -9.43 KCAL/MOL
REMARK 923 INTER-LIGAND FREE ENERGY PREDICTED BY IDOCK:   -7.95 KCAL/MOL
REMARK 924 INTRA-LIGAND FREE ENERGY PREDICTED BY IDOCK:   -1.48 KCAL/MOL
REMARK 927      BINDING AFFINITY PREDICTED BY RF-SCORE:    0.00 PKD
ROOT
HETATM    1  C   UNL     1     -11.876  11.209  68.868  1.00  0.00    -0.337 C  
HETATM    2  O   UNL     1     -11.727  12.418  69.620  1.00  0.00    -0.300 OA 
ENDROOT
BRANCH   2   3
HETATM    3  C   UNL     1     -11.741  13.529  68.839  1.00  0.00    -0.339 C  
HETATM    4  O   UNL     1     -12.612  13.798  68.025  1.00  0.00     0.101 OA 
BRANCH   3   5
HETATM    5  C   UNL     1     -10.533  14.362  69.064  1.00  0.00    -0.227 C  
HETATM    6  C   UNL     1     -10.566  15.393  69.942  1.00  0.00    -0.303 C  
HETATM    7  C   UNL     1     -11.715  15.763  70.850  1.00  0.00    -0.441 C  
HETATM    8  N   UNL     1      -9.475  16.238  70.047  1.00  0.00     0.422 NA 
HETATM    9  C   UNL     1      -8.389  16.238  69.193  1.00  0.00    -0.211 C  
HETATM   10  C   UNL     1      -8.257  15.253  68.272  1.00  0.00    -0.142 C  
HETATM   11  C   UNL     1      -7.405  17.366  69.401  1.00  0.00     0.050 C  
HETATM   12  C   UNL     1      -9.286  14.109  68.198  1.00  0.00    -0.206 C  
BRANCH  10  13
HETATM   13  C   UNL     1      -7.050  15.217  67.397  1.00  0.00    -0.191 C  
HETATM   14  O   UNL     1      -6.281  14.274  67.286  1.00  0.00    -0.301 OA 
BRANCH  13  15
HETATM   15  O   UNL     1      -7.051  16.304  66.587  1.00  0.00    -0.198 OA 
BRANCH  15  16
HETATM   16  C   UNL     1      -5.792  16.997  66.557  1.00  0.00    -0.126 C  
BRANCH  16  17
HETATM   17  C   UNL     1      -6.118  18.471  66.841  1.00  0.00    -0.158 C  
BRANCH  17  18
HETATM   18  N   UNL     1      -5.919  19.426  65.744  1.00  0.00    -0.172 NA 
HETATM   19  C   UNL     1      -5.316  18.761  64.585  1.00  0.00    -0.205 C  
BRANCH  18  20
HETATM   20  C   UNL     1      -7.223  20.017  65.354  1.00  0.00    -0.230 C  
BRANCH  20  21
HETATM   21  C   UNL     1      -8.357  19.630  66.286  1.00  0.00    -0.372 A  
HETATM   22  C   UNL     1      -9.184  18.540  65.980  1.00  0.00     0.003 A  
HETATM   23  C   UNL     1     -10.283  18.234  66.781  1.00  0.00    -0.393 A  
HETATM   24  C   UNL     1     -10.565  19.009  67.904  1.00  0.00    -0.441 A  
HETATM   25  C   UNL     1      -9.741  20.084  68.233  1.00  0.00    -0.433 A  
HETATM   26  C   UNL     1      -8.639  20.394  67.431  1.00  0.00    -0.403 A  
ENDBRANCH  20  21
ENDBRANCH  18  20
ENDBRANCH  17  18
ENDBRANCH  16  17
ENDBRANCH  15  16
ENDBRANCH  13  15
ENDBRANCH  10  13
BRANCH  12  27
HETATM   27  C   UNL     1      -9.665  13.782  66.750  1.00  0.00    -0.277 A  
HETATM   28  C   UNL     1     -10.589  14.453  64.608  1.00  0.00    -0.331 A  
HETATM   29  O   UNL     1      -9.144   9.976  65.163  1.00  0.00    -0.172 OA 
HETATM   30  C   UNL     1      -9.498  12.473  66.254  1.00  0.00    -0.210 A  
HETATM   31  O   UNL     1     -10.027  10.586  63.251  1.00  0.00    -0.302 OA 
HETATM   32  C   UNL     1      -9.869  12.170  64.939  1.00  0.00    -0.150 A  
HETATM   33  C   UNL     1     -10.199  14.767  65.909  1.00  0.00    -0.331 A  
HETATM   34  C   UNL     1     -10.430  13.155  64.119  1.00  0.00    -0.348 A  
HETATM   35  N   UNL     1      -9.665  10.814  64.414  1.00  0.00    -0.272 N  
ENDBRANCH  12  27
ENDBRANCH   3   5
ENDBRANCH   2   3
TORSDOF 10
ENDMDL
MODEL      135
REMARK 921   NORMALIZED FREE ENERGY PREDICTED BY IDOCK:   -4.98 KCAL/MOL
REMARK 922        TOTAL FREE ENERGY PREDICTED BY IDOCK:   -9.42 KCAL/MOL
REMARK 923 INTER-LIGAND FREE ENERGY PREDICTED BY IDOCK:   -7.59 KCAL/MOL
REMARK 924 INTRA-LIGAND FREE ENERGY PREDICTED BY IDOCK:   -1.82 KCAL/MOL
REMARK 927      BINDING AFFINITY PREDICTED BY RF-SCORE:    0.00 PKD
ROOT
HETATM    1  C   UNL     1     -12.692   9.388  72.219  1.00  0.00    -0.341 C  
HETATM    2  O   UNL     1     -12.415   7.998  72.424  1.00  0.00    -0.291 OA 
ENDROOT
BRANCH   2   3
HETATM    3  C   UNL     1     -11.091   7.708  72.344  1.00  0.00    -0.310 C  
HETATM    4  O   UNL     1     -10.211   8.290  72.960  1.00  0.00    -0.278 OA 
BRANCH   3   5
HETATM    5  C   UNL     1     -10.836   6.618  71.368  1.00  0.00    -0.282 C  
HETATM    6  C   UNL     1     -10.546   5.367  71.801  1.00  0.00    -0.222 C  
HETATM    7  C   UNL     1     -10.547   4.890  73.233  1.00  0.00    -0.289 C  
HETATM    8  N   UNL     1     -10.186   4.393  70.886  1.00  0.00    -0.118 NA 
HETATM    9  C   UNL     1      -9.916   4.623  69.551  1.00  0.00    -0.196 C  
HETATM   10  C   UNL     1     -10.166   5.841  69.013  1.00  0.00    -0.282 C  
HETATM   11  C   UNL     1      -9.373   3.436  68.789  1.00  0.00    -0.234 C  
HETATM   12  C   UNL     1     -10.790   6.960  69.869  1.00  0.00    -0.294 C  
BRANCH  10  13
HETATM   13  C   UNL     1      -9.938   6.067  67.557  1.00  0.00    -0.137 C  
HETATM   14  O   UNL     1     -10.812   6.195  66.713  1.00  0.00    -0.319 OA 
BRANCH  13  15
HETATM   15  O   UNL     1      -8.623   6.318  67.343  1.00  0.00    -0.109 OA 
BRANCH  15  16
HETATM   16  C   UNL     1      -8.132   5.782  66.103  1.00  0.00    -0.108 C  
BRANCH  16  17
HETATM   17  C   UNL     1      -6.782   6.472  65.853  1.00  0.00    -0.048 C  
BRANCH  17  18
HETATM   18  N   UNL     1      -6.670   7.312  64.654  1.00  0.00    -0.043 NA 
HETATM   19  C   UNL     1      -7.831   7.120  63.780  1.00  0.00    -0.110 C  
BRANCH  18  20
HETATM   20  C   UNL     1      -6.576   8.738  65.050  1.00  0.00    -0.068 C  
BRANCH  20  21
HETATM   21  C   UNL     1      -7.827   9.533  64.720  1.00  0.00    -0.120 A  
HETATM   22  C   UNL     1      -8.931   9.507  65.584  1.00  0.00    -0.224 A  
HETATM   23  C   UNL     1     -10.116  10.158  65.244  1.00  0.00    -0.344 A  
HETATM   24  C   UNL     1     -10.209  10.852  64.039  1.00  0.00    -0.422 A  
HETATM   25  C   UNL     1      -9.113  10.904  63.178  1.00  0.00    -0.277 A  
HETATM   26  C   UNL     1      -7.925  10.251  63.516  1.00  0.00    -0.143 A  
ENDBRANCH  20  21
ENDBRANCH  18  20
ENDBRANCH  17  18
ENDBRANCH  16  17
ENDBRANCH  15  16
ENDBRANCH  13  15
ENDBRANCH  10  13
BRANCH  12  27
HETATM   27  C   UNL     1     -10.108   8.309  69.621  1.00  0.00    -0.199 A  
HETATM   28  C   UNL     1      -8.165   9.753  69.793  1.00  0.00    -0.182 A  
HETATM   29  O   UNL     1     -12.134  11.493  67.878  1.00  0.00    -0.630 OA 
HETATM   30  C   UNL     1     -10.834   9.374  69.051  1.00  0.00    -0.161 A  
HETATM   31  O   UNL     1     -10.385  12.799  68.086  1.00  0.00    -0.225 OA 
HETATM   32  C   UNL     1     -10.217  10.614  68.849  1.00  0.00    -0.201 A  
HETATM   33  C   UNL     1      -8.767   8.509  69.974  1.00  0.00    -0.136 A  
HETATM   34  C   UNL     1      -8.886  10.811  69.234  1.00  0.00    -0.039 A  
HETATM   35  N   UNL     1     -10.965  11.713  68.227  1.00  0.00    -0.211 N  
ENDBRANCH  12  27
ENDBRANCH   3   5
ENDBRANCH   2   3
TORSDOF 10
ENDMDL
MODEL      136
REMARK 921   NORMALIZED FREE ENERGY PREDICTED BY IDOCK:   -4.97 KCAL/MOL
REMARK 922        TOTAL FREE ENERGY PREDICTED BY IDOCK:   -9.40 KCAL/MOL
REMARK 923 INTER-LIGAND FREE ENERGY PREDICTED BY IDOCK:   -7.30 KCAL/MOL
REMARK 924 INTRA-LIGAND FREE ENERGY PREDICTED BY IDOCK:   -2.10 KCAL/MOL
REMARK 927      BINDING AFFINITY PREDICTED BY RF-SCORE:    0.00 PKD
ROOT
HETATM    1  C   UNL     1      -6.441   5.305  65.610  1.00  0.00    -0.040 C  
HETATM    2  O   UNL     1      -7.317   5.402  66.738  1.00  0.00    -0.083 OA 
ENDROOT
BRANCH   2   3
HETATM    3  C   UNL     1      -8.437   6.124  66.475  1.00  0.00    -0.119 C  
HETATM    4  O   UNL     1      -9.058   6.089  65.424  1.00  0.00    -0.050 OA 
BRANCH   3   5
HETATM    5  C   UNL     1      -8.789   7.007  67.616  1.00  0.00    -0.119 C  
HETATM    6  C   UNL     1      -9.872   6.736  68.382  1.00  0.00    -0.136 C  
HETATM    7  C   UNL     1     -10.764   5.521  68.278  1.00  0.00    -0.155 C  
HETATM    8  N   UNL     1     -10.262   7.635  69.359  1.00  0.00    -0.201 NA 
HETATM    9  C   UNL     1      -9.742   8.904  69.519  1.00  0.00    -0.173 C  
HETATM   10  C   UNL     1      -8.658   9.283  68.800  1.00  0.00    -0.131 C  
HETATM   11  C   UNL     1     -10.446   9.766  70.542  1.00  0.00    -0.366 C  
HETATM   12  C   UNL     1      -7.975   8.295  67.836  1.00  0.00    -0.123 C  
BRANCH  10  13
HETATM   13  C   UNL     1      -8.057  10.630  69.023  1.00  0.00    -0.148 C  
HETATM   14  O   UNL     1      -6.931  10.843  69.447  1.00  0.00    -0.098 OA 
BRANCH  13  15
HETATM   15  O   UNL     1      -8.867  11.577  68.490  1.00  0.00    -0.158 OA 
BRANCH  15  16
HETATM   16  C   UNL     1      -8.176  12.508  67.640  1.00  0.00    -0.172 C  
BRANCH  16  17
HETATM   17  C   UNL     1      -9.248  13.106  66.715  1.00  0.00    -0.230 C  
BRANCH  17  18
HETATM   18  N   UNL     1      -9.777  14.429  67.069  1.00  0.00    -0.247 NA 
HETATM   19  C   UNL     1      -9.437  15.413  66.037  1.00  0.00    -0.346 C  
BRANCH  18  20
HETATM   20  C   UNL     1     -11.251  14.354  67.218  1.00  0.00    -0.323 C  
BRANCH  20  21
HETATM   21  C   UNL     1     -11.706  14.345  68.666  1.00  0.00    -0.367 A  
HETATM   22  C   UNL     1     -11.902  15.552  69.354  1.00  0.00    -0.392 A  
HETATM   23  C   UNL     1     -12.229  15.553  70.708  1.00  0.00    -0.450 A  
HETATM   24  C   UNL     1     -12.374  14.347  71.392  1.00  0.00    -0.433 A  
HETATM   25  C   UNL     1     -12.202  13.139  70.718  1.00  0.00    -0.375 A  
HETATM   26  C   UNL     1     -11.873  13.135  69.360  1.00  0.00    -0.383 A  
ENDBRANCH  20  21
ENDBRANCH  18  20
ENDBRANCH  17  18
ENDBRANCH  16  17
ENDBRANCH  15  16
ENDBRANCH  13  15
ENDBRANCH  10  13
BRANCH  12  27
HETATM   27  C   UNL     1      -7.609   8.962  66.506  1.00  0.00    -0.092 A  
HETATM   28  C   UNL     1      -5.942   9.666  64.889  1.00  0.00    -0.081 A  
HETATM   29  O   UNL     1     -10.496  10.663  64.047  1.00  0.00    -0.311 OA 
HETATM   30  C   UNL     1      -8.612   9.551  65.711  1.00  0.00    -0.152 A  
HETATM   31  O   UNL     1      -8.973  11.336  62.620  1.00  0.00    -0.324 OA 
HETATM   32  C   UNL     1      -8.272  10.182  64.509  1.00  0.00    -0.162 A  
HETATM   33  C   UNL     1      -6.277   9.014  66.074  1.00  0.00    -0.059 A  
HETATM   34  C   UNL     1      -6.935  10.256  64.103  1.00  0.00    -0.049 A  
HETATM   35  N   UNL     1      -9.322  10.768  63.666  1.00  0.00    -0.248 N  
ENDBRANCH  12  27
ENDBRANCH   3   5
ENDBRANCH   2   3
TORSDOF 10
ENDMDL
MODEL      137
REMARK 921   NORMALIZED FREE ENERGY PREDICTED BY IDOCK:   -4.96 KCAL/MOL
REMARK 922        TOTAL FREE ENERGY PREDICTED BY IDOCK:   -9.38 KCAL/MOL
REMARK 923 INTER-LIGAND FREE ENERGY PREDICTED BY IDOCK:   -9.37 KCAL/MOL
REMARK 924 INTRA-LIGAND FREE ENERGY PREDICTED BY IDOCK:   -0.01 KCAL/MOL
REMARK 927      BINDING AFFINITY PREDICTED BY RF-SCORE:    0.00 PKD
ROOT
HETATM    1  C   UNL     1      -5.508  10.402  64.094  1.00  0.00    -0.149 C  
HETATM    2  O   UNL     1      -6.382   9.333  63.717  1.00  0.00    -0.088 OA 
ENDROOT
BRANCH   2   3
HETATM    3  C   UNL     1      -7.694   9.674  63.792  1.00  0.00    -0.130 C  
HETATM    4  O   UNL     1      -8.248  10.480  63.060  1.00  0.00    -0.156 OA 
BRANCH   3   5
HETATM    5  C   UNL     1      -8.370   8.975  64.915  1.00  0.00    -0.178 C  
HETATM    6  C   UNL     1      -8.441   7.623  64.935  1.00  0.00     0.023 C  
HETATM    7  C   UNL     1      -7.796   6.675  63.953  1.00  0.00    -0.109 C  
HETATM    8  N   UNL     1      -9.182   6.991  65.919  1.00  0.00    -0.024 NA 
HETATM    9  C   UNL     1     -10.026   7.631  66.807  1.00  0.00    -0.247 C  
HETATM   10  C   UNL     1     -10.038   8.984  66.869  1.00  0.00    -0.338 C  
HETATM   11  C   UNL     1     -10.862   6.717  67.674  1.00  0.00    -0.361 C  
HETATM   12  C   UNL     1      -9.087   9.815  65.987  1.00  0.00    -0.201 C  
BRANCH  10  13
HETATM   13  C   UNL     1     -10.899   9.669  67.875  1.00  0.00    -0.215 C  
HETATM   14  O   UNL     1     -11.905  10.317  67.625  1.00  0.00    -0.012 OA 
BRANCH  13  15
HETATM   15  O   UNL     1     -10.520   9.293  69.120  1.00  0.00    -0.210 OA 
BRANCH  15  16
HETATM   16  C   UNL     1     -10.413  10.391  70.042  1.00  0.00    -0.182 C  
BRANCH  16  17
HETATM   17  C   UNL     1     -11.430  10.101  71.158  1.00  0.00    -0.307 C  
BRANCH  17  18
HETATM   18  N   UNL     1     -12.806  10.569  70.949  1.00  0.00    -0.385 NA 
HETATM   19  C   UNL     1     -13.730   9.434  70.869  1.00  0.00     0.093 C  
BRANCH  18  20
HETATM   20  C   UNL     1     -13.206  11.457  72.068  1.00  0.00    -0.327 C  
BRANCH  20  21
HETATM   21  C   UNL     1     -13.178  12.930  71.702  1.00  0.00    -0.416 A  
HETATM   22  C   UNL     1     -12.236  13.413  70.782  1.00  0.00    -0.409 A  
HETATM   23  C   UNL     1     -12.142  14.776  70.509  1.00  0.00    -0.378 A  
HETATM   24  C   UNL     1     -12.995  15.675  71.146  1.00  0.00    -0.539 A  
HETATM   25  C   UNL     1     -13.951  15.209  72.048  1.00  0.00    -0.629 A  
HETATM   26  C   UNL     1     -14.046  13.842  72.324  1.00  0.00    -0.632 A  
ENDBRANCH  20  21
ENDBRANCH  18  20
ENDBRANCH  17  18
ENDBRANCH  16  17
ENDBRANCH  15  16
ENDBRANCH  13  15
ENDBRANCH  10  13
BRANCH  12  27
HETATM   27  C   UNL     1      -9.798  11.024  65.370  1.00  0.00    -0.301 A  
HETATM   28  C   UNL     1     -11.383  11.956  63.786  1.00  0.00    -0.532 A  
HETATM   29  O   UNL     1      -8.934  14.910  66.564  1.00  0.00    -0.268 OA 
HETATM   30  C   UNL     1      -9.461  12.329  65.782  1.00  0.00    -0.128 A  
HETATM   31  O   UNL     1     -10.333  15.739  65.092  1.00  0.00    -0.425 OA 
HETATM   32  C   UNL     1     -10.094  13.432  65.199  1.00  0.00    -0.246 A  
HETATM   33  C   UNL     1     -10.774  10.852  64.380  1.00  0.00    -0.250 A  
HETATM   34  C   UNL     1     -11.044  13.250  64.189  1.00  0.00    -0.393 A  
HETATM   35  N   UNL     1      -9.763  14.790  65.651  1.00  0.00    -0.322 N  
ENDBRANCH  12  27
ENDBRANCH   3   5
ENDBRANCH   2   3
TORSDOF 10
ENDMDL
MODEL      138
REMARK 921   NORMALIZED FREE ENERGY PREDICTED BY IDOCK:   -4.91 KCAL/MOL
REMARK 922        TOTAL FREE ENERGY PREDICTED BY IDOCK:   -9.30 KCAL/MOL
REMARK 923 INTER-LIGAND FREE ENERGY PREDICTED BY IDOCK:   -8.62 KCAL/MOL
REMARK 924 INTRA-LIGAND FREE ENERGY PREDICTED BY IDOCK:   -0.68 KCAL/MOL
REMARK 927      BINDING AFFINITY PREDICTED BY RF-SCORE:    0.00 PKD
ROOT
HETATM    1  C   UNL     1     -11.865  15.954  64.144  1.00  0.00     0.028 C  
HETATM    2  O   UNL     1     -11.567  15.212  65.331  1.00  0.00    -0.288 OA 
ENDROOT
BRANCH   2   3
HETATM    3  C   UNL     1     -12.182  14.002  65.366  1.00  0.00    -0.439 C  
HETATM    4  O   UNL     1     -13.381  13.834  65.527  1.00  0.00    -0.613 OA 
BRANCH   3   5
HETATM    5  C   UNL     1     -11.202  12.895  65.231  1.00  0.00    -0.319 C  
HETATM    6  C   UNL     1     -11.338  11.977  64.244  1.00  0.00    -0.364 C  
HETATM    7  C   UNL     1     -12.365  11.995  63.137  1.00  0.00    -0.394 C  
HETATM    8  N   UNL     1     -10.494  10.881  64.208  1.00  0.00    -0.370 NA 
HETATM    9  C   UNL     1      -9.611  10.528  65.211  1.00  0.00    -0.249 C  
HETATM   10  C   UNL     1      -9.400  11.372  66.249  1.00  0.00    -0.228 C  
HETATM   11  C   UNL     1      -8.922   9.196  65.024  1.00  0.00    -0.221 C  
HETATM   12  C   UNL     1     -10.105  12.741  66.299  1.00  0.00    -0.267 C  
BRANCH  10  13
HETATM   13  C   UNL     1      -8.397  11.020  67.295  1.00  0.00    -0.125 C  
HETATM   14  O   UNL     1      -7.630  11.804  67.835  1.00  0.00    -0.107 OA 
BRANCH  13  15
HETATM   15  O   UNL     1      -8.606   9.746  67.706  1.00  0.00    -0.124 OA 
BRANCH  15  16
HETATM   16  C   UNL     1      -7.447   8.906  67.581  1.00  0.00    -0.092 C  
BRANCH  16  17
HETATM   17  C   UNL     1      -7.844   7.551  68.186  1.00  0.00    -0.122 C  
BRANCH  17  18
HETATM   18  N   UNL     1      -9.270   7.330  68.458  1.00  0.00    -0.139 NA 
HETATM   19  C   UNL     1      -9.904   6.619  67.344  1.00  0.00    -0.131 C  
BRANCH  18  20
HETATM   20  C   UNL     1      -9.424   6.538  69.704  1.00  0.00    -0.145 C  
BRANCH  20  21
HETATM   21  C   UNL     1     -10.458   7.114  70.654  1.00  0.00    -0.226 A  
HETATM   22  C   UNL     1     -11.731   6.532  70.752  1.00  0.00    -0.427 A  
HETATM   23  C   UNL     1     -12.717   7.108  71.551  1.00  0.00    -0.433 A  
HETATM   24  C   UNL     1     -12.441   8.269  72.270  1.00  0.00    -0.384 A  
HETATM   25  C   UNL     1     -11.175   8.848  72.200  1.00  0.00    -0.362 A  
HETATM   26  C   UNL     1     -10.185   8.274  71.398  1.00  0.00    -0.263 A  
ENDBRANCH  20  21
ENDBRANCH  18  20
ENDBRANCH  17  18
ENDBRANCH  16  17
ENDBRANCH  15  16
ENDBRANCH  13  15
ENDBRANCH  10  13
BRANCH  12  27
HETATM   27  C   UNL     1     -10.638  13.053  67.701  1.00  0.00    -0.232 A  
HETATM   28  C   UNL     1     -10.747  14.507  69.641  1.00  0.00    -0.128 A  
HETATM   29  O   UNL     1     -13.134  10.415  69.725  1.00  0.00    -0.015 OA 
HETATM   30  C   UNL     1     -11.461  12.123  68.367  1.00  0.00    -0.356 A  
HETATM   31  O   UNL     1     -13.181  11.717  71.489  1.00  0.00    -0.361 OA 
HETATM   32  C   UNL     1     -11.927  12.398  69.658  1.00  0.00    -0.274 A  
HETATM   33  C   UNL     1     -10.300  14.250  68.346  1.00  0.00    -0.247 A  
HETATM   34  C   UNL     1     -11.558  13.583  70.304  1.00  0.00    -0.138 A  
HETATM   35  N   UNL     1     -12.810  11.442  70.338  1.00  0.00    -0.067 N  
ENDBRANCH  12  27
ENDBRANCH   3   5
ENDBRANCH   2   3
TORSDOF 10
ENDMDL
MODEL      139
REMARK 921   NORMALIZED FREE ENERGY PREDICTED BY IDOCK:   -4.88 KCAL/MOL
REMARK 922        TOTAL FREE ENERGY PREDICTED BY IDOCK:   -9.24 KCAL/MOL
REMARK 923 INTER-LIGAND FREE ENERGY PREDICTED BY IDOCK:   -8.05 KCAL/MOL
REMARK 924 INTRA-LIGAND FREE ENERGY PREDICTED BY IDOCK:   -1.19 KCAL/MOL
REMARK 927      BINDING AFFINITY PREDICTED BY RF-SCORE:    0.00 PKD
ROOT
HETATM    1  C   UNL     1     -11.966  13.324  64.892  1.00  0.00    -0.378 C  
HETATM    2  O   UNL     1     -12.348  12.799  66.168  1.00  0.00    -0.542 OA 
ENDROOT
BRANCH   2   3
HETATM    3  C   UNL     1     -11.405  13.001  67.124  1.00  0.00    -0.305 C  
HETATM    4  O   UNL     1     -10.568  13.891  67.101  1.00  0.00    -0.274 OA 
BRANCH   3   5
HETATM    5  C   UNL     1     -11.484  11.966  68.186  1.00  0.00    -0.384 C  
HETATM    6  C   UNL     1     -11.948  12.287  69.418  1.00  0.00    -0.259 C  
HETATM    7  C   UNL     1     -12.521  13.617  69.845  1.00  0.00    -0.226 C  
HETATM    8  N   UNL     1     -11.897  11.347  70.434  1.00  0.00    -0.348 NA 
HETATM    9  C   UNL     1     -11.239  10.135  70.358  1.00  0.00    -0.330 C  
HETATM   10  C   UNL     1     -10.732   9.717  69.173  1.00  0.00    -0.237 C  
HETATM   11  C   UNL     1     -11.174   9.354  71.650  1.00  0.00    -0.431 C  
HETATM   12  C   UNL     1     -10.921  10.563  67.900  1.00  0.00    -0.352 C  
BRANCH  10  13
HETATM   13  C   UNL     1     -10.082   8.378  69.079  1.00  0.00    -0.203 C  
HETATM   14  O   UNL     1      -8.988   8.086  69.537  1.00  0.00    -0.146 OA 
BRANCH  13  15
HETATM   15  O   UNL     1     -10.974   7.480  68.595  1.00  0.00    -0.061 OA 
BRANCH  15  16
HETATM   16  C   UNL     1     -10.366   6.268  68.118  1.00  0.00    -0.195 C  
BRANCH  16  17
HETATM   17  C   UNL     1     -10.528   5.243  69.252  1.00  0.00    -0.185 C  
BRANCH  17  18
HETATM   18  N   UNL     1      -9.563   4.137  69.299  1.00  0.00    -0.189 NA 
HETATM   19  C   UNL     1      -8.255   4.573  68.802  1.00  0.00    -0.081 C  
BRANCH  18  20
HETATM   20  C   UNL     1      -9.427   3.652  70.694  1.00  0.00    -0.172 C  
BRANCH  20  21
HETATM   21  C   UNL     1      -9.674   4.735  71.729  1.00  0.00    -0.225 A  
HETATM   22  C   UNL     1      -8.701   5.715  71.974  1.00  0.00    -0.134 A  
HETATM   23  C   UNL     1      -8.878   6.657  72.986  1.00  0.00    -0.138 A  
HETATM   24  C   UNL     1     -10.036   6.637  73.762  1.00  0.00    -0.325 A  
HETATM   25  C   UNL     1     -11.022   5.682  73.518  1.00  0.00    -0.250 A  
HETATM   26  C   UNL     1     -10.845   4.735  72.505  1.00  0.00    -0.208 A  
ENDBRANCH  20  21
ENDBRANCH  18  20
ENDBRANCH  17  18
ENDBRANCH  16  17
ENDBRANCH  15  16
ENDBRANCH  13  15
ENDBRANCH  10  13
BRANCH  12  27
HETATM   27  C   UNL     1      -9.636  10.632  67.070  1.00  0.00    -0.196 A  
HETATM   28  C   UNL     1      -7.243  11.011  66.915  1.00  0.00    -0.133 A  
HETATM   29  O   UNL     1      -9.655  10.025  62.958  1.00  0.00    -0.267 OA 
HETATM   30  C   UNL     1      -9.684  10.446  65.674  1.00  0.00    -0.294 A  
HETATM   31  O   UNL     1      -7.501  10.420  62.828  1.00  0.00    -0.141 OA 
HETATM   32  C   UNL     1      -8.512  10.535  64.914  1.00  0.00    -0.158 A  
HETATM   33  C   UNL     1      -8.403  10.900  67.680  1.00  0.00    -0.116 A  
HETATM   34  C   UNL     1      -7.292  10.834  65.530  1.00  0.00     0.016 A  
HETATM   35  N   UNL     1      -8.560  10.311  63.464  1.00  0.00    -0.182 N  
ENDBRANCH  12  27
ENDBRANCH   3   5
ENDBRANCH   2   3
TORSDOF 10
ENDMDL
MODEL      140
REMARK 921   NORMALIZED FREE ENERGY PREDICTED BY IDOCK:   -4.86 KCAL/MOL
REMARK 922        TOTAL FREE ENERGY PREDICTED BY IDOCK:   -9.22 KCAL/MOL
REMARK 923 INTER-LIGAND FREE ENERGY PREDICTED BY IDOCK:   -7.78 KCAL/MOL
REMARK 924 INTRA-LIGAND FREE ENERGY PREDICTED BY IDOCK:   -1.45 KCAL/MOL
REMARK 927      BINDING AFFINITY PREDICTED BY RF-SCORE:    0.00 PKD
ROOT
HETATM    1  C   UNL     1     -11.278   6.389  67.391  1.00  0.00    -0.189 C  
HETATM    2  O   UNL     1     -10.129   6.639  66.573  1.00  0.00    -0.157 OA 
ENDROOT
BRANCH   2   3
HETATM    3  C   UNL     1      -8.968   6.622  67.276  1.00  0.00    -0.115 C  
HETATM    4  O   UNL     1      -8.634   5.735  68.049  1.00  0.00    -0.106 OA 
BRANCH   3   5
HETATM    5  C   UNL     1      -8.167   7.847  67.027  1.00  0.00    -0.117 C  
HETATM    6  C   UNL     1      -7.086   7.803  66.213  1.00  0.00    -0.070 C  
HETATM    7  C   UNL     1      -6.620   6.618  65.400  1.00  0.00    -0.050 C  
HETATM    8  N   UNL     1      -6.276   8.919  66.090  1.00  0.00    -0.062 NA 
HETATM    9  C   UNL     1      -6.366  10.052  66.875  1.00  0.00    -0.065 C  
HETATM   10  C   UNL     1      -7.408  10.199  67.729  1.00  0.00    -0.088 C  
HETATM   11  C   UNL     1      -5.264  11.067  66.673  1.00  0.00    -0.088 C  
HETATM   12  C   UNL     1      -8.516   9.131  67.800  1.00  0.00    -0.117 C  
BRANCH  10  13
HETATM   13  C   UNL     1      -7.540  11.453  68.524  1.00  0.00    -0.129 C  
HETATM   14  O   UNL     1      -6.991  11.677  69.593  1.00  0.00    -0.067 OA 
BRANCH  13  15
HETATM   15  O   UNL     1      -8.188  12.387  67.786  1.00  0.00    -0.141 OA 
BRANCH  15  16
HETATM   16  C   UNL     1      -8.364  13.638  68.472  1.00  0.00    -0.110 C  
BRANCH  16  17
HETATM   17  C   UNL     1      -9.736  14.169  68.029  1.00  0.00    -0.226 C  
BRANCH  17  18
HETATM   18  N   UNL     1     -10.324  15.254  68.825  1.00  0.00    -0.225 NA 
HETATM   19  C   UNL     1     -10.134  16.545  68.157  1.00  0.00    -0.255 C  
BRANCH  18  20
HETATM   20  C   UNL     1     -11.773  15.004  69.017  1.00  0.00    -0.325 C  
BRANCH  20  21
HETATM   21  C   UNL     1     -12.248  15.295  70.429  1.00  0.00    -0.404 A  
HETATM   22  C   UNL     1     -11.421  15.989  71.325  1.00  0.00    -0.475 A  
HETATM   23  C   UNL     1     -11.810  16.181  72.649  1.00  0.00    -0.609 A  
HETATM   24  C   UNL     1     -13.035  15.687  73.095  1.00  0.00    -0.645 A  
HETATM   25  C   UNL     1     -13.877  15.012  72.212  1.00  0.00    -0.596 A  
HETATM   26  C   UNL     1     -13.489  14.818  70.883  1.00  0.00    -0.325 A  
ENDBRANCH  20  21
ENDBRANCH  18  20
ENDBRANCH  17  18
ENDBRANCH  16  17
ENDBRANCH  15  16
ENDBRANCH  13  15
ENDBRANCH  10  13
BRANCH  12  27
HETATM   27  C   UNL     1      -8.916   8.826  69.246  1.00  0.00    -0.144 A  
HETATM   28  C   UNL     1      -8.405   7.871  71.419  1.00  0.00    -0.119 A  
HETATM   29  O   UNL     1     -12.660   9.841  70.740  1.00  0.00    -0.276 OA 
HETATM   30  C   UNL     1     -10.204   9.162  69.711  1.00  0.00    -0.219 A  
HETATM   31  O   UNL     1     -12.200   8.930  72.681  1.00  0.00    -0.293 OA 
HETATM   32  C   UNL     1     -10.575   8.858  71.025  1.00  0.00    -0.247 A  
HETATM   33  C   UNL     1      -8.020   8.193  70.118  1.00  0.00    -0.107 A  
HETATM   34  C   UNL     1      -9.683   8.198  71.877  1.00  0.00    -0.268 A  
HETATM   35  N   UNL     1     -11.906   9.237  71.517  1.00  0.00    -0.347 N  
ENDBRANCH  12  27
ENDBRANCH   3   5
ENDBRANCH   2   3
TORSDOF 10
ENDMDL
MODEL      141
REMARK 921   NORMALIZED FREE ENERGY PREDICTED BY IDOCK:   -4.86 KCAL/MOL
REMARK 922        TOTAL FREE ENERGY PREDICTED BY IDOCK:   -9.22 KCAL/MOL
REMARK 923 INTER-LIGAND FREE ENERGY PREDICTED BY IDOCK:   -7.30 KCAL/MOL
REMARK 924 INTRA-LIGAND FREE ENERGY PREDICTED BY IDOCK:   -1.93 KCAL/MOL
REMARK 927      BINDING AFFINITY PREDICTED BY RF-SCORE:    0.00 PKD
ROOT
HETATM    1  C   UNL     1     -10.460  12.398  65.406  1.00  0.00    -0.277 C  
HETATM    2  O   UNL     1     -10.303  11.324  66.339  1.00  0.00    -0.229 OA 
ENDROOT
BRANCH   2   3
HETATM    3  C   UNL     1      -9.976  11.753  67.585  1.00  0.00    -0.194 C  
HETATM    4  O   UNL     1      -9.016  12.462  67.849  1.00  0.00    -0.168 OA 
BRANCH   3   5
HETATM    5  C   UNL     1     -10.907  11.209  68.606  1.00  0.00    -0.251 C  
HETATM    6  C   UNL     1     -11.754  12.033  69.268  1.00  0.00    -0.330 C  
HETATM    7  C   UNL     1     -11.952  13.509  69.015  1.00  0.00    -0.376 C  
HETATM    8  N   UNL     1     -12.525  11.534  70.303  1.00  0.00    -0.240 NA 
HETATM    9  C   UNL     1     -12.383  10.278  70.860  1.00  0.00    -0.373 C  
HETATM   10  C   UNL     1     -11.559   9.373  70.280  1.00  0.00    -0.181 C  
HETATM   11  C   UNL     1     -13.219  10.021  72.094  1.00  0.00    -0.489 C  
HETATM   12  C   UNL     1     -10.810   9.719  68.979  1.00  0.00    -0.223 C  
BRANCH  10  13
HETATM   13  C   UNL     1     -11.460   7.996  70.844  1.00  0.00    -0.276 C  
HETATM   14  O   UNL     1     -12.109   7.029  70.474  1.00  0.00    -0.313 OA 
BRANCH  13  15
HETATM   15  O   UNL     1     -10.396   7.929  71.681  1.00  0.00    -0.197 OA 
BRANCH  15  16
HETATM   16  C   UNL     1     -10.626   7.101  72.834  1.00  0.00    -0.281 C  
BRANCH  16  17
HETATM   17  C   UNL     1      -9.590   5.969  72.749  1.00  0.00    -0.155 C  
BRANCH  17  18
HETATM   18  N   UNL     1      -9.116   5.592  71.411  1.00  0.00    -0.139 NA 
HETATM   19  C   UNL     1      -7.666   5.378  71.420  1.00  0.00    -0.108 C  
BRANCH  18  20
HETATM   20  C   UNL     1      -9.798   4.351  70.971  1.00  0.00    -0.190 C  
BRANCH  20  21
HETATM   21  C   UNL     1      -9.772   4.157  69.466  1.00  0.00    -0.254 A  
HETATM   22  C   UNL     1      -9.303   2.954  68.915  1.00  0.00    -0.226 A  
HETATM   23  C   UNL     1      -9.189   2.801  67.535  1.00  0.00    -0.227 A  
HETATM   24  C   UNL     1      -9.549   3.846  66.685  1.00  0.00    -0.215 A  
HETATM   25  C   UNL     1     -10.035   5.039  67.216  1.00  0.00    -0.220 A  
HETATM   26  C   UNL     1     -10.150   5.196  68.600  1.00  0.00    -0.220 A  
ENDBRANCH  20  21
ENDBRANCH  18  20
ENDBRANCH  17  18
ENDBRANCH  16  17
ENDBRANCH  15  16
ENDBRANCH  13  15
ENDBRANCH  10  13
BRANCH  12  27
HETATM   27  C   UNL     1      -9.354   9.244  69.021  1.00  0.00    -0.151 A  
HETATM   28  C   UNL     1      -7.200   9.142  70.135  1.00  0.00    -0.070 A  
HETATM   29  O   UNL     1      -7.680   7.057  65.908  1.00  0.00    -0.093 OA 
HETATM   30  C   UNL     1      -8.813   8.526  67.935  1.00  0.00    -0.137 A  
HETATM   31  O   UNL     1      -5.727   7.016  66.905  1.00  0.00    -0.020 OA 
HETATM   32  C   UNL     1      -7.476   8.116  67.964  1.00  0.00    -0.097 A  
HETATM   33  C   UNL     1      -8.538   9.532  70.123  1.00  0.00    -0.250 A  
HETATM   34  C   UNL     1      -6.662   8.436  69.056  1.00  0.00    -0.052 A  
HETATM   35  N   UNL     1      -6.922   7.341  66.846  1.00  0.00    -0.075 N  
ENDBRANCH  12  27
ENDBRANCH   3   5
ENDBRANCH   2   3
TORSDOF 10
ENDMDL
MODEL      142
REMARK 921   NORMALIZED FREE ENERGY PREDICTED BY IDOCK:   -4.85 KCAL/MOL
REMARK 922        TOTAL FREE ENERGY PREDICTED BY IDOCK:   -9.21 KCAL/MOL
REMARK 923 INTER-LIGAND FREE ENERGY PREDICTED BY IDOCK:   -8.18 KCAL/MOL
REMARK 924 INTRA-LIGAND FREE ENERGY PREDICTED BY IDOCK:   -1.03 KCAL/MOL
REMARK 927      BINDING AFFINITY PREDICTED BY RF-SCORE:    0.00 PKD
ROOT
HETATM    1  C   UNL     1      -8.268  16.025  68.688  1.00  0.00    -0.193 C  
HETATM    2  O   UNL     1      -8.786  14.694  68.775  1.00  0.00    -0.176 OA 
ENDROOT
BRANCH   2   3
HETATM    3  C   UNL     1      -8.026  13.788  68.108  1.00  0.00    -0.150 C  
HETATM    4  O   UNL     1      -7.307  14.047  67.154  1.00  0.00    -0.077 OA 
BRANCH   3   5
HETATM    5  C   UNL     1      -8.215  12.419  68.653  1.00  0.00    -0.002 C  
HETATM    6  C   UNL     1      -7.257  11.852  69.424  1.00  0.00     0.116 C  
HETATM    7  C   UNL     1      -5.989  12.512  69.911  1.00  0.00    -0.144 C  
HETATM    8  N   UNL     1      -7.389  10.532  69.819  1.00  0.00    -0.151 NA 
HETATM    9  C   UNL     1      -8.346   9.656  69.344  1.00  0.00    -0.145 C  
HETATM   10  C   UNL     1      -9.350  10.116  68.560  1.00  0.00    -0.151 C  
HETATM   11  C   UNL     1      -8.184   8.221  69.789  1.00  0.00    -0.121 C  
HETATM   12  C   UNL     1      -9.458  11.617  68.229  1.00  0.00    -0.191 C  
BRANCH  10  13
HETATM   13  C   UNL     1     -10.419   9.182  68.105  1.00  0.00    -0.211 C  
HETATM   14  O   UNL     1     -10.544   8.745  66.970  1.00  0.00    -0.282 OA 
BRANCH  13  15
HETATM   15  O   UNL     1     -11.104   8.725  69.181  1.00  0.00    -0.026 OA 
BRANCH  15  16
HETATM   16  C   UNL     1     -11.716   9.769  69.956  1.00  0.00    -0.074 C  
BRANCH  16  17
HETATM   17  C   UNL     1     -11.432   9.421  71.426  1.00  0.00    -0.379 C  
BRANCH  17  18
HETATM   18  N   UNL     1     -12.456   8.650  72.142  1.00  0.00    -0.366 NA 
HETATM   19  C   UNL     1     -13.778   9.258  71.964  1.00  0.00    -0.428 C  
BRANCH  18  20
HETATM   20  C   UNL     1     -12.478   7.256  71.634  1.00  0.00    -0.359 C  
BRANCH  20  21
HETATM   21  C   UNL     1     -11.183   6.507  71.890  1.00  0.00    -0.314 A  
HETATM   22  C   UNL     1     -10.465   6.717  73.076  1.00  0.00    -0.280 A  
HETATM   23  C   UNL     1      -9.230   6.104  73.279  1.00  0.00    -0.131 A  
HETATM   24  C   UNL     1      -8.699   5.265  72.300  1.00  0.00    -0.129 A  
HETATM   25  C   UNL     1      -9.410   5.030  71.124  1.00  0.00    -0.199 A  
HETATM   26  C   UNL     1     -10.648   5.644  70.918  1.00  0.00    -0.328 A  
ENDBRANCH  20  21
ENDBRANCH  18  20
ENDBRANCH  17  18
ENDBRANCH  16  17
ENDBRANCH  15  16
ENDBRANCH  13  15
ENDBRANCH  10  13
BRANCH  12  27
HETATM   27  C   UNL     1      -9.800  11.848  66.754  1.00  0.00    -0.214 A  
HETATM   28  C   UNL     1      -9.299  11.537  64.399  1.00  0.00    -0.023 A  
HETATM   29  O   UNL     1     -13.070  14.140  65.601  1.00  0.00    -0.617 OA 
HETATM   30  C   UNL     1     -10.902  12.652  66.400  1.00  0.00    -0.295 A  
HETATM   31  O   UNL     1     -12.575  13.890  63.479  1.00  0.00    -0.842 OA 
HETATM   32  C   UNL     1     -11.197  12.882  65.052  1.00  0.00    -0.293 A  
HETATM   33  C   UNL     1      -9.014  11.283  65.740  1.00  0.00    -0.191 A  
HETATM   34  C   UNL     1     -10.387  12.339  64.049  1.00  0.00    -0.423 A  
HETATM   35  N   UNL     1     -12.364  13.695  64.685  1.00  0.00    -0.387 N  
ENDBRANCH  12  27
ENDBRANCH   3   5
ENDBRANCH   2   3
TORSDOF 10
ENDMDL
MODEL      143
REMARK 921   NORMALIZED FREE ENERGY PREDICTED BY IDOCK:   -4.85 KCAL/MOL
REMARK 922        TOTAL FREE ENERGY PREDICTED BY IDOCK:   -9.20 KCAL/MOL
REMARK 923 INTER-LIGAND FREE ENERGY PREDICTED BY IDOCK:   -7.44 KCAL/MOL
REMARK 924 INTRA-LIGAND FREE ENERGY PREDICTED BY IDOCK:   -1.76 KCAL/MOL
REMARK 927      BINDING AFFINITY PREDICTED BY RF-SCORE:    0.00 PKD
ROOT
HETATM    1  C   UNL     1     -11.151   6.419  66.942  1.00  0.00    -0.272 C  
HETATM    2  O   UNL     1     -10.681   5.572  67.996  1.00  0.00    -0.185 OA 
ENDROOT
BRANCH   2   3
HETATM    3  C   UNL     1     -10.805   6.140  69.223  1.00  0.00    -0.351 C  
HETATM    4  O   UNL     1     -11.867   6.413  69.761  1.00  0.00    -0.357 OA 
BRANCH   3   5
HETATM    5  C   UNL     1      -9.476   6.436  69.817  1.00  0.00    -0.160 C  
HETATM    6  C   UNL     1      -8.936   5.599  70.735  1.00  0.00    -0.143 C  
HETATM    7  C   UNL     1      -9.502   4.274  71.186  1.00  0.00    -0.233 C  
HETATM    8  N   UNL     1      -7.759   5.952  71.373  1.00  0.00    -0.105 NA 
HETATM    9  C   UNL     1      -7.155   7.191  71.290  1.00  0.00    -0.069 C  
HETATM   10  C   UNL     1      -7.616   8.107  70.405  1.00  0.00    -0.076 C  
HETATM   11  C   UNL     1      -5.974   7.396  72.211  1.00  0.00    -0.040 C  
HETATM   12  C   UNL     1      -8.783   7.763  69.460  1.00  0.00    -0.135 C  
BRANCH  10  13
HETATM   13  C   UNL     1      -6.920   9.419  70.269  1.00  0.00    -0.087 C  
HETATM   14  O   UNL     1      -6.716  10.212  71.176  1.00  0.00    -0.335 OA 
BRANCH  13  15
HETATM   15  O   UNL     1      -6.361   9.504  69.037  1.00  0.00    -0.042 OA 
BRANCH  15  16
HETATM   16  C   UNL     1      -5.842  10.810  68.733  1.00  0.00    -0.040 C  
BRANCH  16  17
HETATM   17  C   UNL     1      -6.998  11.577  68.073  1.00  0.00    -0.077 C  
BRANCH  17  18
HETATM   18  N   UNL     1      -7.216  12.963  68.506  1.00  0.00    -0.102 NA 
HETATM   19  C   UNL     1      -6.267  13.329  69.561  1.00  0.00    -0.115 C  
BRANCH  18  20
HETATM   20  C   UNL     1      -7.052  13.880  67.351  1.00  0.00    -0.070 C  
BRANCH  20  21
HETATM   21  C   UNL     1      -8.233  14.813  67.155  1.00  0.00    -0.239 A  
HETATM   22  C   UNL     1      -9.384  14.368  66.488  1.00  0.00    -0.300 A  
HETATM   23  C   UNL     1     -10.435  15.243  66.223  1.00  0.00    -0.313 A  
HETATM   24  C   UNL     1     -10.354  16.574  66.629  1.00  0.00    -0.298 A  
HETATM   25  C   UNL     1      -9.225  17.027  67.311  1.00  0.00    -0.225 A  
HETATM   26  C   UNL     1      -8.169  16.151  67.577  1.00  0.00    -0.167 A  
ENDBRANCH  20  21
ENDBRANCH  18  20
ENDBRANCH  17  18
ENDBRANCH  16  17
ENDBRANCH  15  16
ENDBRANCH  13  15
ENDBRANCH  10  13
BRANCH  12  27
HETATM   27  C   UNL     1      -9.790   8.913  69.361  1.00  0.00    -0.183 A  
HETATM   28  C   UNL     1     -11.430  10.375  70.393  1.00  0.00    -0.420 A  
HETATM   29  O   UNL     1     -10.575  10.825  65.755  1.00  0.00    -0.217 OA 
HETATM   30  C   UNL     1     -10.050   9.521  68.116  1.00  0.00    -0.214 A  
HETATM   31  O   UNL     1     -12.090  12.104  66.692  1.00  0.00    -0.622 OA 
HETATM   32  C   UNL     1     -10.988  10.554  68.024  1.00  0.00    -0.290 A  
HETATM   33  C   UNL     1     -10.478   9.362  70.496  1.00  0.00    -0.335 A  
HETATM   34  C   UNL     1     -11.692  10.973  69.158  1.00  0.00    -0.403 A  
HETATM   35  N   UNL     1     -11.235  11.207  66.732  1.00  0.00    -0.221 N  
ENDBRANCH  12  27
ENDBRANCH   3   5
ENDBRANCH   2   3
TORSDOF 10
ENDMDL
MODEL      144
REMARK 921   NORMALIZED FREE ENERGY PREDICTED BY IDOCK:   -4.80 KCAL/MOL
REMARK 922        TOTAL FREE ENERGY PREDICTED BY IDOCK:   -9.13 KCAL/MOL
REMARK 923 INTER-LIGAND FREE ENERGY PREDICTED BY IDOCK:   -7.41 KCAL/MOL
REMARK 924 INTRA-LIGAND FREE ENERGY PREDICTED BY IDOCK:   -1.72 KCAL/MOL
REMARK 927      BINDING AFFINITY PREDICTED BY RF-SCORE:    0.00 PKD
ROOT
HETATM    1  C   UNL     1      -7.328  16.006  68.363  1.00  0.00    -0.131 C  
HETATM    2  O   UNL     1      -7.703  14.656  68.657  1.00  0.00    -0.122 OA 
ENDROOT
BRANCH   2   3
HETATM    3  C   UNL     1      -9.034  14.433  68.500  1.00  0.00    -0.187 C  
HETATM    4  O   UNL     1      -9.880  14.627  69.359  1.00  0.00    -0.128 OA 
BRANCH   3   5
HETATM    5  C   UNL     1      -9.331  13.873  67.157  1.00  0.00    -0.244 C  
HETATM    6  C   UNL     1     -10.033  14.598  66.254  1.00  0.00    -0.290 C  
HETATM    7  C   UNL     1     -10.494  16.027  66.412  1.00  0.00    -0.313 C  
HETATM    8  N   UNL     1     -10.413  14.017  65.056  1.00  0.00    -0.398 NA 
HETATM    9  C   UNL     1     -10.293  12.674  64.756  1.00  0.00    -0.312 C  
HETATM   10  C   UNL     1      -9.612  11.855  65.593  1.00  0.00    -0.221 C  
HETATM   11  C   UNL     1     -10.935  12.243  63.457  1.00  0.00    -0.521 C  
HETATM   12  C   UNL     1      -8.933  12.417  66.856  1.00  0.00    -0.212 C  
BRANCH  10  13
HETATM   13  C   UNL     1      -9.425  10.420  65.232  1.00  0.00    -0.237 C  
HETATM   14  O   UNL     1     -10.223   9.522  65.457  1.00  0.00    -0.174 OA 
BRANCH  13  15
HETATM   15  O   UNL     1      -8.338  10.295  64.433  1.00  0.00    -0.163 OA 
BRANCH  15  16
HETATM   16  C   UNL     1      -8.183   8.979  63.877  1.00  0.00    -0.172 C  
BRANCH  16  17
HETATM   17  C   UNL     1      -6.939   8.382  64.552  1.00  0.00    -0.073 C  
BRANCH  17  18
HETATM   18  N   UNL     1      -7.163   7.422  65.641  1.00  0.00    -0.064 NA 
HETATM   19  C   UNL     1      -7.164   8.105  66.938  1.00  0.00    -0.083 C  
BRANCH  18  20
HETATM   20  C   UNL     1      -8.462   6.734  65.441  1.00  0.00    -0.096 C  
BRANCH  20  21
HETATM   21  C   UNL     1      -9.090   6.255  66.737  1.00  0.00    -0.141 A  
HETATM   22  C   UNL     1      -8.488   5.229  67.479  1.00  0.00    -0.105 A  
HETATM   23  C   UNL     1      -9.105   4.720  68.620  1.00  0.00    -0.149 A  
HETATM   24  C   UNL     1     -10.330   5.237  69.040  1.00  0.00    -0.246 A  
HETATM   25  C   UNL     1     -10.931   6.272  68.325  1.00  0.00    -0.408 A  
HETATM   26  C   UNL     1     -10.315   6.783  67.180  1.00  0.00    -0.327 A  
ENDBRANCH  20  21
ENDBRANCH  18  20
ENDBRANCH  17  18
ENDBRANCH  16  17
ENDBRANCH  15  16
ENDBRANCH  13  15
ENDBRANCH  10  13
BRANCH  12  27
HETATM   27  C   UNL     1      -9.157  11.511  68.070  1.00  0.00    -0.174 A  
HETATM   28  C   UNL     1      -8.286  10.047  69.799  1.00  0.00    -0.191 A  
HETATM   29  O   UNL     1     -12.965  10.750  69.555  1.00  0.00    -0.118 OA 
HETATM   30  C   UNL     1     -10.465  11.255  68.530  1.00  0.00    -0.218 A  
HETATM   31  O   UNL     1     -12.165   9.391  71.079  1.00  0.00    -0.296 OA 
HETATM   32  C   UNL     1     -10.669  10.406  69.624  1.00  0.00    -0.265 A  
HETATM   33  C   UNL     1      -8.074  10.910  68.725  1.00  0.00    -0.145 A  
HETATM   34  C   UNL     1      -9.582   9.788  70.250  1.00  0.00    -0.264 A  
HETATM   35  N   UNL     1     -12.030  10.166  70.121  1.00  0.00    -0.220 N  
ENDBRANCH  12  27
ENDBRANCH   3   5
ENDBRANCH   2   3
TORSDOF 10
ENDMDL
MODEL      145
REMARK 921   NORMALIZED FREE ENERGY PREDICTED BY IDOCK:   -4.80 KCAL/MOL
REMARK 922        TOTAL FREE ENERGY PREDICTED BY IDOCK:   -9.12 KCAL/MOL
REMARK 923 INTER-LIGAND FREE ENERGY PREDICTED BY IDOCK:   -7.59 KCAL/MOL
REMARK 924 INTRA-LIGAND FREE ENERGY PREDICTED BY IDOCK:   -1.54 KCAL/MOL
REMARK 927      BINDING AFFINITY PREDICTED BY RF-SCORE:    0.00 PKD
ROOT
HETATM    1  C   UNL     1     -11.518  10.160  68.555  1.00  0.00    -0.029 C  
HETATM    2  O   UNL     1     -11.961  11.199  67.676  1.00  0.00    -0.613 OA 
ENDROOT
BRANCH   2   3
HETATM    3  C   UNL     1     -11.145  11.365  66.603  1.00  0.00    -0.271 C  
HETATM    4  O   UNL     1     -10.857  10.488  65.803  1.00  0.00    -0.050 OA 
BRANCH   3   5
HETATM    5  C   UNL     1     -10.600  12.745  66.550  1.00  0.00    -0.270 C  
HETATM    6  C   UNL     1     -11.044  13.620  65.616  1.00  0.00    -0.294 C  
HETATM    7  C   UNL     1     -12.161  13.387  64.626  1.00  0.00    -0.456 C  
HETATM    8  N   UNL     1     -10.439  14.859  65.495  1.00  0.00    -0.332 NA 
HETATM    9  C   UNL     1      -9.275  15.236  66.137  1.00  0.00    -0.310 C  
HETATM   10  C   UNL     1      -8.740  14.434  67.089  1.00  0.00    -0.243 C  
HETATM   11  C   UNL     1      -8.710  16.573  65.716  1.00  0.00     0.087 C  
HETATM   12  C   UNL     1      -9.443  13.123  67.492  1.00  0.00    -0.212 C  
BRANCH  10  13
HETATM   13  C   UNL     1      -7.523  14.875  67.828  1.00  0.00    -0.163 C  
HETATM   14  O   UNL     1      -6.426  15.084  67.330  1.00  0.00    -0.305 OA 
BRANCH  13  15
HETATM   15  O   UNL     1      -7.865  15.212  69.095  1.00  0.00    -0.169 OA 
BRANCH  15  16
HETATM   16  C   UNL     1      -7.533  16.569  69.436  1.00  0.00    -0.090 C  
BRANCH  16  17
HETATM   17  C   UNL     1      -8.519  17.450  68.652  1.00  0.00    -0.257 C  
BRANCH  17  18
HETATM   18  N   UNL     1      -9.853  17.644  69.234  1.00  0.00    -0.127 NA 
HETATM   19  C   UNL     1     -10.353  18.990  68.938  1.00  0.00    -0.073 C  
BRANCH  18  20
HETATM   20  C   UNL     1     -10.790  16.635  68.681  1.00  0.00    -0.344 C  
BRANCH  20  21
HETATM   21  C   UNL     1     -11.445  15.780  69.751  1.00  0.00    -0.350 A  
HETATM   22  C   UNL     1     -11.327  16.126  71.105  1.00  0.00    -0.368 A  
HETATM   23  C   UNL     1     -11.845  15.298  72.099  1.00  0.00    -0.526 A  
HETATM   24  C   UNL     1     -12.497  14.116  71.751  1.00  0.00    -0.360 A  
HETATM   25  C   UNL     1     -12.640  13.768  70.409  1.00  0.00    -0.325 A  
HETATM   26  C   UNL     1     -12.120  14.596  69.411  1.00  0.00    -0.317 A  
ENDBRANCH  20  21
ENDBRANCH  18  20
ENDBRANCH  17  18
ENDBRANCH  16  17
ENDBRANCH  15  16
ENDBRANCH  13  15
ENDBRANCH  10  13
BRANCH  12  27
HETATM   27  C   UNL     1      -8.446  11.971  67.647  1.00  0.00    -0.160 A  
HETATM   28  C   UNL     1      -7.205  10.431  69.055  1.00  0.00    -0.088 A  
HETATM   29  O   UNL     1      -6.535  10.277  64.368  1.00  0.00    -0.130 OA 
HETATM   30  C   UNL     1      -7.797  11.439  66.515  1.00  0.00    -0.105 A  
HETATM   31  O   UNL     1      -5.385   8.927  65.657  1.00  0.00    -0.037 OA 
HETATM   32  C   UNL     1      -6.868  10.403  66.662  1.00  0.00    -0.099 A  
HETATM   33  C   UNL     1      -8.150  11.446  68.912  1.00  0.00    -0.067 A  
HETATM   34  C   UNL     1      -6.558   9.908  67.933  1.00  0.00    -0.064 A  
HETATM   35  N   UNL     1      -6.217   9.829  65.478  1.00  0.00    -0.069 N  
ENDBRANCH  12  27
ENDBRANCH   3   5
ENDBRANCH   2   3
TORSDOF 10
ENDMDL
MODEL      146
REMARK 921   NORMALIZED FREE ENERGY PREDICTED BY IDOCK:   -4.79 KCAL/MOL
REMARK 922        TOTAL FREE ENERGY PREDICTED BY IDOCK:   -9.11 KCAL/MOL
REMARK 923 INTER-LIGAND FREE ENERGY PREDICTED BY IDOCK:   -7.85 KCAL/MOL
REMARK 924 INTRA-LIGAND FREE ENERGY PREDICTED BY IDOCK:   -1.26 KCAL/MOL
REMARK 927      BINDING AFFINITY PREDICTED BY RF-SCORE:    0.00 PKD
ROOT
HETATM    1  C   UNL     1     -11.131   6.396  67.594  1.00  0.00    -0.289 C  
HETATM    2  O   UNL     1      -9.989   6.797  66.830  1.00  0.00    -0.178 OA 
ENDROOT
BRANCH   2   3
HETATM    3  C   UNL     1      -8.861   6.891  67.579  1.00  0.00    -0.118 C  
HETATM    4  O   UNL     1      -8.515   6.080  68.424  1.00  0.00    -0.112 OA 
BRANCH   3   5
HETATM    5  C   UNL     1      -8.115   8.139  67.276  1.00  0.00    -0.121 C  
HETATM    6  C   UNL     1      -6.955   8.090  66.578  1.00  0.00    -0.071 C  
HETATM    7  C   UNL     1      -6.338   6.866  65.946  1.00  0.00    -0.050 C  
HETATM    8  N   UNL     1      -6.207   9.243  66.414  1.00  0.00    -0.064 NA 
HETATM    9  C   UNL     1      -6.446  10.441  67.060  1.00  0.00    -0.074 C  
HETATM   10  C   UNL     1      -7.576  10.598  67.789  1.00  0.00    -0.095 C  
HETATM   11  C   UNL     1      -5.393  11.505  66.855  1.00  0.00    -0.118 C  
HETATM   12  C   UNL     1      -8.619   9.467  67.869  1.00  0.00    -0.120 C  
BRANCH  10  13
HETATM   13  C   UNL     1      -7.865  11.913  68.429  1.00  0.00    -0.141 C  
HETATM   14  O   UNL     1      -7.141  12.488  69.229  1.00  0.00    -0.034 OA 
BRANCH  13  15
HETATM   15  O   UNL     1      -8.946  12.474  67.834  1.00  0.00    -0.172 OA 
BRANCH  15  16
HETATM   16  C   UNL     1      -8.665  13.738  67.210  1.00  0.00    -0.219 C  
BRANCH  16  17
HETATM   17  C   UNL     1      -9.997  14.503  67.193  1.00  0.00    -0.252 C  
BRANCH  17  18
HETATM   18  N   UNL     1     -10.085  15.679  66.318  1.00  0.00    -0.280 NA 
HETATM   19  C   UNL     1     -10.895  15.381  65.133  1.00  0.00    -0.431 C  
BRANCH  18  20
HETATM   20  C   UNL     1     -10.690  16.811  67.061  1.00  0.00    -0.161 C  
BRANCH  20  21
HETATM   21  C   UNL     1      -9.804  18.043  67.098  1.00  0.00    -0.316 A  
HETATM   22  C   UNL     1      -8.446  17.929  67.427  1.00  0.00    -0.236 A  
HETATM   23  C   UNL     1      -7.647  19.064  67.553  1.00  0.00    -0.256 A  
HETATM   24  C   UNL     1      -8.194  20.329  67.344  1.00  0.00    -0.387 A  
HETATM   25  C   UNL     1      -9.538  20.458  66.997  1.00  0.00    -0.571 A  
HETATM   26  C   UNL     1     -10.341  19.321  66.871  1.00  0.00    -0.524 A  
ENDBRANCH  20  21
ENDBRANCH  18  20
ENDBRANCH  17  18
ENDBRANCH  16  17
ENDBRANCH  15  16
ENDBRANCH  13  15
ENDBRANCH  10  13
BRANCH  12  27
HETATM   27  C   UNL     1      -9.145   9.281  69.295  1.00  0.00    -0.151 A  
HETATM   28  C   UNL     1      -8.815   8.550  71.586  1.00  0.00    -0.272 A  
HETATM   29  O   UNL     1     -13.040  10.292  70.337  1.00  0.00    -0.258 OA 
HETATM   30  C   UNL     1     -10.479   9.611  69.606  1.00  0.00    -0.246 A  
HETATM   31  O   UNL     1     -12.741   9.581  72.390  1.00  0.00    -0.332 OA 
HETATM   32  C   UNL     1     -10.965   9.417  70.904  1.00  0.00    -0.320 A  
HETATM   33  C   UNL     1      -8.318   8.764  70.302  1.00  0.00    -0.139 A  
HETATM   34  C   UNL     1     -10.140   8.871  71.893  1.00  0.00    -0.393 A  
HETATM   35  N   UNL     1     -12.346   9.790  71.233  1.00  0.00    -0.345 N  
ENDBRANCH  12  27
ENDBRANCH   3   5
ENDBRANCH   2   3
TORSDOF 10
ENDMDL
MODEL      147
REMARK 921   NORMALIZED FREE ENERGY PREDICTED BY IDOCK:   -4.79 KCAL/MOL
REMARK 922        TOTAL FREE ENERGY PREDICTED BY IDOCK:   -9.10 KCAL/MOL
REMARK 923 INTER-LIGAND FREE ENERGY PREDICTED BY IDOCK:   -7.98 KCAL/MOL
REMARK 924 INTRA-LIGAND FREE ENERGY PREDICTED BY IDOCK:   -1.12 KCAL/MOL
REMARK 927      BINDING AFFINITY PREDICTED BY RF-SCORE:    0.00 PKD
ROOT
HETATM    1  C   UNL     1      -7.519   5.146  72.394  1.00  0.00    -0.095 C  
HETATM    2  O   UNL     1      -8.237   6.164  71.688  1.00  0.00    -0.116 OA 
ENDROOT
BRANCH   2   3
HETATM    3  C   UNL     1      -8.247   7.353  72.344  1.00  0.00    -0.101 C  
HETATM    4  O   UNL     1      -7.310   7.804  72.985  1.00  0.00    -0.087 OA 
BRANCH   3   5
HETATM    5  C   UNL     1      -9.567   8.023  72.226  1.00  0.00    -0.286 C  
HETATM    6  C   UNL     1     -10.658   7.497  72.834  1.00  0.00    -0.337 C  
HETATM    7  C   UNL     1     -10.683   6.298  73.752  1.00  0.00    -0.182 C  
HETATM    8  N   UNL     1     -11.903   8.059  72.612  1.00  0.00    -0.366 NA 
HETATM    9  C   UNL     1     -12.176   9.026  71.664  1.00  0.00    -0.348 C  
HETATM   10  C   UNL     1     -11.159   9.619  70.993  1.00  0.00    -0.438 C  
HETATM   11  C   UNL     1     -13.640   9.360  71.486  1.00  0.00    -0.408 C  
HETATM   12  C   UNL     1      -9.696   9.252  71.309  1.00  0.00    -0.299 C  
BRANCH  10  13
HETATM   13  C   UNL     1     -11.452  10.710  70.021  1.00  0.00    -0.325 C  
HETATM   14  O   UNL     1     -11.536  11.899  70.292  1.00  0.00    -0.249 OA 
BRANCH  13  15
HETATM   15  O   UNL     1     -11.402  10.214  68.761  1.00  0.00    -0.204 OA 
BRANCH  15  16
HETATM   16  C   UNL     1     -10.646  11.033  67.852  1.00  0.00    -0.205 C  
BRANCH  16  17
HETATM   17  C   UNL     1     -11.633  11.462  66.756  1.00  0.00     0.046 C  
BRANCH  17  18
HETATM   18  N   UNL     1     -11.166  12.462  65.787  1.00  0.00    -0.318 NA 
HETATM   19  C   UNL     1     -11.198  11.915  64.427  1.00  0.00    -0.336 C  
BRANCH  18  20
HETATM   20  C   UNL     1     -12.027  13.667  65.857  1.00  0.00    -0.405 C  
BRANCH  20  21
HETATM   21  C   UNL     1     -11.318  14.875  66.441  1.00  0.00    -0.308 A  
HETATM   22  C   UNL     1     -11.352  15.118  67.822  1.00  0.00    -0.335 A  
HETATM   23  C   UNL     1     -10.783  16.272  68.356  1.00  0.00    -0.311 A  
HETATM   24  C   UNL     1     -10.163  17.196  67.517  1.00  0.00    -0.323 A  
HETATM   25  C   UNL     1     -10.102  16.960  66.145  1.00  0.00    -0.347 A  
HETATM   26  C   UNL     1     -10.673  15.804  65.607  1.00  0.00    -0.360 A  
ENDBRANCH  20  21
ENDBRANCH  18  20
ENDBRANCH  17  18
ENDBRANCH  16  17
ENDBRANCH  15  16
ENDBRANCH  13  15
ENDBRANCH  10  13
BRANCH  12  27
HETATM   27  C   UNL     1      -8.865   9.090  70.033  1.00  0.00    -0.181 A  
HETATM   28  C   UNL     1      -8.282   7.831  68.042  1.00  0.00    -0.123 A  
HETATM   29  O   UNL     1      -5.936  11.841  68.969  1.00  0.00    -0.055 OA 
HETATM   30  C   UNL     1      -7.863  10.029  69.717  1.00  0.00    -0.185 A  
HETATM   31  O   UNL     1      -5.387  10.665  67.201  1.00  0.00    -0.040 OA 
HETATM   32  C   UNL     1      -7.088   9.866  68.564  1.00  0.00    -0.071 A  
HETATM   33  C   UNL     1      -9.074   8.001  69.176  1.00  0.00    -0.145 A  
HETATM   34  C   UNL     1      -7.284   8.758  67.732  1.00  0.00    -0.084 A  
HETATM   35  N   UNL     1      -6.065  10.862  68.221  1.00  0.00    -0.049 N  
ENDBRANCH  12  27
ENDBRANCH   3   5
ENDBRANCH   2   3
TORSDOF 10
ENDMDL
MODEL      148
REMARK 921   NORMALIZED FREE ENERGY PREDICTED BY IDOCK:   -4.77 KCAL/MOL
REMARK 922        TOTAL FREE ENERGY PREDICTED BY IDOCK:   -9.08 KCAL/MOL
REMARK 923 INTER-LIGAND FREE ENERGY PREDICTED BY IDOCK:   -7.88 KCAL/MOL
REMARK 924 INTRA-LIGAND FREE ENERGY PREDICTED BY IDOCK:   -1.20 KCAL/MOL
REMARK 927      BINDING AFFINITY PREDICTED BY RF-SCORE:    0.00 PKD
ROOT
HETATM    1  C   UNL     1      -6.393   5.608  70.867  1.00  0.00    -0.035 C  
HETATM    2  O   UNL     1      -6.058   6.868  70.276  1.00  0.00    -0.023 OA 
ENDROOT
BRANCH   2   3
HETATM    3  C   UNL     1      -6.812   7.891  70.755  1.00  0.00    -0.041 C  
HETATM    4  O   UNL     1      -7.298   7.934  71.875  1.00  0.00    -0.065 OA 
BRANCH   3   5
HETATM    5  C   UNL     1      -7.016   8.939  69.723  1.00  0.00    -0.050 C  
HETATM    6  C   UNL     1      -6.460  10.165  69.875  1.00  0.00    -0.086 C  
HETATM    7  C   UNL     1      -5.521  10.596  70.977  1.00  0.00    -0.088 C  
HETATM    8  N   UNL     1      -6.762  11.170  68.972  1.00  0.00    -0.076 NA 
HETATM    9  C   UNL     1      -7.741  11.093  68.001  1.00  0.00    -0.107 C  
HETATM   10  C   UNL     1      -8.366   9.914  67.767  1.00  0.00    -0.114 C  
HETATM   11  C   UNL     1      -8.007  12.377  67.249  1.00  0.00    -0.178 C  
HETATM   12  C   UNL     1      -7.963   8.647  68.546  1.00  0.00    -0.116 C  
BRANCH  10  13
HETATM   13  C   UNL     1      -9.374   9.817  66.673  1.00  0.00    -0.158 C  
HETATM   14  O   UNL     1      -9.126   9.600  65.496  1.00  0.00    -0.174 OA 
BRANCH  13  15
HETATM   15  O   UNL     1     -10.618   9.793  67.210  1.00  0.00    -0.258 OA 
BRANCH  15  16
HETATM   16  C   UNL     1     -11.095  11.090  67.606  1.00  0.00    -0.300 C  
BRANCH  16  17
HETATM   17  C   UNL     1     -11.530  11.791  66.310  1.00  0.00    -0.227 C  
BRANCH  17  18
HETATM   18  N   UNL     1     -11.034  13.155  66.086  1.00  0.00    -0.281 NA 
HETATM   19  C   UNL     1     -10.770  13.381  64.663  1.00  0.00    -0.411 C  
BRANCH  18  20
HETATM   20  C   UNL     1     -12.038  14.136  66.566  1.00  0.00    -0.454 C  
BRANCH  20  21
HETATM   21  C   UNL     1     -11.657  14.786  67.884  1.00  0.00    -0.373 A  
HETATM   22  C   UNL     1     -12.108  14.245  69.097  1.00  0.00    -0.337 A  
HETATM   23  C   UNL     1     -11.841  14.886  70.305  1.00  0.00    -0.358 A  
HETATM   24  C   UNL     1     -11.110  16.073  70.318  1.00  0.00    -0.380 A  
HETATM   25  C   UNL     1     -10.637  16.612  69.123  1.00  0.00    -0.340 A  
HETATM   26  C   UNL     1     -10.905  15.972  67.910  1.00  0.00    -0.333 A  
ENDBRANCH  20  21
ENDBRANCH  18  20
ENDBRANCH  17  18
ENDBRANCH  16  17
ENDBRANCH  15  16
ENDBRANCH  13  15
ENDBRANCH  10  13
BRANCH  12  27
HETATM   27  C   UNL     1      -9.187   7.845  68.995  1.00  0.00    -0.147 A  
HETATM   28  C   UNL     1     -10.595   5.875  68.829  1.00  0.00    -0.340 A  
HETATM   29  O   UNL     1     -11.828   9.307  71.853  1.00  0.00    -0.365 OA 
HETATM   30  C   UNL     1     -10.075   8.384  69.948  1.00  0.00    -0.195 A  
HETATM   31  O   UNL     1     -13.116   7.543  71.655  1.00  0.00    -0.345 OA 
HETATM   32  C   UNL     1     -11.207   7.660  70.339  1.00  0.00    -0.244 A  
HETATM   33  C   UNL     1      -9.453   6.580  68.454  1.00  0.00    -0.120 A  
HETATM   34  C   UNL     1     -11.479   6.411  69.769  1.00  0.00    -0.468 A  
HETATM   35  N   UNL     1     -12.114   8.209  71.354  1.00  0.00    -0.293 N  
ENDBRANCH  12  27
ENDBRANCH   3   5
ENDBRANCH   2   3
TORSDOF 10
ENDMDL
MODEL      149
REMARK 921   NORMALIZED FREE ENERGY PREDICTED BY IDOCK:   -4.76 KCAL/MOL
REMARK 922        TOTAL FREE ENERGY PREDICTED BY IDOCK:   -9.06 KCAL/MOL
REMARK 923 INTER-LIGAND FREE ENERGY PREDICTED BY IDOCK:   -6.76 KCAL/MOL
REMARK 924 INTRA-LIGAND FREE ENERGY PREDICTED BY IDOCK:   -2.30 KCAL/MOL
REMARK 927      BINDING AFFINITY PREDICTED BY RF-SCORE:    0.00 PKD
ROOT
HETATM    1  C   UNL     1     -12.285  14.003  66.489  1.00  0.00    -0.451 C  
HETATM    2  O   UNL     1     -11.128  14.701  66.960  1.00  0.00    -0.315 OA 
ENDROOT
BRANCH   2   3
HETATM    3  C   UNL     1     -10.756  14.322  68.210  1.00  0.00    -0.247 C  
HETATM    4  O   UNL     1     -11.020  14.937  69.233  1.00  0.00    -0.249 OA 
BRANCH   3   5
HETATM    5  C   UNL     1      -9.939  13.083  68.177  1.00  0.00    -0.231 C  
HETATM    6  C   UNL     1     -10.413  11.937  68.721  1.00  0.00    -0.184 C  
HETATM    7  C   UNL     1     -11.790  11.721  69.304  1.00  0.00    -0.389 C  
HETATM    8  N   UNL     1      -9.593  10.825  68.797  1.00  0.00    -0.183 NA 
HETATM    9  C   UNL     1      -8.239  10.820  68.523  1.00  0.00    -0.136 C  
HETATM   10  C   UNL     1      -7.658  11.917  67.979  1.00  0.00    -0.122 C  
HETATM   11  C   UNL     1      -7.519   9.530  68.844  1.00  0.00    -0.074 C  
HETATM   12  C   UNL     1      -8.505  13.154  67.624  1.00  0.00    -0.194 C  
BRANCH  10  13
HETATM   13  C   UNL     1      -6.211  11.886  67.621  1.00  0.00    -0.083 C  
HETATM   14  O   UNL     1      -5.286  11.773  68.412  1.00  0.00    -0.043 OA 
BRANCH  13  15
HETATM   15  O   UNL     1      -6.084  11.789  66.275  1.00  0.00    -0.105 OA 
BRANCH  15  16
HETATM   16  C   UNL     1      -5.713  10.474  65.828  1.00  0.00    -0.124 C  
BRANCH  16  17
HETATM   17  C   UNL     1      -6.707  10.114  64.714  1.00  0.00    -0.121 C  
BRANCH  17  18
HETATM   18  N   UNL     1      -8.091   9.833  65.115  1.00  0.00    -0.126 NA 
HETATM   19  C   UNL     1      -9.026  10.678  64.367  1.00  0.00    -0.195 C  
BRANCH  18  20
HETATM   20  C   UNL     1      -8.403   8.404  64.863  1.00  0.00    -0.149 C  
BRANCH  20  21
HETATM   21  C   UNL     1      -8.899   7.675  66.098  1.00  0.00    -0.192 A  
HETATM   22  C   UNL     1      -8.145   6.631  66.655  1.00  0.00    -0.110 A  
HETATM   23  C   UNL     1      -8.635   5.895  67.732  1.00  0.00    -0.105 A  
HETATM   24  C   UNL     1      -9.883   6.198  68.273  1.00  0.00    -0.138 A  
HETATM   25  C   UNL     1     -10.636   7.245  67.745  1.00  0.00    -0.289 A  
HETATM   26  C   UNL     1     -10.147   7.984  66.664  1.00  0.00    -0.329 A  
ENDBRANCH  20  21
ENDBRANCH  18  20
ENDBRANCH  17  18
ENDBRANCH  16  17
ENDBRANCH  15  16
ENDBRANCH  13  15
ENDBRANCH  10  13
BRANCH  12  27
HETATM   27  C   UNL     1      -7.808  14.454  68.036  1.00  0.00    -0.141 A  
HETATM   28  C   UNL     1      -6.638  15.786  69.694  1.00  0.00    -0.182 A  
HETATM   29  O   UNL     1      -7.548  17.706  65.460  1.00  0.00    -0.440 OA 
HETATM   30  C   UNL     1      -7.761  15.546  67.145  1.00  0.00    -0.257 A  
HETATM   31  O   UNL     1      -6.536  18.913  66.987  1.00  0.00    -0.194 OA 
HETATM   32  C   UNL     1      -7.146  16.741  67.534  1.00  0.00    -0.147 A  
HETATM   33  C   UNL     1      -7.227  14.584  69.305  1.00  0.00    -0.131 A  
HETATM   34  C   UNL     1      -6.598  16.870  68.814  1.00  0.00    -0.184 A  
HETATM   35  N   UNL     1      -7.071  17.866  66.593  1.00  0.00    -0.202 N  
ENDBRANCH  12  27
ENDBRANCH   3   5
ENDBRANCH   2   3
TORSDOF 10
ENDMDL
MODEL      150
REMARK 921   NORMALIZED FREE ENERGY PREDICTED BY IDOCK:   -4.75 KCAL/MOL
REMARK 922        TOTAL FREE ENERGY PREDICTED BY IDOCK:   -9.05 KCAL/MOL
REMARK 923 INTER-LIGAND FREE ENERGY PREDICTED BY IDOCK:   -7.54 KCAL/MOL
REMARK 924 INTRA-LIGAND FREE ENERGY PREDICTED BY IDOCK:   -1.52 KCAL/MOL
REMARK 927      BINDING AFFINITY PREDICTED BY RF-SCORE:    0.00 PKD
ROOT
HETATM    1  C   UNL     1      -8.042   4.273  72.348  1.00  0.00    -0.096 C  
HETATM    2  O   UNL     1      -8.100   5.266  71.319  1.00  0.00    -0.109 OA 
ENDROOT
BRANCH   2   3
HETATM    3  C   UNL     1      -9.335   5.384  70.768  1.00  0.00    -0.159 C  
HETATM    4  O   UNL     1      -9.909   4.501  70.147  1.00  0.00    -0.201 OA 
BRANCH   3   5
HETATM    5  C   UNL     1      -9.890   6.746  70.972  1.00  0.00    -0.192 C  
HETATM    6  C   UNL     1     -10.852   6.960  71.901  1.00  0.00    -0.229 C  
HETATM    7  C   UNL     1     -11.394   5.949  72.882  1.00  0.00    -0.266 C  
HETATM    8  N   UNL     1     -11.449   8.206  71.992  1.00  0.00    -0.296 NA 
HETATM    9  C   UNL     1     -11.278   9.234  71.086  1.00  0.00    -0.343 C  
HETATM   10  C   UNL     1     -10.343   9.124  70.111  1.00  0.00    -0.244 C  
HETATM   11  C   UNL     1     -12.168  10.437  71.299  1.00  0.00    -0.491 C  
HETATM   12  C   UNL     1      -9.439   7.879  70.032  1.00  0.00    -0.157 C  
BRANCH  10  13
HETATM   13  C   UNL     1     -10.114  10.262  69.176  1.00  0.00    -0.218 C  
HETATM   14  O   UNL     1      -9.087  10.920  69.097  1.00  0.00    -0.142 OA 
BRANCH  13  15
HETATM   15  O   UNL     1     -11.132  10.322  68.284  1.00  0.00    -0.261 OA 
BRANCH  15  16
HETATM   16  C   UNL     1     -11.552  11.663  67.983  1.00  0.00    -0.313 C  
BRANCH  16  17
HETATM   17  C   UNL     1     -11.420  11.812  66.459  1.00  0.00    -0.255 C  
BRANCH  17  18
HETATM   18  N   UNL     1     -10.468  12.813  65.962  1.00  0.00    -0.269 NA 
HETATM   19  C   UNL     1     -10.540  12.913  64.502  1.00  0.00    -0.382 C  
BRANCH  18  20
HETATM   20  C   UNL     1     -10.773  14.134  66.565  1.00  0.00    -0.289 C  
BRANCH  20  21
HETATM   21  C   UNL     1      -9.589  15.084  66.553  1.00  0.00    -0.299 A  
HETATM   22  C   UNL     1      -8.356  14.685  67.091  1.00  0.00    -0.236 A  
HETATM   23  C   UNL     1      -7.291  15.581  67.168  1.00  0.00    -0.226 A  
HETATM   24  C   UNL     1      -7.441  16.885  66.701  1.00  0.00    -0.303 A  
HETATM   25  C   UNL     1      -8.654  17.291  66.145  1.00  0.00    -0.207 A  
HETATM   26  C   UNL     1      -9.724  16.395  66.068  1.00  0.00    -0.356 A  
ENDBRANCH  20  21
ENDBRANCH  18  20
ENDBRANCH  17  18
ENDBRANCH  16  17
ENDBRANCH  15  16
ENDBRANCH  13  15
ENDBRANCH  10  13
BRANCH  12  27
HETATM   27  C   UNL     1      -9.282   7.384  68.591  1.00  0.00    -0.143 A  
HETATM   28  C   UNL     1     -10.243   6.475  66.557  1.00  0.00    -0.134 A  
HETATM   29  O   UNL     1      -5.569   7.225  66.730  1.00  0.00    -0.022 OA 
HETATM   30  C   UNL     1      -8.003   7.320  68.001  1.00  0.00    -0.119 A  
HETATM   31  O   UNL     1      -6.446   6.357  64.917  1.00  0.00    -0.033 OA 
HETATM   32  C   UNL     1      -7.859   6.844  66.693  1.00  0.00    -0.107 A  
HETATM   33  C   UNL     1     -10.397   6.971  67.850  1.00  0.00    -0.247 A  
HETATM   34  C   UNL     1      -8.976   6.405  65.974  1.00  0.00    -0.143 A  
HETATM   35  N   UNL     1      -6.530   6.806  66.070  1.00  0.00    -0.049 N  
ENDBRANCH  12  27
ENDBRANCH   3   5
ENDBRANCH   2   3
TORSDOF 10
ENDMDL
MODEL      151
REMARK 921   NORMALIZED FREE ENERGY PREDICTED BY IDOCK:   -4.75 KCAL/MOL
REMARK 922        TOTAL FREE ENERGY PREDICTED BY IDOCK:   -9.05 KCAL/MOL
REMARK 923 INTER-LIGAND FREE ENERGY PREDICTED BY IDOCK:   -7.45 KCAL/MOL
REMARK 924 INTRA-LIGAND FREE ENERGY PREDICTED BY IDOCK:   -1.60 KCAL/MOL
REMARK 927      BINDING AFFINITY PREDICTED BY RF-SCORE:    0.00 PKD
ROOT
HETATM    1  C   UNL     1      -7.183   3.103  72.315  1.00  0.00    -0.046 C  
HETATM    2  O   UNL     1      -7.760   4.412  72.374  1.00  0.00    -0.080 OA 
ENDROOT
BRANCH   2   3
HETATM    3  C   UNL     1      -8.905   4.516  71.652  1.00  0.00    -0.120 C  
HETATM    4  O   UNL     1      -9.386   3.620  70.974  1.00  0.00    -0.115 OA 
BRANCH   3   5
HETATM    5  C   UNL     1      -9.481   5.881  71.748  1.00  0.00    -0.168 C  
HETATM    6  C   UNL     1     -10.698   6.071  72.313  1.00  0.00    -0.230 C  
HETATM    7  C   UNL     1     -11.549   5.022  72.987  1.00  0.00    -0.299 C  
HETATM    8  N   UNL     1     -11.277   7.328  72.282  1.00  0.00    -0.255 NA 
HETATM    9  C   UNL     1     -10.800   8.401  71.555  1.00  0.00    -0.258 C  
HETATM   10  C   UNL     1      -9.594   8.319  70.945  1.00  0.00    -0.196 C  
HETATM   11  C   UNL     1     -11.697   9.618  71.538  1.00  0.00    -0.472 C  
HETATM   12  C   UNL     1      -8.729   7.052  71.092  1.00  0.00    -0.137 C  
BRANCH  10  13
HETATM   13  C   UNL     1      -9.050   9.502  70.219  1.00  0.00    -0.253 C  
HETATM   14  O   UNL     1      -7.989  10.058  70.460  1.00  0.00    -0.224 OA 
BRANCH  13  15
HETATM   15  O   UNL     1      -9.806   9.739  69.119  1.00  0.00    -0.171 OA 
BRANCH  15  16
HETATM   16  C   UNL     1      -9.032  10.054  67.949  1.00  0.00    -0.131 C  
BRANCH  16  17
HETATM   17  C   UNL     1      -9.220  11.561  67.716  1.00  0.00    -0.165 C  
BRANCH  17  18
HETATM   18  N   UNL     1     -10.208  11.965  66.708  1.00  0.00    -0.204 NA 
HETATM   19  C   UNL     1     -10.218  11.020  65.588  1.00  0.00    -0.260 C  
BRANCH  18  20
HETATM   20  C   UNL     1     -11.557  12.020  67.323  1.00  0.00    -0.313 C  
BRANCH  20  21
HETATM   21  C   UNL     1     -11.745  13.211  68.244  1.00  0.00    -0.384 A  
HETATM   22  C   UNL     1     -11.586  14.516  67.756  1.00  0.00    -0.390 A  
HETATM   23  C   UNL     1     -11.666  15.611  68.614  1.00  0.00    -0.364 A  
HETATM   24  C   UNL     1     -11.915  15.417  69.972  1.00  0.00    -0.383 A  
HETATM   25  C   UNL     1     -12.096  14.127  70.469  1.00  0.00    -0.420 A  
HETATM   26  C   UNL     1     -12.015  13.027  69.611  1.00  0.00    -0.367 A  
ENDBRANCH  20  21
ENDBRANCH  18  20
ENDBRANCH  17  18
ENDBRANCH  16  17
ENDBRANCH  15  16
ENDBRANCH  13  15
ENDBRANCH  10  13
BRANCH  12  27
HETATM   27  C   UNL     1      -8.101   6.638  69.757  1.00  0.00    -0.126 A  
HETATM   28  C   UNL     1      -6.142   6.267  68.374  1.00  0.00    -0.027 A  
HETATM   29  O   UNL     1     -10.430   5.591  66.478  1.00  0.00    -0.245 OA 
HETATM   30  C   UNL     1      -8.923   6.314  68.659  1.00  0.00    -0.127 A  
HETATM   31  O   UNL     1      -8.651   5.308  65.227  1.00  0.00    -0.142 OA 
HETATM   32  C   UNL     1      -8.347   5.961  67.433  1.00  0.00    -0.105 A  
HETATM   33  C   UNL     1      -6.709   6.596  69.604  1.00  0.00    -0.050 A  
HETATM   34  C   UNL     1      -6.956   5.952  67.283  1.00  0.00    -0.069 A  
HETATM   35  N   UNL     1      -9.204   5.594  66.299  1.00  0.00    -0.154 N  
ENDBRANCH  12  27
ENDBRANCH   3   5
ENDBRANCH   2   3
TORSDOF 10
ENDMDL
MODEL      152
REMARK 921   NORMALIZED FREE ENERGY PREDICTED BY IDOCK:   -4.74 KCAL/MOL
REMARK 922        TOTAL FREE ENERGY PREDICTED BY IDOCK:   -9.04 KCAL/MOL
REMARK 923 INTER-LIGAND FREE ENERGY PREDICTED BY IDOCK:   -8.20 KCAL/MOL
REMARK 924 INTRA-LIGAND FREE ENERGY PREDICTED BY IDOCK:   -0.84 KCAL/MOL
REMARK 927      BINDING AFFINITY PREDICTED BY RF-SCORE:    0.00 PKD
ROOT
HETATM    1  C   UNL     1      -9.653   3.917  69.036  1.00  0.00    -0.138 C  
HETATM    2  O   UNL     1      -9.682   4.713  67.847  1.00  0.00    -0.152 OA 
ENDROOT
BRANCH   2   3
HETATM    3  C   UNL     1      -8.576   5.488  67.705  1.00  0.00    -0.108 C  
HETATM    4  O   UNL     1      -7.502   5.277  68.248  1.00  0.00    -0.074 OA 
BRANCH   3   5
HETATM    5  C   UNL     1      -8.848   6.663  66.839  1.00  0.00    -0.118 C  
HETATM    6  C   UNL     1      -8.259   6.767  65.623  1.00  0.00    -0.134 C  
HETATM    7  C   UNL     1      -7.386   5.731  64.956  1.00  0.00    -0.075 C  
HETATM    8  N   UNL     1      -8.420   7.925  64.882  1.00  0.00    -0.086 NA 
HETATM    9  C   UNL     1      -8.998   9.090  65.350  1.00  0.00    -0.200 C  
HETATM   10  C   UNL     1      -9.613   9.099  66.556  1.00  0.00    -0.289 C  
HETATM   11  C   UNL     1      -8.905  10.275  64.416  1.00  0.00    -0.229 C  
HETATM   12  C   UNL     1      -9.712   7.809  67.393  1.00  0.00    -0.211 C  
BRANCH  10  13
HETATM   13  C   UNL     1     -10.295  10.338  67.028  1.00  0.00    -0.243 C  
HETATM   14  O   UNL     1     -11.433  10.399  67.469  1.00  0.00    -0.386 OA 
BRANCH  13  15
HETATM   15  O   UNL     1      -9.394  11.348  67.094  1.00  0.00    -0.169 OA 
BRANCH  15  16
HETATM   16  C   UNL     1      -9.397  12.038  68.355  1.00  0.00    -0.175 C  
BRANCH  16  17
HETATM   17  C   UNL     1      -9.227  13.528  68.019  1.00  0.00    -0.209 C  
BRANCH  17  18
HETATM   18  N   UNL     1      -9.720  14.499  69.004  1.00  0.00    -0.170 NA 
HETATM   19  C   UNL     1      -8.875  15.696  69.014  1.00  0.00    -0.243 C  
BRANCH  18  20
HETATM   20  C   UNL     1     -11.116  14.878  68.675  1.00  0.00    -0.263 C  
BRANCH  20  21
HETATM   21  C   UNL     1     -11.457  14.689  67.208  1.00  0.00    -0.386 A  
HETATM   22  C   UNL     1     -12.285  13.632  66.805  1.00  0.00    -0.416 A  
HETATM   23  C   UNL     1     -12.529  13.395  65.453  1.00  0.00    -0.543 A  
HETATM   24  C   UNL     1     -11.954  14.219  64.486  1.00  0.00    -0.478 A  
HETATM   25  C   UNL     1     -11.145  15.286  64.872  1.00  0.00    -0.435 A  
HETATM   26  C   UNL     1     -10.898  15.525  66.227  1.00  0.00    -0.283 A  
ENDBRANCH  20  21
ENDBRANCH  18  20
ENDBRANCH  17  18
ENDBRANCH  16  17
ENDBRANCH  15  16
ENDBRANCH  13  15
ENDBRANCH  10  13
BRANCH  12  27
HETATM   27  C   UNL     1      -9.416   8.071  68.873  1.00  0.00    -0.151 A  
HETATM   28  C   UNL     1      -7.920   8.850  70.619  1.00  0.00    -0.142 A  
HETATM   29  O   UNL     1     -12.140   7.086  71.854  1.00  0.00    -0.302 OA 
HETATM   30  C   UNL     1     -10.353   7.700  69.858  1.00  0.00    -0.225 A  
HETATM   31  O   UNL     1     -10.757   7.749  73.422  1.00  0.00    -0.348 OA 
HETATM   32  C   UNL     1     -10.069   7.917  71.211  1.00  0.00    -0.180 A  
HETATM   33  C   UNL     1      -8.207   8.660  69.268  1.00  0.00    -0.113 A  
HETATM   34  C   UNL     1      -8.846   8.477  71.596  1.00  0.00    -0.272 A  
HETATM   35  N   UNL     1     -11.059   7.558  72.235  1.00  0.00    -0.255 N  
ENDBRANCH  12  27
ENDBRANCH   3   5
ENDBRANCH   2   3
TORSDOF 10
ENDMDL
MODEL      153
REMARK 921   NORMALIZED FREE ENERGY PREDICTED BY IDOCK:   -4.71 KCAL/MOL
REMARK 922        TOTAL FREE ENERGY PREDICTED BY IDOCK:   -8.99 KCAL/MOL
REMARK 923 INTER-LIGAND FREE ENERGY PREDICTED BY IDOCK:   -7.50 KCAL/MOL
REMARK 924 INTRA-LIGAND FREE ENERGY PREDICTED BY IDOCK:   -1.49 KCAL/MOL
REMARK 927      BINDING AFFINITY PREDICTED BY RF-SCORE:    0.00 PKD
ROOT
HETATM    1  C   UNL     1      -9.894   3.861  66.449  1.00  0.00    -0.108 C  
HETATM    2  O   UNL     1      -9.930   4.944  67.384  1.00  0.00    -0.172 OA 
ENDROOT
BRANCH   2   3
HETATM    3  C   UNL     1      -8.749   5.608  67.468  1.00  0.00    -0.107 C  
HETATM    4  O   UNL     1      -7.779   5.230  68.109  1.00  0.00    -0.083 OA 
BRANCH   3   5
HETATM    5  C   UNL     1      -8.795   6.889  66.718  1.00  0.00    -0.129 C  
HETATM    6  C   UNL     1      -8.115   7.025  65.554  1.00  0.00    -0.132 C  
HETATM    7  C   UNL     1      -7.351   5.943  64.829  1.00  0.00    -0.069 C  
HETATM    8  N   UNL     1      -8.064   8.260  64.932  1.00  0.00    -0.144 NA 
HETATM    9  C   UNL     1      -8.505   9.445  65.488  1.00  0.00    -0.143 C  
HETATM   10  C   UNL     1      -9.194   9.426  66.654  1.00  0.00    -0.193 C  
HETATM   11  C   UNL     1      -8.185  10.690  64.693  1.00  0.00    -0.017 C  
HETATM   12  C   UNL     1      -9.528   8.089  67.343  1.00  0.00    -0.187 C  
BRANCH  10  13
HETATM   13  C   UNL     1      -9.728  10.699  67.218  1.00  0.00    -0.168 C  
HETATM   14  O   UNL     1      -9.055  11.615  67.667  1.00  0.00    -0.166 OA 
BRANCH  13  15
HETATM   15  O   UNL     1     -11.057  10.779  66.964  1.00  0.00    -0.265 OA 
BRANCH  15  16
HETATM   16  C   UNL     1     -11.625  12.061  67.282  1.00  0.00    -0.313 C  
BRANCH  16  17
HETATM   17  C   UNL     1     -12.011  12.693  65.936  1.00  0.00    -0.438 C  
BRANCH  17  18
HETATM   18  N   UNL     1     -10.919  13.196  65.092  1.00  0.00    -0.291 NA 
HETATM   19  C   UNL     1     -10.939  12.543  63.780  1.00  0.00    -0.447 C  
BRANCH  18  20
HETATM   20  C   UNL     1     -11.055  14.663  64.919  1.00  0.00    -0.401 C  
BRANCH  20  21
HETATM   21  C   UNL     1     -10.392  15.459  66.028  1.00  0.00    -0.339 A  
HETATM   22  C   UNL     1     -11.138  15.890  67.135  1.00  0.00    -0.148 A  
HETATM   23  C   UNL     1     -10.560  16.700  68.111  1.00  0.00    -0.336 A  
HETATM   24  C   UNL     1      -9.224  17.083  67.998  1.00  0.00    -0.241 A  
HETATM   25  C   UNL     1      -8.464  16.646  66.914  1.00  0.00    -0.246 A  
HETATM   26  C   UNL     1      -9.041  15.835  65.934  1.00  0.00    -0.300 A  
ENDBRANCH  20  21
ENDBRANCH  18  20
ENDBRANCH  17  18
ENDBRANCH  16  17
ENDBRANCH  15  16
ENDBRANCH  13  15
ENDBRANCH  10  13
BRANCH  12  27
HETATM   27  C   UNL     1      -9.301   8.160  68.856  1.00  0.00    -0.147 A  
HETATM   28  C   UNL     1      -7.811   8.418  70.755  1.00  0.00    -0.089 A  
HETATM   29  O   UNL     1     -12.417   7.654  71.560  1.00  0.00    -0.314 OA 
HETATM   30  C   UNL     1     -10.377   7.958  69.744  1.00  0.00    -0.219 A  
HETATM   31  O   UNL     1     -11.050   7.840  73.265  1.00  0.00    -0.373 OA 
HETATM   32  C   UNL     1     -10.162   7.998  71.126  1.00  0.00    -0.193 A  
HETATM   33  C   UNL     1      -8.023   8.404  69.378  1.00  0.00    -0.112 A  
HETATM   34  C   UNL     1      -8.876   8.211  71.635  1.00  0.00    -0.202 A  
HETATM   35  N   UNL     1     -11.290   7.818  72.048  1.00  0.00    -0.268 N  
ENDBRANCH  12  27
ENDBRANCH   3   5
ENDBRANCH   2   3
TORSDOF 10
ENDMDL
MODEL      154
REMARK 921   NORMALIZED FREE ENERGY PREDICTED BY IDOCK:   -4.69 KCAL/MOL
REMARK 922        TOTAL FREE ENERGY PREDICTED BY IDOCK:   -8.95 KCAL/MOL
REMARK 923 INTER-LIGAND FREE ENERGY PREDICTED BY IDOCK:   -6.68 KCAL/MOL
REMARK 924 INTRA-LIGAND FREE ENERGY PREDICTED BY IDOCK:   -2.27 KCAL/MOL
REMARK 927      BINDING AFFINITY PREDICTED BY RF-SCORE:    0.00 PKD
ROOT
HETATM    1  C   UNL     1      -9.092  10.568  64.571  1.00  0.00    -0.222 C  
HETATM    2  O   UNL     1      -8.393   9.532  65.268  1.00  0.00    -0.126 OA 
ENDROOT
BRANCH   2   3
HETATM    3  C   UNL     1      -9.177   8.878  66.164  1.00  0.00    -0.217 C  
HETATM    4  O   UNL     1     -10.399   8.855  66.135  1.00  0.00    -0.187 OA 
BRANCH   3   5
HETATM    5  C   UNL     1      -8.362   8.229  67.222  1.00  0.00    -0.124 C  
HETATM    6  C   UNL     1      -7.926   6.957  67.064  1.00  0.00    -0.116 C  
HETATM    7  C   UNL     1      -8.089   6.097  65.834  1.00  0.00    -0.121 C  
HETATM    8  N   UNL     1      -7.277   6.322  68.109  1.00  0.00    -0.082 NA 
HETATM    9  C   UNL     1      -7.182   6.813  69.397  1.00  0.00    -0.089 C  
HETATM   10  C   UNL     1      -7.593   8.075  69.668  1.00  0.00    -0.096 C  
HETATM   11  C   UNL     1      -6.580   5.863  70.407  1.00  0.00    -0.044 C  
HETATM   12  C   UNL     1      -8.125   8.983  68.542  1.00  0.00    -0.107 C  
BRANCH  10  13
HETATM   13  C   UNL     1      -7.427   8.627  71.043  1.00  0.00    -0.090 C  
HETATM   14  O   UNL     1      -6.996   9.738  71.316  1.00  0.00    -0.330 OA 
BRANCH  13  15
HETATM   15  O   UNL     1      -8.020   7.796  71.935  1.00  0.00    -0.093 OA 
BRANCH  15  16
HETATM   16  C   UNL     1      -8.979   8.453  72.779  1.00  0.00    -0.221 C  
BRANCH  16  17
HETATM   17  C   UNL     1      -9.849   7.334  73.374  1.00  0.00    -0.277 C  
BRANCH  17  18
HETATM   18  N   UNL     1      -9.398   5.952  73.167  1.00  0.00    -0.140 NA 
HETATM   19  C   UNL     1      -9.020   5.337  74.442  1.00  0.00    -0.117 C  
BRANCH  18  20
HETATM   20  C   UNL     1     -10.484   5.162  72.537  1.00  0.00    -0.214 C  
BRANCH  20  21
HETATM   21  C   UNL     1     -10.125   4.650  71.154  1.00  0.00    -0.243 A  
HETATM   22  C   UNL     1     -10.461   5.394  70.014  1.00  0.00    -0.373 A  
HETATM   23  C   UNL     1     -10.218   4.889  68.738  1.00  0.00    -0.119 A  
HETATM   24  C   UNL     1      -9.629   3.636  68.584  1.00  0.00    -0.159 A  
HETATM   25  C   UNL     1      -9.271   2.892  69.708  1.00  0.00    -0.213 A  
HETATM   26  C   UNL     1      -9.514   3.395  70.988  1.00  0.00    -0.227 A  
ENDBRANCH  20  21
ENDBRANCH  18  20
ENDBRANCH  17  18
ENDBRANCH  16  17
ENDBRANCH  15  16
ENDBRANCH  13  15
ENDBRANCH  10  13
BRANCH  12  27
HETATM   27  C   UNL     1      -9.373   9.755  68.980  1.00  0.00    -0.161 A  
HETATM   28  C   UNL     1     -10.663  11.810  69.057  1.00  0.00    -0.209 A  
HETATM   29  O   UNL     1     -12.353   7.975  71.267  1.00  0.00    -0.305 OA 
HETATM   30  C   UNL     1     -10.351   9.126  69.777  1.00  0.00    -0.226 A  
HETATM   31  O   UNL     1     -13.482   9.853  71.369  1.00  0.00    -0.364 OA 
HETATM   32  C   UNL     1     -11.478   9.841  70.197  1.00  0.00    -0.216 A  
HETATM   33  C   UNL     1      -9.550  11.096  68.615  1.00  0.00    -0.200 A  
HETATM   34  C   UNL     1     -11.628  11.189  69.852  1.00  0.00    -0.416 A  
HETATM   35  N   UNL     1     -12.511   9.176  71.001  1.00  0.00    -0.235 N  
ENDBRANCH  12  27
ENDBRANCH   3   5
ENDBRANCH   2   3
TORSDOF 10
ENDMDL
MODEL      155
REMARK 921   NORMALIZED FREE ENERGY PREDICTED BY IDOCK:   -4.66 KCAL/MOL
REMARK 922        TOTAL FREE ENERGY PREDICTED BY IDOCK:   -8.91 KCAL/MOL
REMARK 923 INTER-LIGAND FREE ENERGY PREDICTED BY IDOCK:   -7.56 KCAL/MOL
REMARK 924 INTRA-LIGAND FREE ENERGY PREDICTED BY IDOCK:   -1.34 KCAL/MOL
REMARK 927      BINDING AFFINITY PREDICTED BY RF-SCORE:    0.00 PKD
ROOT
HETATM    1  C   UNL     1      -6.913   4.027  74.411  1.00  0.00    -0.060 C  
HETATM    2  O   UNL     1      -7.414   4.911  73.403  1.00  0.00    -0.085 OA 
ENDROOT
BRANCH   2   3
HETATM    3  C   UNL     1      -8.334   4.321  72.596  1.00  0.00    -0.101 C  
HETATM    4  O   UNL     1      -8.200   3.226  72.069  1.00  0.00    -0.061 OA 
BRANCH   3   5
HETATM    5  C   UNL     1      -9.513   5.200  72.389  1.00  0.00    -0.166 C  
HETATM    6  C   UNL     1     -10.719   4.857  72.901  1.00  0.00    -0.235 C  
HETATM    7  C   UNL     1     -11.013   3.673  73.792  1.00  0.00    -0.311 C  
HETATM    8  N   UNL     1     -11.834   5.617  72.594  1.00  0.00    -0.225 NA 
HETATM    9  C   UNL     1     -11.870   6.622  71.647  1.00  0.00    -0.336 C  
HETATM   10  C   UNL     1     -10.720   7.043  71.068  1.00  0.00    -0.256 C  
HETATM   11  C   UNL     1     -13.240   7.193  71.363  1.00  0.00    -0.391 C  
HETATM   12  C   UNL     1      -9.366   6.439  71.488  1.00  0.00    -0.152 C  
BRANCH  10  13
HETATM   13  C   UNL     1     -10.752   8.174  70.096  1.00  0.00    -0.243 C  
HETATM   14  O   UNL     1     -10.905   8.068  68.888  1.00  0.00    -0.119 OA 
BRANCH  13  15
HETATM   15  O   UNL     1     -10.799   9.346  70.774  1.00  0.00    -0.253 OA 
BRANCH  15  16
HETATM   16  C   UNL     1     -10.577  10.498  69.943  1.00  0.00    -0.211 C  
BRANCH  16  17
HETATM   17  C   UNL     1     -11.896  11.286  69.958  1.00  0.00    -0.367 C  
BRANCH  17  18
HETATM   18  N   UNL     1     -11.969  12.489  69.119  1.00  0.00    -0.270 NA 
HETATM   19  C   UNL     1     -11.886  13.698  69.943  1.00  0.00    -0.320 C  
BRANCH  18  20
HETATM   20  C   UNL     1     -10.857  12.480  68.137  1.00  0.00    -0.222 C  
BRANCH  20  21
HETATM   21  C   UNL     1     -11.099  13.400  66.954  1.00  0.00    -0.309 A  
HETATM   22  C   UNL     1     -12.220  13.216  66.131  1.00  0.00    -0.451 A  
HETATM   23  C   UNL     1     -12.401  13.996  64.990  1.00  0.00    -0.458 A  
HETATM   24  C   UNL     1     -11.467  14.976  64.661  1.00  0.00    -0.382 A  
HETATM   25  C   UNL     1     -10.358  15.185  65.479  1.00  0.00    -0.399 A  
HETATM   26  C   UNL     1     -10.173  14.404  66.623  1.00  0.00    -0.277 A  
ENDBRANCH  20  21
ENDBRANCH  18  20
ENDBRANCH  17  18
ENDBRANCH  16  17
ENDBRANCH  15  16
ENDBRANCH  13  15
ENDBRANCH  10  13
BRANCH  12  27
HETATM   27  C   UNL     1      -8.475   6.150  70.277  1.00  0.00    -0.126 A  
HETATM   28  C   UNL     1      -6.451   6.562  69.001  1.00  0.00    -0.043 A  
HETATM   29  O   UNL     1      -9.605   3.449  67.326  1.00  0.00    -0.205 OA 
HETATM   30  C   UNL     1      -8.902   5.247  69.283  1.00  0.00    -0.115 A  
HETATM   31  O   UNL     1      -7.796   3.871  66.161  1.00  0.00    -0.089 OA 
HETATM   32  C   UNL     1      -8.097   5.003  68.164  1.00  0.00    -0.086 A  
HETATM   33  C   UNL     1      -7.237   6.790  70.130  1.00  0.00    -0.076 A  
HETATM   34  C   UNL     1      -6.878   5.673  68.013  1.00  0.00    -0.064 A  
HETATM   35  N   UNL     1      -8.530   4.039  67.145  1.00  0.00    -0.099 N  
ENDBRANCH  12  27
ENDBRANCH   3   5
ENDBRANCH   2   3
TORSDOF 10
ENDMDL
MODEL      156
REMARK 921   NORMALIZED FREE ENERGY PREDICTED BY IDOCK:   -4.65 KCAL/MOL
REMARK 922        TOTAL FREE ENERGY PREDICTED BY IDOCK:   -8.89 KCAL/MOL
REMARK 923 INTER-LIGAND FREE ENERGY PREDICTED BY IDOCK:   -7.22 KCAL/MOL
REMARK 924 INTRA-LIGAND FREE ENERGY PREDICTED BY IDOCK:   -1.67 KCAL/MOL
REMARK 927      BINDING AFFINITY PREDICTED BY RF-SCORE:    0.00 PKD
ROOT
HETATM    1  C   UNL     1     -10.011  15.910  65.238  1.00  0.00    -0.086 C  
HETATM    2  O   UNL     1      -9.448  14.702  65.760  1.00  0.00    -0.268 OA 
ENDROOT
BRANCH   2   3
HETATM    3  C   UNL     1      -9.964  13.587  65.182  1.00  0.00    -0.176 C  
HETATM    4  O   UNL     1      -9.985  13.371  63.979  1.00  0.00    -0.194 OA 
BRANCH   3   5
HETATM    5  C   UNL     1     -10.549  12.674  66.196  1.00  0.00    -0.280 C  
HETATM    6  C   UNL     1     -11.794  12.899  66.680  1.00  0.00    -0.395 C  
HETATM    7  C   UNL     1     -12.758  13.966  66.220  1.00  0.00    -0.260 C  
HETATM    8  N   UNL     1     -12.277  12.117  67.716  1.00  0.00    -0.351 NA 
HETATM    9  C   UNL     1     -11.525  11.216  68.444  1.00  0.00    -0.306 C  
HETATM   10  C   UNL     1     -10.263  10.918  68.049  1.00  0.00    -0.202 C  
HETATM   11  C   UNL     1     -12.224  10.607  69.637  1.00  0.00    -0.277 C  
HETATM   12  C   UNL     1      -9.675  11.545  66.771  1.00  0.00    -0.220 C  
BRANCH  10  13
HETATM   13  C   UNL     1      -9.478   9.895  68.797  1.00  0.00    -0.157 C  
HETATM   14  O   UNL     1      -9.098   9.996  69.954  1.00  0.00    -0.213 OA 
BRANCH  13  15
HETATM   15  O   UNL     1      -9.430   8.749  68.073  1.00  0.00    -0.141 OA 
BRANCH  15  16
HETATM   16  C   UNL     1      -8.143   8.110  68.097  1.00  0.00    -0.128 C  
BRANCH  16  17
HETATM   17  C   UNL     1      -8.393   6.650  67.690  1.00  0.00    -0.122 C  
BRANCH  17  18
HETATM   18  N   UNL     1      -9.709   6.080  68.010  1.00  0.00    -0.117 NA 
HETATM   19  C   UNL     1     -10.097   5.085  67.006  1.00  0.00    -0.214 C  
BRANCH  18  20
HETATM   20  C   UNL     1      -9.665   5.443  69.349  1.00  0.00    -0.165 C  
BRANCH  20  21
HETATM   21  C   UNL     1     -10.266   6.307  70.441  1.00  0.00    -0.248 A  
HETATM   22  C   UNL     1      -9.452   6.837  71.454  1.00  0.00    -0.160 A  
HETATM   23  C   UNL     1     -10.008   7.554  72.511  1.00  0.00    -0.248 A  
HETATM   24  C   UNL     1     -11.385   7.759  72.567  1.00  0.00    -0.429 A  
HETATM   25  C   UNL     1     -12.206   7.257  71.558  1.00  0.00    -0.387 A  
HETATM   26  C   UNL     1     -11.651   6.536  70.497  1.00  0.00    -0.455 A  
ENDBRANCH  20  21
ENDBRANCH  18  20
ENDBRANCH  17  18
ENDBRANCH  16  17
ENDBRANCH  15  16
ENDBRANCH  13  15
ENDBRANCH  10  13
BRANCH  12  27
HETATM   27  C   UNL     1      -8.229  12.005  66.979  1.00  0.00    -0.169 A  
HETATM   28  C   UNL     1      -5.849  11.711  66.606  1.00  0.00    -0.108 A  
HETATM   29  O   UNL     1      -7.302  15.309  69.323  1.00  0.00    -0.158 OA 
HETATM   30  C   UNL     1      -7.951  13.114  67.801  1.00  0.00    -0.162 A  
HETATM   31  O   UNL     1      -5.152  15.000  69.017  1.00  0.00    -0.090 OA 
HETATM   32  C   UNL     1      -6.627  13.517  68.010  1.00  0.00    -0.137 A  
HETATM   33  C   UNL     1      -7.166  11.320  66.374  1.00  0.00    -0.052 A  
HETATM   34  C   UNL     1      -5.572  12.807  67.426  1.00  0.00    -0.057 A  
HETATM   35  N   UNL     1      -6.341  14.692  68.842  1.00  0.00    -0.085 N  
ENDBRANCH  12  27
ENDBRANCH   3   5
ENDBRANCH   2   3
TORSDOF 10
ENDMDL
MODEL      157
REMARK 921   NORMALIZED FREE ENERGY PREDICTED BY IDOCK:   -4.65 KCAL/MOL
REMARK 922        TOTAL FREE ENERGY PREDICTED BY IDOCK:   -8.89 KCAL/MOL
REMARK 923 INTER-LIGAND FREE ENERGY PREDICTED BY IDOCK:   -6.86 KCAL/MOL
REMARK 924 INTRA-LIGAND FREE ENERGY PREDICTED BY IDOCK:   -2.02 KCAL/MOL
REMARK 927      BINDING AFFINITY PREDICTED BY RF-SCORE:    0.00 PKD
ROOT
HETATM    1  C   UNL     1      -6.121  11.288  66.528  1.00  0.00    -0.139 C  
HETATM    2  O   UNL     1      -6.552  10.002  66.070  1.00  0.00    -0.083 OA 
ENDROOT
BRANCH   2   3
HETATM    3  C   UNL     1      -7.869   9.974  65.741  1.00  0.00    -0.128 C  
HETATM    4  O   UNL     1      -8.363  10.558  64.789  1.00  0.00    -0.170 OA 
BRANCH   3   5
HETATM    5  C   UNL     1      -8.652   9.177  66.720  1.00  0.00    -0.133 C  
HETATM    6  C   UNL     1      -8.939   7.877  66.470  1.00  0.00    -0.161 C  
HETATM    7  C   UNL     1      -8.452   7.059  65.298  1.00  0.00    -0.060 C  
HETATM    8  N   UNL     1      -9.776   7.184  67.327  1.00  0.00    -0.146 NA 
HETATM    9  C   UNL     1     -10.509   7.754  68.350  1.00  0.00    -0.166 C  
HETATM   10  C   UNL     1     -10.304   9.051  68.684  1.00  0.00    -0.233 C  
HETATM   11  C   UNL     1     -11.484   6.827  69.039  1.00  0.00    -0.072 C  
HETATM   12  C   UNL     1      -9.229   9.884  67.960  1.00  0.00    -0.129 C  
BRANCH  10  13
HETATM   13  C   UNL     1     -11.047   9.645  69.832  1.00  0.00    -0.235 C  
HETATM   14  O   UNL     1     -12.246   9.877  69.858  1.00  0.00     0.002 OA 
BRANCH  13  15
HETATM   15  O   UNL     1     -10.234   9.693  70.915  1.00  0.00    -0.295 OA 
BRANCH  15  16
HETATM   16  C   UNL     1     -10.495   8.653  71.874  1.00  0.00    -0.340 C  
BRANCH  16  17
HETATM   17  C   UNL     1      -9.141   8.334  72.525  1.00  0.00    -0.253 C  
BRANCH  17  18
HETATM   18  N   UNL     1      -8.401   7.178  72.002  1.00  0.00    -0.107 NA 
HETATM   19  C   UNL     1      -7.287   6.834  72.891  1.00  0.00    -0.079 C  
BRANCH  18  20
HETATM   20  C   UNL     1      -9.314   6.016  71.877  1.00  0.00    -0.150 C  
BRANCH  20  21
HETATM   21  C   UNL     1      -8.991   5.128  70.689  1.00  0.00    -0.162 A  
HETATM   22  C   UNL     1      -9.624   3.885  70.541  1.00  0.00    -0.263 A  
HETATM   23  C   UNL     1      -9.267   3.024  69.505  1.00  0.00    -0.217 A  
HETATM   24  C   UNL     1      -8.278   3.397  68.597  1.00  0.00    -0.082 A  
HETATM   25  C   UNL     1      -7.654   4.637  68.718  1.00  0.00    -0.068 A  
HETATM   26  C   UNL     1      -8.009   5.502  69.757  1.00  0.00    -0.090 A  
ENDBRANCH  20  21
ENDBRANCH  18  20
ENDBRANCH  17  18
ENDBRANCH  16  17
ENDBRANCH  15  16
ENDBRANCH  13  15
ENDBRANCH  10  13
BRANCH  12  27
HETATM   27  C   UNL     1      -9.735  11.289  67.620  1.00  0.00    -0.183 A  
HETATM   28  C   UNL     1      -9.693  13.689  67.979  1.00  0.00    -0.226 A  
HETATM   29  O   UNL     1     -12.723  11.914  64.800  1.00  0.00    -0.309 OA 
HETATM   30  C   UNL     1     -10.768  11.461  66.677  1.00  0.00    -0.316 A  
HETATM   31  O   UNL     1     -12.708  14.075  65.172  1.00  0.00    -0.619 OA 
HETATM   32  C   UNL     1     -11.245  12.744  66.387  1.00  0.00    -0.299 A  
HETATM   33  C   UNL     1      -9.195  12.417  68.254  1.00  0.00    -0.189 A  
HETATM   34  C   UNL     1     -10.721  13.859  67.049  1.00  0.00    -0.283 A  
HETATM   35  N   UNL     1     -12.300  12.923  65.382  1.00  0.00    -0.480 N  
ENDBRANCH  12  27
ENDBRANCH   3   5
ENDBRANCH   2   3
TORSDOF 10
ENDMDL
MODEL      158
REMARK 921   NORMALIZED FREE ENERGY PREDICTED BY IDOCK:   -4.64 KCAL/MOL
REMARK 922        TOTAL FREE ENERGY PREDICTED BY IDOCK:   -8.88 KCAL/MOL
REMARK 923 INTER-LIGAND FREE ENERGY PREDICTED BY IDOCK:   -7.78 KCAL/MOL
REMARK 924 INTRA-LIGAND FREE ENERGY PREDICTED BY IDOCK:   -1.09 KCAL/MOL
REMARK 927      BINDING AFFINITY PREDICTED BY RF-SCORE:    0.00 PKD
ROOT
HETATM    1  C   UNL     1     -12.759  11.973  63.509  1.00  0.00    -0.443 C  
HETATM    2  O   UNL     1     -11.945  11.971  64.687  1.00  0.00    -0.323 OA 
ENDROOT
BRANCH   2   3
HETATM    3  C   UNL     1     -10.646  12.271  64.430  1.00  0.00    -0.327 C  
HETATM    4  O   UNL     1     -10.115  12.191  63.332  1.00  0.00    -0.428 OA 
BRANCH   3   5
HETATM    5  C   UNL     1      -9.928  12.666  65.668  1.00  0.00    -0.253 C  
HETATM    6  C   UNL     1      -9.755  13.975  65.971  1.00  0.00    -0.258 C  
HETATM    7  C   UNL     1     -10.320  15.154  65.214  1.00  0.00    -0.425 C  
HETATM    8  N   UNL     1      -8.976  14.329  67.058  1.00  0.00    -0.227 NA 
HETATM    9  C   UNL     1      -8.190  13.457  67.786  1.00  0.00    -0.172 C  
HETATM   10  C   UNL     1      -8.280  12.123  67.563  1.00  0.00    -0.167 C  
HETATM   11  C   UNL     1      -7.294  14.103  68.817  1.00  0.00    -0.128 C  
HETATM   12  C   UNL     1      -9.284  11.569  66.535  1.00  0.00    -0.203 C  
BRANCH  10  13
HETATM   13  C   UNL     1      -7.481  11.180  68.396  1.00  0.00    -0.102 C  
HETATM   14  O   UNL     1      -6.304  10.899  68.220  1.00  0.00    -0.056 OA 
BRANCH  13  15
HETATM   15  O   UNL     1      -8.192  10.842  69.499  1.00  0.00    -0.091 OA 
BRANCH  15  16
HETATM   16  C   UNL     1      -9.133   9.779  69.271  1.00  0.00    -0.184 C  
BRANCH  16  17
HETATM   17  C   UNL     1      -9.621   9.346  70.662  1.00  0.00    -0.268 C  
BRANCH  17  18
HETATM   18  N   UNL     1     -10.987   9.727  71.042  1.00  0.00    -0.339 NA 
HETATM   19  C   UNL     1     -11.515  10.739  70.122  1.00  0.00    -0.331 C  
BRANCH  18  20
HETATM   20  C   UNL     1     -11.864   8.530  71.020  1.00  0.00    -0.257 C  
BRANCH  20  21
HETATM   21  C   UNL     1     -11.309   7.369  71.824  1.00  0.00    -0.287 A  
HETATM   22  C   UNL     1     -10.990   7.534  73.180  1.00  0.00    -0.420 A  
HETATM   23  C   UNL     1     -10.395   6.501  73.902  1.00  0.00    -0.356 A  
HETATM   24  C   UNL     1     -10.119   5.285  73.280  1.00  0.00    -0.198 A  
HETATM   25  C   UNL     1     -10.448   5.098  71.939  1.00  0.00    -0.272 A  
HETATM   26  C   UNL     1     -11.043   6.132  71.212  1.00  0.00    -0.351 A  
ENDBRANCH  20  21
ENDBRANCH  18  20
ENDBRANCH  17  18
ENDBRANCH  16  17
ENDBRANCH  15  16
ENDBRANCH  13  15
ENDBRANCH  10  13
BRANCH  12  27
HETATM   27  C   UNL     1      -8.661  10.466  65.673  1.00  0.00    -0.184 A  
HETATM   28  C   UNL     1      -8.668   8.189  64.833  1.00  0.00     0.041 A  
HETATM   29  O   UNL     1      -5.156  11.087  63.528  1.00  0.00    -0.173 OA 
HETATM   30  C   UNL     1      -7.458  10.705  64.980  1.00  0.00     0.071 A  
HETATM   31  O   UNL     1      -5.149   9.012  62.818  1.00  0.00    -0.067 OA 
HETATM   32  C   UNL     1      -6.877   9.688  64.213  1.00  0.00    -0.112 A  
HETATM   33  C   UNL     1      -9.264   9.205  65.578  1.00  0.00    -0.287 A  
HETATM   34  C   UNL     1      -7.472   8.423  64.152  1.00  0.00    -0.114 A  
HETATM   35  N   UNL     1      -5.640   9.948  63.467  1.00  0.00    -0.094 N  
ENDBRANCH  12  27
ENDBRANCH   3   5
ENDBRANCH   2   3
TORSDOF 10
ENDMDL
MODEL      159
REMARK 921   NORMALIZED FREE ENERGY PREDICTED BY IDOCK:   -4.62 KCAL/MOL
REMARK 922        TOTAL FREE ENERGY PREDICTED BY IDOCK:   -8.84 KCAL/MOL
REMARK 923 INTER-LIGAND FREE ENERGY PREDICTED BY IDOCK:   -7.25 KCAL/MOL
REMARK 924 INTRA-LIGAND FREE ENERGY PREDICTED BY IDOCK:   -1.59 KCAL/MOL
REMARK 927      BINDING AFFINITY PREDICTED BY RF-SCORE:    0.00 PKD
ROOT
HETATM    1  C   UNL     1      -6.391   4.106  68.801  1.00  0.00    -0.033 C  
HETATM    2  O   UNL     1      -7.120   4.938  69.710  1.00  0.00    -0.051 OA 
ENDROOT
BRANCH   2   3
HETATM    3  C   UNL     1      -6.622   6.199  69.785  1.00  0.00    -0.047 C  
HETATM    4  O   UNL     1      -5.435   6.485  69.735  1.00  0.00    -0.013 OA 
BRANCH   3   5
HETATM    5  C   UNL     1      -7.705   7.195  69.987  1.00  0.00    -0.103 C  
HETATM    6  C   UNL     1      -8.450   7.175  71.119  1.00  0.00    -0.121 C  
HETATM    7  C   UNL     1      -8.241   6.279  72.316  1.00  0.00    -0.108 C  
HETATM    8  N   UNL     1      -9.536   8.025  71.238  1.00  0.00    -0.153 NA 
HETATM    9  C   UNL     1     -10.056   8.792  70.214  1.00  0.00    -0.191 C  
HETATM   10  C   UNL     1      -9.394   8.880  69.035  1.00  0.00    -0.144 C  
HETATM   11  C   UNL     1     -11.349   9.506  70.535  1.00  0.00    -0.343 C  
HETATM   12  C   UNL     1      -8.042   8.166  68.843  1.00  0.00    -0.116 C  
BRANCH  10  13
HETATM   13  C   UNL     1      -9.922   9.763  67.956  1.00  0.00    -0.158 C  
HETATM   14  O   UNL     1     -10.762   9.445  67.126  1.00  0.00    -0.249 OA 
BRANCH  13  15
HETATM   15  O   UNL     1      -9.489  11.031  68.160  1.00  0.00    -0.160 OA 
BRANCH  15  16
HETATM   16  C   UNL     1     -10.467  12.030  67.827  1.00  0.00    -0.203 C  
BRANCH  16  17
HETATM   17  C   UNL     1      -9.744  13.381  67.951  1.00  0.00    -0.226 C  
BRANCH  17  18
HETATM   18  N   UNL     1     -10.401  14.422  68.752  1.00  0.00    -0.239 NA 
HETATM   19  C   UNL     1     -10.100  15.752  68.214  1.00  0.00    -0.222 C  
BRANCH  18  20
HETATM   20  C   UNL     1     -11.868  14.205  68.747  1.00  0.00    -0.349 C  
BRANCH  20  21
HETATM   21  C   UNL     1     -12.478  14.219  70.137  1.00  0.00    -0.393 A  
HETATM   22  C   UNL     1     -12.706  13.017  70.823  1.00  0.00    -0.243 A  
HETATM   23  C   UNL     1     -13.350  13.014  72.059  1.00  0.00    -0.588 A  
HETATM   24  C   UNL     1     -13.768  14.214  72.630  1.00  0.00    -0.568 A  
HETATM   25  C   UNL     1     -13.531  15.419  71.970  1.00  0.00    -0.564 A  
HETATM   26  C   UNL     1     -12.887  15.425  70.730  1.00  0.00    -0.524 A  
ENDBRANCH  20  21
ENDBRANCH  18  20
ENDBRANCH  17  18
ENDBRANCH  16  17
ENDBRANCH  15  16
ENDBRANCH  13  15
ENDBRANCH  10  13
BRANCH  12  27
HETATM   27  C   UNL     1      -7.955   7.478  67.477  1.00  0.00    -0.116 A  
HETATM   28  C   UNL     1      -6.920   7.246  65.294  1.00  0.00    -0.056 A  
HETATM   29  O   UNL     1     -10.611   4.478  66.370  1.00  0.00    -0.193 OA 
HETATM   30  C   UNL     1      -8.889   6.482  67.126  1.00  0.00    -0.110 A  
HETATM   31  O   UNL     1      -9.695   4.316  64.384  1.00  0.00    -0.162 OA 
HETATM   32  C   UNL     1      -8.823   5.872  65.868  1.00  0.00    -0.149 A  
HETATM   33  C   UNL     1      -6.965   7.840  66.554  1.00  0.00    -0.067 A  
HETATM   34  C   UNL     1      -7.849   6.264  64.944  1.00  0.00    -0.113 A  
HETATM   35  N   UNL     1      -9.777   4.814  65.516  1.00  0.00    -0.168 N  
ENDBRANCH  12  27
ENDBRANCH   3   5
ENDBRANCH   2   3
TORSDOF 10
ENDMDL
MODEL      160
REMARK 921   NORMALIZED FREE ENERGY PREDICTED BY IDOCK:   -4.61 KCAL/MOL
REMARK 922        TOTAL FREE ENERGY PREDICTED BY IDOCK:   -8.82 KCAL/MOL
REMARK 923 INTER-LIGAND FREE ENERGY PREDICTED BY IDOCK:   -7.41 KCAL/MOL
REMARK 924 INTRA-LIGAND FREE ENERGY PREDICTED BY IDOCK:   -1.41 KCAL/MOL
REMARK 927      BINDING AFFINITY PREDICTED BY RF-SCORE:    0.00 PKD
ROOT
HETATM    1  C   UNL     1      -5.421  10.964  65.261  1.00  0.00    -0.069 C  
HETATM    2  O   UNL     1      -5.996   9.693  64.940  1.00  0.00    -0.072 OA 
ENDROOT
BRANCH   2   3
HETATM    3  C   UNL     1      -7.307   9.779  64.599  1.00  0.00    -0.134 C  
HETATM    4  O   UNL     1      -7.745  10.447  63.675  1.00  0.00    -0.134 OA 
BRANCH   3   5
HETATM    5  C   UNL     1      -8.159   8.991  65.527  1.00  0.00    -0.110 C  
HETATM    6  C   UNL     1      -8.418   7.686  65.275  1.00  0.00    -0.076 C  
HETATM    7  C   UNL     1      -7.836   6.854  64.157  1.00  0.00    -0.104 C  
HETATM    8  N   UNL     1      -9.314   6.999  66.076  1.00  0.00    -0.039 NA 
HETATM    9  C   UNL     1     -10.127   7.579  67.030  1.00  0.00    -0.261 C  
HETATM   10  C   UNL     1      -9.956   8.883  67.359  1.00  0.00    -0.267 C  
HETATM   11  C   UNL     1     -11.147   6.656  67.657  1.00  0.00    -0.357 C  
HETATM   12  C   UNL     1      -8.834   9.712  66.707  1.00  0.00    -0.148 C  
BRANCH  10  13
HETATM   13  C   UNL     1     -10.789   9.488  68.437  1.00  0.00    -0.137 C  
HETATM   14  O   UNL     1     -11.894   9.988  68.285  1.00  0.00    -0.003 OA 
BRANCH  13  15
HETATM   15  O   UNL     1     -10.233   9.213  69.642  1.00  0.00    -0.188 OA 
BRANCH  15  16
HETATM   16  C   UNL     1     -10.843   9.926  70.731  1.00  0.00    -0.317 C  
BRANCH  16  17
HETATM   17  C   UNL     1     -10.893   8.935  71.904  1.00  0.00    -0.363 C  
BRANCH  17  18
HETATM   18  N   UNL     1     -12.220   8.503  72.361  1.00  0.00    -0.385 NA 
HETATM   19  C   UNL     1     -13.248   9.456  71.934  1.00  0.00    -0.429 C  
BRANCH  18  20
HETATM   20  C   UNL     1     -12.527   7.162  71.806  1.00  0.00    -0.350 C  
BRANCH  20  21
HETATM   21  C   UNL     1     -11.437   6.141  72.076  1.00  0.00    -0.366 A  
HETATM   22  C   UNL     1     -11.052   5.846  73.392  1.00  0.00    -0.153 A  
HETATM   23  C   UNL     1      -9.990   4.980  73.646  1.00  0.00    -0.185 A  
HETATM   24  C   UNL     1      -9.304   4.389  72.587  1.00  0.00    -0.157 A  
HETATM   25  C   UNL     1      -9.686   4.655  71.274  1.00  0.00    -0.251 A  
HETATM   26  C   UNL     1     -10.750   5.525  71.016  1.00  0.00    -0.275 A  
ENDBRANCH  20  21
ENDBRANCH  18  20
ENDBRANCH  17  18
ENDBRANCH  16  17
ENDBRANCH  15  16
ENDBRANCH  13  15
ENDBRANCH  10  13
BRANCH  12  27
HETATM   27  C   UNL     1      -9.320  11.109  66.308  1.00  0.00    -0.216 A  
HETATM   28  C   UNL     1     -10.734  12.542  64.953  1.00  0.00    -0.327 A  
HETATM   29  O   UNL     1      -7.730  14.547  68.018  1.00  0.00    -0.113 OA 
HETATM   30  C   UNL     1      -8.740  12.253  66.891  1.00  0.00    -0.197 A  
HETATM   31  O   UNL     1      -8.978  15.829  66.751  1.00  0.00    -0.218 OA 
HETATM   32  C   UNL     1      -9.168  13.529  66.506  1.00  0.00    -0.173 A  
HETATM   33  C   UNL     1     -10.329  11.269  65.349  1.00  0.00    -0.328 A  
HETATM   34  C   UNL     1     -10.154  13.676  65.525  1.00  0.00    -0.293 A  
HETATM   35  N   UNL     1      -8.584  14.719  67.137  1.00  0.00    -0.214 N  
ENDBRANCH  12  27
ENDBRANCH   3   5
ENDBRANCH   2   3
TORSDOF 10
ENDMDL
MODEL      161
REMARK 921   NORMALIZED FREE ENERGY PREDICTED BY IDOCK:   -4.58 KCAL/MOL
REMARK 922        TOTAL FREE ENERGY PREDICTED BY IDOCK:   -8.77 KCAL/MOL
REMARK 923 INTER-LIGAND FREE ENERGY PREDICTED BY IDOCK:   -6.07 KCAL/MOL
REMARK 924 INTRA-LIGAND FREE ENERGY PREDICTED BY IDOCK:   -2.70 KCAL/MOL
REMARK 927      BINDING AFFINITY PREDICTED BY RF-SCORE:    0.00 PKD
ROOT
HETATM    1  C   UNL     1     -10.247  15.680  64.995  1.00  0.00    -0.167 C  
HETATM    2  O   UNL     1      -9.660  14.632  65.774  1.00  0.00    -0.303 OA 
ENDROOT
BRANCH   2   3
HETATM    3  C   UNL     1      -9.972  13.394  65.310  1.00  0.00    -0.174 C  
HETATM    4  O   UNL     1      -9.835  13.028  64.153  1.00  0.00    -0.208 OA 
BRANCH   3   5
HETATM    5  C   UNL     1     -10.552  12.547  66.383  1.00  0.00    -0.271 C  
HETATM    6  C   UNL     1     -11.798  12.796  66.852  1.00  0.00    -0.371 C  
HETATM    7  C   UNL     1     -12.768  13.825  66.323  1.00  0.00    -0.258 C  
HETATM    8  N   UNL     1     -12.276  12.082  67.937  1.00  0.00    -0.370 NA 
HETATM    9  C   UNL     1     -11.518  11.235  68.723  1.00  0.00    -0.293 C  
HETATM   10  C   UNL     1     -10.255  10.919  68.348  1.00  0.00    -0.193 C  
HETATM   11  C   UNL     1     -12.214  10.702  69.954  1.00  0.00    -0.346 C  
HETATM   12  C   UNL     1      -9.672  11.463  67.031  1.00  0.00    -0.210 C  
BRANCH  10  13
HETATM   13  C   UNL     1      -9.464   9.951  69.161  1.00  0.00    -0.196 C  
HETATM   14  O   UNL     1      -8.876  10.211  70.201  1.00  0.00    -0.091 OA 
BRANCH  13  15
HETATM   15  O   UNL     1      -9.667   8.697  68.690  1.00  0.00    -0.157 OA 
BRANCH  15  16
HETATM   16  C   UNL     1      -8.623   7.775  69.045  1.00  0.00    -0.135 C  
BRANCH  16  17
HETATM   17  C   UNL     1      -7.599   7.841  67.901  1.00  0.00    -0.116 C  
BRANCH  17  18
HETATM   18  N   UNL     1      -7.713   6.833  66.839  1.00  0.00    -0.101 NA 
HETATM   19  C   UNL     1      -8.127   5.542  67.397  1.00  0.00    -0.101 C  
BRANCH  18  20
HETATM   20  C   UNL     1      -8.706   7.279  65.831  1.00  0.00    -0.131 C  
BRANCH  20  21
HETATM   21  C   UNL     1      -8.101   8.141  64.738  1.00  0.00    -0.152 A  
HETATM   22  C   UNL     1      -6.756   7.982  64.374  1.00  0.00    -0.061 A  
HETATM   23  C   UNL     1      -6.168   8.829  63.437  1.00  0.00    -0.085 A  
HETATM   24  C   UNL     1      -6.919   9.843  62.845  1.00  0.00    -0.122 A  
HETATM   25  C   UNL     1      -8.263  10.001  63.181  1.00  0.00    -0.159 A  
HETATM   26  C   UNL     1      -8.855   9.153  64.121  1.00  0.00    -0.127 A  
ENDBRANCH  20  21
ENDBRANCH  18  20
ENDBRANCH  17  18
ENDBRANCH  16  17
ENDBRANCH  15  16
ENDBRANCH  13  15
ENDBRANCH  10  13
BRANCH  12  27
HETATM   27  C   UNL     1      -8.228  11.944  67.207  1.00  0.00    -0.170 A  
HETATM   28  C   UNL     1      -5.857  11.716  66.739  1.00  0.00    -0.140 A  
HETATM   29  O   UNL     1      -7.282  15.167  69.655  1.00  0.00    -0.187 OA 
HETATM   30  C   UNL     1      -7.942  13.024  68.066  1.00  0.00    -0.155 A  
HETATM   31  O   UNL     1      -5.139  14.916  69.261  1.00  0.00    -0.091 OA 
HETATM   32  C   UNL     1      -6.619  13.445  68.245  1.00  0.00    -0.105 A  
HETATM   33  C   UNL     1      -7.174  11.308  66.537  1.00  0.00    -0.096 A  
HETATM   34  C   UNL     1      -5.573  12.782  67.595  1.00  0.00    -0.129 A  
HETATM   35  N   UNL     1      -6.326  14.591  69.115  1.00  0.00    -0.095 N  
ENDBRANCH  12  27
ENDBRANCH   3   5
ENDBRANCH   2   3
TORSDOF 10
ENDMDL
MODEL      162
REMARK 921   NORMALIZED FREE ENERGY PREDICTED BY IDOCK:   -4.55 KCAL/MOL
REMARK 922        TOTAL FREE ENERGY PREDICTED BY IDOCK:   -8.74 KCAL/MOL
REMARK 923 INTER-LIGAND FREE ENERGY PREDICTED BY IDOCK:   -7.07 KCAL/MOL
REMARK 924 INTRA-LIGAND FREE ENERGY PREDICTED BY IDOCK:   -1.67 KCAL/MOL
REMARK 927      BINDING AFFINITY PREDICTED BY RF-SCORE:    0.00 PKD
ROOT
HETATM    1  C   UNL     1     -12.760  11.951  63.116  1.00  0.00    -0.127 C  
HETATM    2  O   UNL     1     -11.887  11.543  64.175  1.00  0.00    -0.221 OA 
ENDROOT
BRANCH   2   3
HETATM    3  C   UNL     1     -10.666  12.134  64.109  1.00  0.00    -0.360 C  
HETATM    4  O   UNL     1     -10.015  12.277  63.085  1.00  0.00    -0.389 OA 
BRANCH   3   5
HETATM    5  C   UNL     1     -10.193  12.547  65.454  1.00  0.00    -0.303 C  
HETATM    6  C   UNL     1     -10.032  13.859  65.750  1.00  0.00    -0.284 C  
HETATM    7  C   UNL     1     -10.388  15.030  64.864  1.00  0.00    -0.317 C  
HETATM    8  N   UNL     1      -9.470  14.224  66.961  1.00  0.00    -0.244 NA 
HETATM    9  C   UNL     1      -8.879  13.351  67.854  1.00  0.00    -0.194 C  
HETATM   10  C   UNL     1      -8.976  12.014  67.653  1.00  0.00    -0.172 C  
HETATM   11  C   UNL     1      -8.180  14.001  69.026  1.00  0.00     0.116 C  
HETATM   12  C   UNL     1      -9.777  11.459  66.461  1.00  0.00    -0.226 C  
BRANCH  10  13
HETATM   13  C   UNL     1      -8.396  11.073  68.654  1.00  0.00    -0.153 C  
HETATM   14  O   UNL     1      -7.226  10.723  68.704  1.00  0.00    -0.078 OA 
BRANCH  13  15
HETATM   15  O   UNL     1      -9.310  10.830  69.624  1.00  0.00     0.002 OA 
BRANCH  15  16
HETATM   16  C   UNL     1     -10.270   9.821  69.267  1.00  0.00    -0.204 C  
BRANCH  16  17
HETATM   17  C   UNL     1      -9.733   8.506  69.852  1.00  0.00    -0.179 C  
BRANCH  17  18
HETATM   18  N   UNL     1     -10.495   7.901  70.952  1.00  0.00    -0.202 NA 
HETATM   19  C   UNL     1     -11.202   8.932  71.717  1.00  0.00    -0.362 C  
BRANCH  18  20
HETATM   20  C   UNL     1     -11.473   6.929  70.406  1.00  0.00    -0.338 C  
BRANCH  20  21
HETATM   21  C   UNL     1     -10.863   5.967  69.403  1.00  0.00    -0.433 A  
HETATM   22  C   UNL     1      -9.970   4.972  69.828  1.00  0.00    -0.319 A  
HETATM   23  C   UNL     1      -9.335   4.145  68.903  1.00  0.00    -0.228 A  
HETATM   24  C   UNL     1      -9.591   4.296  67.541  1.00  0.00    -0.217 A  
HETATM   25  C   UNL     1     -10.491   5.266  67.105  1.00  0.00    -0.261 A  
HETATM   26  C   UNL     1     -11.128   6.098  68.029  1.00  0.00    -0.316 A  
ENDBRANCH  20  21
ENDBRANCH  18  20
ENDBRANCH  17  18
ENDBRANCH  16  17
ENDBRANCH  15  16
ENDBRANCH  13  15
ENDBRANCH  10  13
BRANCH  12  27
HETATM   27  C   UNL     1      -9.041  10.307  65.770  1.00  0.00    -0.202 A  
HETATM   28  C   UNL     1      -8.840   7.946  65.244  1.00  0.00     0.036 A  
HETATM   29  O   UNL     1      -5.521  10.926  63.648  1.00  0.00    -0.109 OA 
HETATM   30  C   UNL     1      -7.836  10.551  65.081  1.00  0.00    -0.076 A  
HETATM   31  O   UNL     1      -5.328   8.783  63.224  1.00  0.00    -0.066 OA 
HETATM   32  C   UNL     1      -7.151   9.493  64.473  1.00  0.00    -0.107 A  
HETATM   33  C   UNL     1      -9.540   8.999  65.831  1.00  0.00    -0.317 A  
HETATM   34  C   UNL     1      -7.642   8.186  64.567  1.00  0.00    -0.113 A  
HETATM   35  N   UNL     1      -5.912   9.753  63.729  1.00  0.00    -0.104 N  
ENDBRANCH  12  27
ENDBRANCH   3   5
ENDBRANCH   2   3
TORSDOF 10
ENDMDL
MODEL      163
REMARK 921   NORMALIZED FREE ENERGY PREDICTED BY IDOCK:   -4.55 KCAL/MOL
REMARK 922        TOTAL FREE ENERGY PREDICTED BY IDOCK:   -8.72 KCAL/MOL
REMARK 923 INTER-LIGAND FREE ENERGY PREDICTED BY IDOCK:   -8.67 KCAL/MOL
REMARK 924 INTRA-LIGAND FREE ENERGY PREDICTED BY IDOCK:   -0.06 KCAL/MOL
REMARK 927      BINDING AFFINITY PREDICTED BY RF-SCORE:    0.00 PKD
ROOT
HETATM    1  C   UNL     1     -11.277  15.352  70.702  1.00  0.00    -0.342 C  
HETATM    2  O   UNL     1     -10.938  14.477  69.621  1.00  0.00    -0.246 OA 
ENDROOT
BRANCH   2   3
HETATM    3  C   UNL     1      -9.901  14.937  68.876  1.00  0.00    -0.230 C  
HETATM    4  O   UNL     1      -9.764  16.095  68.510  1.00  0.00    -0.206 OA 
BRANCH   3   5
HETATM    5  C   UNL     1      -8.968  13.839  68.515  1.00  0.00    -0.120 C  
HETATM    6  C   UNL     1      -7.644  13.953  68.779  1.00  0.00    -0.108 C  
HETATM    7  C   UNL     1      -6.970  15.077  69.528  1.00  0.00    -0.187 C  
HETATM    8  N   UNL     1      -6.770  12.981  68.323  1.00  0.00    -0.084 NA 
HETATM    9  C   UNL     1      -7.103  11.965  67.448  1.00  0.00    -0.129 C  
HETATM   10  C   UNL     1      -8.400  11.764  67.112  1.00  0.00    -0.168 C  
HETATM   11  C   UNL     1      -5.942  11.130  66.957  1.00  0.00    -0.091 C  
HETATM   12  C   UNL     1      -9.511  12.631  67.732  1.00  0.00    -0.198 C  
BRANCH  10  13
HETATM   13  C   UNL     1      -8.764  10.624  66.222  1.00  0.00    -0.156 C  
HETATM   14  O   UNL     1      -8.310  10.423  65.105  1.00  0.00    -0.160 OA 
BRANCH  13  15
HETATM   15  O   UNL     1      -9.512   9.733  66.916  1.00  0.00    -0.151 OA 
BRANCH  15  16
HETATM   16  C   UNL     1      -8.735   8.698  67.542  1.00  0.00    -0.135 C  
BRANCH  16  17
HETATM   17  C   UNL     1      -9.544   8.250  68.769  1.00  0.00    -0.150 C  
BRANCH  17  18
HETATM   18  N   UNL     1      -9.390   6.855  69.202  1.00  0.00    -0.140 NA 
HETATM   19  C   UNL     1      -9.374   6.769  70.664  1.00  0.00    -0.162 C  
BRANCH  18  20
HETATM   20  C   UNL     1     -10.510   6.041  68.669  1.00  0.00    -0.241 C  
BRANCH  20  21
HETATM   21  C   UNL     1     -10.073   5.045  67.609  1.00  0.00    -0.192 A  
HETATM   22  C   UNL     1     -10.463   5.217  66.273  1.00  0.00    -0.341 A  
HETATM   23  C   UNL     1     -10.145   4.260  65.311  1.00  0.00    -0.231 A  
HETATM   24  C   UNL     1      -9.424   3.123  65.670  1.00  0.00    -0.064 A  
HETATM   25  C   UNL     1      -9.011   2.948  66.990  1.00  0.00    -0.177 A  
HETATM   26  C   UNL     1      -9.330   3.905  67.957  1.00  0.00    -0.226 A  
ENDBRANCH  20  21
ENDBRANCH  18  20
ENDBRANCH  17  18
ENDBRANCH  16  17
ENDBRANCH  15  16
ENDBRANCH  13  15
ENDBRANCH  10  13
BRANCH  12  27
HETATM   27  C   UNL     1     -10.545  13.059  66.686  1.00  0.00    -0.275 A  
HETATM   28  C   UNL     1     -12.478  12.561  65.305  1.00  0.00    -0.390 A  
HETATM   29  O   UNL     1     -10.442  16.821  64.922  1.00  0.00    -0.652 OA 
HETATM   30  C   UNL     1     -10.464  14.333  66.090  1.00  0.00    -0.294 A  
HETATM   31  O   UNL     1     -12.158  16.338  63.645  1.00  0.00    -0.798 OA 
HETATM   32  C   UNL     1     -11.394  14.712  65.116  1.00  0.00    -0.375 A  
HETATM   33  C   UNL     1     -11.569  12.187  66.293  1.00  0.00    -0.424 A  
HETATM   34  C   UNL     1     -12.393  13.822  64.709  1.00  0.00    -0.420 A  
HETATM   35  N   UNL     1     -11.326  16.052  64.519  1.00  0.00    -0.402 N  
ENDBRANCH  12  27
ENDBRANCH   3   5
ENDBRANCH   2   3
TORSDOF 10
ENDMDL
MODEL      164
REMARK 921   NORMALIZED FREE ENERGY PREDICTED BY IDOCK:   -4.54 KCAL/MOL
REMARK 922        TOTAL FREE ENERGY PREDICTED BY IDOCK:   -8.71 KCAL/MOL
REMARK 923 INTER-LIGAND FREE ENERGY PREDICTED BY IDOCK:   -6.60 KCAL/MOL
REMARK 924 INTRA-LIGAND FREE ENERGY PREDICTED BY IDOCK:   -2.11 KCAL/MOL
REMARK 927      BINDING AFFINITY PREDICTED BY RF-SCORE:    0.00 PKD
ROOT
HETATM    1  C   UNL     1      -6.961   7.622  73.901  1.00  0.00    -0.095 C  
HETATM    2  O   UNL     1      -7.232   7.926  72.528  1.00  0.00    -0.078 OA 
ENDROOT
BRANCH   2   3
HETATM    3  C   UNL     1      -8.270   7.209  72.025  1.00  0.00    -0.099 C  
HETATM    4  O   UNL     1      -8.206   6.039  71.678  1.00  0.00    -0.116 OA 
BRANCH   3   5
HETATM    5  C   UNL     1      -9.491   8.044  71.899  1.00  0.00    -0.240 C  
HETATM    6  C   UNL     1     -10.547   7.838  72.722  1.00  0.00    -0.341 C  
HETATM    7  C   UNL     1     -10.606   6.876  73.885  1.00  0.00    -0.260 C  
HETATM    8  N   UNL     1     -11.725   8.535  72.512  1.00  0.00    -0.362 NA 
HETATM    9  C   UNL     1     -11.995   9.316  71.404  1.00  0.00    -0.351 C  
HETATM   10  C   UNL     1     -11.010   9.584  70.513  1.00  0.00    -0.348 C  
HETATM   11  C   UNL     1     -13.411   9.836  71.312  1.00  0.00    -0.413 C  
HETATM   12  C   UNL     1      -9.580   9.060  70.747  1.00  0.00    -0.308 C  
BRANCH  10  13
HETATM   13  C   UNL     1     -11.286  10.483  69.356  1.00  0.00    -0.269 C  
HETATM   14  O   UNL     1     -11.783  10.140  68.293  1.00  0.00    -0.178 OA 
BRANCH  13  15
HETATM   15  O   UNL     1     -11.100  11.771  69.734  1.00  0.00    -0.145 OA 
BRANCH  15  16
HETATM   16  C   UNL     1     -11.749  12.720  68.872  1.00  0.00    -0.326 C  
BRANCH  16  17
HETATM   17  C   UNL     1     -10.620  13.503  68.185  1.00  0.00    -0.245 C  
BRANCH  17  18
HETATM   18  N   UNL     1     -10.414  13.264  66.751  1.00  0.00    -0.268 NA 
HETATM   19  C   UNL     1      -9.672  14.374  66.145  1.00  0.00    -0.312 C  
BRANCH  18  20
HETATM   20  C   UNL     1      -9.661  12.000  66.558  1.00  0.00    -0.216 C  
BRANCH  20  21
HETATM   21  C   UNL     1      -8.237  12.068  67.079  1.00  0.00    -0.169 A  
HETATM   22  C   UNL     1      -7.165  11.687  66.259  1.00  0.00     0.232 A  
HETATM   23  C   UNL     1      -5.864  11.657  66.757  1.00  0.00    -0.140 A  
HETATM   24  C   UNL     1      -5.616  12.017  68.081  1.00  0.00    -0.050 A  
HETATM   25  C   UNL     1      -6.668  12.417  68.903  1.00  0.00    -0.098 A  
HETATM   26  C   UNL     1      -7.974  12.446  68.406  1.00  0.00    -0.149 A  
ENDBRANCH  20  21
ENDBRANCH  18  20
ENDBRANCH  17  18
ENDBRANCH  16  17
ENDBRANCH  15  16
ENDBRANCH  13  15
ENDBRANCH  10  13
BRANCH  12  27
HETATM   27  C   UNL     1      -8.963   8.505  69.459  1.00  0.00    -0.149 A  
HETATM   28  C   UNL     1      -7.175   8.480  67.818  1.00  0.00    -0.084 A  
HETATM   29  O   UNL     1     -10.907   5.635  67.166  1.00  0.00    -0.263 OA 
HETATM   30  C   UNL     1      -9.663   7.551  68.694  1.00  0.00    -0.154 A  
HETATM   31  O   UNL     1      -9.307   5.661  65.667  1.00  0.00    -0.120 OA 
HETATM   32  C   UNL     1      -9.109   7.065  67.505  1.00  0.00    -0.122 A  
HETATM   33  C   UNL     1      -7.711   8.950  69.016  1.00  0.00    -0.090 A  
HETATM   34  C   UNL     1      -7.872   7.539  67.056  1.00  0.00    -0.116 A  
HETATM   35  N   UNL     1      -9.825   6.048  66.724  1.00  0.00    -0.155 N  
ENDBRANCH  12  27
ENDBRANCH   3   5
ENDBRANCH   2   3
TORSDOF 10
ENDMDL
MODEL      165
REMARK 921   NORMALIZED FREE ENERGY PREDICTED BY IDOCK:   -4.52 KCAL/MOL
REMARK 922        TOTAL FREE ENERGY PREDICTED BY IDOCK:   -8.68 KCAL/MOL
REMARK 923 INTER-LIGAND FREE ENERGY PREDICTED BY IDOCK:   -7.30 KCAL/MOL
REMARK 924 INTRA-LIGAND FREE ENERGY PREDICTED BY IDOCK:   -1.38 KCAL/MOL
REMARK 927      BINDING AFFINITY PREDICTED BY RF-SCORE:    0.00 PKD
ROOT
HETATM    1  C   UNL     1     -12.423  12.661  65.614  1.00  0.00    -0.184 C  
HETATM    2  O   UNL     1     -11.576  11.655  66.179  1.00  0.00    -0.390 OA 
ENDROOT
BRANCH   2   3
HETATM    3  C   UNL     1     -10.288  11.754  65.759  1.00  0.00    -0.253 C  
HETATM    4  O   UNL     1      -9.926  11.675  64.595  1.00  0.00    -0.244 OA 
BRANCH   3   5
HETATM    5  C   UNL     1      -9.359  11.922  66.905  1.00  0.00    -0.198 C  
HETATM    6  C   UNL     1      -8.865  13.145  67.212  1.00  0.00    -0.208 C  
HETATM    7  C   UNL     1      -9.239  14.454  66.558  1.00  0.00    -0.269 C  
HETATM    8  N   UNL     1      -7.903  13.267  68.199  1.00  0.00    -0.134 NA 
HETATM    9  C   UNL     1      -7.249  12.210  68.802  1.00  0.00    -0.103 C  
HETATM   10  C   UNL     1      -7.659  10.941  68.564  1.00  0.00    -0.111 C  
HETATM   11  C   UNL     1      -6.116  12.594  69.726  1.00  0.00    -0.134 C  
HETATM   12  C   UNL     1      -8.876  10.670  67.659  1.00  0.00    -0.131 C  
BRANCH  10  13
HETATM   13  C   UNL     1      -6.997   9.806  69.268  1.00  0.00    -0.056 C  
HETATM   14  O   UNL     1      -5.929   9.301  68.953  1.00  0.00    -0.043 OA 
BRANCH  13  15
HETATM   15  O   UNL     1      -7.648   9.558  70.430  1.00  0.00    -0.130 OA 
BRANCH  15  16
HETATM   16  C   UNL     1      -8.034   8.182  70.588  1.00  0.00    -0.096 C  
BRANCH  16  17
HETATM   17  C   UNL     1      -9.128   8.175  71.666  1.00  0.00    -0.163 C  
BRANCH  17  18
HETATM   18  N   UNL     1     -10.200   7.180  71.528  1.00  0.00    -0.198 NA 
HETATM   19  C   UNL     1     -10.879   6.974  72.810  1.00  0.00    -0.288 C  
BRANCH  18  20
HETATM   20  C   UNL     1     -11.181   7.641  70.515  1.00  0.00    -0.261 C  
BRANCH  20  21
HETATM   21  C   UNL     1     -11.633   9.074  70.730  1.00  0.00    -0.313 A  
HETATM   22  C   UNL     1     -12.601   9.374  71.700  1.00  0.00    -0.460 A  
HETATM   23  C   UNL     1     -13.089  10.671  71.841  1.00  0.00    -0.563 A  
HETATM   24  C   UNL     1     -12.609  11.690  71.019  1.00  0.00    -0.431 A  
HETATM   25  C   UNL     1     -11.633  11.412  70.063  1.00  0.00    -0.382 A  
HETATM   26  C   UNL     1     -11.143  10.111  69.919  1.00  0.00    -0.346 A  
ENDBRANCH  20  21
ENDBRANCH  18  20
ENDBRANCH  17  18
ENDBRANCH  16  17
ENDBRANCH  15  16
ENDBRANCH  13  15
ENDBRANCH  10  13
BRANCH  12  27
HETATM   27  C   UNL     1      -8.621   9.501  66.702  1.00  0.00    -0.141 A  
HETATM   28  C   UNL     1      -7.730   8.641  64.615  1.00  0.00    -0.121 A  
HETATM   29  O   UNL     1      -9.961   5.657  67.540  1.00  0.00    -0.133 OA 
HETATM   30  C   UNL     1      -9.113   8.216  67.007  1.00  0.00    -0.170 A  
HETATM   31  O   UNL     1      -9.194   4.906  65.628  1.00  0.00    -0.149 OA 
HETATM   32  C   UNL     1      -8.900   7.156  66.119  1.00  0.00    -0.150 A  
HETATM   33  C   UNL     1      -7.917   9.696  65.506  1.00  0.00    -0.115 A  
HETATM   34  C   UNL     1      -8.223   7.369  64.914  1.00  0.00    -0.080 A  
HETATM   35  N   UNL     1      -9.386   5.811  66.453  1.00  0.00    -0.153 N  
ENDBRANCH  12  27
ENDBRANCH   3   5
ENDBRANCH   2   3
TORSDOF 10
ENDMDL
MODEL      166
REMARK 921   NORMALIZED FREE ENERGY PREDICTED BY IDOCK:   -4.52 KCAL/MOL
REMARK 922        TOTAL FREE ENERGY PREDICTED BY IDOCK:   -8.67 KCAL/MOL
REMARK 923 INTER-LIGAND FREE ENERGY PREDICTED BY IDOCK:   -7.26 KCAL/MOL
REMARK 924 INTRA-LIGAND FREE ENERGY PREDICTED BY IDOCK:   -1.42 KCAL/MOL
REMARK 927      BINDING AFFINITY PREDICTED BY RF-SCORE:    0.00 PKD
ROOT
HETATM    1  C   UNL     1      -5.330   8.678  65.757  1.00  0.00    -0.034 C  
HETATM    2  O   UNL     1      -6.040   7.489  66.120  1.00  0.00    -0.036 OA 
ENDROOT
BRANCH   2   3
HETATM    3  C   UNL     1      -7.335   7.503  65.711  1.00  0.00    -0.070 C  
HETATM    4  O   UNL     1      -7.704   7.743  64.571  1.00  0.00    -0.107 OA 
BRANCH   3   5
HETATM    5  C   UNL     1      -8.260   7.238  66.842  1.00  0.00    -0.117 C  
HETATM    6  C   UNL     1      -9.040   6.130  66.842  1.00  0.00    -0.127 C  
HETATM    7  C   UNL     1      -9.014   5.013  65.825  1.00  0.00    -0.145 C  
HETATM    8  N   UNL     1      -9.987   5.960  67.836  1.00  0.00    -0.125 NA 
HETATM    9  C   UNL     1     -10.347   6.923  68.759  1.00  0.00    -0.189 C  
HETATM   10  C   UNL     1      -9.636   8.073  68.844  1.00  0.00    -0.152 C  
HETATM   11  C   UNL     1     -11.527   6.568  69.635  1.00  0.00    -0.417 C  
HETATM   12  C   UNL     1      -8.403   8.298  67.948  1.00  0.00    -0.128 C  
BRANCH  10  13
HETATM   13  C   UNL     1      -9.984   9.081  69.886  1.00  0.00    -0.191 C  
HETATM   14  O   UNL     1      -9.368   9.270  70.925  1.00  0.00    -0.251 OA 
BRANCH  13  15
HETATM   15  O   UNL     1     -10.957   9.898  69.414  1.00  0.00    -0.231 OA 
BRANCH  15  16
HETATM   16  C   UNL     1     -10.655  11.295  69.564  1.00  0.00    -0.035 C  
BRANCH  16  17
HETATM   17  C   UNL     1     -11.951  11.952  70.063  1.00  0.00    -0.332 C  
BRANCH  17  18
HETATM   18  N   UNL     1     -12.232  13.318  69.601  1.00  0.00    -0.248 NA 
HETATM   19  C   UNL     1     -12.538  14.193  70.736  1.00  0.00    -0.362 C  
BRANCH  18  20
HETATM   20  C   UNL     1     -11.056  13.849  68.868  1.00  0.00    -0.266 C  
BRANCH  20  21
HETATM   21  C   UNL     1     -11.373  14.246  67.438  1.00  0.00    -0.349 A  
HETATM   22  C   UNL     1     -12.350  13.551  66.710  1.00  0.00    -0.326 A  
HETATM   23  C   UNL     1     -12.583  13.848  65.368  1.00  0.00    -0.538 A  
HETATM   24  C   UNL     1     -11.848  14.851  64.739  1.00  0.00    -0.385 A  
HETATM   25  C   UNL     1     -10.888  15.565  65.454  1.00  0.00    -0.402 A  
HETATM   26  C   UNL     1     -10.652  15.268  66.799  1.00  0.00    -0.304 A  
ENDBRANCH  20  21
ENDBRANCH  18  20
ENDBRANCH  17  18
ENDBRANCH  16  17
ENDBRANCH  15  16
ENDBRANCH  13  15
ENDBRANCH  10  13
BRANCH  12  27
HETATM   27  C   UNL     1      -8.372   9.717  67.373  1.00  0.00    -0.114 A  
HETATM   28  C   UNL     1      -7.624  12.023  67.489  1.00  0.00    -0.147 A  
HETATM   29  O   UNL     1     -10.511  10.739  63.959  1.00  0.00    -0.358 OA 
HETATM   30  C   UNL     1      -9.131  10.034  66.228  1.00  0.00    -0.180 A  
HETATM   31  O   UNL     1      -9.866  12.830  64.106  1.00  0.00    -0.208 OA 
HETATM   32  C   UNL     1      -9.121  11.337  65.720  1.00  0.00    -0.203 A  
HETATM   33  C   UNL     1      -7.610  10.721  67.986  1.00  0.00    -0.092 A  
HETATM   34  C   UNL     1      -8.381  12.339  66.358  1.00  0.00     0.157 A  
HETATM   35  N   UNL     1      -9.887  11.657  64.509  1.00  0.00    -0.241 N  
ENDBRANCH  12  27
ENDBRANCH   3   5
ENDBRANCH   2   3
TORSDOF 10
ENDMDL
MODEL      167
REMARK 921   NORMALIZED FREE ENERGY PREDICTED BY IDOCK:   -4.52 KCAL/MOL
REMARK 922        TOTAL FREE ENERGY PREDICTED BY IDOCK:   -8.67 KCAL/MOL
REMARK 923 INTER-LIGAND FREE ENERGY PREDICTED BY IDOCK:   -8.74 KCAL/MOL
REMARK 924 INTRA-LIGAND FREE ENERGY PREDICTED BY IDOCK:    0.06 KCAL/MOL
REMARK 927      BINDING AFFINITY PREDICTED BY RF-SCORE:    0.00 PKD
ROOT
HETATM    1  C   UNL     1     -12.446   9.885  71.457  1.00  0.00    -0.411 C  
HETATM    2  O   UNL     1     -11.428  10.433  70.613  1.00  0.00    -0.317 OA 
ENDROOT
BRANCH   2   3
HETATM    3  C   UNL     1     -11.930  11.212  69.620  1.00  0.00    -0.359 C  
HETATM    4  O   UNL     1     -12.751  10.845  68.793  1.00  0.00    -0.122 OA 
BRANCH   3   5
HETATM    5  C   UNL     1     -11.316  12.564  69.633  1.00  0.00    -0.182 C  
HETATM    6  C   UNL     1     -11.917  13.582  70.295  1.00  0.00    -0.316 C  
HETATM    7  C   UNL     1     -13.154  13.487  71.156  1.00  0.00    -0.285 C  
HETATM    8  N   UNL     1     -11.403  14.863  70.193  1.00  0.00    -0.256 NA 
HETATM    9  C   UNL     1     -10.408  15.248  69.314  1.00  0.00    -0.259 C  
HETATM   10  C   UNL     1      -9.742  14.311  68.598  1.00  0.00    -0.213 C  
HETATM   11  C   UNL     1     -10.134  16.734  69.262  1.00  0.00    -0.240 C  
HETATM   12  C   UNL     1     -10.056  12.815  68.786  1.00  0.00    -0.057 C  
BRANCH  10  13
HETATM   13  C   UNL     1      -8.624  14.723  67.701  1.00  0.00    -0.174 C  
HETATM   14  O   UNL     1      -7.582  14.107  67.538  1.00  0.00    -0.166 OA 
BRANCH  13  15
HETATM   15  O   UNL     1      -9.023  15.769  66.938  1.00  0.00    -0.208 OA 
BRANCH  15  16
HETATM   16  C   UNL     1      -7.942  16.424  66.253  1.00  0.00    -0.229 C  
BRANCH  16  17
HETATM   17  C   UNL     1      -7.245  17.296  67.308  1.00  0.00    -0.165 C  
BRANCH  17  18
HETATM   18  N   UNL     1      -6.220  18.235  66.832  1.00  0.00    -0.169 NA 
HETATM   19  C   UNL     1      -5.966  18.038  65.402  1.00  0.00    -0.111 C  
BRANCH  18  20
HETATM   20  C   UNL     1      -6.671  19.628  67.069  1.00  0.00    -0.194 C  
BRANCH  20  21
HETATM   21  C   UNL     1      -8.181  19.763  67.144  1.00  0.00    -0.335 A  
HETATM   22  C   UNL     1      -8.825  19.830  68.389  1.00  0.00    -0.306 A  
HETATM   23  C   UNL     1     -10.216  19.861  68.469  1.00  0.00    -0.529 A  
HETATM   24  C   UNL     1     -10.982  19.834  67.305  1.00  0.00    -0.345 A  
HETATM   25  C   UNL     1     -10.357  19.788  66.060  1.00  0.00    -0.612 A  
HETATM   26  C   UNL     1      -8.963  19.755  65.977  1.00  0.00    -0.302 A  
ENDBRANCH  20  21
ENDBRANCH  18  20
ENDBRANCH  17  18
ENDBRANCH  16  17
ENDBRANCH  15  16
ENDBRANCH  13  15
ENDBRANCH  10  13
BRANCH  12  27
HETATM   27  C   UNL     1     -10.125  12.078  67.445  1.00  0.00    -0.206 A  
HETATM   28  C   UNL     1     -11.068  11.825  65.223  1.00  0.00    -0.333 A  
HETATM   29  O   UNL     1      -7.821   8.702  66.686  1.00  0.00    -0.095 OA 
HETATM   30  C   UNL     1      -9.348  10.921  67.233  1.00  0.00    -0.168 A  
HETATM   31  O   UNL     1      -8.720   8.459  64.701  1.00  0.00    -0.085 OA 
HETATM   32  C   UNL     1      -9.431  10.235  66.016  1.00  0.00    -0.185 A  
HETATM   33  C   UNL     1     -10.971  12.528  66.423  1.00  0.00    -0.309 A  
HETATM   34  C   UNL     1     -10.303  10.676  65.015  1.00  0.00    -0.341 A  
HETATM   35  N   UNL     1      -8.598   9.048  65.785  1.00  0.00    -0.150 N  
ENDBRANCH  12  27
ENDBRANCH   3   5
ENDBRANCH   2   3
TORSDOF 10
ENDMDL
MODEL      168
REMARK 921   NORMALIZED FREE ENERGY PREDICTED BY IDOCK:   -4.51 KCAL/MOL
REMARK 922        TOTAL FREE ENERGY PREDICTED BY IDOCK:   -8.66 KCAL/MOL
REMARK 923 INTER-LIGAND FREE ENERGY PREDICTED BY IDOCK:   -8.82 KCAL/MOL
REMARK 924 INTRA-LIGAND FREE ENERGY PREDICTED BY IDOCK:    0.16 KCAL/MOL
REMARK 927      BINDING AFFINITY PREDICTED BY RF-SCORE:    0.00 PKD
ROOT
HETATM    1  C   UNL     1      -9.983  18.121  69.560  1.00  0.00     0.218 C  
HETATM    2  O   UNL     1      -8.694  17.625  69.184  1.00  0.00    -0.066 OA 
ENDROOT
BRANCH   2   3
HETATM    3  C   UNL     1      -8.703  16.297  68.900  1.00  0.00    -0.253 C  
HETATM    4  O   UNL     1      -8.233  15.427  69.617  1.00  0.00    -0.235 OA 
BRANCH   3   5
HETATM    5  C   UNL     1      -9.318  16.033  67.574  1.00  0.00    -0.217 C  
HETATM    6  C   UNL     1      -9.128  16.897  66.548  1.00  0.00    -0.273 C  
HETATM    7  C   UNL     1      -8.236  18.115  66.553  1.00  0.00    -0.292 C  
HETATM    8  N   UNL     1      -9.809  16.706  65.359  1.00  0.00    -0.505 NA 
HETATM    9  C   UNL     1     -10.829  15.793  65.167  1.00  0.00    -0.428 C  
HETATM   10  C   UNL     1     -11.107  14.883  66.132  1.00  0.00    -0.335 C  
HETATM   11  C   UNL     1     -11.539  15.888  63.837  1.00  0.00     0.364 C  
HETATM   12  C   UNL     1     -10.267  14.831  67.423  1.00  0.00    -0.236 C  
BRANCH  10  13
HETATM   13  C   UNL     1     -12.161  13.856  65.896  1.00  0.00    -0.467 C  
HETATM   14  O   UNL     1     -13.366  14.040  65.989  1.00  0.00    -0.213 OA 
BRANCH  13  15
HETATM   15  O   UNL     1     -11.596  12.748  65.359  1.00  0.00    -0.326 OA 
BRANCH  15  16
HETATM   16  C   UNL     1     -11.397  11.688  66.309  1.00  0.00    -0.227 C  
BRANCH  16  17
HETATM   17  C   UNL     1     -10.125  10.953  65.857  1.00  0.00    -0.252 C  
BRANCH  17  18
HETATM   18  N   UNL     1      -9.479  10.067  66.834  1.00  0.00    -0.161 NA 
HETATM   19  C   UNL     1      -8.537  10.819  67.668  1.00  0.00    -0.123 C  
BRANCH  18  20
HETATM   20  C   UNL     1     -10.510   9.437  67.695  1.00  0.00    -0.268 C  
BRANCH  20  21
HETATM   21  C   UNL     1     -10.292   7.948  67.895  1.00  0.00    -0.281 A  
HETATM   22  C   UNL     1     -10.772   7.311  69.049  1.00  0.00    -0.183 A  
HETATM   23  C   UNL     1     -10.497   5.965  69.285  1.00  0.00    -0.342 A  
HETATM   24  C   UNL     1      -9.746   5.235  68.366  1.00  0.00    -0.189 A  
HETATM   25  C   UNL     1      -9.279   5.849  67.204  1.00  0.00    -0.116 A  
HETATM   26  C   UNL     1      -9.552   7.198  66.966  1.00  0.00    -0.204 A  
ENDBRANCH  20  21
ENDBRANCH  18  20
ENDBRANCH  17  18
ENDBRANCH  16  17
ENDBRANCH  15  16
ENDBRANCH  13  15
ENDBRANCH  10  13
BRANCH  12  27
HETATM   27  C   UNL     1     -11.148  14.650  68.663  1.00  0.00    -0.276 A  
HETATM   28  C   UNL     1     -12.536  15.588  70.419  1.00  0.00    -0.421 A  
HETATM   29  O   UNL     1     -11.775  10.913  70.371  1.00  0.00    -0.307 OA 
HETATM   30  C   UNL     1     -11.317  13.371  69.230  1.00  0.00    -0.314 A  
HETATM   31  O   UNL     1     -12.986  11.783  71.979  1.00  0.00    -0.408 OA 
HETATM   32  C   UNL     1     -12.101  13.212  70.378  1.00  0.00    -0.317 A  
HETATM   33  C   UNL     1     -11.777  15.750  69.261  1.00  0.00    -0.384 A  
HETATM   34  C   UNL     1     -12.698  14.322  70.985  1.00  0.00    -0.430 A  
HETATM   35  N   UNL     1     -12.301  11.874  70.949  1.00  0.00    -0.356 N  
ENDBRANCH  12  27
ENDBRANCH   3   5
ENDBRANCH   2   3
TORSDOF 10
ENDMDL
MODEL      169
REMARK 921   NORMALIZED FREE ENERGY PREDICTED BY IDOCK:   -4.46 KCAL/MOL
REMARK 922        TOTAL FREE ENERGY PREDICTED BY IDOCK:   -8.58 KCAL/MOL
REMARK 923 INTER-LIGAND FREE ENERGY PREDICTED BY IDOCK:   -6.82 KCAL/MOL
REMARK 924 INTRA-LIGAND FREE ENERGY PREDICTED BY IDOCK:   -1.76 KCAL/MOL
REMARK 927      BINDING AFFINITY PREDICTED BY RF-SCORE:    0.00 PKD
ROOT
HETATM    1  C   UNL     1     -11.956  13.525  64.247  1.00  0.00    -0.432 C  
HETATM    2  O   UNL     1     -11.179  12.457  64.800  1.00  0.00    -0.293 OA 
ENDROOT
BRANCH   2   3
HETATM    3  C   UNL     1     -10.499  12.824  65.916  1.00  0.00    -0.277 C  
HETATM    4  O   UNL     1      -9.600  13.651  65.945  1.00  0.00    -0.226 OA 
BRANCH   3   5
HETATM    5  C   UNL     1     -10.951  12.052  67.102  1.00  0.00    -0.320 C  
HETATM    6  C   UNL     1     -11.586  12.677  68.122  1.00  0.00    -0.338 C  
HETATM    7  C   UNL     1     -12.005  14.127  68.166  1.00  0.00    -0.367 C  
HETATM    8  N   UNL     1     -11.887  11.971  69.274  1.00  0.00    -0.319 NA 
HETATM    9  C   UNL     1     -11.435  10.699  69.564  1.00  0.00    -0.291 C  
HETATM   10  C   UNL     1     -10.783   9.983  68.615  1.00  0.00    -0.256 C  
HETATM   11  C   UNL     1     -11.751  10.203  70.957  1.00  0.00    -0.470 C  
HETATM   12  C   UNL     1     -10.581  10.562  67.202  1.00  0.00    -0.319 C  
BRANCH  10  13
HETATM   13  C   UNL     1     -10.356   8.585  68.908  1.00  0.00    -0.210 C  
HETATM   14  O   UNL     1     -10.637   7.602  68.239  1.00  0.00    -0.190 OA 
BRANCH  13  15
HETATM   15  O   UNL     1      -9.438   8.596  69.905  1.00  0.00    -0.163 OA 
BRANCH  15  16
HETATM   16  C   UNL     1      -8.813   7.319  70.122  1.00  0.00    -0.145 C  
BRANCH  16  17
HETATM   17  C   UNL     1      -7.498   7.357  69.328  1.00  0.00    -0.092 C  
BRANCH  17  18
HETATM   18  N   UNL     1      -6.512   6.306  69.614  1.00  0.00    -0.041 NA 
HETATM   19  C   UNL     1      -6.990   5.429  70.687  1.00  0.00    -0.056 C  
BRANCH  18  20
HETATM   20  C   UNL     1      -6.267   5.505  68.390  1.00  0.00    -0.030 C  
BRANCH  20  21
HETATM   21  C   UNL     1      -7.506   5.334  67.530  1.00  0.00    -0.084 A  
HETATM   22  C   UNL     1      -8.447   4.339  67.833  1.00  0.00    -0.100 A  
HETATM   23  C   UNL     1      -9.539   4.113  66.998  1.00  0.00    -0.228 A  
HETATM   24  C   UNL     1      -9.710   4.887  65.851  1.00  0.00    -0.197 A  
HETATM   25  C   UNL     1      -8.796   5.893  65.546  1.00  0.00    -0.100 A  
HETATM   26  C   UNL     1      -7.699   6.120  66.382  1.00  0.00    -0.102 A  
ENDBRANCH  20  21
ENDBRANCH  18  20
ENDBRANCH  17  18
ENDBRANCH  16  17
ENDBRANCH  15  16
ENDBRANCH  13  15
ENDBRANCH  10  13
BRANCH  12  27
HETATM   27  C   UNL     1      -9.165  10.298  66.680  1.00  0.00    -0.179 A  
HETATM   28  C   UNL     1      -6.758  10.469  66.934  1.00  0.00    -0.086 A  
HETATM   29  O   UNL     1      -8.497   8.467  63.009  1.00  0.00    -0.164 OA 
HETATM   30  C   UNL     1      -8.977   9.698  65.419  1.00  0.00    -0.231 A  
HETATM   31  O   UNL     1      -6.325   8.675  63.231  1.00  0.00    -0.085 OA 
HETATM   32  C   UNL     1      -7.683   9.481  64.933  1.00  0.00    -0.115 A  
HETATM   33  C   UNL     1      -8.044  10.665  67.435  1.00  0.00    -0.112 A  
HETATM   34  C   UNL     1      -6.571   9.881  65.682  1.00  0.00    -0.093 A  
HETATM   35  N   UNL     1      -7.488   8.828  63.632  1.00  0.00    -0.104 N  
ENDBRANCH  12  27
ENDBRANCH   3   5
ENDBRANCH   2   3
TORSDOF 10
ENDMDL
MODEL      170
REMARK 921   NORMALIZED FREE ENERGY PREDICTED BY IDOCK:   -4.44 KCAL/MOL
REMARK 922        TOTAL FREE ENERGY PREDICTED BY IDOCK:   -8.55 KCAL/MOL
REMARK 923 INTER-LIGAND FREE ENERGY PREDICTED BY IDOCK:   -7.74 KCAL/MOL
REMARK 924 INTRA-LIGAND FREE ENERGY PREDICTED BY IDOCK:   -0.82 KCAL/MOL
REMARK 927      BINDING AFFINITY PREDICTED BY RF-SCORE:    0.00 PKD
ROOT
HETATM    1  C   UNL     1     -10.694   7.671  69.510  1.00  0.00    -0.209 C  
HETATM    2  O   UNL     1     -10.081   8.959  69.384  1.00  0.00    -0.190 OA 
ENDROOT
BRANCH   2   3
HETATM    3  C   UNL     1      -9.003   8.951  68.558  1.00  0.00    -0.134 C  
HETATM    4  O   UNL     1      -8.844   8.176  67.627  1.00  0.00    -0.135 OA 
BRANCH   3   5
HETATM    5  C   UNL     1      -8.008   9.977  68.960  1.00  0.00    -0.108 C  
HETATM    6  C   UNL     1      -7.363   9.876  70.147  1.00  0.00    -0.160 C  
HETATM    7  C   UNL     1      -7.460   8.732  71.128  1.00  0.00    -0.115 C  
HETATM    8  N   UNL     1      -6.535  10.903  70.566  1.00  0.00    -0.321 NA 
HETATM    9  C   UNL     1      -6.434  12.138  69.953  1.00  0.00    -0.009 C  
HETATM   10  C   UNL     1      -7.043  12.350  68.762  1.00  0.00    -0.098 C  
HETATM   11  C   UNL     1      -5.597  13.158  70.691  1.00  0.00    -0.179 C  
HETATM   12  C   UNL     1      -7.812  11.212  68.063  1.00  0.00    -0.114 C  
BRANCH  10  13
HETATM   13  C   UNL     1      -6.877  13.660  68.070  1.00  0.00    -0.138 C  
HETATM   14  O   UNL     1      -6.243  13.845  67.042  1.00  0.00    -0.030 OA 
BRANCH  13  15
HETATM   15  O   UNL     1      -7.706  14.573  68.633  1.00  0.00    -0.124 OA 
BRANCH  15  16
HETATM   16  C   UNL     1      -8.626  15.163  67.700  1.00  0.00    -0.172 C  
BRANCH  16  17
HETATM   17  C   UNL     1      -8.493  16.683  67.884  1.00  0.00    -0.194 C  
BRANCH  17  18
HETATM   18  N   UNL     1      -9.637  17.510  67.482  1.00  0.00    -0.261 NA 
HETATM   19  C   UNL     1     -10.252  18.143  68.653  1.00  0.00    -0.366 C  
BRANCH  18  20
HETATM   20  C   UNL     1      -9.188  18.556  66.531  1.00  0.00    -0.310 C  
BRANCH  20  21
HETATM   21  C   UNL     1      -7.810  19.104  66.852  1.00  0.00    -0.266 A  
HETATM   22  C   UNL     1      -7.669  20.224  67.685  1.00  0.00    -0.328 A  
HETATM   23  C   UNL     1      -6.416  20.789  67.911  1.00  0.00    -0.376 A  
HETATM   24  C   UNL     1      -5.284  20.237  67.315  1.00  0.00    -0.173 A  
HETATM   25  C   UNL     1      -5.404  19.112  66.501  1.00  0.00    -0.160 A  
HETATM   26  C   UNL     1      -6.660  18.544  66.271  1.00  0.00    -0.249 A  
ENDBRANCH  20  21
ENDBRANCH  18  20
ENDBRANCH  17  18
ENDBRANCH  16  17
ENDBRANCH  15  16
ENDBRANCH  13  15
ENDBRANCH  10  13
BRANCH  12  27
HETATM   27  C   UNL     1      -9.143  11.701  67.483  1.00  0.00    -0.172 A  
HETATM   28  C   UNL     1     -11.379  12.590  67.793  1.00  0.00    -0.351 A  
HETATM   29  O   UNL     1      -9.897  11.639  63.396  1.00  0.00    -0.357 OA 
HETATM   30  C   UNL     1      -9.373  11.641  66.093  1.00  0.00    -0.237 A  
HETATM   31  O   UNL     1     -11.933  12.395  63.698  1.00  0.00    -0.450 OA 
HETATM   32  C   UNL     1     -10.598  12.065  65.568  1.00  0.00    -0.273 A  
HETATM   33  C   UNL     1     -10.152  12.193  68.321  1.00  0.00    -0.210 A  
HETATM   34  C   UNL     1     -11.610  12.525  66.417  1.00  0.00    -0.449 A  
HETATM   35  N   UNL     1     -10.825  12.030  64.117  1.00  0.00    -0.320 N  
ENDBRANCH  12  27
ENDBRANCH   3   5
ENDBRANCH   2   3
TORSDOF 10
ENDMDL
MODEL      171
REMARK 921   NORMALIZED FREE ENERGY PREDICTED BY IDOCK:   -4.43 KCAL/MOL
REMARK 922        TOTAL FREE ENERGY PREDICTED BY IDOCK:   -8.54 KCAL/MOL
REMARK 923 INTER-LIGAND FREE ENERGY PREDICTED BY IDOCK:   -7.84 KCAL/MOL
REMARK 924 INTRA-LIGAND FREE ENERGY PREDICTED BY IDOCK:   -0.70 KCAL/MOL
REMARK 927      BINDING AFFINITY PREDICTED BY RF-SCORE:    0.00 PKD
ROOT
HETATM    1  C   UNL     1      -7.495   4.473  67.833  1.00  0.00    -0.069 C  
HETATM    2  O   UNL     1      -7.453   5.866  67.508  1.00  0.00    -0.076 OA 
ENDROOT
BRANCH   2   3
HETATM    3  C   UNL     1      -8.666   6.362  67.154  1.00  0.00    -0.110 C  
HETATM    4  O   UNL     1      -9.285   6.041  66.151  1.00  0.00    -0.157 OA 
BRANCH   3   5
HETATM    5  C   UNL     1      -9.132   7.390  68.120  1.00  0.00    -0.131 C  
HETATM    6  C   UNL     1     -10.172   7.129  68.947  1.00  0.00    -0.186 C  
HETATM    7  C   UNL     1     -10.898   5.812  69.090  1.00  0.00    -0.355 C  
HETATM    8  N   UNL     1     -10.676   8.137  69.751  1.00  0.00    -0.245 NA 
HETATM    9  C   UNL     1     -10.325   9.470  69.662  1.00  0.00    -0.221 C  
HETATM   10  C   UNL     1      -9.299   9.844  68.860  1.00  0.00    -0.170 C  
HETATM   11  C   UNL     1     -11.136  10.409  70.525  1.00  0.00    -0.343 C  
HETATM   12  C   UNL     1      -8.492   8.789  68.080  1.00  0.00    -0.126 C  
BRANCH  10  13
HETATM   13  C   UNL     1      -8.878  11.274  68.818  1.00  0.00    -0.102 C  
HETATM   14  O   UNL     1      -7.779  11.700  69.140  1.00  0.00    -0.055 OA 
BRANCH  13  15
HETATM   15  O   UNL     1      -9.822  12.000  68.171  1.00  0.00    -0.190 OA 
BRANCH  15  16
HETATM   16  C   UNL     1      -9.976  13.332  68.691  1.00  0.00    -0.122 C  
BRANCH  16  17
HETATM   17  C   UNL     1      -9.342  14.264  67.647  1.00  0.00    -0.201 C  
BRANCH  17  18
HETATM   18  N   UNL     1      -9.868  15.633  67.563  1.00  0.00    -0.227 NA 
HETATM   19  C   UNL     1     -11.252  15.683  68.043  1.00  0.00    -0.339 C  
BRANCH  18  20
HETATM   20  C   UNL     1      -9.026  16.543  68.378  1.00  0.00    -0.219 C  
BRANCH  20  21
HETATM   21  C   UNL     1      -9.189  18.004  68.002  1.00  0.00    -0.273 A  
HETATM   22  C   UNL     1      -9.837  18.891  68.874  1.00  0.00    -0.447 A  
HETATM   23  C   UNL     1     -10.073  20.213  68.499  1.00  0.00    -0.400 A  
HETATM   24  C   UNL     1      -9.656  20.667  67.249  1.00  0.00    -0.558 A  
HETATM   25  C   UNL     1      -8.993  19.804  66.379  1.00  0.00    -0.440 A  
HETATM   26  C   UNL     1      -8.756  18.478  66.752  1.00  0.00    -0.283 A  
ENDBRANCH  20  21
ENDBRANCH  18  20
ENDBRANCH  17  18
ENDBRANCH  16  17
ENDBRANCH  15  16
ENDBRANCH  13  15
ENDBRANCH  10  13
BRANCH  12  27
HETATM   27  C   UNL     1      -8.214   9.239  66.642  1.00  0.00    -0.115 A  
HETATM   28  C   UNL     1      -6.715   9.422  64.743  1.00  0.00    -0.087 A  
HETATM   29  O   UNL     1     -11.059  11.281  64.403  1.00  0.00    -0.310 OA 
HETATM   30  C   UNL     1      -9.194   9.952  65.922  1.00  0.00    -0.223 A  
HETATM   31  O   UNL     1      -9.674  11.482  62.714  1.00  0.00    -0.340 OA 
HETATM   32  C   UNL     1      -8.928  10.384  64.618  1.00  0.00    -0.209 A  
HETATM   33  C   UNL     1      -6.982   8.968  66.033  1.00  0.00    -0.085 A  
HETATM   34  C   UNL     1      -7.683  10.134  64.031  1.00  0.00    -0.136 A  
HETATM   35  N   UNL     1      -9.961  11.099  63.858  1.00  0.00    -0.296 N  
ENDBRANCH  12  27
ENDBRANCH   3   5
ENDBRANCH   2   3
TORSDOF 10
ENDMDL
MODEL      172
REMARK 921   NORMALIZED FREE ENERGY PREDICTED BY IDOCK:   -4.43 KCAL/MOL
REMARK 922        TOTAL FREE ENERGY PREDICTED BY IDOCK:   -8.53 KCAL/MOL
REMARK 923 INTER-LIGAND FREE ENERGY PREDICTED BY IDOCK:   -6.26 KCAL/MOL
REMARK 924 INTRA-LIGAND FREE ENERGY PREDICTED BY IDOCK:   -2.27 KCAL/MOL
REMARK 927      BINDING AFFINITY PREDICTED BY RF-SCORE:    0.00 PKD
ROOT
HETATM    1  C   UNL     1      -5.765   4.200  69.426  1.00  0.00    -0.017 C  
HETATM    2  O   UNL     1      -6.012   5.313  68.561  1.00  0.00    -0.019 OA 
ENDROOT
BRANCH   2   3
HETATM    3  C   UNL     1      -7.144   5.990  68.882  1.00  0.00    -0.081 C  
HETATM    4  O   UNL     1      -8.055   5.542  69.562  1.00  0.00    -0.098 OA 
BRANCH   3   5
HETATM    5  C   UNL     1      -7.163   7.338  68.259  1.00  0.00    -0.094 C  
HETATM    6  C   UNL     1      -7.055   8.448  69.028  1.00  0.00    -0.069 C  
HETATM    7  C   UNL     1      -6.805   8.489  70.516  1.00  0.00    -0.039 C  
HETATM    8  N   UNL     1      -7.202   9.697  68.450  1.00  0.00    -0.074 NA 
HETATM    9  C   UNL     1      -7.633   9.925  67.157  1.00  0.00    -0.092 C  
HETATM   10  C   UNL     1      -7.778   8.884  66.302  1.00  0.00    -0.098 C  
HETATM   11  C   UNL     1      -7.882  11.374  66.806  1.00  0.00    -0.157 C  
HETATM   12  C   UNL     1      -7.424   7.452  66.747  1.00  0.00    -0.096 C  
BRANCH  10  13
HETATM   13  C   UNL     1      -8.178   9.139  64.889  1.00  0.00    -0.153 C  
HETATM   14  O   UNL     1      -7.512   8.863  63.901  1.00  0.00    -0.105 OA 
BRANCH  13  15
HETATM   15  O   UNL     1      -9.475   9.530  64.853  1.00  0.00    -0.259 OA 
BRANCH  15  16
HETATM   16  C   UNL     1      -9.765  10.457  63.794  1.00  0.00    -0.290 C  
BRANCH  16  17
HETATM   17  C   UNL     1     -10.952  11.299  64.287  1.00  0.00    -0.288 C  
BRANCH  17  18
HETATM   18  N   UNL     1     -10.693  12.253  65.372  1.00  0.00    -0.275 NA 
HETATM   19  C   UNL     1     -10.371  13.576  64.829  1.00  0.00    -0.385 C  
BRANCH  18  20
HETATM   20  C   UNL     1     -11.888  12.353  66.246  1.00  0.00    -0.364 C  
BRANCH  20  21
HETATM   21  C   UNL     1     -11.704  11.672  67.590  1.00  0.00    -0.300 A  
HETATM   22  C   UNL     1     -11.943  12.376  68.779  1.00  0.00    -0.276 A  
HETATM   23  C   UNL     1     -11.688  11.789  70.017  1.00  0.00    -0.386 A  
HETATM   24  C   UNL     1     -11.199  10.485  70.083  1.00  0.00    -0.389 A  
HETATM   25  C   UNL     1     -10.975   9.765  68.910  1.00  0.00    -0.183 A  
HETATM   26  C   UNL     1     -11.228  10.352  67.668  1.00  0.00    -0.287 A  
ENDBRANCH  20  21
ENDBRANCH  18  20
ENDBRANCH  17  18
ENDBRANCH  16  17
ENDBRANCH  15  16
ENDBRANCH  13  15
ENDBRANCH  10  13
BRANCH  12  27
HETATM   27  C   UNL     1      -8.473   6.439  66.280  1.00  0.00    -0.131 A  
HETATM   28  C   UNL     1     -10.716   5.519  66.398  1.00  0.00    -0.262 A  
HETATM   29  O   UNL     1      -7.582   3.508  63.470  1.00  0.00    -0.061 OA 
HETATM   30  C   UNL     1      -8.128   5.443  65.344  1.00  0.00    -0.120 A  
HETATM   31  O   UNL     1      -9.598   2.659  63.625  1.00  0.00    -0.104 OA 
HETATM   32  C   UNL     1      -9.081   4.503  64.938  1.00  0.00    -0.152 A  
HETATM   33  C   UNL     1      -9.779   6.474  66.788  1.00  0.00    -0.208 A  
HETATM   34  C   UNL     1     -10.372   4.528  65.476  1.00  0.00    -0.254 A  
HETATM   35  N   UNL     1      -8.728   3.485  63.940  1.00  0.00    -0.093 N  
ENDBRANCH  12  27
ENDBRANCH   3   5
ENDBRANCH   2   3
TORSDOF 10
ENDMDL
MODEL      173
REMARK 921   NORMALIZED FREE ENERGY PREDICTED BY IDOCK:   -4.41 KCAL/MOL
REMARK 922        TOTAL FREE ENERGY PREDICTED BY IDOCK:   -8.51 KCAL/MOL
REMARK 923 INTER-LIGAND FREE ENERGY PREDICTED BY IDOCK:   -6.90 KCAL/MOL
REMARK 924 INTRA-LIGAND FREE ENERGY PREDICTED BY IDOCK:   -1.61 KCAL/MOL
REMARK 927      BINDING AFFINITY PREDICTED BY RF-SCORE:    0.00 PKD
ROOT
HETATM    1  C   UNL     1      -6.287   5.233  71.479  1.00  0.00    -0.034 C  
HETATM    2  O   UNL     1      -7.126   5.317  70.322  1.00  0.00    -0.054 OA 
ENDROOT
BRANCH   2   3
HETATM    3  C   UNL     1      -8.197   6.130  70.506  1.00  0.00    -0.114 C  
HETATM    4  O   UNL     1      -9.272   5.775  70.967  1.00  0.00    -0.147 OA 
BRANCH   3   5
HETATM    5  C   UNL     1      -7.917   7.508  70.029  1.00  0.00    -0.112 C  
HETATM    6  C   UNL     1      -7.863   8.538  70.907  1.00  0.00    -0.107 C  
HETATM    7  C   UNL     1      -7.959   8.442  72.411  1.00  0.00    -0.164 C  
HETATM    8  N   UNL     1      -7.729   9.833  70.436  1.00  0.00    -0.210 NA 
HETATM    9  C   UNL     1      -7.823  10.206  69.109  1.00  0.00    -0.120 C  
HETATM   10  C   UNL     1      -7.885   9.255  68.146  1.00  0.00    -0.095 C  
HETATM   11  C   UNL     1      -7.817  11.696  68.856  1.00  0.00    -0.040 C  
HETATM   12  C   UNL     1      -7.809   7.762  68.515  1.00  0.00    -0.120 C  
BRANCH  10  13
HETATM   13  C   UNL     1      -7.918   9.659  66.711  1.00  0.00    -0.105 C  
HETATM   14  O   UNL     1      -6.969   9.624  65.942  1.00  0.00    -0.091 OA 
BRANCH  13  15
HETATM   15  O   UNL     1      -9.202   9.871  66.333  1.00  0.00    -0.149 OA 
BRANCH  15  16
HETATM   16  C   UNL     1      -9.419  11.163  65.741  1.00  0.00    -0.221 C  
BRANCH  16  17
HETATM   17  C   UNL     1     -10.613  11.772  66.492  1.00  0.00    -0.253 C  
BRANCH  17  18
HETATM   18  N   UNL     1     -10.478  13.161  66.951  1.00  0.00    -0.255 NA 
HETATM   19  C   UNL     1      -9.837  13.984  65.922  1.00  0.00    -0.281 C  
BRANCH  18  20
HETATM   20  C   UNL     1     -11.818  13.715  67.267  1.00  0.00    -0.391 C  
BRANCH  20  21
HETATM   21  C   UNL     1     -11.996  14.046  68.737  1.00  0.00    -0.382 A  
HETATM   22  C   UNL     1     -12.110  13.019  69.685  1.00  0.00    -0.304 A  
HETATM   23  C   UNL     1     -12.367  13.312  71.024  1.00  0.00    -0.379 A  
HETATM   24  C   UNL     1     -12.503  14.637  71.434  1.00  0.00    -0.410 A  
HETATM   25  C   UNL     1     -12.373  15.670  70.507  1.00  0.00    -0.443 A  
HETATM   26  C   UNL     1     -12.117  15.379  69.164  1.00  0.00    -0.270 A  
ENDBRANCH  20  21
ENDBRANCH  18  20
ENDBRANCH  17  18
ENDBRANCH  16  17
ENDBRANCH  15  16
ENDBRANCH  13  15
ENDBRANCH  10  13
BRANCH  12  27
HETATM   27  C   UNL     1      -8.832   6.932  67.732  1.00  0.00    -0.119 A  
HETATM   28  C   UNL     1     -11.134   6.338  67.243  1.00  0.00    -0.387 A  
HETATM   29  O   UNL     1      -7.660   4.045  64.982  1.00  0.00    -0.076 OA 
HETATM   30  C   UNL     1      -8.398   5.944  66.827  1.00  0.00    -0.109 A  
HETATM   31  O   UNL     1      -9.743   3.486  64.588  1.00  0.00    -0.158 OA 
HETATM   32  C   UNL     1      -9.334   5.171  66.132  1.00  0.00    -0.155 A  
HETATM   33  C   UNL     1     -10.207   7.129  67.920  1.00  0.00    -0.231 A  
HETATM   34  C   UNL     1     -10.704   5.354  66.350  1.00  0.00    -0.284 A  
HETATM   35  N   UNL     1      -8.880   4.163  65.165  1.00  0.00    -0.125 N  
ENDBRANCH  12  27
ENDBRANCH   3   5
ENDBRANCH   2   3
TORSDOF 10
ENDMDL
MODEL      174
REMARK 921   NORMALIZED FREE ENERGY PREDICTED BY IDOCK:   -4.41 KCAL/MOL
REMARK 922        TOTAL FREE ENERGY PREDICTED BY IDOCK:   -8.50 KCAL/MOL
REMARK 923 INTER-LIGAND FREE ENERGY PREDICTED BY IDOCK:   -6.64 KCAL/MOL
REMARK 924 INTRA-LIGAND FREE ENERGY PREDICTED BY IDOCK:   -1.86 KCAL/MOL
REMARK 927      BINDING AFFINITY PREDICTED BY RF-SCORE:    0.00 PKD
ROOT
HETATM    1  C   UNL     1     -11.782  12.259  68.076  1.00  0.00    -0.356 C  
HETATM    2  O   UNL     1     -11.176  11.033  67.654  1.00  0.00    -0.281 OA 
ENDROOT
BRANCH   2   3
HETATM    3  C   UNL     1      -9.933  11.209  67.137  1.00  0.00    -0.186 C  
HETATM    4  O   UNL     1      -9.693  11.440  65.961  1.00  0.00    -0.208 OA 
BRANCH   3   5
HETATM    5  C   UNL     1      -8.887  11.039  68.177  1.00  0.00    -0.141 C  
HETATM    6  C   UNL     1      -8.086  12.076  68.518  1.00  0.00    -0.123 C  
HETATM    7  C   UNL     1      -8.192  13.496  68.015  1.00  0.00    -0.163 C  
HETATM    8  N   UNL     1      -7.034  11.870  69.394  1.00  0.00    -0.053 NA 
HETATM    9  C   UNL     1      -6.602  10.633  69.833  1.00  0.00    -0.137 C  
HETATM   10  C   UNL     1      -7.327   9.525  69.547  1.00  0.00    -0.077 C  
HETATM   11  C   UNL     1      -5.328  10.647  70.647  1.00  0.00    -0.085 C  
HETATM   12  C   UNL     1      -8.653   9.638  68.771  1.00  0.00    -0.125 C  
BRANCH  10  13
HETATM   13  C   UNL     1      -6.895   8.202  70.080  1.00  0.00    -0.040 C  
HETATM   14  O   UNL     1      -5.977   7.525  69.642  1.00  0.00    -0.023 OA 
BRANCH  13  15
HETATM   15  O   UNL     1      -7.534   7.959  71.251  1.00  0.00    -0.067 OA 
BRANCH  15  16
HETATM   16  C   UNL     1      -8.093   6.638  71.336  1.00  0.00    -0.111 C  
BRANCH  16  17
HETATM   17  C   UNL     1      -9.467   6.806  72.003  1.00  0.00    -0.141 C  
BRANCH  17  18
HETATM   18  N   UNL     1     -10.444   5.727  71.808  1.00  0.00    -0.221 NA 
HETATM   19  C   UNL     1     -11.131   5.421  73.065  1.00  0.00    -0.313 C  
BRANCH  18  20
HETATM   20  C   UNL     1     -11.438   6.133  70.784  1.00  0.00    -0.251 C  
BRANCH  20  21
HETATM   21  C   UNL     1     -12.093   7.468  71.084  1.00  0.00    -0.335 A  
HETATM   22  C   UNL     1     -11.415   8.666  70.816  1.00  0.00    -0.293 A  
HETATM   23  C   UNL     1     -11.970   9.894  71.174  1.00  0.00    -0.473 A  
HETATM   24  C   UNL     1     -13.216   9.941  71.796  1.00  0.00    -0.535 A  
HETATM   25  C   UNL     1     -13.912   8.760  72.051  1.00  0.00    -0.511 A  
HETATM   26  C   UNL     1     -13.357   7.528  71.695  1.00  0.00    -0.414 A  
ENDBRANCH  20  21
ENDBRANCH  18  20
ENDBRANCH  17  18
ENDBRANCH  16  17
ENDBRANCH  15  16
ENDBRANCH  13  15
ENDBRANCH  10  13
BRANCH  12  27
HETATM   27  C   UNL     1      -8.779   8.547  67.703  1.00  0.00    -0.136 A  
HETATM   28  C   UNL     1      -9.927   6.614  66.788  1.00  0.00    -0.238 A  
HETATM   29  O   UNL     1      -6.014   8.176  64.622  1.00  0.00    -0.048 OA 
HETATM   30  C   UNL     1      -7.808   8.436  66.688  1.00  0.00    -0.093 A  
HETATM   31  O   UNL     1      -7.035   6.401  63.837  1.00  0.00    -0.040 OA 
HETATM   32  C   UNL     1      -7.912   7.422  65.728  1.00  0.00    -0.118 A  
HETATM   33  C   UNL     1      -9.844   7.636  67.732  1.00  0.00    -0.196 A  
HETATM   34  C   UNL     1      -8.961   6.500  65.786  1.00  0.00    -0.060 A  
HETATM   35  N   UNL     1      -6.916   7.327  64.653  1.00  0.00    -0.050 N  
ENDBRANCH  12  27
ENDBRANCH   3   5
ENDBRANCH   2   3
TORSDOF 10
ENDMDL
MODEL      175
REMARK 921   NORMALIZED FREE ENERGY PREDICTED BY IDOCK:   -4.40 KCAL/MOL
REMARK 922        TOTAL FREE ENERGY PREDICTED BY IDOCK:   -8.49 KCAL/MOL
REMARK 923 INTER-LIGAND FREE ENERGY PREDICTED BY IDOCK:   -7.30 KCAL/MOL
REMARK 924 INTRA-LIGAND FREE ENERGY PREDICTED BY IDOCK:   -1.19 KCAL/MOL
REMARK 927      BINDING AFFINITY PREDICTED BY RF-SCORE:    0.00 PKD
ROOT
HETATM    1  C   UNL     1      -9.297  14.897  70.198  1.00  0.00     0.607 C  
HETATM    2  O   UNL     1     -10.240  15.749  69.541  1.00  0.00    -0.234 OA 
ENDROOT
BRANCH   2   3
HETATM    3  C   UNL     1     -11.504  15.252  69.561  1.00  0.00    -0.305 C  
HETATM    4  O   UNL     1     -12.379  15.600  70.339  1.00  0.00    -0.400 OA 
BRANCH   3   5
HETATM    5  C   UNL     1     -11.679  14.185  68.542  1.00  0.00    -0.380 C  
HETATM    6  C   UNL     1     -11.880  12.901  68.924  1.00  0.00    -0.309 C  
HETATM    7  C   UNL     1     -12.057  12.402  70.338  1.00  0.00    -0.381 C  
HETATM    8  N   UNL     1     -11.914  11.901  67.968  1.00  0.00    -0.553 NA 
HETATM    9  C   UNL     1     -11.579  12.065  66.638  1.00  0.00    -0.319 C  
HETATM   10  C   UNL     1     -11.354  13.309  66.149  1.00  0.00    -0.335 C  
HETATM   11  C   UNL     1     -11.524  10.793  65.824  1.00  0.00     0.738 C  
HETATM   12  C   UNL     1     -11.510  14.545  67.055  1.00  0.00    -0.383 C  
BRANCH  10  13
HETATM   13  C   UNL     1     -11.060  13.490  64.699  1.00  0.00    -0.374 C  
HETATM   14  O   UNL     1     -11.644  14.255  63.946  1.00  0.00    -0.158 OA 
BRANCH  13  15
HETATM   15  O   UNL     1      -9.913  12.838  64.389  1.00  0.00    -0.261 OA 
BRANCH  15  16
HETATM   16  C   UNL     1     -10.019  12.021  63.211  1.00  0.00    -0.307 C  
BRANCH  16  17
HETATM   17  C   UNL     1      -8.709  11.221  63.136  1.00  0.00     0.031 C  
BRANCH  17  18
HETATM   18  N   UNL     1      -8.632   9.985  63.925  1.00  0.00    -0.174 NA 
HETATM   19  C   UNL     1      -8.409   8.830  63.051  1.00  0.00    -0.175 C  
BRANCH  18  20
HETATM   20  C   UNL     1      -7.523  10.086  64.905  1.00  0.00    -0.140 C  
BRANCH  20  21
HETATM   21  C   UNL     1      -7.994  10.438  66.305  1.00  0.00    -0.138 A  
HETATM   22  C   UNL     1      -7.887  11.755  66.777  1.00  0.00    -0.103 A  
HETATM   23  C   UNL     1      -8.230  12.069  68.091  1.00  0.00    -0.163 A  
HETATM   24  C   UNL     1      -8.693  11.072  68.948  1.00  0.00    -0.122 A  
HETATM   25  C   UNL     1      -8.824   9.763  68.488  1.00  0.00    -0.121 A  
HETATM   26  C   UNL     1      -8.479   9.445  67.171  1.00  0.00    -0.128 A  
ENDBRANCH  20  21
ENDBRANCH  18  20
ENDBRANCH  17  18
ENDBRANCH  16  17
ENDBRANCH  15  16
ENDBRANCH  13  15
ENDBRANCH  10  13
BRANCH  12  27
HETATM   27  C   UNL     1     -10.372  15.548  66.845  1.00  0.00    -0.290 A  
HETATM   28  C   UNL     1      -8.006  16.031  66.596  1.00  0.00    -0.291 A  
HETATM   29  O   UNL     1     -11.083  19.633  66.564  1.00  0.00    -0.337 OA 
HETATM   30  C   UNL     1     -10.648  16.928  66.781  1.00  0.00    -0.201 A  
HETATM   31  O   UNL     1      -8.939  20.057  66.390  1.00  0.00    -0.351 OA 
HETATM   32  C   UNL     1      -9.603  17.844  66.614  1.00  0.00    -0.309 A  
HETATM   33  C   UNL     1      -9.044  15.112  66.736  1.00  0.00    -0.282 A  
HETATM   34  C   UNL     1      -8.279  17.400  66.538  1.00  0.00    -0.311 A  
HETATM   35  N   UNL     1      -9.896  19.280  66.516  1.00  0.00    -0.347 N  
ENDBRANCH  12  27
ENDBRANCH   3   5
ENDBRANCH   2   3
TORSDOF 10
ENDMDL
MODEL      176
REMARK 921   NORMALIZED FREE ENERGY PREDICTED BY IDOCK:   -4.39 KCAL/MOL
REMARK 922        TOTAL FREE ENERGY PREDICTED BY IDOCK:   -8.48 KCAL/MOL
REMARK 923 INTER-LIGAND FREE ENERGY PREDICTED BY IDOCK:   -6.62 KCAL/MOL
REMARK 924 INTRA-LIGAND FREE ENERGY PREDICTED BY IDOCK:   -1.86 KCAL/MOL
REMARK 927      BINDING AFFINITY PREDICTED BY RF-SCORE:    0.00 PKD
ROOT
HETATM    1  C   UNL     1     -11.555  12.749  66.279  1.00  0.00    -0.379 C  
HETATM    2  O   UNL     1     -12.250  12.367  67.471  1.00  0.00    -0.442 OA 
ENDROOT
BRANCH   2   3
HETATM    3  C   UNL     1     -11.463  12.412  68.576  1.00  0.00    -0.306 C  
HETATM    4  O   UNL     1     -10.583  13.237  68.773  1.00  0.00    -0.244 OA 
BRANCH   3   5
HETATM    5  C   UNL     1     -11.772  11.295  69.504  1.00  0.00    -0.415 C  
HETATM    6  C   UNL     1     -12.340  11.544  70.709  1.00  0.00    -0.375 C  
HETATM    7  C   UNL     1     -12.818  12.883  71.217  1.00  0.00    -0.361 C  
HETATM    8  N   UNL     1     -12.505  10.510  71.614  1.00  0.00    -0.377 NA 
HETATM    9  C   UNL     1     -11.973   9.243  71.474  1.00  0.00    -0.368 C  
HETATM   10  C   UNL     1     -11.378   8.888  70.309  1.00  0.00    -0.179 C  
HETATM   11  C   UNL     1     -12.140   8.337  72.672  1.00  0.00    -0.326 C  
HETATM   12  C   UNL     1     -11.329   9.871  69.125  1.00  0.00    -0.088 C  
BRANCH  10  13
HETATM   13  C   UNL     1     -10.865   7.498  70.136  1.00  0.00    -0.249 C  
HETATM   14  O   UNL     1     -11.295   6.676  69.340  1.00  0.00    -0.310 OA 
BRANCH  13  15
HETATM   15  O   UNL     1      -9.717   7.353  70.842  1.00  0.00    -0.170 OA 
BRANCH  15  16
HETATM   16  C   UNL     1      -8.954   6.195  70.462  1.00  0.00    -0.146 C  
BRANCH  16  17
HETATM   17  C   UNL     1      -7.934   6.689  69.424  1.00  0.00    -0.115 C  
BRANCH  17  18
HETATM   18  N   UNL     1      -6.785   5.818  69.146  1.00  0.00    -0.058 NA 
HETATM   19  C   UNL     1      -5.946   5.674  70.339  1.00  0.00    -0.025 C  
BRANCH  18  20
HETATM   20  C   UNL     1      -7.264   4.483  68.712  1.00  0.00    -0.053 C  
BRANCH  20  21
HETATM   21  C   UNL     1      -7.155   4.267  67.214  1.00  0.00    -0.067 A  
HETATM   22  C   UNL     1      -6.263   5.034  66.451  1.00  0.00    -0.035 A  
HETATM   23  C   UNL     1      -6.221   4.908  65.064  1.00  0.00    -0.034 A  
HETATM   24  C   UNL     1      -7.067   4.005  64.420  1.00  0.00    -0.054 A  
HETATM   25  C   UNL     1      -7.945   3.221  65.166  1.00  0.00    -0.082 A  
HETATM   26  C   UNL     1      -7.989   3.346  66.557  1.00  0.00    -0.084 A  
ENDBRANCH  20  21
ENDBRANCH  18  20
ENDBRANCH  17  18
ENDBRANCH  16  17
ENDBRANCH  15  16
ENDBRANCH  13  15
ENDBRANCH  10  13
BRANCH  12  27
HETATM   27  C   UNL     1      -9.956   9.872  68.446  1.00  0.00    -0.177 A  
HETATM   28  C   UNL     1      -8.556   9.411  66.518  1.00  0.00    -0.142 A  
HETATM   29  O   UNL     1      -6.530  11.109  70.449  1.00  0.00    -0.269 OA 
HETATM   30  C   UNL     1      -8.812  10.274  69.165  1.00  0.00    -0.182 A  
HETATM   31  O   UNL     1      -5.273  10.641  68.715  1.00  0.00    -0.042 OA 
HETATM   32  C   UNL     1      -7.555  10.250  68.551  1.00  0.00    -0.089 A  
HETATM   33  C   UNL     1      -9.814   9.456  67.116  1.00  0.00    -0.242 A  
HETATM   34  C   UNL     1      -7.421   9.803  67.232  1.00  0.00    -0.088 A  
HETATM   35  N   UNL     1      -6.369  10.699  69.291  1.00  0.00    -0.052 N  
ENDBRANCH  12  27
ENDBRANCH   3   5
ENDBRANCH   2   3
TORSDOF 10
ENDMDL
MODEL      177
REMARK 921   NORMALIZED FREE ENERGY PREDICTED BY IDOCK:   -4.37 KCAL/MOL
REMARK 922        TOTAL FREE ENERGY PREDICTED BY IDOCK:   -8.45 KCAL/MOL
REMARK 923 INTER-LIGAND FREE ENERGY PREDICTED BY IDOCK:   -8.38 KCAL/MOL
REMARK 924 INTRA-LIGAND FREE ENERGY PREDICTED BY IDOCK:   -0.07 KCAL/MOL
REMARK 927      BINDING AFFINITY PREDICTED BY RF-SCORE:    0.00 PKD
ROOT
HETATM    1  C   UNL     1     -11.114  15.482  70.771  1.00  0.00    -0.351 C  
HETATM    2  O   UNL     1     -10.807  14.586  69.698  1.00  0.00    -0.229 OA 
ENDROOT
BRANCH   2   3
HETATM    3  C   UNL     1      -9.866  15.079  68.852  1.00  0.00    -0.233 C  
HETATM    4  O   UNL     1      -9.869  16.210  68.389  1.00  0.00    -0.215 OA 
BRANCH   3   5
HETATM    5  C   UNL     1      -8.850  14.049  68.516  1.00  0.00    -0.160 C  
HETATM    6  C   UNL     1      -7.536  14.285  68.748  1.00  0.00    -0.130 C  
HETATM    7  C   UNL     1      -6.948  15.493  69.436  1.00  0.00    -0.187 C  
HETATM    8  N   UNL     1      -6.591  13.372  68.314  1.00  0.00    -0.092 NA 
HETATM    9  C   UNL     1      -6.851  12.295  67.488  1.00  0.00    -0.135 C  
HETATM   10  C   UNL     1      -8.132  11.971  67.188  1.00  0.00    -0.177 C  
HETATM   11  C   UNL     1      -5.633  11.541  67.007  1.00  0.00    -0.117 C  
HETATM   12  C   UNL     1      -9.303  12.768  67.795  1.00  0.00    -0.199 C  
BRANCH  10  13
HETATM   13  C   UNL     1      -8.413  10.768  66.353  1.00  0.00    -0.158 C  
HETATM   14  O   UNL     1      -8.035  10.598  65.203  1.00  0.00    -0.130 OA 
BRANCH  13  15
HETATM   15  O   UNL     1      -8.970   9.805  67.126  1.00  0.00    -0.134 OA 
BRANCH  15  16
HETATM   16  C   UNL     1      -8.016   8.858  67.637  1.00  0.00    -0.102 C  
BRANCH  16  17
HETATM   17  C   UNL     1      -8.817   7.586  67.955  1.00  0.00    -0.126 C  
BRANCH  17  18
HETATM   18  N   UNL     1      -9.376   7.466  69.307  1.00  0.00    -0.154 NA 
HETATM   19  C   UNL     1     -10.840   7.514  69.266  1.00  0.00    -0.117 C  
BRANCH  18  20
HETATM   20  C   UNL     1      -8.938   6.186  69.916  1.00  0.00    -0.139 C  
BRANCH  20  21
HETATM   21  C   UNL     1      -9.272   6.082  71.393  1.00  0.00    -0.152 A  
HETATM   22  C   UNL     1     -10.207   5.139  71.843  1.00  0.00    -0.269 A  
HETATM   23  C   UNL     1     -10.588   5.099  73.183  1.00  0.00    -0.282 A  
HETATM   24  C   UNL     1     -10.032   5.995  74.094  1.00  0.00    -0.257 A  
HETATM   25  C   UNL     1      -9.086   6.925  73.666  1.00  0.00    -0.182 A  
HETATM   26  C   UNL     1      -8.703   6.969  72.323  1.00  0.00    -0.134 A  
ENDBRANCH  20  21
ENDBRANCH  18  20
ENDBRANCH  17  18
ENDBRANCH  16  17
ENDBRANCH  15  16
ENDBRANCH  13  15
ENDBRANCH  10  13
BRANCH  12  27
HETATM   27  C   UNL     1     -10.387  13.062  66.754  1.00  0.00    -0.256 A  
HETATM   28  C   UNL     1     -12.303  12.349  65.446  1.00  0.00    -0.308 A  
HETATM   29  O   UNL     1     -10.609  16.727  64.806  1.00  0.00    -0.674 OA 
HETATM   30  C   UNL     1     -10.416  14.307  66.095  1.00  0.00    -0.294 A  
HETATM   31  O   UNL     1     -12.308  16.050  63.596  1.00  0.00    -0.705 OA 
HETATM   32  C   UNL     1     -11.392  14.564  65.126  1.00  0.00    -0.366 A  
HETATM   33  C   UNL     1     -11.349  12.096  66.429  1.00  0.00    -0.411 A  
HETATM   34  C   UNL     1     -12.328  13.581  64.788  1.00  0.00    -0.435 A  
HETATM   35  N   UNL     1     -11.440  15.873  64.463  1.00  0.00    -0.370 N  
ENDBRANCH  12  27
ENDBRANCH   3   5
ENDBRANCH   2   3
TORSDOF 10
ENDMDL
MODEL      178
REMARK 921   NORMALIZED FREE ENERGY PREDICTED BY IDOCK:   -4.35 KCAL/MOL
REMARK 922        TOTAL FREE ENERGY PREDICTED BY IDOCK:   -8.41 KCAL/MOL
REMARK 923 INTER-LIGAND FREE ENERGY PREDICTED BY IDOCK:   -6.91 KCAL/MOL
REMARK 924 INTRA-LIGAND FREE ENERGY PREDICTED BY IDOCK:   -1.50 KCAL/MOL
REMARK 927      BINDING AFFINITY PREDICTED BY RF-SCORE:    0.00 PKD
ROOT
HETATM    1  C   UNL     1     -11.054  15.481  69.871  1.00  0.00    -0.310 C  
HETATM    2  O   UNL     1     -11.043  14.696  68.674  1.00  0.00    -0.242 OA 
ENDROOT
BRANCH   2   3
HETATM    3  C   UNL     1      -9.791  14.488  68.192  1.00  0.00    -0.223 C  
HETATM    4  O   UNL     1      -8.763  14.862  68.736  1.00  0.00    -0.170 OA 
BRANCH   3   5
HETATM    5  C   UNL     1      -9.827  13.786  66.884  1.00  0.00    -0.264 C  
HETATM    6  C   UNL     1     -10.278  14.424  65.777  1.00  0.00    -0.337 C  
HETATM    7  C   UNL     1     -10.680  15.877  65.679  1.00  0.00    -0.350 C  
HETATM    8  N   UNL     1     -10.425  13.721  64.594  1.00  0.00    -0.431 NA 
HETATM    9  C   UNL     1     -10.320  12.349  64.471  1.00  0.00    -0.325 C  
HETATM   10  C   UNL     1      -9.881  11.611  65.518  1.00  0.00    -0.264 C  
HETATM   11  C   UNL     1     -10.694  11.793  63.116  1.00  0.00    -0.319 C  
HETATM   12  C   UNL     1      -9.457  12.293  66.833  1.00  0.00    -0.217 C  
BRANCH  10  13
HETATM   13  C   UNL     1      -9.704  10.139  65.361  1.00  0.00    -0.291 C  
HETATM   14  O   UNL     1     -10.535   9.289  65.646  1.00  0.00     0.199 OA 
BRANCH  13  15
HETATM   15  O   UNL     1      -8.569   9.896  64.661  1.00  0.00    -0.155 OA 
BRANCH  15  16
HETATM   16  C   UNL     1      -7.443   9.567  65.491  1.00  0.00    -0.102 C  
BRANCH  16  17
HETATM   17  C   UNL     1      -7.136   8.087  65.215  1.00  0.00    -0.063 C  
BRANCH  17  18
HETATM   18  N   UNL     1      -7.305   7.148  66.330  1.00  0.00    -0.078 NA 
HETATM   19  C   UNL     1      -7.700   7.860  67.549  1.00  0.00    -0.117 C  
BRANCH  18  20
HETATM   20  C   UNL     1      -8.341   6.144  65.985  1.00  0.00    -0.136 C  
BRANCH  20  21
HETATM   21  C   UNL     1      -8.074   4.777  66.588  1.00  0.00    -0.107 A  
HETATM   22  C   UNL     1      -6.795   4.451  67.063  1.00  0.00    -0.052 A  
HETATM   23  C   UNL     1      -6.516   3.169  67.533  1.00  0.00    -0.037 A  
HETATM   24  C   UNL     1      -7.516   2.197  67.542  1.00  0.00    -0.056 A  
HETATM   25  C   UNL     1      -8.797   2.511  67.091  1.00  0.00    -0.155 A  
HETATM   26  C   UNL     1      -9.078   3.795  66.618  1.00  0.00    -0.167 A  
ENDBRANCH  20  21
ENDBRANCH  18  20
ENDBRANCH  17  18
ENDBRANCH  16  17
ENDBRANCH  15  16
ENDBRANCH  13  15
ENDBRANCH  10  13
BRANCH  12  27
HETATM   27  C   UNL     1      -9.986  11.541  68.058  1.00  0.00    -0.197 A  
HETATM   28  C   UNL     1     -11.822  10.912  69.515  1.00  0.00    -0.404 A  
HETATM   29  O   UNL     1      -7.461   9.382  70.555  1.00  0.00    -0.116 OA 
HETATM   30  C   UNL     1      -9.096  10.840  68.897  1.00  0.00    -0.170 A  
HETATM   31  O   UNL     1      -9.123   8.863  71.889  1.00  0.00    -0.331 OA 
HETATM   32  C   UNL     1      -9.579  10.175  70.029  1.00  0.00    -0.063 A  
HETATM   33  C   UNL     1     -11.352  11.555  68.372  1.00  0.00    -0.342 A  
HETATM   34  C   UNL     1     -10.940  10.223  70.350  1.00  0.00    -0.365 A  
HETATM   35  N   UNL     1      -8.655   9.420  70.885  1.00  0.00    -0.157 N  
ENDBRANCH  12  27
ENDBRANCH   3   5
ENDBRANCH   2   3
TORSDOF 10
ENDMDL
MODEL      179
REMARK 921   NORMALIZED FREE ENERGY PREDICTED BY IDOCK:   -4.33 KCAL/MOL
REMARK 922        TOTAL FREE ENERGY PREDICTED BY IDOCK:   -8.39 KCAL/MOL
REMARK 923 INTER-LIGAND FREE ENERGY PREDICTED BY IDOCK:   -8.14 KCAL/MOL
REMARK 924 INTRA-LIGAND FREE ENERGY PREDICTED BY IDOCK:   -0.25 KCAL/MOL
REMARK 927      BINDING AFFINITY PREDICTED BY RF-SCORE:    0.00 PKD
ROOT
HETATM    1  C   UNL     1     -12.283  15.190  64.309  1.00  0.00    -0.240 C  
HETATM    2  O   UNL     1     -11.308  14.630  65.195  1.00  0.00    -0.344 OA 
ENDROOT
BRANCH   2   3
HETATM    3  C   UNL     1     -11.571  13.339  65.521  1.00  0.00    -0.326 C  
HETATM    4  O   UNL     1     -12.691  12.868  65.657  1.00  0.00    -0.537 OA 
BRANCH   3   5
HETATM    5  C   UNL     1     -10.319  12.571  65.741  1.00  0.00    -0.288 C  
HETATM    6  C   UNL     1      -9.970  11.575  64.893  1.00  0.00    -0.259 C  
HETATM    7  C   UNL     1     -10.684  11.187  63.620  1.00  0.00    -0.381 C  
HETATM    8  N   UNL     1      -8.870  10.785  65.181  1.00  0.00    -0.197 NA 
HETATM    9  C   UNL     1      -8.174  10.803  66.375  1.00  0.00    -0.155 C  
HETATM   10  C   UNL     1      -8.445  11.757  67.298  1.00  0.00    -0.160 C  
HETATM   11  C   UNL     1      -7.120   9.730  66.523  1.00  0.00    -0.090 C  
HETATM   12  C   UNL     1      -9.493  12.848  67.010  1.00  0.00    -0.235 C  
BRANCH  10  13
HETATM   13  C   UNL     1      -7.647  11.815  68.556  1.00  0.00    -0.131 C  
HETATM   14  O   UNL     1      -7.381  12.830  69.182  1.00  0.00    -0.006 OA 
BRANCH  13  15
HETATM   15  O   UNL     1      -7.439  10.556  69.014  1.00  0.00    -0.092 OA 
BRANCH  15  16
HETATM   16  C   UNL     1      -8.308  10.191  70.099  1.00  0.00     0.089 C  
BRANCH  16  17
HETATM   17  C   UNL     1      -8.149   8.673  70.271  1.00  0.00    -0.109 C  
BRANCH  17  18
HETATM   18  N   UNL     1      -7.131   8.208  71.222  1.00  0.00    -0.056 NA 
HETATM   19  C   UNL     1      -5.975   9.109  71.220  1.00  0.00    -0.067 C  
BRANCH  18  20
HETATM   20  C   UNL     1      -7.712   8.150  72.586  1.00  0.00    -0.132 C  
BRANCH  20  21
HETATM   21  C   UNL     1      -9.042   7.422  72.638  1.00  0.00    -0.181 A  
HETATM   22  C   UNL     1      -9.083   6.020  72.630  1.00  0.00    -0.137 A  
HETATM   23  C   UNL     1     -10.300   5.343  72.584  1.00  0.00    -0.246 A  
HETATM   24  C   UNL     1     -11.495   6.060  72.555  1.00  0.00    -0.336 A  
HETATM   25  C   UNL     1     -11.473   7.453  72.583  1.00  0.00    -0.337 A  
HETATM   26  C   UNL     1     -10.253   8.134  72.627  1.00  0.00    -0.388 A  
ENDBRANCH  20  21
ENDBRANCH  18  20
ENDBRANCH  17  18
ENDBRANCH  16  17
ENDBRANCH  15  16
ENDBRANCH  13  15
ENDBRANCH  10  13
BRANCH  12  27
HETATM   27  C   UNL     1     -10.394  13.103  68.222  1.00  0.00    -0.256 A  
HETATM   28  C   UNL     1     -11.447  14.635  69.783  1.00  0.00    -0.325 A  
HETATM   29  O   UNL     1     -12.121   9.981  70.354  1.00  0.00    -0.258 OA 
HETATM   30  C   UNL     1     -10.941  12.018  68.937  1.00  0.00    -0.277 A  
HETATM   31  O   UNL     1     -13.025  11.376  71.785  1.00  0.00    -0.459 OA 
HETATM   32  C   UNL     1     -11.743  12.253  70.059  1.00  0.00    -0.242 A  
HETATM   33  C   UNL     1     -10.668  14.409  68.649  1.00  0.00    -0.258 A  
HETATM   34  C   UNL     1     -11.984  13.560  70.494  1.00  0.00    -0.344 A  
HETATM   35  N   UNL     1     -12.338  11.123  70.784  1.00  0.00    -0.382 N  
ENDBRANCH  12  27
ENDBRANCH   3   5
ENDBRANCH   2   3
TORSDOF 10
ENDMDL
MODEL      180
REMARK 921   NORMALIZED FREE ENERGY PREDICTED BY IDOCK:   -4.29 KCAL/MOL
REMARK 922        TOTAL FREE ENERGY PREDICTED BY IDOCK:   -8.32 KCAL/MOL
REMARK 923 INTER-LIGAND FREE ENERGY PREDICTED BY IDOCK:   -8.15 KCAL/MOL
REMARK 924 INTRA-LIGAND FREE ENERGY PREDICTED BY IDOCK:   -0.18 KCAL/MOL
REMARK 927      BINDING AFFINITY PREDICTED BY RF-SCORE:    0.00 PKD
ROOT
HETATM    1  C   UNL     1     -12.482  12.159  63.526  1.00  0.00    -0.555 C  
HETATM    2  O   UNL     1     -12.417  13.193  64.514  1.00  0.00    -0.530 OA 
ENDROOT
BRANCH   2   3
HETATM    3  C   UNL     1     -11.154  13.418  64.959  1.00  0.00    -0.319 C  
HETATM    4  O   UNL     1     -10.188  12.716  64.701  1.00  0.00    -0.313 OA 
BRANCH   3   5
HETATM    5  C   UNL     1     -11.100  14.606  65.849  1.00  0.00    -0.338 C  
HETATM    6  C   UNL     1     -11.206  15.853  65.331  1.00  0.00    -0.100 C  
HETATM    7  C   UNL     1     -11.489  16.206  63.890  1.00  0.00     0.585 C  
HETATM    8  N   UNL     1     -11.026  16.952  66.152  1.00  0.00     0.045 NA 
HETATM    9  C   UNL     1     -10.562  16.901  67.453  1.00  0.00    -0.294 C  
HETATM   10  C   UNL     1     -10.415  15.703  68.068  1.00  0.00    -0.263 C  
HETATM   11  C   UNL     1     -10.282  18.242  68.091  1.00  0.00    -0.406 C  
HETATM   12  C   UNL     1     -10.803  14.400  67.345  1.00  0.00    -0.293 C  
BRANCH  10  13
HETATM   13  C   UNL     1      -9.980  15.654  69.494  1.00  0.00    -0.285 C  
HETATM   14  O   UNL     1      -8.839  15.451  69.881  1.00  0.00    -0.155 OA 
BRANCH  13  15
HETATM   15  O   UNL     1     -10.994  16.076  70.288  1.00  0.00    -0.328 OA 
BRANCH  15  16
HETATM   16  C   UNL     1     -12.152  15.226  70.238  1.00  0.00    -0.350 C  
BRANCH  16  17
HETATM   17  C   UNL     1     -11.858  14.062  71.197  1.00  0.00    -0.056 C  
BRANCH  17  18
HETATM   18  N   UNL     1     -12.794  13.857  72.310  1.00  0.00    -0.316 NA 
HETATM   19  C   UNL     1     -13.517  15.096  72.610  1.00  0.00    -0.475 C  
BRANCH  18  20
HETATM   20  C   UNL     1     -13.762  12.790  71.959  1.00  0.00    -0.258 C  
BRANCH  20  21
HETATM   21  C   UNL     1     -13.111  11.434  71.759  1.00  0.00    -0.523 A  
HETATM   22  C   UNL     1     -13.462  10.352  72.579  1.00  0.00     0.202 A  
HETATM   23  C   UNL     1     -12.804   9.129  72.465  1.00  0.00    -0.387 A  
HETATM   24  C   UNL     1     -11.790   8.968  71.521  1.00  0.00    -0.415 A  
HETATM   25  C   UNL     1     -11.443  10.028  70.685  1.00  0.00    -0.425 A  
HETATM   26  C   UNL     1     -12.101  11.256  70.799  1.00  0.00    -0.450 A  
ENDBRANCH  20  21
ENDBRANCH  18  20
ENDBRANCH  17  18
ENDBRANCH  16  17
ENDBRANCH  15  16
ENDBRANCH  13  15
ENDBRANCH  10  13
BRANCH  12  27
HETATM   27  C   UNL     1      -9.760  13.299  67.564  1.00  0.00    -0.224 A  
HETATM   28  C   UNL     1      -9.192  11.033  68.220  1.00  0.00    -0.165 A  
HETATM   29  O   UNL     1      -5.704  13.981  66.960  1.00  0.00     0.079 OA 
HETATM   30  C   UNL     1      -8.391  13.574  67.374  1.00  0.00    -0.199 A  
HETATM   31  O   UNL     1      -5.204  11.945  67.604  1.00  0.00    -0.055 OA 
HETATM   32  C   UNL     1      -7.438  12.574  67.599  1.00  0.00    -0.139 A  
HETATM   33  C   UNL     1     -10.148  12.017  67.974  1.00  0.00    -0.199 A  
HETATM   34  C   UNL     1      -7.835  11.307  68.038  1.00  0.00    -0.115 A  
HETATM   35  N   UNL     1      -6.015  12.854  67.371  1.00  0.00    -0.126 N  
ENDBRANCH  12  27
ENDBRANCH   3   5
ENDBRANCH   2   3
TORSDOF 10
ENDMDL
MODEL      181
REMARK 921   NORMALIZED FREE ENERGY PREDICTED BY IDOCK:   -4.29 KCAL/MOL
REMARK 922        TOTAL FREE ENERGY PREDICTED BY IDOCK:   -8.31 KCAL/MOL
REMARK 923 INTER-LIGAND FREE ENERGY PREDICTED BY IDOCK:   -6.40 KCAL/MOL
REMARK 924 INTRA-LIGAND FREE ENERGY PREDICTED BY IDOCK:   -1.91 KCAL/MOL
REMARK 927      BINDING AFFINITY PREDICTED BY RF-SCORE:    0.00 PKD
ROOT
HETATM    1  C   UNL     1     -10.296  12.254  65.457  1.00  0.00    -0.267 C  
HETATM    2  O   UNL     1      -9.945  11.176  66.331  1.00  0.00    -0.204 OA 
ENDROOT
BRANCH   2   3
HETATM    3  C   UNL     1      -9.606  11.597  67.577  1.00  0.00    -0.171 C  
HETATM    4  O   UNL     1      -8.586  12.210  67.852  1.00  0.00    -0.150 OA 
BRANCH   3   5
HETATM    5  C   UNL     1     -10.614  11.174  68.582  1.00  0.00    -0.222 C  
HETATM    6  C   UNL     1     -11.432  12.088  69.157  1.00  0.00    -0.300 C  
HETATM    7  C   UNL     1     -11.521  13.556  68.812  1.00  0.00    -0.349 C  
HETATM    8  N   UNL     1     -12.277  11.701  70.182  1.00  0.00    -0.306 NA 
HETATM    9  C   UNL     1     -12.242  10.474  70.815  1.00  0.00    -0.369 C  
HETATM   10  C   UNL     1     -11.456   9.486  70.326  1.00  0.00    -0.256 C  
HETATM   11  C   UNL     1     -13.144  10.344  72.021  1.00  0.00    -0.521 C  
HETATM   12  C   UNL     1     -10.631   9.706  69.043  1.00  0.00    -0.237 C  
BRANCH  10  13
HETATM   13  C   UNL     1     -11.472   8.141  70.970  1.00  0.00    -0.279 C  
HETATM   14  O   UNL     1     -11.997   7.138  70.508  1.00  0.00    -0.290 OA 
BRANCH  13  15
HETATM   15  O   UNL     1     -10.640   8.146  72.039  1.00  0.00    -0.230 OA 
BRANCH  15  16
HETATM   16  C   UNL     1     -11.122   7.363  73.144  1.00  0.00    -0.309 C  
BRANCH  16  17
HETATM   17  C   UNL     1      -9.871   6.800  73.837  1.00  0.00    -0.289 C  
BRANCH  17  18
HETATM   18  N   UNL     1      -9.386   5.490  73.385  1.00  0.00    -0.138 NA 
HETATM   19  C   UNL     1     -10.442   4.768  72.671  1.00  0.00    -0.203 C  
BRANCH  18  20
HETATM   20  C   UNL     1      -8.216   5.672  72.491  1.00  0.00    -0.114 C  
BRANCH  20  21
HETATM   21  C   UNL     1      -7.797   4.394  71.789  1.00  0.00    -0.087 A  
HETATM   22  C   UNL     1      -7.853   4.303  70.390  1.00  0.00    -0.052 A  
HETATM   23  C   UNL     1      -7.558   3.104  69.743  1.00  0.00    -0.044 A  
HETATM   24  C   UNL     1      -7.195   1.982  70.485  1.00  0.00    -0.033 A  
HETATM   25  C   UNL     1      -7.115   2.061  71.874  1.00  0.00    -0.034 A  
HETATM   26  C   UNL     1      -7.411   3.261  72.526  1.00  0.00    -0.053 A  
ENDBRANCH  20  21
ENDBRANCH  18  20
ENDBRANCH  17  18
ENDBRANCH  16  17
ENDBRANCH  15  16
ENDBRANCH  13  15
ENDBRANCH  10  13
BRANCH  12  27
HETATM   27  C   UNL     1      -9.213   9.143  69.178  1.00  0.00    -0.144 A  
HETATM   28  C   UNL     1      -7.015   9.189  70.206  1.00  0.00    -0.059 A  
HETATM   29  O   UNL     1      -7.871   6.009  66.800  1.00  0.00    -0.099 OA 
HETATM   30  C   UNL     1      -8.784   8.097  68.337  1.00  0.00    -0.134 A  
HETATM   31  O   UNL     1      -5.875   6.097  67.704  1.00  0.00    -0.015 OA 
HETATM   32  C   UNL     1      -7.480   7.601  68.445  1.00  0.00    -0.104 A  
HETATM   33  C   UNL     1      -8.320   9.670  70.120  1.00  0.00    -0.221 A  
HETATM   34  C   UNL     1      -6.587   8.157  69.368  1.00  0.00    -0.035 A  
HETATM   35  N   UNL     1      -7.045   6.490  67.589  1.00  0.00    -0.082 N  
ENDBRANCH  12  27
ENDBRANCH   3   5
ENDBRANCH   2   3
TORSDOF 10
ENDMDL
MODEL      182
REMARK 921   NORMALIZED FREE ENERGY PREDICTED BY IDOCK:   -4.28 KCAL/MOL
REMARK 922        TOTAL FREE ENERGY PREDICTED BY IDOCK:   -8.29 KCAL/MOL
REMARK 923 INTER-LIGAND FREE ENERGY PREDICTED BY IDOCK:   -7.02 KCAL/MOL
REMARK 924 INTRA-LIGAND FREE ENERGY PREDICTED BY IDOCK:   -1.27 KCAL/MOL
REMARK 927      BINDING AFFINITY PREDICTED BY RF-SCORE:    0.00 PKD
ROOT
HETATM    1  C   UNL     1     -13.755   8.157  71.770  1.00  0.00    -0.374 C  
HETATM    2  O   UNL     1     -12.342   8.387  71.757  1.00  0.00    -0.298 OA 
ENDROOT
BRANCH   2   3
HETATM    3  C   UNL     1     -11.649   7.370  71.183  1.00  0.00    -0.286 C  
HETATM    4  O   UNL     1     -12.153   6.429  70.590  1.00  0.00    -0.299 OA 
BRANCH   3   5
HETATM    5  C   UNL     1     -10.188   7.518  71.410  1.00  0.00    -0.201 C  
HETATM    6  C   UNL     1      -9.689   7.523  72.669  1.00  0.00    -0.178 C  
HETATM    7  C   UNL     1     -10.463   7.284  73.943  1.00  0.00    -0.221 C  
HETATM    8  N   UNL     1      -8.346   7.789  72.871  1.00  0.00    -0.126 NA 
HETATM    9  C   UNL     1      -7.473   8.237  71.898  1.00  0.00    -0.098 C  
HETATM   10  C   UNL     1      -7.870   8.276  70.603  1.00  0.00    -0.092 C  
HETATM   11  C   UNL     1      -6.099   8.625  72.394  1.00  0.00    -0.076 C  
HETATM   12  C   UNL     1      -9.273   7.785  70.201  1.00  0.00    -0.153 C  
BRANCH  10  13
HETATM   13  C   UNL     1      -6.904   8.694  69.547  1.00  0.00    -0.044 C  
HETATM   14  O   UNL     1      -6.335   7.943  68.768  1.00  0.00    -0.042 OA 
BRANCH  13  15
HETATM   15  O   UNL     1      -6.913  10.045  69.440  1.00  0.00    -0.055 OA 
BRANCH  15  16
HETATM   16  C   UNL     1      -5.976  10.549  68.474  1.00  0.00    -0.043 C  
BRANCH  16  17
HETATM   17  C   UNL     1      -6.146  12.076  68.482  1.00  0.00    -0.051 C  
BRANCH  17  18
HETATM   18  N   UNL     1      -7.086  12.652  67.512  1.00  0.00    -0.142 NA 
HETATM   19  C   UNL     1      -7.580  11.618  66.598  1.00  0.00    -0.050 C  
BRANCH  18  20
HETATM   20  C   UNL     1      -8.230  13.267  68.230  1.00  0.00    -0.156 C  
BRANCH  20  21
HETATM   21  C   UNL     1      -8.735  14.537  67.570  1.00  0.00    -0.195 A  
HETATM   22  C   UNL     1     -10.112  14.774  67.451  1.00  0.00    -0.231 A  
HETATM   23  C   UNL     1     -10.585  15.892  66.766  1.00  0.00    -0.309 A  
HETATM   24  C   UNL     1      -9.687  16.793  66.198  1.00  0.00    -0.315 A  
HETATM   25  C   UNL     1      -8.315  16.583  66.324  1.00  0.00    -0.364 A  
HETATM   26  C   UNL     1      -7.838  15.462  67.010  1.00  0.00    -0.244 A  
ENDBRANCH  20  21
ENDBRANCH  18  20
ENDBRANCH  17  18
ENDBRANCH  16  17
ENDBRANCH  15  16
ENDBRANCH  13  15
ENDBRANCH  10  13
BRANCH  12  27
HETATM   27  C   UNL     1      -9.936   8.728  69.192  1.00  0.00    -0.193 A  
HETATM   28  C   UNL     1     -10.489   9.316  66.903  1.00  0.00    -0.284 A  
HETATM   29  O   UNL     1     -11.820  12.234  70.390  1.00  0.00    -0.303 OA 
HETATM   30  C   UNL     1     -10.543   9.921  69.632  1.00  0.00    -0.273 A  
HETATM   31  O   UNL     1     -12.268  12.775  68.313  1.00  0.00    -0.197 OA 
HETATM   32  C   UNL     1     -11.125  10.794  68.706  1.00  0.00    -0.259 A  
HETATM   33  C   UNL     1      -9.929   8.431  67.823  1.00  0.00    -0.236 A  
HETATM   34  C   UNL     1     -11.085  10.502  67.339  1.00  0.00    -0.322 A  
HETATM   35  N   UNL     1     -11.784  12.021  69.170  1.00  0.00    -0.311 N  
ENDBRANCH  12  27
ENDBRANCH   3   5
ENDBRANCH   2   3
TORSDOF 10
ENDMDL
MODEL      183
REMARK 921   NORMALIZED FREE ENERGY PREDICTED BY IDOCK:   -4.25 KCAL/MOL
REMARK 922        TOTAL FREE ENERGY PREDICTED BY IDOCK:   -8.26 KCAL/MOL
REMARK 923 INTER-LIGAND FREE ENERGY PREDICTED BY IDOCK:   -6.26 KCAL/MOL
REMARK 924 INTRA-LIGAND FREE ENERGY PREDICTED BY IDOCK:   -2.00 KCAL/MOL
REMARK 927      BINDING AFFINITY PREDICTED BY RF-SCORE:    0.00 PKD
ROOT
HETATM    1  C   UNL     1     -12.186  11.384  69.855  1.00  0.00    -0.277 C  
HETATM    2  O   UNL     1     -12.160  12.745  69.411  1.00  0.00    -0.273 OA 
ENDROOT
BRANCH   2   3
HETATM    3  C   UNL     1     -11.647  12.882  68.162  1.00  0.00    -0.336 C  
HETATM    4  O   UNL     1     -12.215  12.544  67.134  1.00  0.00    -0.474 OA 
BRANCH   3   5
HETATM    5  C   UNL     1     -10.277  13.453  68.201  1.00  0.00    -0.246 C  
HETATM    6  C   UNL     1     -10.091  14.791  68.096  1.00  0.00    -0.221 C  
HETATM    7  C   UNL     1     -11.170  15.846  68.042  1.00  0.00    -0.319 C  
HETATM    8  N   UNL     1      -8.806  15.298  68.006  1.00  0.00    -0.167 NA 
HETATM    9  C   UNL     1      -7.666  14.538  67.830  1.00  0.00    -0.140 C  
HETATM   10  C   UNL     1      -7.738  13.187  67.911  1.00  0.00    -0.147 C  
HETATM   11  C   UNL     1      -6.399  15.324  67.584  1.00  0.00    -0.171 C  
HETATM   12  C   UNL     1      -9.074  12.494  68.241  1.00  0.00    -0.183 C  
BRANCH  10  13
HETATM   13  C   UNL     1      -6.495  12.373  67.790  1.00  0.00    -0.115 C  
HETATM   14  O   UNL     1      -5.832  12.237  66.772  1.00  0.00    -0.283 OA 
BRANCH  13  15
HETATM   15  O   UNL     1      -6.095  11.978  69.023  1.00  0.00    -0.063 OA 
BRANCH  15  16
HETATM   16  C   UNL     1      -5.831  10.568  69.115  1.00  0.00    -0.040 C  
BRANCH  16  17
HETATM   17  C   UNL     1      -6.580  10.083  70.365  1.00  0.00    -0.132 C  
BRANCH  17  18
HETATM   18  N   UNL     1      -6.452   8.662  70.715  1.00  0.00    -0.039 NA 
HETATM   19  C   UNL     1      -6.116   8.510  72.134  1.00  0.00    -0.068 C  
BRANCH  18  20
HETATM   20  C   UNL     1      -7.727   7.960  70.429  1.00  0.00    -0.087 C  
BRANCH  20  21
HETATM   21  C   UNL     1      -7.574   6.828  69.430  1.00  0.00    -0.096 A  
HETATM   22  C   UNL     1      -7.887   5.511  69.798  1.00  0.00    -0.082 A  
HETATM   23  C   UNL     1      -7.662   4.454  68.918  1.00  0.00    -0.066 A  
HETATM   24  C   UNL     1      -7.129   4.700  67.654  1.00  0.00    -0.065 A  
HETATM   25  C   UNL     1      -6.831   6.005  67.266  1.00  0.00    -0.063 A  
HETATM   26  C   UNL     1      -7.054   7.067  68.146  1.00  0.00    -0.085 A  
ENDBRANCH  20  21
ENDBRANCH  18  20
ENDBRANCH  17  18
ENDBRANCH  16  17
ENDBRANCH  15  16
ENDBRANCH  13  15
ENDBRANCH  10  13
BRANCH  12  27
HETATM   27  C   UNL     1      -9.306  11.264  67.358  1.00  0.00    -0.168 A  
HETATM   28  C   UNL     1      -9.304  10.205  65.174  1.00  0.00    -0.290 A  
HETATM   29  O   UNL     1     -10.711   7.681  68.928  1.00  0.00    -0.188 OA 
HETATM   30  C   UNL     1      -9.808  10.074  67.921  1.00  0.00    -0.171 A  
HETATM   31  O   UNL     1     -10.751   6.755  66.941  1.00  0.00    -0.312 OA 
HETATM   32  C   UNL     1     -10.043   8.959  67.108  1.00  0.00    -0.249 A  
HETATM   33  C   UNL     1      -9.044  11.311  65.982  1.00  0.00    -0.221 A  
HETATM   34  C   UNL     1      -9.808   9.027  65.731  1.00  0.00    -0.181 A  
HETATM   35  N   UNL     1     -10.536   7.710  67.702  1.00  0.00    -0.240 N  
ENDBRANCH  12  27
ENDBRANCH   3   5
ENDBRANCH   2   3
TORSDOF 10
ENDMDL
MODEL      184
REMARK 921   NORMALIZED FREE ENERGY PREDICTED BY IDOCK:   -4.23 KCAL/MOL
REMARK 922        TOTAL FREE ENERGY PREDICTED BY IDOCK:   -8.22 KCAL/MOL
REMARK 923 INTER-LIGAND FREE ENERGY PREDICTED BY IDOCK:   -7.26 KCAL/MOL
REMARK 924 INTRA-LIGAND FREE ENERGY PREDICTED BY IDOCK:   -0.96 KCAL/MOL
REMARK 927      BINDING AFFINITY PREDICTED BY RF-SCORE:    0.00 PKD
ROOT
HETATM    1  C   UNL     1      -7.455  17.270  68.918  1.00  0.00    -0.240 C  
HETATM    2  O   UNL     1      -7.707  16.145  68.070  1.00  0.00    -0.133 OA 
ENDROOT
BRANCH   2   3
HETATM    3  C   UNL     1      -8.568  15.251  68.623  1.00  0.00    -0.173 C  
HETATM    4  O   UNL     1      -8.585  14.938  69.804  1.00  0.00    -0.013 OA 
BRANCH   3   5
HETATM    5  C   UNL     1      -9.463  14.659  67.596  1.00  0.00    -0.205 C  
HETATM    6  C   UNL     1     -10.767  15.018  67.537  1.00  0.00    -0.284 C  
HETATM    7  C   UNL     1     -11.444  16.082  68.368  1.00  0.00    -0.331 C  
HETATM    8  N   UNL     1     -11.618  14.366  66.661  1.00  0.00    -0.371 NA 
HETATM    9  C   UNL     1     -11.295  13.231  65.943  1.00  0.00    -0.311 C  
HETATM   10  C   UNL     1     -10.018  12.780  65.935  1.00  0.00    -0.273 C  
HETATM   11  C   UNL     1     -12.441  12.598  65.187  1.00  0.00    -0.531 C  
HETATM   12  C   UNL     1      -8.913  13.548  66.684  1.00  0.00    -0.133 C  
BRANCH  10  13
HETATM   13  C   UNL     1      -9.659  11.594  65.105  1.00  0.00    -0.183 C  
HETATM   14  O   UNL     1      -9.469  11.604  63.897  1.00  0.00    -0.178 OA 
BRANCH  13  15
HETATM   15  O   UNL     1      -9.367  10.550  65.917  1.00  0.00    -0.168 OA 
BRANCH  15  16
HETATM   16  C   UNL     1     -10.406   9.557  65.969  1.00  0.00    -0.060 C  
BRANCH  16  17
HETATM   17  C   UNL     1      -9.728   8.266  66.451  1.00  0.00    -0.230 C  
BRANCH  17  18
HETATM   18  N   UNL     1     -10.454   7.454  67.436  1.00  0.00    -0.267 NA 
HETATM   19  C   UNL     1     -11.011   6.254  66.806  1.00  0.00    -0.255 C  
BRANCH  18  20
HETATM   20  C   UNL     1      -9.535   7.058  68.532  1.00  0.00    -0.134 C  
BRANCH  20  21
HETATM   21  C   UNL     1     -10.258   6.682  69.812  1.00  0.00    -0.214 A  
HETATM   22  C   UNL     1      -9.704   5.735  70.686  1.00  0.00    -0.224 A  
HETATM   23  C   UNL     1     -10.404   5.315  71.816  1.00  0.00    -0.277 A  
HETATM   24  C   UNL     1     -11.664   5.843  72.092  1.00  0.00    -0.287 A  
HETATM   25  C   UNL     1     -12.219   6.800  71.244  1.00  0.00    -0.415 A  
HETATM   26  C   UNL     1     -11.521   7.221  70.110  1.00  0.00    -0.197 A  
ENDBRANCH  20  21
ENDBRANCH  18  20
ENDBRANCH  17  18
ENDBRANCH  16  17
ENDBRANCH  15  16
ENDBRANCH  13  15
ENDBRANCH  10  13
BRANCH  12  27
HETATM   27  C   UNL     1      -7.985  12.600  67.451  1.00  0.00    -0.177 A  
HETATM   28  C   UNL     1      -5.768  11.710  67.881  1.00  0.00    -0.047 A  
HETATM   29  O   UNL     1      -9.443   9.934  70.287  1.00  0.00    -0.232 OA 
HETATM   30  C   UNL     1      -8.518  11.692  68.387  1.00  0.00    -0.157 A  
HETATM   31  O   UNL     1      -7.441   9.107  70.628  1.00  0.00    -0.095 OA 
HETATM   32  C   UNL     1      -7.671  10.809  69.067  1.00  0.00    -0.133 A  
HETATM   33  C   UNL     1      -6.603  12.608  67.218  1.00  0.00    -0.109 A  
HETATM   34  C   UNL     1      -6.297  10.805  68.804  1.00  0.00    -0.044 A  
HETATM   35  N   UNL     1      -8.225   9.885  70.065  1.00  0.00    -0.183 N  
ENDBRANCH  12  27
ENDBRANCH   3   5
ENDBRANCH   2   3
TORSDOF 10
ENDMDL
MODEL      185
REMARK 921   NORMALIZED FREE ENERGY PREDICTED BY IDOCK:   -4.23 KCAL/MOL
REMARK 922        TOTAL FREE ENERGY PREDICTED BY IDOCK:   -8.21 KCAL/MOL
REMARK 923 INTER-LIGAND FREE ENERGY PREDICTED BY IDOCK:   -6.61 KCAL/MOL
REMARK 924 INTRA-LIGAND FREE ENERGY PREDICTED BY IDOCK:   -1.61 KCAL/MOL
REMARK 927      BINDING AFFINITY PREDICTED BY RF-SCORE:    0.00 PKD
ROOT
HETATM    1  C   UNL     1     -10.869   4.758  65.717  1.00  0.00    -0.069 C  
HETATM    2  O   UNL     1     -10.077   5.581  66.579  1.00  0.00    -0.173 OA 
ENDROOT
BRANCH   2   3
HETATM    3  C   UNL     1      -8.768   5.614  66.220  1.00  0.00    -0.131 C  
HETATM    4  O   UNL     1      -7.925   4.805  66.581  1.00  0.00    -0.102 OA 
BRANCH   3   5
HETATM    5  C   UNL     1      -8.472   6.792  65.365  1.00  0.00    -0.102 C  
HETATM    6  C   UNL     1      -7.996   6.622  64.108  1.00  0.00    -0.084 C  
HETATM    7  C   UNL     1      -7.812   5.309  63.387  1.00  0.00    -0.087 C  
HETATM    8  N   UNL     1      -7.605   7.726  63.371  1.00  0.00    -0.116 NA 
HETATM    9  C   UNL     1      -7.484   9.009  63.869  1.00  0.00    -0.110 C  
HETATM   10  C   UNL     1      -7.926   9.290  65.119  1.00  0.00    -0.116 C  
HETATM   11  C   UNL     1      -6.873  10.015  62.921  1.00  0.00    -0.129 C  
HETATM   12  C   UNL     1      -8.601   8.200  65.973  1.00  0.00    -0.165 C  
BRANCH  10  13
HETATM   13  C   UNL     1      -7.857  10.689  65.629  1.00  0.00    -0.123 C  
HETATM   14  O   UNL     1      -6.903  11.188  66.208  1.00  0.00    -0.123 OA 
BRANCH  13  15
HETATM   15  O   UNL     1      -8.924  11.387  65.171  1.00  0.00    -0.109 OA 
BRANCH  15  16
HETATM   16  C   UNL     1      -9.417  12.360  66.107  1.00  0.00    -0.199 C  
BRANCH  16  17
HETATM   17  C   UNL     1     -10.816  12.752  65.606  1.00  0.00    -0.273 C  
BRANCH  17  18
HETATM   18  N   UNL     1     -11.246  14.138  65.833  1.00  0.00    -0.309 NA 
HETATM   19  C   UNL     1     -11.810  14.710  64.607  1.00  0.00    -0.452 C  
BRANCH  18  20
HETATM   20  C   UNL     1     -12.264  14.175  66.912  1.00  0.00    -0.365 C  
BRANCH  20  21
HETATM   21  C   UNL     1     -11.699  14.614  68.250  1.00  0.00    -0.359 A  
HETATM   22  C   UNL     1     -12.147  14.017  69.438  1.00  0.00    -0.386 A  
HETATM   23  C   UNL     1     -11.704  14.477  70.677  1.00  0.00    -0.330 A  
HETATM   24  C   UNL     1     -10.799  15.536  70.744  1.00  0.00    -0.298 A  
HETATM   25  C   UNL     1     -10.329  16.126  69.573  1.00  0.00    -0.282 A  
HETATM   26  C   UNL     1     -10.773  15.668  68.329  1.00  0.00    -0.283 A  
ENDBRANCH  20  21
ENDBRANCH  18  20
ENDBRANCH  17  18
ENDBRANCH  16  17
ENDBRANCH  15  16
ENDBRANCH  13  15
ENDBRANCH  10  13
BRANCH  12  27
HETATM   27  C   UNL     1      -8.111   8.233  67.424  1.00  0.00    -0.121 A  
HETATM   28  C   UNL     1      -6.353   7.903  69.064  1.00  0.00    -0.036 A  
HETATM   29  O   UNL     1     -10.638   9.259  70.560  1.00  0.00    -0.215 OA 
HETATM   30  C   UNL     1      -9.003   8.561  68.464  1.00  0.00    -0.139 A  
HETATM   31  O   UNL     1      -9.052   8.908  72.034  1.00  0.00    -0.353 OA 
HETATM   32  C   UNL     1      -8.560   8.566  69.792  1.00  0.00    -0.131 A  
HETATM   33  C   UNL     1      -6.782   7.920  67.738  1.00  0.00    -0.068 A  
HETATM   34  C   UNL     1      -7.238   8.221  70.096  1.00  0.00    -0.055 A  
HETATM   35  N   UNL     1      -9.482   8.937  70.871  1.00  0.00    -0.214 N  
ENDBRANCH  12  27
ENDBRANCH   3   5
ENDBRANCH   2   3
TORSDOF 10
ENDMDL
MODEL      186
REMARK 921   NORMALIZED FREE ENERGY PREDICTED BY IDOCK:   -4.22 KCAL/MOL
REMARK 922        TOTAL FREE ENERGY PREDICTED BY IDOCK:   -8.20 KCAL/MOL
REMARK 923 INTER-LIGAND FREE ENERGY PREDICTED BY IDOCK:   -6.94 KCAL/MOL
REMARK 924 INTRA-LIGAND FREE ENERGY PREDICTED BY IDOCK:   -1.26 KCAL/MOL
REMARK 927      BINDING AFFINITY PREDICTED BY RF-SCORE:    0.00 PKD
ROOT
HETATM    1  C   UNL     1     -11.672  14.232  70.409  1.00  0.00    -0.262 C  
HETATM    2  O   UNL     1     -11.504  13.580  69.146  1.00  0.00    -0.261 OA 
ENDROOT
BRANCH   2   3
HETATM    3  C   UNL     1     -10.278  13.795  68.602  1.00  0.00    -0.208 C  
HETATM    4  O   UNL     1      -9.423  14.527  69.077  1.00  0.00    -0.179 OA 
BRANCH   3   5
HETATM    5  C   UNL     1     -10.122  13.063  67.319  1.00  0.00    -0.235 C  
HETATM    6  C   UNL     1     -10.789  13.471  66.213  1.00  0.00    -0.289 C  
HETATM    7  C   UNL     1     -11.646  14.708  66.086  1.00  0.00    -0.332 C  
HETATM    8  N   UNL     1     -10.734  12.706  65.061  1.00  0.00    -0.284 NA 
HETATM    9  C   UNL     1     -10.192  11.439  64.977  1.00  0.00    -0.281 C  
HETATM   10  C   UNL     1      -9.505  10.930  66.028  1.00  0.00    -0.235 C  
HETATM   11  C   UNL     1     -10.403  10.732  63.657  1.00  0.00    -0.265 C  
HETATM   12  C   UNL     1      -9.287  11.770  67.300  1.00  0.00    -0.171 C  
BRANCH  10  13
HETATM   13  C   UNL     1      -8.862   9.589  65.910  1.00  0.00    -0.164 C  
HETATM   14  O   UNL     1      -7.658   9.378  65.897  1.00  0.00    -0.097 OA 
BRANCH  13  15
HETATM   15  O   UNL     1      -9.807   8.626  66.032  1.00  0.00    -0.235 OA 
BRANCH  15  16
HETATM   16  C   UNL     1      -9.503   7.651  67.044  1.00  0.00    -0.163 C  
BRANCH  16  17
HETATM   17  C   UNL     1      -9.944   6.297  66.466  1.00  0.00    -0.115 C  
BRANCH  17  18
HETATM   18  N   UNL     1      -8.944   5.222  66.436  1.00  0.00    -0.125 NA 
HETATM   19  C   UNL     1      -9.469   4.011  67.072  1.00  0.00    -0.199 C  
BRANCH  18  20
HETATM   20  C   UNL     1      -8.574   4.924  65.031  1.00  0.00    -0.147 C  
BRANCH  20  21
HETATM   21  C   UNL     1      -7.622   5.945  64.434  1.00  0.00    -0.087 A  
HETATM   22  C   UNL     1      -7.943   6.594  63.232  1.00  0.00    -0.076 A  
HETATM   23  C   UNL     1      -7.036   7.463  62.629  1.00  0.00    -0.071 A  
HETATM   24  C   UNL     1      -5.798   7.702  63.225  1.00  0.00    -0.050 A  
HETATM   25  C   UNL     1      -5.473   7.081  64.429  1.00  0.00    -0.032 A  
HETATM   26  C   UNL     1      -6.380   6.208  65.035  1.00  0.00    -0.038 A  
ENDBRANCH  20  21
ENDBRANCH  18  20
ENDBRANCH  17  18
ENDBRANCH  16  17
ENDBRANCH  15  16
ENDBRANCH  13  15
ENDBRANCH  10  13
BRANCH  12  27
HETATM   27  C   UNL     1      -9.505  10.941  68.570  1.00  0.00    -0.185 A  
HETATM   28  C   UNL     1      -8.640   9.512  70.330  1.00  0.00    -0.246 A  
HETATM   29  O   UNL     1     -13.273  10.500  70.269  1.00  0.00    -0.175 OA 
HETATM   30  C   UNL     1     -10.801  10.793  69.103  1.00  0.00    -0.281 A  
HETATM   31  O   UNL     1     -12.483   9.170  71.824  1.00  0.00    -0.325 OA 
HETATM   32  C   UNL     1     -11.002  10.015  70.249  1.00  0.00    -0.316 A  
HETATM   33  C   UNL     1      -8.430  10.306  69.204  1.00  0.00    -0.164 A  
HETATM   34  C   UNL     1      -9.925   9.360  70.855  1.00  0.00    -0.353 A  
HETATM   35  N   UNL     1     -12.348   9.886  70.821  1.00  0.00    -0.290 N  
ENDBRANCH  12  27
ENDBRANCH   3   5
ENDBRANCH   2   3
TORSDOF 10
ENDMDL
MODEL      187
REMARK 921   NORMALIZED FREE ENERGY PREDICTED BY IDOCK:   -4.17 KCAL/MOL
REMARK 922        TOTAL FREE ENERGY PREDICTED BY IDOCK:   -8.13 KCAL/MOL
REMARK 923 INTER-LIGAND FREE ENERGY PREDICTED BY IDOCK:   -7.64 KCAL/MOL
REMARK 924 INTRA-LIGAND FREE ENERGY PREDICTED BY IDOCK:   -0.49 KCAL/MOL
REMARK 927      BINDING AFFINITY PREDICTED BY RF-SCORE:    0.00 PKD
ROOT
HETATM    1  C   UNL     1      -8.104   7.373  70.374  1.00  0.00    -0.108 C  
HETATM    2  O   UNL     1      -7.949   8.387  69.376  1.00  0.00    -0.107 OA 
ENDROOT
BRANCH   2   3
HETATM    3  C   UNL     1      -6.648   8.640  69.079  1.00  0.00    -0.048 C  
HETATM    4  O   UNL     1      -5.886   7.844  68.550  1.00  0.00    -0.033 OA 
BRANCH   3   5
HETATM    5  C   UNL     1      -6.246   9.998  69.526  1.00  0.00    -0.046 C  
HETATM    6  C   UNL     1      -5.783  10.195  70.783  1.00  0.00    -0.089 C  
HETATM    7  C   UNL     1      -5.513   9.129  71.818  1.00  0.00    -0.061 C  
HETATM    8  N   UNL     1      -5.534  11.482  71.226  1.00  0.00    -0.347 NA 
HETATM    9  C   UNL     1      -5.888  12.634  70.551  1.00  0.00    -0.129 C  
HETATM   10  C   UNL     1      -6.366  12.553  69.286  1.00  0.00    -0.110 C  
HETATM   11  C   UNL     1      -5.669  13.921  71.312  1.00  0.00    -0.224 C  
HETATM   12  C   UNL     1      -6.478  11.189  68.579  1.00  0.00    -0.058 C  
BRANCH  10  13
HETATM   13  C   UNL     1      -6.683  13.801  68.535  1.00  0.00    -0.094 C  
HETATM   14  O   UNL     1      -6.190  14.132  67.466  1.00  0.00    -0.311 OA 
BRANCH  13  15
HETATM   15  O   UNL     1      -7.751  14.410  69.106  1.00  0.00    -0.121 OA 
BRANCH  15  16
HETATM   16  C   UNL     1      -8.829  14.655  68.188  1.00  0.00    -0.173 C  
BRANCH  16  17
HETATM   17  C   UNL     1     -10.113  14.625  69.032  1.00  0.00    -0.209 C  
BRANCH  17  18
HETATM   18  N   UNL     1     -11.369  14.971  68.355  1.00  0.00    -0.295 NA 
HETATM   19  C   UNL     1     -12.178  13.771  68.125  1.00  0.00    -0.143 C  
BRANCH  18  20
HETATM   20  C   UNL     1     -12.134  15.934  69.184  1.00  0.00    -0.142 C  
BRANCH  20  21
HETATM   21  C   UNL     1     -12.361  15.451  70.605  1.00  0.00    -0.451 A  
HETATM   22  C   UNL     1     -13.217  14.369  70.857  1.00  0.00    -0.347 A  
HETATM   23  C   UNL     1     -13.503  13.978  72.164  1.00  0.00    -0.567 A  
HETATM   24  C   UNL     1     -12.929  14.657  73.237  1.00  0.00    -0.569 A  
HETATM   25  C   UNL     1     -12.060  15.721  73.003  1.00  0.00    -0.601 A  
HETATM   26  C   UNL     1     -11.772  16.117  71.693  1.00  0.00    -0.558 A  
ENDBRANCH  20  21
ENDBRANCH  18  20
ENDBRANCH  17  18
ENDBRANCH  16  17
ENDBRANCH  15  16
ENDBRANCH  13  15
ENDBRANCH  10  13
BRANCH  12  27
HETATM   27  C   UNL     1      -7.801  11.053  67.818  1.00  0.00    -0.110 A  
HETATM   28  C   UNL     1     -10.226  10.945  67.807  1.00  0.00    -0.209 A  
HETATM   29  O   UNL     1      -7.906  10.490  63.701  1.00  0.00    -0.110 OA 
HETATM   30  C   UNL     1      -7.797  10.837  66.426  1.00  0.00    -0.148 A  
HETATM   31  O   UNL     1     -10.094  10.345  63.715  1.00  0.00    -0.274 OA 
HETATM   32  C   UNL     1      -9.006  10.688  65.737  1.00  0.00    -0.182 A  
HETATM   33  C   UNL     1      -9.026  11.119  68.495  1.00  0.00    -0.168 A  
HETATM   34  C   UNL     1     -10.222  10.725  66.428  1.00  0.00    -0.294 A  
HETATM   35  N   UNL     1      -9.001  10.494  64.281  1.00  0.00    -0.205 N  
ENDBRANCH  12  27
ENDBRANCH   3   5
ENDBRANCH   2   3
TORSDOF 10
ENDMDL
MODEL      188
REMARK 921   NORMALIZED FREE ENERGY PREDICTED BY IDOCK:   -4.16 KCAL/MOL
REMARK 922        TOTAL FREE ENERGY PREDICTED BY IDOCK:   -8.10 KCAL/MOL
REMARK 923 INTER-LIGAND FREE ENERGY PREDICTED BY IDOCK:   -6.58 KCAL/MOL
REMARK 924 INTRA-LIGAND FREE ENERGY PREDICTED BY IDOCK:   -1.52 KCAL/MOL
REMARK 927      BINDING AFFINITY PREDICTED BY RF-SCORE:    0.00 PKD
ROOT
HETATM    1  C   UNL     1      -5.978   7.061  72.701  1.00  0.00    -0.041 C  
HETATM    2  O   UNL     1      -6.811   7.619  71.679  1.00  0.00    -0.052 OA 
ENDROOT
BRANCH   2   3
HETATM    3  C   UNL     1      -6.161   7.775  70.497  1.00  0.00    -0.037 C  
HETATM    4  O   UNL     1      -5.204   7.108  70.134  1.00  0.00    -0.022 OA 
BRANCH   3   5
HETATM    5  C   UNL     1      -6.732   8.899  69.712  1.00  0.00    -0.045 C  
HETATM    6  C   UNL     1      -6.500  10.180  70.086  1.00  0.00    -0.118 C  
HETATM    7  C   UNL     1      -5.601  10.640  71.209  1.00  0.00     0.025 C  
HETATM    8  N   UNL     1      -7.141  11.213  69.424  1.00  0.00    -0.123 NA 
HETATM    9  C   UNL     1      -8.159  11.051  68.504  1.00  0.00    -0.140 C  
HETATM   10  C   UNL     1      -8.476   9.811  68.062  1.00  0.00    -0.118 C  
HETATM   11  C   UNL     1      -8.822  12.330  68.044  1.00  0.00    -0.182 C  
HETATM   12  C   UNL     1      -7.683   8.582  68.545  1.00  0.00    -0.103 C  
BRANCH  10  13
HETATM   13  C   UNL     1      -9.528   9.645  67.018  1.00  0.00    -0.154 C  
HETATM   14  O   UNL     1     -10.688   9.321  67.224  1.00  0.00    -0.268 OA 
BRANCH  13  15
HETATM   15  O   UNL     1      -9.063  10.112  65.834  1.00  0.00    -0.147 OA 
BRANCH  15  16
HETATM   16  C   UNL     1     -10.100  10.364  64.870  1.00  0.00    -0.312 C  
BRANCH  16  17
HETATM   17  C   UNL     1      -9.985  11.853  64.511  1.00  0.00    -0.228 C  
BRANCH  17  18
HETATM   18  N   UNL     1     -11.183  12.682  64.694  1.00  0.00    -0.298 NA 
HETATM   19  C   UNL     1     -12.094  12.529  63.556  1.00  0.00    -0.562 C  
BRANCH  18  20
HETATM   20  C   UNL     1     -11.878  12.286  65.943  1.00  0.00    -0.354 C  
BRANCH  20  21
HETATM   21  C   UNL     1     -11.866  13.372  67.004  1.00  0.00    -0.443 A  
HETATM   22  C   UNL     1     -11.541  14.693  66.661  1.00  0.00    -0.359 A  
HETATM   23  C   UNL     1     -11.437  15.677  67.642  1.00  0.00    -0.167 A  
HETATM   24  C   UNL     1     -11.664  15.356  68.979  1.00  0.00    -0.380 A  
HETATM   25  C   UNL     1     -12.007  14.052  69.334  1.00  0.00    -0.390 A  
HETATM   26  C   UNL     1     -12.111  13.063  68.352  1.00  0.00    -0.193 A  
ENDBRANCH  20  21
ENDBRANCH  18  20
ENDBRANCH  17  18
ENDBRANCH  16  17
ENDBRANCH  15  16
ENDBRANCH  13  15
ENDBRANCH  10  13
BRANCH  12  27
HETATM   27  C   UNL     1      -8.606   7.406  68.876  1.00  0.00    -0.129 A  
HETATM   28  C   UNL     1     -10.420   6.449  70.175  1.00  0.00    -0.269 A  
HETATM   29  O   UNL     1      -8.242   3.735  66.961  1.00  0.00    -0.094 OA 
HETATM   30  C   UNL     1      -8.437   6.168  68.224  1.00  0.00    -0.113 A  
HETATM   31  O   UNL     1      -9.849   2.871  68.177  1.00  0.00    -0.014 OA 
HETATM   32  C   UNL     1      -9.265   5.087  68.547  1.00  0.00    -0.120 A  
HETATM   33  C   UNL     1      -9.614   7.537  69.840  1.00  0.00    -0.160 A  
HETATM   34  C   UNL     1     -10.248   5.221  69.534  1.00  0.00    -0.338 A  
HETATM   35  N   UNL     1      -9.107   3.807  67.845  1.00  0.00    -0.138 N  
ENDBRANCH  12  27
ENDBRANCH   3   5
ENDBRANCH   2   3
TORSDOF 10
ENDMDL
MODEL      189
REMARK 921   NORMALIZED FREE ENERGY PREDICTED BY IDOCK:   -4.15 KCAL/MOL
REMARK 922        TOTAL FREE ENERGY PREDICTED BY IDOCK:   -8.09 KCAL/MOL
REMARK 923 INTER-LIGAND FREE ENERGY PREDICTED BY IDOCK:   -6.76 KCAL/MOL
REMARK 924 INTRA-LIGAND FREE ENERGY PREDICTED BY IDOCK:   -1.33 KCAL/MOL
REMARK 927      BINDING AFFINITY PREDICTED BY RF-SCORE:    0.00 PKD
ROOT
HETATM    1  C   UNL     1      -5.460  11.117  66.137  1.00  0.00    -0.143 C  
HETATM    2  O   UNL     1      -6.113   9.860  65.932  1.00  0.00    -0.066 OA 
ENDROOT
BRANCH   2   3
HETATM    3  C   UNL     1      -7.449   9.988  65.729  1.00  0.00    -0.121 C  
HETATM    4  O   UNL     1      -7.961  10.716  64.892  1.00  0.00    -0.105 OA 
BRANCH   3   5
HETATM    5  C   UNL     1      -8.223   9.161  66.690  1.00  0.00    -0.115 C  
HETATM    6  C   UNL     1      -8.526   7.875  66.396  1.00  0.00    -0.138 C  
HETATM    7  C   UNL     1      -8.066   7.097  65.186  1.00  0.00    -0.127 C  
HETATM    8  N   UNL     1      -9.355   7.157  67.241  1.00  0.00    -0.131 NA 
HETATM    9  C   UNL     1     -10.065   7.694  68.297  1.00  0.00    -0.186 C  
HETATM   10  C   UNL     1      -9.842   8.976  68.676  1.00  0.00    -0.177 C  
HETATM   11  C   UNL     1     -11.037   6.750  68.968  1.00  0.00    -0.254 C  
HETATM   12  C   UNL     1      -8.772   9.826  67.965  1.00  0.00    -0.118 C  
BRANCH  10  13
HETATM   13  C   UNL     1     -10.560   9.532  69.858  1.00  0.00    -0.241 C  
HETATM   14  O   UNL     1     -11.770   9.685  69.947  1.00  0.00    -0.117 OA 
BRANCH  13  15
HETATM   15  O   UNL     1      -9.696   9.645  70.896  1.00  0.00    -0.225 OA 
BRANCH  15  16
HETATM   16  C   UNL     1      -9.651   8.478  71.734  1.00  0.00    -0.267 C  
BRANCH  16  17
HETATM   17  C   UNL     1      -8.203   7.968  71.664  1.00  0.00    -0.119 C  
BRANCH  17  18
HETATM   18  N   UNL     1      -7.760   7.059  72.729  1.00  0.00    -0.088 NA 
HETATM   19  C   UNL     1      -6.585   7.603  73.415  1.00  0.00    -0.069 C  
BRANCH  18  20
HETATM   20  C   UNL     1      -8.859   6.862  73.706  1.00  0.00    -0.153 C  
BRANCH  20  21
HETATM   21  C   UNL     1      -9.443   5.461  73.674  1.00  0.00    -0.137 A  
HETATM   22  C   UNL     1     -10.798   5.265  73.370  1.00  0.00    -0.355 A  
HETATM   23  C   UNL     1     -11.364   3.993  73.429  1.00  0.00    -0.272 A  
HETATM   24  C   UNL     1     -10.579   2.897  73.785  1.00  0.00    -0.262 A  
HETATM   25  C   UNL     1      -9.226   3.072  74.070  1.00  0.00    -0.093 A  
HETATM   26  C   UNL     1      -8.657   4.347  74.013  1.00  0.00    -0.101 A  
ENDBRANCH  20  21
ENDBRANCH  18  20
ENDBRANCH  17  18
ENDBRANCH  16  17
ENDBRANCH  15  16
ENDBRANCH  13  15
ENDBRANCH  10  13
BRANCH  12  27
HETATM   27  C   UNL     1      -9.270  11.247  67.688  1.00  0.00    -0.156 A  
HETATM   28  C   UNL     1      -9.093  13.646  68.015  1.00  0.00    -0.192 A  
HETATM   29  O   UNL     1     -12.604  11.969  65.312  1.00  0.00    -0.371 OA 
HETATM   30  C   UNL     1     -10.420  11.453  66.898  1.00  0.00    -0.278 A  
HETATM   31  O   UNL     1     -12.459  14.130  65.659  1.00  0.00    -0.457 OA 
HETATM   32  C   UNL     1     -10.888  12.751  66.667  1.00  0.00    -0.264 A  
HETATM   33  C   UNL     1      -8.607  12.357  68.229  1.00  0.00    -0.172 A  
HETATM   34  C   UNL     1     -10.236  13.849  67.238  1.00  0.00    -0.249 A  
HETATM   35  N   UNL     1     -12.067  12.965  65.819  1.00  0.00    -0.444 N  
ENDBRANCH  12  27
ENDBRANCH   3   5
ENDBRANCH   2   3
TORSDOF 10
ENDMDL
MODEL      190
REMARK 921   NORMALIZED FREE ENERGY PREDICTED BY IDOCK:   -4.15 KCAL/MOL
REMARK 922        TOTAL FREE ENERGY PREDICTED BY IDOCK:   -8.09 KCAL/MOL
REMARK 923 INTER-LIGAND FREE ENERGY PREDICTED BY IDOCK:   -6.13 KCAL/MOL
REMARK 924 INTRA-LIGAND FREE ENERGY PREDICTED BY IDOCK:   -1.95 KCAL/MOL
REMARK 927      BINDING AFFINITY PREDICTED BY RF-SCORE:    0.00 PKD
ROOT
HETATM    1  C   UNL     1     -11.145  10.629  67.266  1.00  0.00    -0.243 C  
HETATM    2  O   UNL     1     -10.307   9.525  66.908  1.00  0.00    -0.240 OA 
ENDROOT
BRANCH   2   3
HETATM    3  C   UNL     1      -9.029   9.899  66.642  1.00  0.00    -0.139 C  
HETATM    4  O   UNL     1      -8.563  10.041  65.521  1.00  0.00    -0.139 OA 
BRANCH   3   5
HETATM    5  C   UNL     1      -8.245  10.068  67.892  1.00  0.00    -0.113 C  
HETATM    6  C   UNL     1      -7.713  11.273  68.207  1.00  0.00    -0.122 C  
HETATM    7  C   UNL     1      -7.911  12.567  67.455  1.00  0.00    -0.180 C  
HETATM    8  N   UNL     1      -6.880  11.386  69.306  1.00  0.00    -0.112 NA 
HETATM    9  C   UNL     1      -6.381  10.323  70.034  1.00  0.00    -0.101 C  
HETATM   10  C   UNL     1      -6.842   9.071  69.799  1.00  0.00    -0.050 C  
HETATM   11  C   UNL     1      -5.353  10.684  71.081  1.00  0.00    -0.085 C  
HETATM   12  C   UNL     1      -7.949   8.829  68.755  1.00  0.00    -0.106 C  
BRANCH  10  13
HETATM   13  C   UNL     1      -6.354   7.935  70.632  1.00  0.00    -0.037 C  
HETATM   14  O   UNL     1      -5.297   7.342  70.474  1.00  0.00    -0.023 OA 
BRANCH  13  15
HETATM   15  O   UNL     1      -7.154   7.797  71.717  1.00  0.00    -0.060 OA 
BRANCH  15  16
HETATM   16  C   UNL     1      -7.832   6.530  71.771  1.00  0.00    -0.103 C  
BRANCH  16  17
HETATM   17  C   UNL     1      -9.321   6.859  71.957  1.00  0.00    -0.140 C  
BRANCH  17  18
HETATM   18  N   UNL     1     -10.289   5.822  71.580  1.00  0.00    -0.213 NA 
HETATM   19  C   UNL     1     -11.090   5.417  72.739  1.00  0.00    -0.294 C  
BRANCH  18  20
HETATM   20  C   UNL     1     -11.184   6.337  70.515  1.00  0.00    -0.354 C  
BRANCH  20  21
HETATM   21  C   UNL     1     -11.764   7.704  70.832  1.00  0.00    -0.291 A  
HETATM   22  C   UNL     1     -11.056   8.868  70.498  1.00  0.00    -0.288 A  
HETATM   23  C   UNL     1     -11.537  10.123  70.868  1.00  0.00    -0.459 A  
HETATM   24  C   UNL     1     -12.737  10.232  71.568  1.00  0.00    -0.557 A  
HETATM   25  C   UNL     1     -13.462   9.085  71.889  1.00  0.00    -0.481 A  
HETATM   26  C   UNL     1     -12.982   7.826  71.521  1.00  0.00    -0.357 A  
ENDBRANCH  20  21
ENDBRANCH  18  20
ENDBRANCH  17  18
ENDBRANCH  16  17
ENDBRANCH  15  16
ENDBRANCH  13  15
ENDBRANCH  10  13
BRANCH  12  27
HETATM   27  C   UNL     1      -7.652   7.599  67.890  1.00  0.00    -0.117 A  
HETATM   28  C   UNL     1      -6.320   6.485  66.195  1.00  0.00    -0.042 A  
HETATM   29  O   UNL     1     -10.029   4.193  68.048  1.00  0.00    -0.074 OA 
HETATM   30  C   UNL     1      -8.495   6.472  67.951  1.00  0.00    -0.118 A  
HETATM   31  O   UNL     1      -8.845   3.220  66.479  1.00  0.00    -0.126 OA 
HETATM   32  C   UNL     1      -8.237   5.360  67.142  1.00  0.00    -0.104 A  
HETATM   33  C   UNL     1      -6.557   7.586  67.016  1.00  0.00    -0.062 A  
HETATM   34  C   UNL     1      -7.159   5.370  66.251  1.00  0.00    -0.072 A  
HETATM   35  N   UNL     1      -9.099   4.174  67.230  1.00  0.00    -0.133 N  
ENDBRANCH  12  27
ENDBRANCH   3   5
ENDBRANCH   2   3
TORSDOF 10
ENDMDL
MODEL      191
REMARK 921   NORMALIZED FREE ENERGY PREDICTED BY IDOCK:   -4.13 KCAL/MOL
REMARK 922        TOTAL FREE ENERGY PREDICTED BY IDOCK:   -8.07 KCAL/MOL
REMARK 923 INTER-LIGAND FREE ENERGY PREDICTED BY IDOCK:   -7.02 KCAL/MOL
REMARK 924 INTRA-LIGAND FREE ENERGY PREDICTED BY IDOCK:   -1.04 KCAL/MOL
REMARK 927      BINDING AFFINITY PREDICTED BY RF-SCORE:    0.00 PKD
ROOT
HETATM    1  C   UNL     1      -6.092   2.945  72.148  1.00  0.00    -0.013 C  
HETATM    2  O   UNL     1      -6.603   3.808  71.127  1.00  0.00    -0.028 OA 
ENDROOT
BRANCH   2   3
HETATM    3  C   UNL     1      -7.944   3.683  70.953  1.00  0.00    -0.057 C  
HETATM    4  O   UNL     1      -8.490   2.744  70.393  1.00  0.00    -0.050 OA 
BRANCH   3   5
HETATM    5  C   UNL     1      -8.669   4.863  71.489  1.00  0.00    -0.141 C  
HETATM    6  C   UNL     1      -9.724   4.696  72.322  1.00  0.00    -0.161 C  
HETATM    7  C   UNL     1     -10.223   3.389  72.889  1.00  0.00    -0.240 C  
HETATM    8  N   UNL     1     -10.469   5.796  72.711  1.00  0.00    -0.199 NA 
HETATM    9  C   UNL     1     -10.345   7.064  72.178  1.00  0.00    -0.191 C  
HETATM   10  C   UNL     1      -9.326   7.341  71.329  1.00  0.00    -0.155 C  
HETATM   11  C   UNL     1     -11.384   8.062  72.637  1.00  0.00    -0.469 C  
HETATM   12  C   UNL     1      -8.279   6.265  70.988  1.00  0.00    -0.123 C  
BRANCH  10  13
HETATM   13  C   UNL     1      -9.154   8.728  70.809  1.00  0.00    -0.192 C  
HETATM   14  O   UNL     1      -8.344   9.545  71.219  1.00  0.00    -0.265 OA 
BRANCH  13  15
HETATM   15  O   UNL     1      -9.884   8.875  69.676  1.00  0.00    -0.173 OA 
BRANCH  15  16
HETATM   16  C   UNL     1      -9.902  10.224  69.178  1.00  0.00    -0.216 C  
BRANCH  16  17
HETATM   17  C   UNL     1     -11.003  10.259  68.106  1.00  0.00    -0.274 C  
BRANCH  17  18
HETATM   18  N   UNL     1     -11.427  11.580  67.624  1.00  0.00    -0.437 NA 
HETATM   19  C   UNL     1     -11.909  12.404  68.736  1.00  0.00    -0.311 C  
BRANCH  18  20
HETATM   20  C   UNL     1     -10.288  12.259  66.960  1.00  0.00    -0.219 C  
BRANCH  20  21
HETATM   21  C   UNL     1     -10.719  13.382  66.034  1.00  0.00    -0.283 A  
HETATM   22  C   UNL     1     -10.005  14.589  66.004  1.00  0.00    -0.343 A  
HETATM   23  C   UNL     1     -10.447  15.657  65.226  1.00  0.00    -0.439 A  
HETATM   24  C   UNL     1     -11.604  15.530  64.459  1.00  0.00    -0.283 A  
HETATM   25  C   UNL     1     -12.313  14.330  64.462  1.00  0.00    -0.432 A  
HETATM   26  C   UNL     1     -11.873  13.257  65.242  1.00  0.00    -0.386 A  
ENDBRANCH  20  21
ENDBRANCH  18  20
ENDBRANCH  17  18
ENDBRANCH  16  17
ENDBRANCH  15  16
ENDBRANCH  13  15
ENDBRANCH  10  13
BRANCH  12  27
HETATM   27  C   UNL     1      -7.945   6.254  69.493  1.00  0.00    -0.108 A  
HETATM   28  C   UNL     1      -6.447   6.800  67.662  1.00  0.00    -0.049 A  
HETATM   29  O   UNL     1     -10.582   4.709  66.676  1.00  0.00    -0.184 OA 
HETATM   30  C   UNL     1      -8.875   5.745  68.564  1.00  0.00    -0.110 A  
HETATM   31  O   UNL     1      -9.240   5.254  65.030  1.00  0.00    -0.092 OA 
HETATM   32  C   UNL     1      -8.578   5.759  67.196  1.00  0.00    -0.109 A  
HETATM   33  C   UNL     1      -6.726   6.766  69.027  1.00  0.00    -0.059 A  
HETATM   34  C   UNL     1      -7.371   6.302  66.741  1.00  0.00    -0.079 A  
HETATM   35  N   UNL     1      -9.535   5.201  66.233  1.00  0.00    -0.149 N  
ENDBRANCH  12  27
ENDBRANCH   3   5
ENDBRANCH   2   3
TORSDOF 10
ENDMDL
MODEL      192
REMARK 921   NORMALIZED FREE ENERGY PREDICTED BY IDOCK:   -4.11 KCAL/MOL
REMARK 922        TOTAL FREE ENERGY PREDICTED BY IDOCK:   -8.03 KCAL/MOL
REMARK 923 INTER-LIGAND FREE ENERGY PREDICTED BY IDOCK:   -6.74 KCAL/MOL
REMARK 924 INTRA-LIGAND FREE ENERGY PREDICTED BY IDOCK:   -1.29 KCAL/MOL
REMARK 927      BINDING AFFINITY PREDICTED BY RF-SCORE:    0.00 PKD
ROOT
HETATM    1  C   UNL     1     -11.799   6.636  70.930  1.00  0.00    -0.377 C  
HETATM    2  O   UNL     1     -11.698   6.159  69.584  1.00  0.00    -0.331 OA 
ENDROOT
BRANCH   2   3
HETATM    3  C   UNL     1     -10.487   5.608  69.310  1.00  0.00    -0.286 C  
HETATM    4  O   UNL     1     -10.013   4.642  69.890  1.00  0.00    -0.213 OA 
BRANCH   3   5
HETATM    5  C   UNL     1      -9.782   6.360  68.241  1.00  0.00    -0.127 C  
HETATM    6  C   UNL     1      -9.652   5.828  67.003  1.00  0.00    -0.135 C  
HETATM    7  C   UNL     1     -10.255   4.532  66.514  1.00  0.00    -0.224 C  
HETATM    8  N   UNL     1      -8.883   6.481  66.055  1.00  0.00    -0.154 NA 
HETATM    9  C   UNL     1      -8.068   7.567  66.308  1.00  0.00    -0.113 C  
HETATM   10  C   UNL     1      -8.116   8.176  67.518  1.00  0.00    -0.123 C  
HETATM   11  C   UNL     1      -7.193   8.000  65.155  1.00  0.00    -0.065 C  
HETATM   12  C   UNL     1      -9.102   7.694  68.598  1.00  0.00    -0.135 C  
BRANCH  10  13
HETATM   13  C   UNL     1      -7.285   9.390  67.766  1.00  0.00    -0.083 C  
HETATM   14  O   UNL     1      -6.129   9.390  68.161  1.00  0.00    -0.051 OA 
BRANCH  13  15
HETATM   15  O   UNL     1      -7.932  10.481  67.288  1.00  0.00    -0.112 OA 
BRANCH  15  16
HETATM   16  C   UNL     1      -8.188  11.479  68.290  1.00  0.00    -0.152 C  
BRANCH  16  17
HETATM   17  C   UNL     1      -9.488  11.050  68.987  1.00  0.00    -0.108 C  
BRANCH  17  18
HETATM   18  N   UNL     1     -10.751  11.487  68.377  1.00  0.00    -0.197 NA 
HETATM   19  C   UNL     1     -11.894  10.922  69.100  1.00  0.00    -0.317 C  
BRANCH  18  20
HETATM   20  C   UNL     1     -10.832  12.968  68.400  1.00  0.00    -0.258 C  
BRANCH  20  21
HETATM   21  C   UNL     1     -11.245  13.565  67.067  1.00  0.00    -0.330 A  
HETATM   22  C   UNL     1     -12.081  12.848  66.199  1.00  0.00    -0.458 A  
HETATM   23  C   UNL     1     -12.391  13.347  64.936  1.00  0.00    -0.457 A  
HETATM   24  C   UNL     1     -11.875  14.575  64.526  1.00  0.00    -0.459 A  
HETATM   25  C   UNL     1     -11.058  15.309  65.384  1.00  0.00    -0.351 A  
HETATM   26  C   UNL     1     -10.745  14.810  66.651  1.00  0.00    -0.309 A  
ENDBRANCH  20  21
ENDBRANCH  18  20
ENDBRANCH  17  18
ENDBRANCH  16  17
ENDBRANCH  15  16
ENDBRANCH  13  15
ENDBRANCH  10  13
BRANCH  12  27
HETATM   27  C   UNL     1      -8.444   7.637  69.980  1.00  0.00    -0.136 A  
HETATM   28  C   UNL     1      -8.245   8.457  72.256  1.00  0.00    -0.202 A  
HETATM   29  O   UNL     1      -5.337   5.006  70.815  1.00  0.00    -0.004 OA 
HETATM   30  C   UNL     1      -7.376   6.750  70.220  1.00  0.00    -0.085 A  
HETATM   31  O   UNL     1      -5.137   5.792  72.853  1.00  0.00    -0.017 OA 
HETATM   32  C   UNL     1      -6.760   6.718  71.476  1.00  0.00    -0.061 A  
HETATM   33  C   UNL     1      -8.879   8.476  71.015  1.00  0.00    -0.212 A  
HETATM   34  C   UNL     1      -7.182   7.582  72.491  1.00  0.00    -0.078 A  
HETATM   35  N   UNL     1      -5.667   5.771  71.732  1.00  0.00    -0.021 N  
ENDBRANCH  12  27
ENDBRANCH   3   5
ENDBRANCH   2   3
TORSDOF 10
ENDMDL
MODEL      193
REMARK 921   NORMALIZED FREE ENERGY PREDICTED BY IDOCK:   -4.11 KCAL/MOL
REMARK 922        TOTAL FREE ENERGY PREDICTED BY IDOCK:   -8.03 KCAL/MOL
REMARK 923 INTER-LIGAND FREE ENERGY PREDICTED BY IDOCK:   -6.31 KCAL/MOL
REMARK 924 INTRA-LIGAND FREE ENERGY PREDICTED BY IDOCK:   -1.72 KCAL/MOL
REMARK 927      BINDING AFFINITY PREDICTED BY RF-SCORE:    0.00 PKD
ROOT
HETATM    1  C   UNL     1      -5.897  11.120  68.449  1.00  0.00    -0.042 C  
HETATM    2  O   UNL     1      -5.666  10.107  67.464  1.00  0.00    -0.045 OA 
ENDROOT
BRANCH   2   3
HETATM    3  C   UNL     1      -6.631  10.069  66.510  1.00  0.00    -0.074 C  
HETATM    4  O   UNL     1      -7.115  11.052  65.968  1.00  0.00    -0.105 OA 
BRANCH   3   5
HETATM    5  C   UNL     1      -7.067   8.676  66.239  1.00  0.00    -0.078 C  
HETATM    6  C   UNL     1      -6.962   8.157  64.992  1.00  0.00    -0.070 C  
HETATM    7  C   UNL     1      -6.328   8.822  63.793  1.00  0.00    -0.080 C  
HETATM    8  N   UNL     1      -7.488   6.905  64.725  1.00  0.00    -0.089 NA 
HETATM    9  C   UNL     1      -8.289   6.183  65.588  1.00  0.00    -0.146 C  
HETATM   10  C   UNL     1      -8.466   6.613  66.861  1.00  0.00    -0.115 C  
HETATM   11  C   UNL     1      -8.887   4.921  65.010  1.00  0.00    -0.154 C  
HETATM   12  C   UNL     1      -7.747   7.878  67.366  1.00  0.00    -0.109 C  
BRANCH  10  13
HETATM   13  C   UNL     1      -9.276   5.796  67.810  1.00  0.00    -0.105 C  
HETATM   14  O   UNL     1     -10.489   5.860  67.946  1.00  0.00    -0.191 OA 
BRANCH  13  15
HETATM   15  O   UNL     1      -8.495   4.827  68.347  1.00  0.00    -0.094 OA 
BRANCH  15  16
HETATM   16  C   UNL     1      -7.814   5.239  69.544  1.00  0.00    -0.084 C  
BRANCH  16  17
HETATM   17  C   UNL     1      -8.624   4.652  70.710  1.00  0.00    -0.097 C  
BRANCH  17  18
HETATM   18  N   UNL     1      -8.271   5.100  72.064  1.00  0.00    -0.115 NA 
HETATM   19  C   UNL     1      -7.619   6.411  72.019  1.00  0.00    -0.095 C  
BRANCH  18  20
HETATM   20  C   UNL     1      -9.496   5.182  72.897  1.00  0.00    -0.143 C  
BRANCH  20  21
HETATM   21  C   UNL     1     -10.510   6.180  72.370  1.00  0.00    -0.228 A  
HETATM   22  C   UNL     1     -10.791   7.351  73.090  1.00  0.00    -0.435 A  
HETATM   23  C   UNL     1     -11.787   8.228  72.662  1.00  0.00    -0.382 A  
HETATM   24  C   UNL     1     -12.510   7.949  71.503  1.00  0.00    -0.341 A  
HETATM   25  C   UNL     1     -12.229   6.800  70.766  1.00  0.00    -0.353 A  
HETATM   26  C   UNL     1     -11.232   5.919  71.194  1.00  0.00    -0.281 A  
ENDBRANCH  20  21
ENDBRANCH  18  20
ENDBRANCH  17  18
ENDBRANCH  16  17
ENDBRANCH  15  16
ENDBRANCH  13  15
ENDBRANCH  10  13
BRANCH  12  27
HETATM   27  C   UNL     1      -8.678   8.764  68.199  1.00  0.00    -0.134 A  
HETATM   28  C   UNL     1      -9.477   9.544  70.354  1.00  0.00    -0.317 A  
HETATM   29  O   UNL     1     -11.517  11.227  66.423  1.00  0.00    -0.306 OA 
HETATM   30  C   UNL     1      -9.646   9.567  67.563  1.00  0.00    -0.176 A  
HETATM   31  O   UNL     1     -12.260  11.883  68.378  1.00  0.00    -0.425 OA 
HETATM   32  C   UNL     1     -10.512  10.357  68.327  1.00  0.00    -0.191 A  
HETATM   33  C   UNL     1      -8.595   8.774  69.597  1.00  0.00    -0.130 A  
HETATM   34  C   UNL     1     -10.441  10.335  69.724  1.00  0.00    -0.300 A  
HETATM   35  N   UNL     1     -11.499  11.217  67.662  1.00  0.00    -0.284 N  
ENDBRANCH  12  27
ENDBRANCH   3   5
ENDBRANCH   2   3
TORSDOF 10
ENDMDL
MODEL      194
REMARK 921   NORMALIZED FREE ENERGY PREDICTED BY IDOCK:   -4.08 KCAL/MOL
REMARK 922        TOTAL FREE ENERGY PREDICTED BY IDOCK:   -7.98 KCAL/MOL
REMARK 923 INTER-LIGAND FREE ENERGY PREDICTED BY IDOCK:   -7.94 KCAL/MOL
REMARK 924 INTRA-LIGAND FREE ENERGY PREDICTED BY IDOCK:   -0.04 KCAL/MOL
REMARK 927      BINDING AFFINITY PREDICTED BY RF-SCORE:    0.00 PKD
ROOT
HETATM    1  C   UNL     1      -7.643   5.057  71.317  1.00  0.00    -0.090 C  
HETATM    2  O   UNL     1      -7.317   6.272  70.633  1.00  0.00    -0.078 OA 
ENDROOT
BRANCH   2   3
HETATM    3  C   UNL     1      -7.803   7.375  71.258  1.00  0.00    -0.095 C  
HETATM    4  O   UNL     1      -8.176   7.410  72.421  1.00  0.00    -0.098 OA 
BRANCH   3   5
HETATM    5  C   UNL     1      -7.873   8.533  70.331  1.00  0.00    -0.089 C  
HETATM    6  C   UNL     1      -6.993   9.556  70.448  1.00  0.00    -0.112 C  
HETATM    7  C   UNL     1      -5.817   9.626  71.393  1.00  0.00    -0.050 C  
HETATM    8  N   UNL     1      -7.148  10.685  69.663  1.00  0.00    -0.134 NA 
HETATM    9  C   UNL     1      -8.248  10.953  68.871  1.00  0.00    -0.141 C  
HETATM   10  C   UNL     1      -9.194  10.001  68.688  1.00  0.00    -0.152 C  
HETATM   11  C   UNL     1      -8.271  12.328  68.242  1.00  0.00    -0.167 C  
HETATM   12  C   UNL     1      -9.031   8.605  69.320  1.00  0.00    -0.145 C  
BRANCH  10  13
HETATM   13  C   UNL     1     -10.345  10.268  67.779  1.00  0.00    -0.204 C  
HETATM   14  O   UNL     1     -10.373  10.034  66.580  1.00  0.00    -0.232 OA 
BRANCH  13  15
HETATM   15  O   UNL     1     -11.428  10.613  68.516  1.00  0.00    -0.286 OA 
BRANCH  15  16
HETATM   16  C   UNL     1     -11.291  11.883  69.176  1.00  0.00    -0.279 C  
BRANCH  16  17
HETATM   17  C   UNL     1     -11.851  12.926  68.197  1.00  0.00    -0.336 C  
BRANCH  17  18
HETATM   18  N   UNL     1     -11.914  14.318  68.663  1.00  0.00    -0.332 NA 
HETATM   19  C   UNL     1     -12.648  14.405  69.927  1.00  0.00    -0.170 C  
BRANCH  18  20
HETATM   20  C   UNL     1     -10.539  14.844  68.850  1.00  0.00    -0.247 C  
BRANCH  20  21
HETATM   21  C   UNL     1     -10.256  16.083  68.021  1.00  0.00    -0.245 A  
HETATM   22  C   UNL     1      -9.383  16.018  66.925  1.00  0.00    -0.246 A  
HETATM   23  C   UNL     1      -9.045  17.169  66.216  1.00  0.00    -0.260 A  
HETATM   24  C   UNL     1      -9.583  18.401  66.587  1.00  0.00    -0.320 A  
HETATM   25  C   UNL     1     -10.467  18.479  67.662  1.00  0.00    -0.452 A  
HETATM   26  C   UNL     1     -10.807  17.326  68.376  1.00  0.00    -0.273 A  
ENDBRANCH  20  21
ENDBRANCH  18  20
ENDBRANCH  17  18
ENDBRANCH  16  17
ENDBRANCH  15  16
ENDBRANCH  13  15
ENDBRANCH  10  13
BRANCH  12  27
HETATM   27  C   UNL     1     -10.343   8.104  69.931  1.00  0.00    -0.214 A  
HETATM   28  C   UNL     1     -11.999   6.355  70.227  1.00  0.00    -0.147 A  
HETATM   29  O   UNL     1     -12.723  10.551  72.303  1.00  0.00    -0.231 OA 
HETATM   30  C   UNL     1     -11.137   8.970  70.709  1.00  0.00    -0.328 A  
HETATM   31  O   UNL     1     -14.234   8.976  72.519  1.00  0.00    -0.537 OA 
HETATM   32  C   UNL     1     -12.348   8.518  71.246  1.00  0.00    -0.271 A  
HETATM   33  C   UNL     1     -10.780   6.791  69.710  1.00  0.00    -0.288 A  
HETATM   34  C   UNL     1     -12.789   7.215  70.992  1.00  0.00    -0.268 A  
HETATM   35  N   UNL     1     -13.159   9.412  72.082  1.00  0.00    -0.425 N  
ENDBRANCH  12  27
ENDBRANCH   3   5
ENDBRANCH   2   3
TORSDOF 10
ENDMDL
MODEL      195
REMARK 921   NORMALIZED FREE ENERGY PREDICTED BY IDOCK:   -4.04 KCAL/MOL
REMARK 922        TOTAL FREE ENERGY PREDICTED BY IDOCK:   -7.92 KCAL/MOL
REMARK 923 INTER-LIGAND FREE ENERGY PREDICTED BY IDOCK:   -7.61 KCAL/MOL
REMARK 924 INTRA-LIGAND FREE ENERGY PREDICTED BY IDOCK:   -0.30 KCAL/MOL
REMARK 927      BINDING AFFINITY PREDICTED BY RF-SCORE:    0.00 PKD
ROOT
HETATM    1  C   UNL     1     -12.163  12.157  70.015  1.00  0.00    -0.198 C  
HETATM    2  O   UNL     1     -11.668  10.835  69.777  1.00  0.00    -0.270 OA 
ENDROOT
BRANCH   2   3
HETATM    3  C   UNL     1     -10.934  10.745  68.638  1.00  0.00    -0.239 C  
HETATM    4  O   UNL     1     -11.401  10.681  67.511  1.00  0.00    -0.408 OA 
BRANCH   3   5
HETATM    5  C   UNL     1      -9.481  10.683  68.937  1.00  0.00    -0.199 C  
HETATM    6  C   UNL     1      -9.029   9.961  69.990  1.00  0.00    -0.169 C  
HETATM    7  C   UNL     1      -9.856   9.078  70.894  1.00  0.00    -0.330 C  
HETATM    8  N   UNL     1      -7.690  10.015  70.332  1.00  0.00    -0.244 NA 
HETATM    9  C   UNL     1      -6.771  10.896  69.796  1.00  0.00    -0.144 C  
HETATM   10  C   UNL     1      -7.118  11.670  68.740  1.00  0.00    -0.106 C  
HETATM   11  C   UNL     1      -5.408  10.886  70.450  1.00  0.00    -0.084 C  
HETATM   12  C   UNL     1      -8.515  11.545  68.104  1.00  0.00    -0.154 C  
BRANCH  10  13
HETATM   13  C   UNL     1      -6.104  12.571  68.119  1.00  0.00    -0.069 C  
HETATM   14  O   UNL     1      -5.768  12.559  66.944  1.00  0.00    -0.319 OA 
BRANCH  13  15
HETATM   15  O   UNL     1      -5.765  13.541  69.003  1.00  0.00    -0.072 OA 
BRANCH  15  16
HETATM   16  C   UNL     1      -5.504  14.812  68.385  1.00  0.00    -0.111 C  
BRANCH  16  17
HETATM   17  C   UNL     1      -5.345  15.815  69.539  1.00  0.00    -0.107 C  
BRANCH  17  18
HETATM   18  N   UNL     1      -6.175  17.025  69.495  1.00  0.00    -0.230 NA 
HETATM   19  C   UNL     1      -5.399  18.197  69.910  1.00  0.00    -0.218 C  
BRANCH  18  20
HETATM   20  C   UNL     1      -6.686  17.231  68.118  1.00  0.00    -0.179 C  
BRANCH  20  21
HETATM   21  C   UNL     1      -6.533  18.660  67.631  1.00  0.00    -0.205 A  
HETATM   22  C   UNL     1      -7.579  19.580  67.797  1.00  0.00    -0.307 A  
HETATM   23  C   UNL     1      -7.483  20.868  67.272  1.00  0.00    -0.345 A  
HETATM   24  C   UNL     1      -6.337  21.256  66.580  1.00  0.00    -0.349 A  
HETATM   25  C   UNL     1      -5.281  20.359  66.424  1.00  0.00    -0.185 A  
HETATM   26  C   UNL     1      -5.375  19.068  66.948  1.00  0.00    -0.158 A  
ENDBRANCH  20  21
ENDBRANCH  18  20
ENDBRANCH  17  18
ENDBRANCH  16  17
ENDBRANCH  15  16
ENDBRANCH  13  15
ENDBRANCH  10  13
BRANCH  12  27
HETATM   27  C   UNL     1      -9.118  12.917  67.787  1.00  0.00    -0.197 A  
HETATM   28  C   UNL     1      -9.795  15.138  68.495  1.00  0.00    -0.220 A  
HETATM   29  O   UNL     1     -10.551  13.852  63.999  1.00  0.00    -0.080 OA 
HETATM   30  C   UNL     1      -9.618  13.190  66.498  1.00  0.00    -0.268 A  
HETATM   31  O   UNL     1     -11.202  15.836  64.668  1.00  0.00    -0.445 OA 
HETATM   32  C   UNL     1     -10.191  14.435  66.218  1.00  0.00    -0.299 A  
HETATM   33  C   UNL     1      -9.201  13.908  68.774  1.00  0.00    -0.013 A  
HETATM   34  C   UNL     1     -10.296  15.406  67.220  1.00  0.00    -0.271 A  
HETATM   35  N   UNL     1     -10.683  14.728  64.865  1.00  0.00    -0.421 N  
ENDBRANCH  12  27
ENDBRANCH   3   5
ENDBRANCH   2   3
TORSDOF 10
ENDMDL
MODEL      196
REMARK 921   NORMALIZED FREE ENERGY PREDICTED BY IDOCK:   -4.03 KCAL/MOL
REMARK 922        TOTAL FREE ENERGY PREDICTED BY IDOCK:   -7.90 KCAL/MOL
REMARK 923 INTER-LIGAND FREE ENERGY PREDICTED BY IDOCK:   -6.68 KCAL/MOL
REMARK 924 INTRA-LIGAND FREE ENERGY PREDICTED BY IDOCK:   -1.22 KCAL/MOL
REMARK 927      BINDING AFFINITY PREDICTED BY RF-SCORE:    0.00 PKD
ROOT
HETATM    1  C   UNL     1      -8.810   6.631  70.655  1.00  0.00    -0.148 C  
HETATM    2  O   UNL     1      -8.592   7.940  70.119  1.00  0.00    -0.131 OA 
ENDROOT
BRANCH   2   3
HETATM    3  C   UNL     1      -7.401   8.055  69.477  1.00  0.00    -0.086 C  
HETATM    4  O   UNL     1      -6.927   7.212  68.730  1.00  0.00    -0.076 OA 
BRANCH   3   5
HETATM    5  C   UNL     1      -6.716   9.323  69.835  1.00  0.00    -0.050 C  
HETATM    6  C   UNL     1      -6.167   9.479  71.064  1.00  0.00    -0.079 C  
HETATM    7  C   UNL     1      -6.071   8.430  72.145  1.00  0.00    -0.063 C  
HETATM    8  N   UNL     1      -5.644  10.708  71.428  1.00  0.00    -0.312 NA 
HETATM    9  C   UNL     1      -5.789  11.876  70.704  1.00  0.00    -0.068 C  
HETATM   10  C   UNL     1      -6.330  11.835  69.462  1.00  0.00    -0.123 C  
HETATM   11  C   UNL     1      -5.283  13.126  71.386  1.00  0.00    -0.180 C  
HETATM   12  C   UNL     1      -6.745  10.491  68.834  1.00  0.00    -0.060 C  
BRANCH  10  13
HETATM   13  C   UNL     1      -6.422  13.085  68.655  1.00  0.00    -0.087 C  
HETATM   14  O   UNL     1      -5.970  13.240  67.530  1.00  0.00    -0.251 OA 
BRANCH  13  15
HETATM   15  O   UNL     1      -7.263  13.954  69.268  1.00  0.00    -0.081 OA 
BRANCH  15  16
HETATM   16  C   UNL     1      -8.013  14.769  68.352  1.00  0.00    -0.138 C  
BRANCH  16  17
HETATM   17  C   UNL     1      -9.492  14.532  68.694  1.00  0.00    -0.205 C  
BRANCH  17  18
HETATM   18  N   UNL     1     -10.293  15.707  69.060  1.00  0.00    -0.213 NA 
HETATM   19  C   UNL     1      -9.611  16.940  68.657  1.00  0.00    -0.265 C  
BRANCH  18  20
HETATM   20  C   UNL     1     -11.619  15.633  68.399  1.00  0.00    -0.350 C  
BRANCH  20  21
HETATM   21  C   UNL     1     -11.554  15.063  66.994  1.00  0.00    -0.248 A  
HETATM   22  C   UNL     1     -10.786  15.697  66.007  1.00  0.00    -0.322 A  
HETATM   23  C   UNL     1     -10.794  15.234  64.692  1.00  0.00    -0.280 A  
HETATM   24  C   UNL     1     -11.565  14.125  64.348  1.00  0.00    -0.377 A  
HETATM   25  C   UNL     1     -12.319  13.471  65.322  1.00  0.00    -0.506 A  
HETATM   26  C   UNL     1     -12.313  13.934  66.641  1.00  0.00    -0.411 A  
ENDBRANCH  20  21
ENDBRANCH  18  20
ENDBRANCH  17  18
ENDBRANCH  16  17
ENDBRANCH  15  16
ENDBRANCH  13  15
ENDBRANCH  10  13
BRANCH  12  27
HETATM   27  C   UNL     1      -8.100  10.591  68.127  1.00  0.00    -0.113 A  
HETATM   28  C   UNL     1     -10.511  10.857  68.217  1.00  0.00    -0.205 A  
HETATM   29  O   UNL     1      -8.444  10.225  64.001  1.00  0.00    -0.165 OA 
HETATM   30  C   UNL     1      -8.182  10.436  66.729  1.00  0.00    -0.126 A  
HETATM   31  O   UNL     1     -10.627  10.417  64.105  1.00  0.00    -0.037 OA 
HETATM   32  C   UNL     1      -9.424  10.503  66.088  1.00  0.00    -0.180 A  
HETATM   33  C   UNL     1      -9.274  10.816  68.858  1.00  0.00    -0.180 A  
HETATM   34  C   UNL     1     -10.593  10.697  66.832  1.00  0.00    -0.311 A  
HETATM   35  N   UNL     1      -9.503  10.373  64.628  1.00  0.00    -0.253 N  
ENDBRANCH  12  27
ENDBRANCH   3   5
ENDBRANCH   2   3
TORSDOF 10
ENDMDL
MODEL      197
REMARK 921   NORMALIZED FREE ENERGY PREDICTED BY IDOCK:   -4.01 KCAL/MOL
REMARK 922        TOTAL FREE ENERGY PREDICTED BY IDOCK:   -7.88 KCAL/MOL
REMARK 923 INTER-LIGAND FREE ENERGY PREDICTED BY IDOCK:   -7.21 KCAL/MOL
REMARK 924 INTRA-LIGAND FREE ENERGY PREDICTED BY IDOCK:   -0.67 KCAL/MOL
REMARK 927      BINDING AFFINITY PREDICTED BY RF-SCORE:    0.00 PKD
ROOT
HETATM    1  C   UNL     1     -13.342  11.780  72.198  1.00  0.00    -0.228 C  
HETATM    2  O   UNL     1     -12.190  11.671  71.356  1.00  0.00    -0.165 OA 
ENDROOT
BRANCH   2   3
HETATM    3  C   UNL     1     -12.230  10.581  70.547  1.00  0.00    -0.344 C  
HETATM    4  O   UNL     1     -13.253  10.026  70.174  1.00  0.00     0.053 OA 
BRANCH   3   5
HETATM    5  C   UNL     1     -10.863  10.110  70.208  1.00  0.00    -0.370 C  
HETATM    6  C   UNL     1     -10.170   9.338  71.079  1.00  0.00    -0.314 C  
HETATM    7  C   UNL     1     -10.680   8.780  72.387  1.00  0.00    -0.220 C  
HETATM    8  N   UNL     1      -8.853   9.013  70.807  1.00  0.00    -0.215 NA 
HETATM    9  C   UNL     1      -8.097   9.560  69.788  1.00  0.00    -0.140 C  
HETATM   10  C   UNL     1      -8.689  10.351  68.861  1.00  0.00    -0.157 C  
HETATM   11  C   UNL     1      -6.634   9.181  69.795  1.00  0.00    -0.046 C  
HETATM   12  C   UNL     1     -10.207  10.611  68.909  1.00  0.00    -0.216 C  
BRANCH  10  13
HETATM   13  C   UNL     1      -7.886  10.884  67.724  1.00  0.00    -0.109 C  
HETATM   14  O   UNL     1      -7.341  11.978  67.690  1.00  0.00    -0.102 OA 
BRANCH  13  15
HETATM   15  O   UNL     1      -7.673   9.895  66.822  1.00  0.00    -0.098 OA 
BRANCH  15  16
HETATM   16  C   UNL     1      -8.735   9.757  65.862  1.00  0.00    -0.139 C  
BRANCH  16  17
HETATM   17  C   UNL     1      -8.141  10.193  64.514  1.00  0.00    -0.160 C  
BRANCH  17  18
HETATM   18  N   UNL     1      -9.085  10.592  63.462  1.00  0.00    -0.223 NA 
HETATM   19  C   UNL     1      -9.138   9.577  62.406  1.00  0.00    -0.238 C  
BRANCH  18  20
HETATM   20  C   UNL     1     -10.436  10.772  64.047  1.00  0.00    -0.217 C  
BRANCH  20  21
HETATM   21  C   UNL     1     -10.909  12.214  64.025  1.00  0.00    -0.436 A  
HETATM   22  C   UNL     1     -10.325  13.163  64.878  1.00  0.00    -0.352 A  
HETATM   23  C   UNL     1     -10.814  14.467  64.931  1.00  0.00    -0.436 A  
HETATM   24  C   UNL     1     -11.888  14.843  64.127  1.00  0.00    -0.202 A  
HETATM   25  C   UNL     1     -12.466  13.917  63.260  1.00  0.00     0.350 A  
HETATM   26  C   UNL     1     -11.979  12.609  63.205  1.00  0.00    -0.526 A  
ENDBRANCH  20  21
ENDBRANCH  18  20
ENDBRANCH  17  18
ENDBRANCH  16  17
ENDBRANCH  15  16
ENDBRANCH  13  15
ENDBRANCH  10  13
BRANCH  12  27
HETATM   27  C   UNL     1     -10.538  12.083  68.644  1.00  0.00    -0.253 A  
HETATM   28  C   UNL     1     -12.048  13.786  67.802  1.00  0.00    -0.325 A  
HETATM   29  O   UNL     1      -7.853  15.123  69.551  1.00  0.00    -0.210 OA 
HETATM   30  C   UNL     1      -9.592  13.085  68.941  1.00  0.00     0.215 A  
HETATM   31  O   UNL     1      -9.208  16.645  68.740  1.00  0.00    -0.238 OA 
HETATM   32  C   UNL     1      -9.887  14.427  68.674  1.00  0.00    -0.231 A  
HETATM   33  C   UNL     1     -11.770  12.450  68.087  1.00  0.00    -0.408 A  
HETATM   34  C   UNL     1     -11.108  14.779  68.089  1.00  0.00    -0.288 A  
HETATM   35  N   UNL     1      -8.913  15.472  69.012  1.00  0.00    -0.219 N  
ENDBRANCH  12  27
ENDBRANCH   3   5
ENDBRANCH   2   3
TORSDOF 10
ENDMDL
MODEL      198
REMARK 921   NORMALIZED FREE ENERGY PREDICTED BY IDOCK:   -4.00 KCAL/MOL
REMARK 922        TOTAL FREE ENERGY PREDICTED BY IDOCK:   -7.86 KCAL/MOL
REMARK 923 INTER-LIGAND FREE ENERGY PREDICTED BY IDOCK:   -7.26 KCAL/MOL
REMARK 924 INTRA-LIGAND FREE ENERGY PREDICTED BY IDOCK:   -0.60 KCAL/MOL
REMARK 927      BINDING AFFINITY PREDICTED BY RF-SCORE:    0.00 PKD
ROOT
HETATM    1  C   UNL     1      -7.039  16.070  68.540  1.00  0.00    -0.132 C  
HETATM    2  O   UNL     1      -6.951  14.800  67.885  1.00  0.00    -0.126 OA 
ENDROOT
BRANCH   2   3
HETATM    3  C   UNL     1      -7.153  13.756  68.729  1.00  0.00    -0.106 C  
HETATM    4  O   UNL     1      -6.910  13.771  69.927  1.00  0.00     0.008 OA 
BRANCH   3   5
HETATM    5  C   UNL     1      -7.666  12.567  68.003  1.00  0.00    -0.140 C  
HETATM    6  C   UNL     1      -6.877  11.916  67.115  1.00  0.00    -0.144 C  
HETATM    7  C   UNL     1      -5.423  12.204  66.825  1.00  0.00     0.099 C  
HETATM    8  N   UNL     1      -7.407  10.890  66.353  1.00  0.00    -0.141 NA 
HETATM    9  C   UNL     1      -8.749  10.569  66.282  1.00  0.00    -0.151 C  
HETATM   10  C   UNL     1      -9.629  11.163  67.124  1.00  0.00    -0.192 C  
HETATM   11  C   UNL     1      -9.109   9.524  65.250  1.00  0.00    -0.276 C  
HETATM   12  C   UNL     1      -9.139  12.162  68.189  1.00  0.00    -0.196 C  
BRANCH  10  13
HETATM   13  C   UNL     1     -11.066  10.765  67.092  1.00  0.00    -0.227 C  
HETATM   14  O   UNL     1     -11.886  11.133  66.264  1.00  0.00    -0.009 OA 
BRANCH  13  15
HETATM   15  O   UNL     1     -11.277   9.772  67.989  1.00  0.00    -0.174 OA 
BRANCH  15  16
HETATM   16  C   UNL     1     -10.283   9.718  69.027  1.00  0.00    -0.203 C  
BRANCH  16  17
HETATM   17  C   UNL     1     -11.062   9.674  70.351  1.00  0.00    -0.290 C  
BRANCH  17  18
HETATM   18  N   UNL     1     -11.002   8.427  71.124  1.00  0.00    -0.236 NA 
HETATM   19  C   UNL     1     -11.622   8.606  72.440  1.00  0.00    -0.315 C  
BRANCH  18  20
HETATM   20  C   UNL     1     -11.706   7.348  70.387  1.00  0.00    -0.134 C  
BRANCH  20  21
HETATM   21  C   UNL     1     -10.900   6.066  70.293  1.00  0.00    -0.398 A  
HETATM   22  C   UNL     1     -10.336   5.672  69.070  1.00  0.00    -0.314 A  
HETATM   23  C   UNL     1      -9.674   4.451  68.953  1.00  0.00    -0.211 A  
HETATM   24  C   UNL     1      -9.559   3.611  70.059  1.00  0.00    -0.244 A  
HETATM   25  C   UNL     1     -10.096   3.997  71.286  1.00  0.00    -0.133 A  
HETATM   26  C   UNL     1     -10.762   5.220  71.406  1.00  0.00    -0.203 A  
ENDBRANCH  20  21
ENDBRANCH  18  20
ENDBRANCH  17  18
ENDBRANCH  16  17
ENDBRANCH  15  16
ENDBRANCH  13  15
ENDBRANCH  10  13
BRANCH  12  27
HETATM   27  C   UNL     1     -10.052  13.389  68.277  1.00  0.00    -0.247 A  
HETATM   28  C   UNL     1     -10.863  15.484  67.358  1.00  0.00    -0.312 A  
HETATM   29  O   UNL     1     -12.568  14.012  71.526  1.00  0.00    -0.336 OA 
HETATM   30  C   UNL     1     -10.873  13.580  69.406  1.00  0.00    -0.032 A  
HETATM   31  O   UNL     1     -13.254  15.926  70.706  1.00  0.00    -0.491 OA 
HETATM   32  C   UNL     1     -11.687  14.715  69.496  1.00  0.00    -0.324 A  
HETATM   33  C   UNL     1     -10.069  14.344  67.251  1.00  0.00    -0.251 A  
HETATM   34  C   UNL     1     -11.672  15.677  68.480  1.00  0.00    -0.339 A  
HETATM   35  N   UNL     1     -12.565  14.897  70.658  1.00  0.00    -0.342 N  
ENDBRANCH  12  27
ENDBRANCH   3   5
ENDBRANCH   2   3
TORSDOF 10
ENDMDL
MODEL      199
REMARK 921   NORMALIZED FREE ENERGY PREDICTED BY IDOCK:   -4.00 KCAL/MOL
REMARK 922        TOTAL FREE ENERGY PREDICTED BY IDOCK:   -7.86 KCAL/MOL
REMARK 923 INTER-LIGAND FREE ENERGY PREDICTED BY IDOCK:   -6.61 KCAL/MOL
REMARK 924 INTRA-LIGAND FREE ENERGY PREDICTED BY IDOCK:   -1.25 KCAL/MOL
REMARK 927      BINDING AFFINITY PREDICTED BY RF-SCORE:    0.00 PKD
ROOT
HETATM    1  C   UNL     1      -6.178  14.771  68.369  1.00  0.00    -0.105 C  
HETATM    2  O   UNL     1      -7.253  14.840  67.427  1.00  0.00    -0.195 OA 
ENDROOT
BRANCH   2   3
HETATM    3  C   UNL     1      -8.412  14.324  67.911  1.00  0.00    -0.168 C  
HETATM    4  O   UNL     1      -8.752  14.353  69.085  1.00  0.00    -0.054 OA 
BRANCH   3   5
HETATM    5  C   UNL     1      -9.203  13.671  66.837  1.00  0.00    -0.257 C  
HETATM    6  C   UNL     1     -10.240  14.323  66.259  1.00  0.00    -0.301 C  
HETATM    7  C   UNL     1     -10.657  15.752  66.513  1.00  0.00    -0.306 C  
HETATM    8  N   UNL     1     -11.046  13.657  65.352  1.00  0.00    -0.294 NA 
HETATM    9  C   UNL     1     -11.001  12.299  65.101  1.00  0.00    -0.303 C  
HETATM   10  C   UNL     1     -10.006  11.549  65.633  1.00  0.00    -0.275 C  
HETATM   11  C   UNL     1     -12.094  11.773  64.200  1.00  0.00    -0.311 C  
HETATM   12  C   UNL     1      -8.899  12.205  66.480  1.00  0.00    -0.151 C  
BRANCH  10  13
HETATM   13  C   UNL     1      -9.921  10.096  65.306  1.00  0.00    -0.311 C  
HETATM   14  O   UNL     1      -9.346   9.619  64.339  1.00  0.00    -0.254 OA 
BRANCH  13  15
HETATM   15  O   UNL     1     -10.393   9.373  66.351  1.00  0.00    -0.242 OA 
BRANCH  15  16
HETATM   16  C   UNL     1     -10.179   7.959  66.211  1.00  0.00     0.187 C  
BRANCH  16  17
HETATM   17  C   UNL     1      -9.504   7.506  67.515  1.00  0.00    -0.139 C  
BRANCH  17  18
HETATM   18  N   UNL     1     -10.000   6.269  68.132  1.00  0.00    -0.131 NA 
HETATM   19  C   UNL     1     -11.008   6.571  69.153  1.00  0.00    -0.323 C  
BRANCH  18  20
HETATM   20  C   UNL     1     -10.594   5.394  67.092  1.00  0.00    -0.201 C  
BRANCH  20  21
HETATM   21  C   UNL     1      -9.591   4.439  66.472  1.00  0.00    -0.209 A  
HETATM   22  C   UNL     1      -8.627   3.807  67.271  1.00  0.00    -0.110 A  
HETATM   23  C   UNL     1      -7.645   3.001  66.699  1.00  0.00    -0.076 A  
HETATM   24  C   UNL     1      -7.619   2.808  65.318  1.00  0.00    -0.076 A  
HETATM   25  C   UNL     1      -8.582   3.412  64.512  1.00  0.00    -0.093 A  
HETATM   26  C   UNL     1      -9.567   4.222  65.084  1.00  0.00    -0.185 A  
ENDBRANCH  20  21
ENDBRANCH  18  20
ENDBRANCH  17  18
ENDBRANCH  16  17
ENDBRANCH  15  16
ENDBRANCH  13  15
ENDBRANCH  10  13
BRANCH  12  27
HETATM   27  C   UNL     1      -8.576  11.378  67.728  1.00  0.00    -0.129 A  
HETATM   28  C   UNL     1      -6.978  10.185  69.112  1.00  0.00    -0.062 A  
HETATM   29  O   UNL     1     -11.530  10.244  70.424  1.00  0.00    -0.286 OA 
HETATM   30  C   UNL     1      -9.607  10.990  68.606  1.00  0.00    -0.198 A  
HETATM   31  O   UNL     1     -10.082   9.129  71.636  1.00  0.00    -0.327 OA 
HETATM   32  C   UNL     1      -9.313  10.213  69.732  1.00  0.00    -0.150 A  
HETATM   33  C   UNL     1      -7.261  10.980  68.002  1.00  0.00    -0.086 A  
HETATM   34  C   UNL     1      -8.001   9.795  69.979  1.00  0.00    -0.196 A  
HETATM   35  N   UNL     1     -10.384   9.836  70.663  1.00  0.00    -0.292 N  
ENDBRANCH  12  27
ENDBRANCH   3   5
ENDBRANCH   2   3
TORSDOF 10
ENDMDL
MODEL      200
REMARK 921   NORMALIZED FREE ENERGY PREDICTED BY IDOCK:   -3.99 KCAL/MOL
REMARK 922        TOTAL FREE ENERGY PREDICTED BY IDOCK:   -7.84 KCAL/MOL
REMARK 923 INTER-LIGAND FREE ENERGY PREDICTED BY IDOCK:   -5.54 KCAL/MOL
REMARK 924 INTRA-LIGAND FREE ENERGY PREDICTED BY IDOCK:   -2.30 KCAL/MOL
REMARK 927      BINDING AFFINITY PREDICTED BY RF-SCORE:    0.00 PKD
ROOT
HETATM    1  C   UNL     1     -11.342  11.670  66.269  1.00  0.00    -0.227 C  
HETATM    2  O   UNL     1     -10.292  10.769  65.902  1.00  0.00    -0.254 OA 
ENDROOT
BRANCH   2   3
HETATM    3  C   UNL     1     -10.275   9.644  66.662  1.00  0.00    -0.232 C  
HETATM    4  O   UNL     1     -11.254   8.959  66.917  1.00  0.00     0.336 OA 
BRANCH   3   5
HETATM    5  C   UNL     1      -8.914   9.371  67.191  1.00  0.00    -0.144 C  
HETATM    6  C   UNL     1      -8.004   8.716  66.431  1.00  0.00    -0.099 C  
HETATM    7  C   UNL     1      -8.175   8.290  64.993  1.00  0.00    -0.160 C  
HETATM    8  N   UNL     1      -6.786   8.357  66.981  1.00  0.00    -0.062 NA 
HETATM    9  C   UNL     1      -6.465   8.449  68.322  1.00  0.00    -0.059 C  
HETATM   10  C   UNL     1      -7.306   9.082  69.173  1.00  0.00    -0.072 C  
HETATM   11  C   UNL     1      -5.140   7.834  68.711  1.00  0.00    -0.023 C  
HETATM   12  C   UNL     1      -8.599   9.738  68.652  1.00  0.00    -0.121 C  
BRANCH  10  13
HETATM   13  C   UNL     1      -6.926   9.240  70.606  1.00  0.00    -0.101 C  
HETATM   14  O   UNL     1      -6.669  10.299  71.160  1.00  0.00    -0.312 OA 
BRANCH  13  15
HETATM   15  O   UNL     1      -7.113   8.064  71.253  1.00  0.00    -0.052 OA 
BRANCH  15  16
HETATM   16  C   UNL     1      -7.313   8.214  72.668  1.00  0.00    -0.111 C  
BRANCH  16  17
HETATM   17  C   UNL     1      -7.944   6.896  73.144  1.00  0.00    -0.102 C  
BRANCH  17  18
HETATM   18  N   UNL     1      -7.504   5.663  72.480  1.00  0.00    -0.095 NA 
HETATM   19  C   UNL     1      -6.820   4.781  73.431  1.00  0.00    -0.069 C  
BRANCH  18  20
HETATM   20  C   UNL     1      -8.676   4.959  71.905  1.00  0.00    -0.128 C  
BRANCH  20  21
HETATM   21  C   UNL     1      -8.573   4.754  70.405  1.00  0.00    -0.117 A  
HETATM   22  C   UNL     1      -9.732   4.588  69.632  1.00  0.00    -0.288 A  
HETATM   23  C   UNL     1      -9.644   4.307  68.269  1.00  0.00    -0.197 A  
HETATM   24  C   UNL     1      -8.395   4.198  67.659  1.00  0.00    -0.098 A  
HETATM   25  C   UNL     1      -7.235   4.381  68.409  1.00  0.00    -0.060 A  
HETATM   26  C   UNL     1      -7.320   4.661  69.776  1.00  0.00    -0.054 A  
ENDBRANCH  20  21
ENDBRANCH  18  20
ENDBRANCH  17  18
ENDBRANCH  16  17
ENDBRANCH  15  16
ENDBRANCH  13  15
ENDBRANCH  10  13
BRANCH  12  27
HETATM   27  C   UNL     1      -9.790   9.453  69.572  1.00  0.00    -0.192 A  
HETATM   28  C   UNL     1     -11.182   7.886  70.795  1.00  0.00    -0.274 A  
HETATM   29  O   UNL     1     -12.294  12.490  70.909  1.00  0.00    -0.372 OA 
HETATM   30  C   UNL     1     -10.632  10.505  69.985  1.00  0.00    -0.223 A  
HETATM   31  O   UNL     1     -13.570  11.055  71.967  1.00  0.00    -0.281 OA 
HETATM   32  C   UNL     1     -11.734  10.238  70.805  1.00  0.00    -0.360 A  
HETATM   33  C   UNL     1     -10.069   8.148  69.998  1.00  0.00    -0.196 A  
HETATM   34  C   UNL     1     -12.021   8.927  71.199  1.00  0.00    -0.344 A  
HETATM   35  N   UNL     1     -12.593  11.339  71.259  1.00  0.00    -0.393 N  
ENDBRANCH  12  27
ENDBRANCH   3   5
ENDBRANCH   2   3
TORSDOF 10
ENDMDL
MODEL      201
REMARK 921   NORMALIZED FREE ENERGY PREDICTED BY IDOCK:   -3.97 KCAL/MOL
REMARK 922        TOTAL FREE ENERGY PREDICTED BY IDOCK:   -7.81 KCAL/MOL
REMARK 923 INTER-LIGAND FREE ENERGY PREDICTED BY IDOCK:   -7.62 KCAL/MOL
REMARK 924 INTRA-LIGAND FREE ENERGY PREDICTED BY IDOCK:   -0.20 KCAL/MOL
REMARK 927      BINDING AFFINITY PREDICTED BY RF-SCORE:    0.00 PKD
ROOT
HETATM    1  C   UNL     1      -9.459   5.183  67.546  1.00  0.00    -0.133 C  
HETATM    2  O   UNL     1      -9.952   6.373  66.922  1.00  0.00    -0.148 OA 
ENDROOT
BRANCH   2   3
HETATM    3  C   UNL     1      -9.082   7.412  67.005  1.00  0.00    -0.135 C  
HETATM    4  O   UNL     1      -7.919   7.320  67.369  1.00  0.00    -0.109 OA 
BRANCH   3   5
HETATM    5  C   UNL     1      -9.736   8.694  66.642  1.00  0.00    -0.315 C  
HETATM    6  C   UNL     1      -9.466   9.288  65.454  1.00  0.00    -0.210 C  
HETATM    7  C   UNL     1      -8.609   8.727  64.345  1.00  0.00    -0.110 C  
HETATM    8  N   UNL     1      -9.983  10.543  65.184  1.00  0.00    -0.288 NA 
HETATM    9  C   UNL     1     -10.624  11.350  66.104  1.00  0.00    -0.265 C  
HETATM   10  C   UNL     1     -10.940  10.858  67.326  1.00  0.00    -0.355 C  
HETATM   11  C   UNL     1     -10.946  12.746  65.623  1.00  0.00    -0.302 C  
HETATM   12  C   UNL     1     -10.629   9.392  67.683  1.00  0.00    -0.333 C  
BRANCH  10  13
HETATM   13  C   UNL     1     -11.693  11.709  68.292  1.00  0.00    -0.304 C  
HETATM   14  O   UNL     1     -12.774  11.431  68.790  1.00  0.00    -0.059 OA 
BRANCH  13  15
HETATM   15  O   UNL     1     -10.903  12.733  68.696  1.00  0.00    -0.242 OA 
BRANCH  15  16
HETATM   16  C   UNL     1     -11.638  13.838  69.251  1.00  0.00    -0.312 C  
BRANCH  16  17
HETATM   17  C   UNL     1     -11.375  15.028  68.315  1.00  0.00    -0.318 C  
BRANCH  17  18
HETATM   18  N   UNL     1     -10.392  16.025  68.758  1.00  0.00    -0.226 NA 
HETATM   19  C   UNL     1      -9.694  15.562  69.960  1.00  0.00    -0.038 C  
BRANCH  18  20
HETATM   20  C   UNL     1      -9.408  16.272  67.676  1.00  0.00    -0.218 C  
BRANCH  20  21
HETATM   21  C   UNL     1      -8.068  16.768  68.189  1.00  0.00    -0.197 A  
HETATM   22  C   UNL     1      -7.592  18.033  67.816  1.00  0.00    -0.220 A  
HETATM   23  C   UNL     1      -6.323  18.459  68.206  1.00  0.00    -0.194 A  
HETATM   24  C   UNL     1      -5.517  17.629  68.983  1.00  0.00    -0.175 A  
HETATM   25  C   UNL     1      -5.984  16.377  69.379  1.00  0.00    -0.165 A  
HETATM   26  C   UNL     1      -7.255  15.947  68.988  1.00  0.00    -0.177 A  
ENDBRANCH  20  21
ENDBRANCH  18  20
ENDBRANCH  17  18
ENDBRANCH  16  17
ENDBRANCH  15  16
ENDBRANCH  13  15
ENDBRANCH  10  13
BRANCH  12  27
HETATM   27  C   UNL     1     -10.051   9.264  69.095  1.00  0.00    -0.204 A  
HETATM   28  C   UNL     1      -8.249   9.638  70.678  1.00  0.00    -0.054 A  
HETATM   29  O   UNL     1     -12.127   7.344  72.141  1.00  0.00    -0.288 OA 
HETATM   30  C   UNL     1     -10.772   8.584  70.097  1.00  0.00    -0.240 A  
HETATM   31  O   UNL     1     -10.470   7.647  73.545  1.00  0.00    -0.343 OA 
HETATM   32  C   UNL     1     -10.231   8.446  71.379  1.00  0.00    -0.220 A  
HETATM   33  C   UNL     1      -8.794   9.800  69.405  1.00  0.00    -0.188 A  
HETATM   34  C   UNL     1      -8.962   8.958  71.669  1.00  0.00    -0.243 A  
HETATM   35  N   UNL     1     -10.998   7.764  72.430  1.00  0.00    -0.284 N  
ENDBRANCH  12  27
ENDBRANCH   3   5
ENDBRANCH   2   3
TORSDOF 10
ENDMDL
MODEL      202
REMARK 921   NORMALIZED FREE ENERGY PREDICTED BY IDOCK:   -3.95 KCAL/MOL
REMARK 922        TOTAL FREE ENERGY PREDICTED BY IDOCK:   -7.78 KCAL/MOL
REMARK 923 INTER-LIGAND FREE ENERGY PREDICTED BY IDOCK:   -6.67 KCAL/MOL
REMARK 924 INTRA-LIGAND FREE ENERGY PREDICTED BY IDOCK:   -1.11 KCAL/MOL
REMARK 927      BINDING AFFINITY PREDICTED BY RF-SCORE:    0.00 PKD
ROOT
HETATM    1  C   UNL     1     -10.709  14.763  66.950  1.00  0.00    -0.308 C  
HETATM    2  O   UNL     1     -10.282  13.420  67.200  1.00  0.00    -0.243 OA 
ENDROOT
BRANCH   2   3
HETATM    3  C   UNL     1     -11.292  12.518  67.095  1.00  0.00    -0.324 C  
HETATM    4  O   UNL     1     -12.160  12.539  66.235  1.00  0.00    -0.574 OA 
BRANCH   3   5
HETATM    5  C   UNL     1     -11.240  11.520  68.194  1.00  0.00    -0.335 C  
HETATM    6  C   UNL     1     -11.689  11.842  69.431  1.00  0.00    -0.339 C  
HETATM    7  C   UNL     1     -12.367  13.130  69.834  1.00  0.00    -0.201 C  
HETATM    8  N   UNL     1     -11.518  10.949  70.475  1.00  0.00    -0.291 NA 
HETATM    9  C   UNL     1     -10.755   9.799  70.415  1.00  0.00    -0.308 C  
HETATM   10  C   UNL     1     -10.253   9.385  69.227  1.00  0.00    -0.209 C  
HETATM   11  C   UNL     1     -10.575   9.075  71.730  1.00  0.00    -0.426 C  
HETATM   12  C   UNL     1     -10.562  10.164  67.934  1.00  0.00    -0.294 C  
BRANCH  10  13
HETATM   13  C   UNL     1      -9.487   8.108  69.153  1.00  0.00    -0.155 C  
HETATM   14  O   UNL     1      -8.314   7.964  69.464  1.00  0.00    -0.127 OA 
BRANCH  13  15
HETATM   15  O   UNL     1     -10.341   7.088  68.892  1.00  0.00    -0.178 OA 
BRANCH  15  16
HETATM   16  C   UNL     1     -10.063   5.900  69.652  1.00  0.00    -0.200 C  
BRANCH  16  17
HETATM   17  C   UNL     1     -10.263   4.726  68.681  1.00  0.00     0.010 C  
BRANCH  17  18
HETATM   18  N   UNL     1      -9.096   3.876  68.407  1.00  0.00    -0.126 NA 
HETATM   19  C   UNL     1      -8.913   2.892  69.477  1.00  0.00    -0.108 C  
BRANCH  18  20
HETATM   20  C   UNL     1      -9.283   3.175  67.113  1.00  0.00    -0.181 C  
BRANCH  20  21
HETATM   21  C   UNL     1      -8.085   3.298  66.189  1.00  0.00    -0.092 A  
HETATM   22  C   UNL     1      -7.731   2.236  65.343  1.00  0.00    -0.076 A  
HETATM   23  C   UNL     1      -6.580   2.304  64.560  1.00  0.00    -0.023 A  
HETATM   24  C   UNL     1      -5.772   3.438  64.605  1.00  0.00    -0.010 A  
HETATM   25  C   UNL     1      -6.120   4.510  65.426  1.00  0.00    -0.023 A  
HETATM   26  C   UNL     1      -7.273   4.444  66.213  1.00  0.00    -0.076 A  
ENDBRANCH  20  21
ENDBRANCH  18  20
ENDBRANCH  17  18
ENDBRANCH  16  17
ENDBRANCH  15  16
ENDBRANCH  13  15
ENDBRANCH  10  13
BRANCH  12  27
HETATM   27  C   UNL     1      -9.317  10.318  67.055  1.00  0.00    -0.177 A  
HETATM   28  C   UNL     1      -6.939  10.746  66.822  1.00  0.00    -0.119 A  
HETATM   29  O   UNL     1      -9.518  10.033  62.913  1.00  0.00    -0.294 OA 
HETATM   30  C   UNL     1      -9.427  10.241  65.652  1.00  0.00    -0.274 A  
HETATM   31  O   UNL     1      -7.378  10.471  62.717  1.00  0.00    -0.140 OA 
HETATM   32  C   UNL     1      -8.293  10.407  64.850  1.00  0.00    -0.165 A  
HETATM   33  C   UNL     1      -8.061  10.557  67.628  1.00  0.00    -0.107 A  
HETATM   34  C   UNL     1      -7.050  10.676  65.432  1.00  0.00    -0.011 A  
HETATM   35  N   UNL     1      -8.405  10.296  63.390  1.00  0.00    -0.164 N  
ENDBRANCH  12  27
ENDBRANCH   3   5
ENDBRANCH   2   3
TORSDOF 10
ENDMDL
MODEL      203
REMARK 921   NORMALIZED FREE ENERGY PREDICTED BY IDOCK:   -3.94 KCAL/MOL
REMARK 922        TOTAL FREE ENERGY PREDICTED BY IDOCK:   -7.76 KCAL/MOL
REMARK 923 INTER-LIGAND FREE ENERGY PREDICTED BY IDOCK:   -6.25 KCAL/MOL
REMARK 924 INTRA-LIGAND FREE ENERGY PREDICTED BY IDOCK:   -1.51 KCAL/MOL
REMARK 927      BINDING AFFINITY PREDICTED BY RF-SCORE:    0.00 PKD
ROOT
HETATM    1  C   UNL     1     -12.321  13.842  67.151  1.00  0.00    -0.204 C  
HETATM    2  O   UNL     1     -11.423  14.810  67.705  1.00  0.00    -0.323 OA 
ENDROOT
BRANCH   2   3
HETATM    3  C   UNL     1     -10.765  14.353  68.801  1.00  0.00    -0.252 C  
HETATM    4  O   UNL     1     -10.708  14.936  69.874  1.00  0.00    -0.239 OA 
BRANCH   3   5
HETATM    5  C   UNL     1     -10.076  13.068  68.520  1.00  0.00    -0.195 C  
HETATM    6  C   UNL     1     -10.594  11.901  68.971  1.00  0.00    -0.115 C  
HETATM    7  C   UNL     1     -11.915  11.719  69.681  1.00  0.00    -0.378 C  
HETATM    8  N   UNL     1      -9.878  10.728  68.813  1.00  0.00    -0.187 NA 
HETATM    9  C   UNL     1      -8.567  10.653  68.383  1.00  0.00    -0.134 C  
HETATM   10  C   UNL     1      -7.948  11.763  67.913  1.00  0.00    -0.141 C  
HETATM   11  C   UNL     1      -7.941   9.279  68.456  1.00  0.00    -0.101 C  
HETATM   12  C   UNL     1      -8.708  13.099  67.815  1.00  0.00    -0.188 C  
BRANCH  10  13
HETATM   13  C   UNL     1      -6.557  11.666  67.386  1.00  0.00    -0.106 C  
HETATM   14  O   UNL     1      -5.552  11.496  68.061  1.00  0.00    -0.043 OA 
BRANCH  13  15
HETATM   15  O   UNL     1      -6.594  11.582  66.034  1.00  0.00     0.100 OA 
BRANCH  15  16
HETATM   16  C   UNL     1      -6.162  10.308  65.527  1.00  0.00    -0.114 C  
BRANCH  16  17
HETATM   17  C   UNL     1      -7.355   9.742  64.742  1.00  0.00    -0.130 C  
BRANCH  17  18
HETATM   18  N   UNL     1      -8.014  10.638  63.784  1.00  0.00     0.000 NA 
HETATM   19  C   UNL     1      -7.386  10.532  62.464  1.00  0.00    -0.124 C  
BRANCH  18  20
HETATM   20  C   UNL     1      -9.452  10.289  63.679  1.00  0.00    -0.299 C  
BRANCH  20  21
HETATM   21  C   UNL     1     -10.365  11.500  63.711  1.00  0.00    -0.450 A  
HETATM   22  C   UNL     1      -9.880  12.741  64.149  1.00  0.00    -0.011 A  
HETATM   23  C   UNL     1     -10.734  13.837  64.270  1.00  0.00    -0.217 A  
HETATM   24  C   UNL     1     -12.083  13.708  63.946  1.00  0.00    -0.462 A  
HETATM   25  C   UNL     1     -12.577  12.486  63.490  1.00  0.00    -0.475 A  
HETATM   26  C   UNL     1     -11.723  11.387  63.369  1.00  0.00    -0.009 A  
ENDBRANCH  20  21
ENDBRANCH  18  20
ENDBRANCH  17  18
ENDBRANCH  16  17
ENDBRANCH  15  16
ENDBRANCH  13  15
ENDBRANCH  10  13
BRANCH  12  27
HETATM   27  C   UNL     1      -7.853  14.274  68.299  1.00  0.00    -0.141 A  
HETATM   28  C   UNL     1      -6.494  15.329  70.011  1.00  0.00    -0.138 A  
HETATM   29  O   UNL     1      -7.274  17.663  65.963  1.00  0.00    -0.302 OA 
HETATM   30  C   UNL     1      -7.700  15.418  67.490  1.00  0.00    -0.205 A  
HETATM   31  O   UNL     1      -6.090  18.623  67.540  1.00  0.00    -0.179 OA 
HETATM   32  C   UNL     1      -6.939  16.500  67.945  1.00  0.00    -0.142 A  
HETATM   33  C   UNL     1      -7.231  14.237  69.554  1.00  0.00    -0.003 A  
HETATM   34  C   UNL     1      -6.348  16.465  69.213  1.00  0.00    -0.186 A  
HETATM   35  N   UNL     1      -6.755  17.679  67.088  1.00  0.00    -0.159 N  
ENDBRANCH  12  27
ENDBRANCH   3   5
ENDBRANCH   2   3
TORSDOF 10
ENDMDL
MODEL      204
REMARK 921   NORMALIZED FREE ENERGY PREDICTED BY IDOCK:   -3.94 KCAL/MOL
REMARK 922        TOTAL FREE ENERGY PREDICTED BY IDOCK:   -7.75 KCAL/MOL
REMARK 923 INTER-LIGAND FREE ENERGY PREDICTED BY IDOCK:   -7.60 KCAL/MOL
REMARK 924 INTRA-LIGAND FREE ENERGY PREDICTED BY IDOCK:   -0.16 KCAL/MOL
REMARK 927      BINDING AFFINITY PREDICTED BY RF-SCORE:    0.00 PKD
ROOT
HETATM    1  C   UNL     1     -10.272  15.468  65.496  1.00  0.00    -0.386 C  
HETATM    2  O   UNL     1      -9.565  14.296  65.918  1.00  0.00    -0.274 OA 
ENDROOT
BRANCH   2   3
HETATM    3  C   UNL     1     -10.074  13.154  65.388  1.00  0.00    -0.248 C  
HETATM    4  O   UNL     1     -10.087  12.884  64.196  1.00  0.00    -0.350 OA 
BRANCH   3   5
HETATM    5  C   UNL     1     -10.663  12.288  66.440  1.00  0.00    -0.284 C  
HETATM    6  C   UNL     1     -11.903  12.543  66.921  1.00  0.00    -0.334 C  
HETATM    7  C   UNL     1     -12.859  13.602  66.424  1.00  0.00     0.084 C  
HETATM    8  N   UNL     1     -12.388  11.807  67.988  1.00  0.00    -0.197 NA 
HETATM    9  C   UNL     1     -11.641  10.927  68.747  1.00  0.00    -0.309 C  
HETATM   10  C   UNL     1     -10.384  10.602  68.358  1.00  0.00    -0.197 C  
HETATM   11  C   UNL     1     -12.340  10.373  69.967  1.00  0.00    -0.229 C  
HETATM   12  C   UNL     1      -9.798  11.173  67.053  1.00  0.00    -0.212 C  
BRANCH  10  13
HETATM   13  C   UNL     1      -9.605   9.600  69.141  1.00  0.00    -0.174 C  
HETATM   14  O   UNL     1      -8.615   9.003  68.744  1.00  0.00    -0.129 OA 
BRANCH  13  15
HETATM   15  O   UNL     1     -10.031   9.607  70.428  1.00  0.00    -0.252 OA 
BRANCH  15  16
HETATM   16  C   UNL     1      -9.157   8.900  71.323  1.00  0.00    -0.253 C  
BRANCH  16  17
HETATM   17  C   UNL     1     -10.066   8.290  72.402  1.00  0.00    -0.312 C  
BRANCH  17  18
HETATM   18  N   UNL     1     -10.287   6.839  72.352  1.00  0.00    -0.192 NA 
HETATM   19  C   UNL     1     -10.580   6.317  73.690  1.00  0.00    -0.263 C  
BRANCH  18  20
HETATM   20  C   UNL     1     -11.418   6.537  71.442  1.00  0.00    -0.309 C  
BRANCH  20  21
HETATM   21  C   UNL     1     -10.972   6.027  70.084  1.00  0.00    -0.429 A  
HETATM   22  C   UNL     1     -10.264   4.821  69.977  1.00  0.00    -0.251 A  
HETATM   23  C   UNL     1      -9.770   4.392  68.747  1.00  0.00    -0.200 A  
HETATM   24  C   UNL     1      -9.986   5.159  67.603  1.00  0.00    -0.203 A  
HETATM   25  C   UNL     1     -10.705   6.350  67.689  1.00  0.00    -0.387 A  
HETATM   26  C   UNL     1     -11.199   6.783  68.922  1.00  0.00    -0.196 A  
ENDBRANCH  20  21
ENDBRANCH  18  20
ENDBRANCH  17  18
ENDBRANCH  16  17
ENDBRANCH  15  16
ENDBRANCH  13  15
ENDBRANCH  10  13
BRANCH  12  27
HETATM   27  C   UNL     1      -8.346  11.626  67.236  1.00  0.00    -0.158 A  
HETATM   28  C   UNL     1      -5.989  11.423  66.692  1.00  0.00    -0.147 A  
HETATM   29  O   UNL     1      -7.311  14.611  69.937  1.00  0.00    -0.097 OA 
HETATM   30  C   UNL     1      -8.029  12.623  68.180  1.00  0.00    -0.158 A  
HETATM   31  O   UNL     1      -5.181  14.381  69.470  1.00  0.00    -0.090 OA 
HETATM   32  C   UNL     1      -6.699  13.017  68.363  1.00  0.00    -0.093 A  
HETATM   33  C   UNL     1      -7.314  11.044  66.487  1.00  0.00    -0.144 A  
HETATM   34  C   UNL     1      -5.675  12.407  67.632  1.00  0.00    -0.124 A  
HETATM   35  N   UNL     1      -6.375  14.078  69.325  1.00  0.00    -0.104 N  
ENDBRANCH  12  27
ENDBRANCH   3   5
ENDBRANCH   2   3
TORSDOF 10
ENDMDL
MODEL      205
REMARK 921   NORMALIZED FREE ENERGY PREDICTED BY IDOCK:   -3.87 KCAL/MOL
REMARK 922        TOTAL FREE ENERGY PREDICTED BY IDOCK:   -7.65 KCAL/MOL
REMARK 923 INTER-LIGAND FREE ENERGY PREDICTED BY IDOCK:   -6.42 KCAL/MOL
REMARK 924 INTRA-LIGAND FREE ENERGY PREDICTED BY IDOCK:   -1.24 KCAL/MOL
REMARK 927      BINDING AFFINITY PREDICTED BY RF-SCORE:    0.00 PKD
ROOT
HETATM    1  C   UNL     1     -13.452   9.018  72.348  1.00  0.00    -0.470 C  
HETATM    2  O   UNL     1     -12.857   8.011  71.522  1.00  0.00    -0.319 OA 
ENDROOT
BRANCH   2   3
HETATM    3  C   UNL     1     -11.592   7.698  71.902  1.00  0.00    -0.280 C  
HETATM    4  O   UNL     1     -10.936   8.320  72.724  1.00  0.00    -0.354 OA 
BRANCH   3   5
HETATM    5  C   UNL     1     -11.079   6.523  71.153  1.00  0.00    -0.332 C  
HETATM    6  C   UNL     1     -10.879   5.342  71.786  1.00  0.00    -0.174 C  
HETATM    7  C   UNL     1     -11.225   5.022  73.220  1.00  0.00    -0.411 C  
HETATM    8  N   UNL     1     -10.282   4.294  71.107  1.00  0.00    -0.091 NA 
HETATM    9  C   UNL     1      -9.693   4.392  69.861  1.00  0.00    -0.221 C  
HETATM   10  C   UNL     1      -9.827   5.532  69.140  1.00  0.00    -0.227 C  
HETATM   11  C   UNL     1      -8.952   3.158  69.399  1.00  0.00    -0.178 C  
HETATM   12  C   UNL     1     -10.668   6.703  69.681  1.00  0.00    -0.306 C  
BRANCH  10  13
HETATM   13  C   UNL     1      -9.248   5.610  67.768  1.00  0.00    -0.106 C  
HETATM   14  O   UNL     1      -8.070   5.798  67.504  1.00  0.00    -0.102 OA 
BRANCH  13  15
HETATM   15  O   UNL     1     -10.185   5.233  66.864  1.00  0.00    -0.191 OA 
BRANCH  15  16
HETATM   16  C   UNL     1      -9.656   5.028  65.543  1.00  0.00    -0.089 C  
BRANCH  16  17
HETATM   17  C   UNL     1      -9.421   3.515  65.417  1.00  0.00    -0.152 C  
BRANCH  17  18
HETATM   18  N   UNL     1      -9.185   2.984  64.068  1.00  0.00    -0.108 NA 
HETATM   19  C   UNL     1      -9.159   4.069  63.084  1.00  0.00    -0.117 C  
BRANCH  18  20
HETATM   20  C   UNL     1      -7.894   2.254  64.037  1.00  0.00    -0.072 C  
BRANCH  20  21
HETATM   21  C   UNL     1      -6.905   2.747  65.077  1.00  0.00    -0.044 A  
HETATM   22  C   UNL     1      -6.812   2.110  66.324  1.00  0.00    -0.043 A  
HETATM   23  C   UNL     1      -5.973   2.612  67.318  1.00  0.00    -0.023 A  
HETATM   24  C   UNL     1      -5.209   3.752  67.076  1.00  0.00    -0.012 A  
HETATM   25  C   UNL     1      -5.275   4.385  65.836  1.00  0.00    -0.009 A  
HETATM   26  C   UNL     1      -6.116   3.885  64.838  1.00  0.00    -0.023 A  
ENDBRANCH  20  21
ENDBRANCH  18  20
ENDBRANCH  17  18
ENDBRANCH  16  17
ENDBRANCH  15  16
ENDBRANCH  13  15
ENDBRANCH  10  13
BRANCH  12  27
HETATM   27  C   UNL     1      -9.975   8.050  69.452  1.00  0.00    -0.190 A  
HETATM   28  C   UNL     1      -8.034   9.489  69.681  1.00  0.00    -0.120 A  
HETATM   29  O   UNL     1     -11.937  11.237  67.641  1.00  0.00    -0.634 OA 
HETATM   30  C   UNL     1     -10.680   9.117  68.858  1.00  0.00    -0.167 A  
HETATM   31  O   UNL     1     -10.191  12.539  67.902  1.00  0.00    -0.207 OA 
HETATM   32  C   UNL     1     -10.053  10.354  68.673  1.00  0.00    -0.176 A  
HETATM   33  C   UNL     1      -8.645   8.247  69.846  1.00  0.00    -0.125 A  
HETATM   34  C   UNL     1      -8.735  10.548  69.099  1.00  0.00    -0.155 A  
HETATM   35  N   UNL     1     -10.779  11.454  68.026  1.00  0.00    -0.189 N  
ENDBRANCH  12  27
ENDBRANCH   3   5
ENDBRANCH   2   3
TORSDOF 10
ENDMDL
MODEL      206
REMARK 921   NORMALIZED FREE ENERGY PREDICTED BY IDOCK:   -3.85 KCAL/MOL
REMARK 922        TOTAL FREE ENERGY PREDICTED BY IDOCK:   -7.62 KCAL/MOL
REMARK 923 INTER-LIGAND FREE ENERGY PREDICTED BY IDOCK:   -7.98 KCAL/MOL
REMARK 924 INTRA-LIGAND FREE ENERGY PREDICTED BY IDOCK:    0.36 KCAL/MOL
REMARK 927      BINDING AFFINITY PREDICTED BY RF-SCORE:    0.00 PKD
ROOT
HETATM    1  C   UNL     1     -10.466  17.466  68.470  1.00  0.00    -0.370 C  
HETATM    2  O   UNL     1     -10.078  17.959  67.183  1.00  0.00    -0.313 OA 
ENDROOT
BRANCH   2   3
HETATM    3  C   UNL     1      -9.826  16.966  66.292  1.00  0.00    -0.302 C  
HETATM    4  O   UNL     1     -10.352  16.864  65.194  1.00  0.00    -0.631 OA 
BRANCH   3   5
HETATM    5  C   UNL     1      -8.857  15.983  66.841  1.00  0.00    -0.258 C  
HETATM    6  C   UNL     1      -7.525  16.207  66.742  1.00  0.00    -0.211 C  
HETATM    7  C   UNL     1      -6.861  17.451  66.201  1.00  0.00    -0.278 C  
HETATM    8  N   UNL     1      -6.635  15.226  67.141  1.00  0.00    -0.268 NA 
HETATM    9  C   UNL     1      -6.982  13.932  67.479  1.00  0.00    -0.144 C  
HETATM   10  C   UNL     1      -8.289  13.596  67.602  1.00  0.00    -0.182 C  
HETATM   11  C   UNL     1      -5.822  12.992  67.713  1.00  0.00    -0.141 C  
HETATM   12  C   UNL     1      -9.390  14.657  67.412  1.00  0.00    -0.196 C  
BRANCH  10  13
HETATM   13  C   UNL     1      -8.660  12.218  68.033  1.00  0.00    -0.176 C  
HETATM   14  O   UNL     1      -9.275  11.933  69.050  1.00  0.00     0.078 OA 
BRANCH  13  15
HETATM   15  O   UNL     1      -8.399  11.348  67.027  1.00  0.00    -0.148 OA 
BRANCH  15  16
HETATM   16  C   UNL     1      -7.876  10.088  67.480  1.00  0.00    -0.095 C  
BRANCH  16  17
HETATM   17  C   UNL     1      -8.817   9.015  66.910  1.00  0.00    -0.116 C  
BRANCH  17  18
HETATM   18  N   UNL     1      -9.893   8.533  67.785  1.00  0.00    -0.166 NA 
HETATM   19  C   UNL     1     -10.774   7.613  67.059  1.00  0.00    -0.270 C  
BRANCH  18  20
HETATM   20  C   UNL     1      -9.310   7.839  68.959  1.00  0.00    -0.150 C  
BRANCH  20  21
HETATM   21  C   UNL     1      -9.371   6.326  68.850  1.00  0.00    -0.128 A  
HETATM   22  C   UNL     1      -9.843   5.558  69.924  1.00  0.00    -0.259 A  
HETATM   23  C   UNL     1      -9.817   4.165  69.869  1.00  0.00    -0.233 A  
HETATM   24  C   UNL     1      -9.327   3.522  68.734  1.00  0.00    -0.233 A  
HETATM   25  C   UNL     1      -8.873   4.272  67.650  1.00  0.00    -0.124 A  
HETATM   26  C   UNL     1      -8.896   5.668  67.703  1.00  0.00    -0.105 A  
ENDBRANCH  20  21
ENDBRANCH  18  20
ENDBRANCH  17  18
ENDBRANCH  16  17
ENDBRANCH  15  16
ENDBRANCH  13  15
ENDBRANCH  10  13
BRANCH  12  27
HETATM   27  C   UNL     1     -10.559  14.117  66.582  1.00  0.00    -0.278 A  
HETATM   28  C   UNL     1     -12.943  13.818  66.243  1.00  0.00     0.172 A  
HETATM   29  O   UNL     1      -9.941  11.923  63.106  1.00  0.00    -0.422 OA 
HETATM   30  C   UNL     1     -10.311  13.355  65.423  1.00  0.00    -0.321 A  
HETATM   31  O   UNL     1     -12.097  11.620  62.841  1.00  0.00    -0.061 OA 
HETATM   32  C   UNL     1     -11.380  12.841  64.681  1.00  0.00    -0.321 A  
HETATM   33  C   UNL     1     -11.884  14.353  66.973  1.00  0.00    -0.437 A  
HETATM   34  C   UNL     1     -12.698  13.057  65.098  1.00  0.00    -0.461 A  
HETATM   35  N   UNL     1     -11.120  12.074  63.456  1.00  0.00    -0.434 N  
ENDBRANCH  12  27
ENDBRANCH   3   5
ENDBRANCH   2   3
TORSDOF 10
ENDMDL
MODEL      207
REMARK 921   NORMALIZED FREE ENERGY PREDICTED BY IDOCK:   -3.84 KCAL/MOL
REMARK 922        TOTAL FREE ENERGY PREDICTED BY IDOCK:   -7.61 KCAL/MOL
REMARK 923 INTER-LIGAND FREE ENERGY PREDICTED BY IDOCK:   -5.51 KCAL/MOL
REMARK 924 INTRA-LIGAND FREE ENERGY PREDICTED BY IDOCK:   -2.10 KCAL/MOL
REMARK 927      BINDING AFFINITY PREDICTED BY RF-SCORE:    0.00 PKD
ROOT
HETATM    1  C   UNL     1      -5.164  10.021  65.415  1.00  0.00    -0.058 C  
HETATM    2  O   UNL     1      -5.439   8.618  65.347  1.00  0.00    -0.035 OA 
ENDROOT
BRANCH   2   3
HETATM    3  C   UNL     1      -6.718   8.349  64.976  1.00  0.00    -0.063 C  
HETATM    4  O   UNL     1      -7.222   8.686  63.916  1.00  0.00    -0.093 OA 
BRANCH   3   5
HETATM    5  C   UNL     1      -7.450   7.629  66.049  1.00  0.00    -0.082 C  
HETATM    6  C   UNL     1      -7.899   6.368  65.843  1.00  0.00    -0.102 C  
HETATM    7  C   UNL     1      -7.648   5.513  64.623  1.00  0.00    -0.079 C  
HETATM    8  N   UNL     1      -8.689   5.757  66.802  1.00  0.00    -0.115 NA 
HETATM    9  C   UNL     1      -9.225   6.392  67.905  1.00  0.00    -0.113 C  
HETATM   10  C   UNL     1      -8.848   7.658  68.204  1.00  0.00    -0.125 C  
HETATM   11  C   UNL     1     -10.197   5.564  68.716  1.00  0.00    -0.270 C  
HETATM   12  C   UNL     1      -7.791   8.381  67.348  1.00  0.00    -0.099 C  
BRANCH  10  13
HETATM   13  C   UNL     1      -9.376   8.315  69.434  1.00  0.00    -0.155 C  
HETATM   14  O   UNL     1      -8.795   8.386  70.507  1.00  0.00    -0.138 OA 
BRANCH  13  15
HETATM   15  O   UNL     1     -10.502   9.004  69.126  1.00  0.00    -0.222 OA 
BRANCH  15  16
HETATM   16  C   UNL     1     -10.634  10.238  69.851  1.00  0.00    -0.276 C  
BRANCH  16  17
HETATM   17  C   UNL     1     -12.145  10.480  69.994  1.00  0.00    -0.274 C  
BRANCH  17  18
HETATM   18  N   UNL     1     -12.582  11.854  70.270  1.00  0.00    -0.083 NA 
HETATM   19  C   UNL     1     -13.122  11.961  71.628  1.00  0.00    -0.328 C  
BRANCH  18  20
HETATM   20  C   UNL     1     -11.435  12.783  70.118  1.00  0.00     0.084 C  
BRANCH  20  21
HETATM   21  C   UNL     1     -11.451  13.543  68.805  1.00  0.00    -0.349 A  
HETATM   22  C   UNL     1     -10.729  14.738  68.669  1.00  0.00    -0.253 A  
HETATM   23  C   UNL     1     -10.811  15.490  67.499  1.00  0.00    -0.306 A  
HETATM   24  C   UNL     1     -11.611  15.053  66.444  1.00  0.00    -0.172 A  
HETATM   25  C   UNL     1     -12.319  13.857  66.555  1.00  0.00    -0.447 A  
HETATM   26  C   UNL     1     -12.239  13.102  67.728  1.00  0.00    -0.124 A  
ENDBRANCH  20  21
ENDBRANCH  18  20
ENDBRANCH  17  18
ENDBRANCH  16  17
ENDBRANCH  15  16
ENDBRANCH  13  15
ENDBRANCH  10  13
BRANCH  12  27
HETATM   27  C   UNL     1      -8.188   9.834  67.068  1.00  0.00    -0.117 A  
HETATM   28  C   UNL     1      -9.591  11.455  65.930  1.00  0.00    -0.254 A  
HETATM   29  O   UNL     1      -6.146  13.024  68.780  1.00  0.00    -0.068 OA 
HETATM   30  C   UNL     1      -7.456  10.891  67.646  1.00  0.00    -0.095 A  
HETATM   31  O   UNL     1      -7.390  14.476  67.706  1.00  0.00    -0.139 OA 
HETATM   32  C   UNL     1      -7.804  12.218  67.369  1.00  0.00    -0.171 A  
HETATM   33  C   UNL     1      -9.264  10.132  66.222  1.00  0.00    -0.191 A  
HETATM   34  C   UNL     1      -8.861  12.503  66.498  1.00  0.00    -0.090 A  
HETATM   35  N   UNL     1      -7.061  13.317  67.996  1.00  0.00    -0.105 N  
ENDBRANCH  12  27
ENDBRANCH   3   5
ENDBRANCH   2   3
TORSDOF 10
ENDMDL
MODEL      208
REMARK 921   NORMALIZED FREE ENERGY PREDICTED BY IDOCK:   -3.83 KCAL/MOL
REMARK 922        TOTAL FREE ENERGY PREDICTED BY IDOCK:   -7.59 KCAL/MOL
REMARK 923 INTER-LIGAND FREE ENERGY PREDICTED BY IDOCK:   -6.92 KCAL/MOL
REMARK 924 INTRA-LIGAND FREE ENERGY PREDICTED BY IDOCK:   -0.67 KCAL/MOL
REMARK 927      BINDING AFFINITY PREDICTED BY RF-SCORE:    0.00 PKD
ROOT
HETATM    1  C   UNL     1     -10.544  16.367  68.902  1.00  0.00    -0.307 C  
HETATM    2  O   UNL     1      -9.857  15.157  68.565  1.00  0.00    -0.209 OA 
ENDROOT
BRANCH   2   3
HETATM    3  C   UNL     1      -9.639  15.030  67.230  1.00  0.00    -0.207 C  
HETATM    4  O   UNL     1      -9.402  15.957  66.471  1.00  0.00    -0.234 OA 
BRANCH   3   5
HETATM    5  C   UNL     1      -9.774  13.617  66.795  1.00  0.00    -0.275 C  
HETATM    6  C   UNL     1     -11.000  13.051  66.681  1.00  0.00    -0.279 C  
HETATM    7  C   UNL     1     -12.330  13.745  66.855  1.00  0.00    -0.328 C  
HETATM    8  N   UNL     1     -11.106  11.700  66.398  1.00  0.00    -0.298 NA 
HETATM    9  C   UNL     1     -10.052  10.807  66.393  1.00  0.00    -0.227 C  
HETATM   10  C   UNL     1      -8.781  11.265  66.504  1.00  0.00    -0.178 C  
HETATM   11  C   UNL     1     -10.437   9.355  66.229  1.00  0.00    -0.112 C  
HETATM   12  C   UNL     1      -8.500  12.777  66.592  1.00  0.00     0.046 C  
BRANCH  10  13
HETATM   13  C   UNL     1      -7.642  10.307  66.430  1.00  0.00    -0.117 C  
HETATM   14  O   UNL     1      -6.737  10.342  65.609  1.00  0.00    -0.109 OA 
BRANCH  13  15
HETATM   15  O   UNL     1      -7.645   9.520  67.533  1.00  0.00    -0.094 OA 
BRANCH  15  16
HETATM   16  C   UNL     1      -6.899   8.302  67.370  1.00  0.00    -0.070 C  
BRANCH  16  17
HETATM   17  C   UNL     1      -7.253   7.428  68.583  1.00  0.00    -0.090 C  
BRANCH  17  18
HETATM   18  N   UNL     1      -8.649   6.989  68.708  1.00  0.00    -0.125 NA 
HETATM   19  C   UNL     1      -8.883   5.780  67.914  1.00  0.00    -0.108 C  
BRANCH  18  20
HETATM   20  C   UNL     1      -8.960   6.715  70.133  1.00  0.00    -0.152 C  
BRANCH  20  21
HETATM   21  C   UNL     1     -10.213   7.421  70.617  1.00  0.00    -0.202 A  
HETATM   22  C   UNL     1     -10.156   8.761  71.029  1.00  0.00    -0.301 A  
HETATM   23  C   UNL     1     -11.280   9.390  71.562  1.00  0.00    -0.457 A  
HETATM   24  C   UNL     1     -12.479   8.690  71.682  1.00  0.00    -0.382 A  
HETATM   25  C   UNL     1     -12.558   7.364  71.259  1.00  0.00    -0.376 A  
HETATM   26  C   UNL     1     -11.432   6.731  70.725  1.00  0.00    -0.392 A  
ENDBRANCH  20  21
ENDBRANCH  18  20
ENDBRANCH  17  18
ENDBRANCH  16  17
ENDBRANCH  15  16
ENDBRANCH  13  15
ENDBRANCH  10  13
BRANCH  12  27
HETATM   27  C   UNL     1      -7.443  13.096  67.654  1.00  0.00    -0.164 A  
HETATM   28  C   UNL     1      -5.676  14.523  68.509  1.00  0.00    -0.096 A  
HETATM   29  O   UNL     1      -6.762  10.570  70.884  1.00  0.00    -0.323 OA 
HETATM   30  C   UNL     1      -7.222  12.203  68.722  1.00  0.00    -0.103 A  
HETATM   31  O   UNL     1      -5.134  11.844  71.616  1.00  0.00    -0.277 OA 
HETATM   32  C   UNL     1      -6.238  12.483  69.677  1.00  0.00    -0.126 A  
HETATM   33  C   UNL     1      -6.671  14.262  67.569  1.00  0.00    -0.128 A  
HETATM   34  C   UNL     1      -5.452  13.635  69.564  1.00  0.00    -0.087 A  
HETATM   35  N   UNL     1      -6.031  11.567  70.806  1.00  0.00    -0.038 N  
ENDBRANCH  12  27
ENDBRANCH   3   5
ENDBRANCH   2   3
TORSDOF 10
ENDMDL
MODEL      209
REMARK 921   NORMALIZED FREE ENERGY PREDICTED BY IDOCK:   -3.82 KCAL/MOL
REMARK 922        TOTAL FREE ENERGY PREDICTED BY IDOCK:   -7.57 KCAL/MOL
REMARK 923 INTER-LIGAND FREE ENERGY PREDICTED BY IDOCK:   -6.64 KCAL/MOL
REMARK 924 INTRA-LIGAND FREE ENERGY PREDICTED BY IDOCK:   -0.93 KCAL/MOL
REMARK 927      BINDING AFFINITY PREDICTED BY RF-SCORE:    0.00 PKD
ROOT
HETATM    1  C   UNL     1     -10.807  14.756  69.705  1.00  0.00    -0.226 C  
HETATM    2  O   UNL     1     -10.220  14.223  68.513  1.00  0.00    -0.234 OA 
ENDROOT
BRANCH   2   3
HETATM    3  C   UNL     1     -11.090  13.476  67.785  1.00  0.00    -0.268 C  
HETATM    4  O   UNL     1     -12.232  13.208  68.125  1.00  0.00    -0.247 OA 
BRANCH   3   5
HETATM    5  C   UNL     1     -10.460  12.980  66.535  1.00  0.00    -0.284 C  
HETATM    6  C   UNL     1     -10.949  13.353  65.329  1.00  0.00    -0.295 C  
HETATM    7  C   UNL     1     -12.057  14.348  65.077  1.00  0.00    -0.417 C  
HETATM    8  N   UNL     1     -10.435  12.784  64.176  1.00  0.00    -0.408 NA 
HETATM    9  C   UNL     1      -9.565  11.711  64.144  1.00  0.00    -0.115 C  
HETATM   10  C   UNL     1      -9.018  11.253  65.295  1.00  0.00    -0.079 C  
HETATM   11  C   UNL     1      -9.279  11.154  62.768  1.00  0.00    -0.374 C  
HETATM   12  C   UNL     1      -9.325  11.946  66.636  1.00  0.00    -0.210 C  
BRANCH  10  13
HETATM   13  C   UNL     1      -8.028  10.139  65.250  1.00  0.00    -0.145 C  
HETATM   14  O   UNL     1      -6.835  10.239  65.498  1.00  0.00    -0.123 OA 
BRANCH  13  15
HETATM   15  O   UNL     1      -8.683   8.962  65.101  1.00  0.00    -0.178 OA 
BRANCH  15  16
HETATM   16  C   UNL     1      -8.140   7.898  65.900  1.00  0.00    -0.119 C  
BRANCH  16  17
HETATM   17  C   UNL     1      -9.343   7.056  66.350  1.00  0.00    -0.138 C  
BRANCH  17  18
HETATM   18  N   UNL     1      -9.057   5.768  66.996  1.00  0.00    -0.114 NA 
HETATM   19  C   UNL     1     -10.180   4.843  66.822  1.00  0.00    -0.235 C  
BRANCH  18  20
HETATM   20  C   UNL     1      -7.830   5.176  66.408  1.00  0.00    -0.103 C  
BRANCH  20  21
HETATM   21  C   UNL     1      -8.121   4.077  65.402  1.00  0.00    -0.101 A  
HETATM   22  C   UNL     1      -8.375   4.395  64.060  1.00  0.00    -0.107 A  
HETATM   23  C   UNL     1      -8.733   3.403  63.149  1.00  0.00    -0.093 A  
HETATM   24  C   UNL     1      -8.834   2.077  63.567  1.00  0.00    -0.088 A  
HETATM   25  C   UNL     1      -8.565   1.742  64.893  1.00  0.00    -0.099 A  
HETATM   26  C   UNL     1      -8.207   2.735  65.808  1.00  0.00    -0.089 A  
ENDBRANCH  20  21
ENDBRANCH  18  20
ENDBRANCH  17  18
ENDBRANCH  16  17
ENDBRANCH  15  16
ENDBRANCH  13  15
ENDBRANCH  10  13
BRANCH  12  27
HETATM   27  C   UNL     1      -9.588  10.930  67.752  1.00  0.00    -0.176 A  
HETATM   28  C   UNL     1     -11.048   9.327  68.843  1.00  0.00     0.042 A  
HETATM   29  O   UNL     1      -6.786  10.176  70.727  1.00  0.00    -0.298 OA 
HETATM   30  C   UNL     1      -8.625  10.719  68.759  1.00  0.00    -0.156 A  
HETATM   31  O   UNL     1      -8.137   8.768  71.728  1.00  0.00    -0.252 OA 
HETATM   32  C   UNL     1      -8.879   9.808  69.791  1.00  0.00    -0.224 A  
HETATM   33  C   UNL     1     -10.792  10.214  67.798  1.00  0.00    -0.346 A  
HETATM   34  C   UNL     1     -10.097   9.123  69.844  1.00  0.00    -0.219 A  
HETATM   35  N   UNL     1      -7.861   9.567  70.822  1.00  0.00    -0.124 N  
ENDBRANCH  12  27
ENDBRANCH   3   5
ENDBRANCH   2   3
TORSDOF 10
ENDMDL
MODEL      210
REMARK 921   NORMALIZED FREE ENERGY PREDICTED BY IDOCK:   -3.79 KCAL/MOL
REMARK 922        TOTAL FREE ENERGY PREDICTED BY IDOCK:   -7.53 KCAL/MOL
REMARK 923 INTER-LIGAND FREE ENERGY PREDICTED BY IDOCK:   -6.94 KCAL/MOL
REMARK 924 INTRA-LIGAND FREE ENERGY PREDICTED BY IDOCK:   -0.58 KCAL/MOL
REMARK 927      BINDING AFFINITY PREDICTED BY RF-SCORE:    0.00 PKD
ROOT
HETATM    1  C   UNL     1      -9.957  14.975  70.432  1.00  0.00     0.381 C  
HETATM    2  O   UNL     1     -10.843  15.339  69.368  1.00  0.00    -0.236 OA 
ENDROOT
BRANCH   2   3
HETATM    3  C   UNL     1     -12.015  14.653  69.401  1.00  0.00    -0.313 C  
HETATM    4  O   UNL     1     -13.029  15.033  69.966  1.00  0.00    -0.150 OA 
BRANCH   3   5
HETATM    5  C   UNL     1     -11.897  13.350  68.699  1.00  0.00    -0.397 C  
HETATM    6  C   UNL     1     -11.909  12.192  69.401  1.00  0.00    -0.309 C  
HETATM    7  C   UNL     1     -12.142  12.044  70.885  1.00  0.00    -0.203 C  
HETATM    8  N   UNL     1     -11.671  10.994  68.749  1.00  0.00    -0.361 NA 
HETATM    9  C   UNL     1     -11.235  10.877  67.443  1.00  0.00    -0.273 C  
HETATM   10  C   UNL     1     -11.180  11.975  66.651  1.00  0.00    -0.380 C  
HETATM   11  C   UNL     1     -10.877   9.476  67.006  1.00  0.00    -0.125 C  
HETATM   12  C   UNL     1     -11.641  13.346  67.181  1.00  0.00    -0.399 C  
BRANCH  10  13
HETATM   13  C   UNL     1     -10.775  11.835  65.222  1.00  0.00    -0.287 C  
HETATM   14  O   UNL     1     -11.334  12.361  64.271  1.00  0.00    -0.319 OA 
BRANCH  13  15
HETATM   15  O   UNL     1      -9.573  11.212  65.156  1.00  0.00    -0.218 OA 
BRANCH  15  16
HETATM   16  C   UNL     1      -9.430  10.364  64.004  1.00  0.00    -0.299 C  
BRANCH  16  17
HETATM   17  C   UNL     1      -8.049   9.705  64.138  1.00  0.00    -0.151 C  
BRANCH  17  18
HETATM   18  N   UNL     1      -7.980   8.438  64.877  1.00  0.00    -0.128 NA 
HETATM   19  C   UNL     1      -7.785   7.314  63.957  1.00  0.00    -0.120 C  
BRANCH  18  20
HETATM   20  C   UNL     1      -6.857   8.486  65.846  1.00  0.00    -0.064 C  
BRANCH  20  21
HETATM   21  C   UNL     1      -7.315   8.463  67.293  1.00  0.00    -0.085 A  
HETATM   22  C   UNL     1      -7.323   9.642  68.052  1.00  0.00    -0.082 A  
HETATM   23  C   UNL     1      -7.653   9.614  69.406  1.00  0.00    -0.097 A  
HETATM   24  C   UNL     1      -7.989   8.407  70.017  1.00  0.00    -0.109 A  
HETATM   25  C   UNL     1      -8.006   7.229  69.271  1.00  0.00    -0.118 A  
HETATM   26  C   UNL     1      -7.674   7.255  67.914  1.00  0.00    -0.113 A  
ENDBRANCH  20  21
ENDBRANCH  18  20
ENDBRANCH  17  18
ENDBRANCH  16  17
ENDBRANCH  15  16
ENDBRANCH  13  15
ENDBRANCH  10  13
BRANCH  12  27
HETATM   27  C   UNL     1     -10.679  14.464  66.770  1.00  0.00    -0.292 A  
HETATM   28  C   UNL     1     -10.248  16.561  65.626  1.00  0.00    -0.316 A  
HETATM   29  O   UNL     1      -6.646  14.355  67.772  1.00  0.00    -0.153 OA 
HETATM   30  C   UNL     1      -9.313  14.381  67.105  1.00  0.00    -0.226 A  
HETATM   31  O   UNL     1      -6.264  16.225  66.691  1.00  0.00    -0.286 OA 
HETATM   32  C   UNL     1      -8.431  15.392  66.707  1.00  0.00    -0.272 A  
HETATM   33  C   UNL     1     -11.136  15.570  66.041  1.00  0.00    -0.185 A  
HETATM   34  C   UNL     1      -8.893  16.475  65.953  1.00  0.00    -0.148 A  
HETATM   35  N   UNL     1      -7.014  15.318  67.084  1.00  0.00    -0.108 N  
ENDBRANCH  12  27
ENDBRANCH   3   5
ENDBRANCH   2   3
TORSDOF 10
ENDMDL
MODEL      211
REMARK 921   NORMALIZED FREE ENERGY PREDICTED BY IDOCK:   -3.78 KCAL/MOL
REMARK 922        TOTAL FREE ENERGY PREDICTED BY IDOCK:   -7.51 KCAL/MOL
REMARK 923 INTER-LIGAND FREE ENERGY PREDICTED BY IDOCK:   -6.70 KCAL/MOL
REMARK 924 INTRA-LIGAND FREE ENERGY PREDICTED BY IDOCK:   -0.81 KCAL/MOL
REMARK 927      BINDING AFFINITY PREDICTED BY RF-SCORE:    0.00 PKD
ROOT
HETATM    1  C   UNL     1     -10.810   5.634  69.585  1.00  0.00    -0.295 C  
HETATM    2  O   UNL     1     -10.651   5.606  68.163  1.00  0.00    -0.216 OA 
ENDROOT
BRANCH   2   3
HETATM    3  C   UNL     1      -9.354   5.479  67.780  1.00  0.00    -0.113 C  
HETATM    4  O   UNL     1      -8.570   4.657  68.232  1.00  0.00    -0.097 OA 
BRANCH   3   5
HETATM    5  C   UNL     1      -8.987   6.504  66.770  1.00  0.00    -0.136 C  
HETATM    6  C   UNL     1      -8.728   6.142  65.491  1.00  0.00    -0.098 C  
HETATM    7  C   UNL     1      -8.869   4.758  64.903  1.00  0.00    -0.153 C  
HETATM    8  N   UNL     1      -8.264   7.087  64.593  1.00  0.00    -0.074 NA 
HETATM    9  C   UNL     1      -7.860   8.366  64.927  1.00  0.00    -0.121 C  
HETATM   10  C   UNL     1      -8.069   8.831  66.182  1.00  0.00    -0.107 C  
HETATM   11  C   UNL     1      -7.228   9.157  63.805  1.00  0.00    -0.096 C  
HETATM   12  C   UNL     1      -8.791   7.960  67.229  1.00  0.00    -0.131 C  
BRANCH  10  13
HETATM   13  C   UNL     1      -7.695  10.233  66.522  1.00  0.00    -0.113 C  
HETATM   14  O   UNL     1      -6.557  10.640  66.708  1.00  0.00    -0.078 OA 
BRANCH  13  15
HETATM   15  O   UNL     1      -8.781  11.033  66.386  1.00  0.00    -0.161 OA 
BRANCH  15  16
HETATM   16  C   UNL     1      -8.654  12.292  67.067  1.00  0.00    -0.191 C  
BRANCH  16  17
HETATM   17  C   UNL     1      -9.769  12.310  68.125  1.00  0.00    -0.213 C  
BRANCH  17  18
HETATM   18  N   UNL     1     -11.061  11.723  67.747  1.00  0.00    -0.227 NA 
HETATM   19  C   UNL     1     -11.853  11.411  68.940  1.00  0.00    -0.347 C  
BRANCH  18  20
HETATM   20  C   UNL     1     -11.810  12.674  66.890  1.00  0.00    -0.355 C  
BRANCH  20  21
HETATM   21  C   UNL     1     -11.564  14.127  67.253  1.00  0.00    -0.399 A  
HETATM   22  C   UNL     1     -10.892  14.976  66.361  1.00  0.00    -0.326 A  
HETATM   23  C   UNL     1     -10.580  16.285  66.723  1.00  0.00    -0.257 A  
HETATM   24  C   UNL     1     -10.944  16.767  67.979  1.00  0.00    -0.296 A  
HETATM   25  C   UNL     1     -11.630  15.942  68.870  1.00  0.00    -0.392 A  
HETATM   26  C   UNL     1     -11.943  14.629  68.509  1.00  0.00    -0.298 A  
ENDBRANCH  20  21
ENDBRANCH  18  20
ENDBRANCH  17  18
ENDBRANCH  16  17
ENDBRANCH  15  16
ENDBRANCH  13  15
ENDBRANCH  10  13
BRANCH  12  27
HETATM   27  C   UNL     1      -8.104   8.031  68.596  1.00  0.00    -0.125 A  
HETATM   28  C   UNL     1      -6.122   7.786  69.975  1.00  0.00    -0.026 A  
HETATM   29  O   UNL     1     -10.202   9.014  72.047  1.00  0.00    -0.339 OA 
HETATM   30  C   UNL     1      -8.853   8.343  69.748  1.00  0.00    -0.134 A  
HETATM   31  O   UNL     1      -8.413   8.739  73.286  1.00  0.00    -0.366 OA 
HETATM   32  C   UNL     1      -8.228   8.382  71.000  1.00  0.00    -0.128 A  
HETATM   33  C   UNL     1      -6.733   7.769  68.723  1.00  0.00    -0.054 A  
HETATM   34  C   UNL     1      -6.865   8.088  71.119  1.00  0.00    -0.046 A  
HETATM   35  N   UNL     1      -9.003   8.737  72.195  1.00  0.00    -0.192 N  
ENDBRANCH  12  27
ENDBRANCH   3   5
ENDBRANCH   2   3
TORSDOF 10
ENDMDL
MODEL      212
REMARK 921   NORMALIZED FREE ENERGY PREDICTED BY IDOCK:   -3.78 KCAL/MOL
REMARK 922        TOTAL FREE ENERGY PREDICTED BY IDOCK:   -7.51 KCAL/MOL
REMARK 923 INTER-LIGAND FREE ENERGY PREDICTED BY IDOCK:   -6.18 KCAL/MOL
REMARK 924 INTRA-LIGAND FREE ENERGY PREDICTED BY IDOCK:   -1.32 KCAL/MOL
REMARK 927      BINDING AFFINITY PREDICTED BY RF-SCORE:    0.00 PKD
ROOT
HETATM    1  C   UNL     1      -7.015   3.291  70.985  1.00  0.00    -0.033 C  
HETATM    2  O   UNL     1      -8.032   3.451  69.991  1.00  0.00    -0.046 OA 
ENDROOT
BRANCH   2   3
HETATM    3  C   UNL     1      -8.973   4.365  70.342  1.00  0.00    -0.092 C  
HETATM    4  O   UNL     1     -10.118   4.095  70.674  1.00  0.00    -0.167 OA 
BRANCH   3   5
HETATM    5  C   UNL     1      -8.450   5.750  70.226  1.00  0.00    -0.128 C  
HETATM    6  C   UNL     1      -8.549   6.608  71.270  1.00  0.00    -0.126 C  
HETATM    7  C   UNL     1      -9.066   6.286  72.652  1.00  0.00    -0.136 C  
HETATM    8  N   UNL     1      -8.175   7.930  71.107  1.00  0.00    -0.103 NA 
HETATM    9  C   UNL     1      -7.863   8.521  69.897  1.00  0.00    -0.096 C  
HETATM   10  C   UNL     1      -7.741   7.755  68.786  1.00  0.00    -0.113 C  
HETATM   11  C   UNL     1      -7.654  10.017  69.944  1.00  0.00    -0.177 C  
HETATM   12  C   UNL     1      -7.904   6.226  68.868  1.00  0.00    -0.105 C  
BRANCH  10  13
HETATM   13  C   UNL     1      -7.338   8.385  67.496  1.00  0.00    -0.093 C  
HETATM   14  O   UNL     1      -6.342   8.100  66.847  1.00  0.00    -0.053 OA 
BRANCH  13  15
HETATM   15  O   UNL     1      -8.346   9.170  67.045  1.00  0.00    -0.118 OA 
BRANCH  15  16
HETATM   16  C   UNL     1      -8.245   9.487  65.647  1.00  0.00    -0.120 C  
BRANCH  16  17
HETATM   17  C   UNL     1      -9.670   9.837  65.192  1.00  0.00    -0.268 C  
BRANCH  17  18
HETATM   18  N   UNL     1      -9.951  11.246  64.890  1.00  0.00    -0.257 NA 
HETATM   19  C   UNL     1      -9.673  11.536  63.480  1.00  0.00    -0.336 C  
BRANCH  18  20
HETATM   20  C   UNL     1     -11.373  11.547  65.187  1.00  0.00    -0.086 C  
BRANCH  20  21
HETATM   21  C   UNL     1     -11.551  12.485  66.366  1.00  0.00    -0.449 A  
HETATM   22  C   UNL     1     -11.942  13.816  66.159  1.00  0.00    -0.449 A  
HETATM   23  C   UNL     1     -12.019  14.709  67.227  1.00  0.00    -0.312 A  
HETATM   24  C   UNL     1     -11.714  14.281  68.517  1.00  0.00    -0.376 A  
HETATM   25  C   UNL     1     -11.343  12.956  68.743  1.00  0.00    -0.333 A  
HETATM   26  C   UNL     1     -11.265  12.059  67.674  1.00  0.00    -0.343 A  
ENDBRANCH  20  21
ENDBRANCH  18  20
ENDBRANCH  17  18
ENDBRANCH  16  17
ENDBRANCH  15  16
ENDBRANCH  13  15
ENDBRANCH  10  13
BRANCH  12  27
HETATM   27  C   UNL     1      -8.740   5.682  67.706  1.00  0.00    -0.107 A  
HETATM   28  C   UNL     1     -10.865   5.474  66.552  1.00  0.00    -0.237 A  
HETATM   29  O   UNL     1      -7.092   3.207  64.801  1.00  0.00    -0.057 OA 
HETATM   30  C   UNL     1      -8.153   4.824  66.753  1.00  0.00    -0.107 A  
HETATM   31  O   UNL     1      -9.031   2.989  63.799  1.00  0.00    -0.095 OA 
HETATM   32  C   UNL     1      -8.925   4.309  65.706  1.00  0.00    -0.129 A  
HETATM   33  C   UNL     1     -10.096   6.011  67.584  1.00  0.00    -0.190 A  
HETATM   34  C   UNL     1     -10.286   4.619  65.612  1.00  0.00    -0.255 A  
HETATM   35  N   UNL     1      -8.305   3.440  64.697  1.00  0.00    -0.093 N  
ENDBRANCH  12  27
ENDBRANCH   3   5
ENDBRANCH   2   3
TORSDOF 10
ENDMDL
MODEL      213
REMARK 921   NORMALIZED FREE ENERGY PREDICTED BY IDOCK:   -3.74 KCAL/MOL
REMARK 922        TOTAL FREE ENERGY PREDICTED BY IDOCK:   -7.44 KCAL/MOL
REMARK 923 INTER-LIGAND FREE ENERGY PREDICTED BY IDOCK:   -7.82 KCAL/MOL
REMARK 924 INTRA-LIGAND FREE ENERGY PREDICTED BY IDOCK:    0.38 KCAL/MOL
REMARK 927      BINDING AFFINITY PREDICTED BY RF-SCORE:    0.00 PKD
ROOT
HETATM    1  C   UNL     1      -9.993  18.075  69.191  1.00  0.00    -0.192 C  
HETATM    2  O   UNL     1      -8.715  17.445  69.049  1.00  0.00    -0.191 OA 
ENDROOT
BRANCH   2   3
HETATM    3  C   UNL     1      -8.808  16.109  68.826  1.00  0.00    -0.233 C  
HETATM    4  O   UNL     1      -8.399  15.244  69.587  1.00  0.00    -0.235 OA 
BRANCH   3   5
HETATM    5  C   UNL     1      -9.429  15.824  67.508  1.00  0.00    -0.218 C  
HETATM    6  C   UNL     1      -9.214  16.651  66.457  1.00  0.00    -0.270 C  
HETATM    7  C   UNL     1      -8.287  17.844  66.428  1.00  0.00    -0.273 C  
HETATM    8  N   UNL     1      -9.899  16.446  65.273  1.00  0.00    -0.426 NA 
HETATM    9  C   UNL     1     -10.944  15.557  65.107  1.00  0.00    -0.409 C  
HETATM   10  C   UNL     1     -11.248  14.684  66.097  1.00  0.00    -0.341 C  
HETATM   11  C   UNL     1     -11.650  15.633  63.772  1.00  0.00     0.628 C  
HETATM   12  C   UNL     1     -10.412  14.645  67.390  1.00  0.00    -0.255 C  
BRANCH  10  13
HETATM   13  C   UNL     1     -12.331  13.680  65.889  1.00  0.00    -0.471 C  
HETATM   14  O   UNL     1     -13.531  13.913  65.921  1.00  0.00    -0.287 OA 
BRANCH  13  15
HETATM   15  O   UNL     1     -11.788  12.518  65.451  1.00  0.00    -0.388 OA 
BRANCH  15  16
HETATM   16  C   UNL     1     -11.637  11.531  66.486  1.00  0.00     0.019 C  
BRANCH  16  17
HETATM   17  C   UNL     1     -10.123  11.358  66.681  1.00  0.00    -0.212 C  
BRANCH  17  18
HETATM   18  N   UNL     1      -9.680  10.276  67.569  1.00  0.00    -0.166 NA 
HETATM   19  C   UNL     1     -10.487   9.072  67.356  1.00  0.00    -0.269 C  
BRANCH  18  20
HETATM   20  C   UNL     1      -8.252   9.969  67.310  1.00  0.00    -0.117 C  
BRANCH  20  21
HETATM   21  C   UNL     1      -7.405   9.956  68.569  1.00  0.00    -0.078 A  
HETATM   22  C   UNL     1      -6.708  11.107  68.965  1.00  0.00    -0.085 A  
HETATM   23  C   UNL     1      -5.855  11.078  70.067  1.00  0.00    -0.102 A  
HETATM   24  C   UNL     1      -5.695   9.900  70.794  1.00  0.00    -0.080 A  
HETATM   25  C   UNL     1      -6.396   8.753  70.425  1.00  0.00    -0.040 A  
HETATM   26  C   UNL     1      -7.251   8.779  69.320  1.00  0.00    -0.062 A  
ENDBRANCH  20  21
ENDBRANCH  18  20
ENDBRANCH  17  18
ENDBRANCH  16  17
ENDBRANCH  15  16
ENDBRANCH  13  15
ENDBRANCH  10  13
BRANCH  12  27
HETATM   27  C   UNL     1     -11.297  14.526  68.634  1.00  0.00    -0.300 A  
HETATM   28  C   UNL     1     -12.729  15.543  70.309  1.00  0.00    -0.310 A  
HETATM   29  O   UNL     1     -11.830  10.900  70.596  1.00  0.00    -0.327 OA 
HETATM   30  C   UNL     1     -11.434  13.285  69.288  1.00  0.00    -0.345 A  
HETATM   31  O   UNL     1     -13.081  11.844  72.130  1.00  0.00    -0.443 OA 
HETATM   32  C   UNL     1     -12.224  13.183  70.439  1.00  0.00    -0.316 A  
HETATM   33  C   UNL     1     -11.964  15.645  69.148  1.00  0.00    -0.329 A  
HETATM   34  C   UNL     1     -12.859  14.315  70.961  1.00  0.00    -0.427 A  
HETATM   35  N   UNL     1     -12.390  11.884  71.101  1.00  0.00    -0.271 N  
ENDBRANCH  12  27
ENDBRANCH   3   5
ENDBRANCH   2   3
TORSDOF 10
ENDMDL
MODEL      214
REMARK 921   NORMALIZED FREE ENERGY PREDICTED BY IDOCK:   -3.72 KCAL/MOL
REMARK 922        TOTAL FREE ENERGY PREDICTED BY IDOCK:   -7.42 KCAL/MOL
REMARK 923 INTER-LIGAND FREE ENERGY PREDICTED BY IDOCK:   -6.00 KCAL/MOL
REMARK 924 INTRA-LIGAND FREE ENERGY PREDICTED BY IDOCK:   -1.42 KCAL/MOL
REMARK 927      BINDING AFFINITY PREDICTED BY RF-SCORE:    0.00 PKD
ROOT
HETATM    1  C   UNL     1     -12.491  10.257  71.548  1.00  0.00    -0.422 C  
HETATM    2  O   UNL     1     -11.329  10.628  70.799  1.00  0.00    -0.301 OA 
ENDROOT
BRANCH   2   3
HETATM    3  C   UNL     1     -10.811   9.596  70.083  1.00  0.00    -0.280 C  
HETATM    4  O   UNL     1     -11.428   8.592  69.762  1.00  0.00     0.029 OA 
BRANCH   3   5
HETATM    5  C   UNL     1      -9.375   9.818  69.778  1.00  0.00    -0.249 C  
HETATM    6  C   UNL     1      -8.428   9.536  70.704  1.00  0.00    -0.115 C  
HETATM    7  C   UNL     1      -8.652   8.892  72.052  1.00  0.00    -0.004 C  
HETATM    8  N   UNL     1      -7.107   9.866  70.455  1.00  0.00    -0.174 NA 
HETATM    9  C   UNL     1      -6.671  10.638  69.395  1.00  0.00    -0.083 C  
HETATM   10  C   UNL     1      -7.537  10.982  68.412  1.00  0.00    -0.108 C  
HETATM   11  C   UNL     1      -5.206  11.010  69.428  1.00  0.00    -0.041 C  
HETATM   12  C   UNL     1      -8.994  10.484  68.444  1.00  0.00    -0.141 C  
BRANCH  10  13
HETATM   13  C   UNL     1      -7.048  11.757  67.236  1.00  0.00    -0.140 C  
HETATM   14  O   UNL     1      -6.388  12.784  67.287  1.00  0.00    -0.174 OA 
BRANCH  13  15
HETATM   15  O   UNL     1      -7.264  11.041  66.105  1.00  0.00    -0.124 OA 
BRANCH  15  16
HETATM   16  C   UNL     1      -6.366   9.930  65.951  1.00  0.00    -0.085 C  
BRANCH  16  17
HETATM   17  C   UNL     1      -6.950   9.074  64.816  1.00  0.00    -0.084 C  
BRANCH  17  18
HETATM   18  N   UNL     1      -6.879   7.615  64.972  1.00  0.00    -0.050 NA 
HETATM   19  C   UNL     1      -5.555   7.120  64.586  1.00  0.00    -0.033 C  
BRANCH  18  20
HETATM   20  C   UNL     1      -7.154   7.250  66.383  1.00  0.00    -0.077 C  
BRANCH  20  21
HETATM   21  C   UNL     1      -8.053   6.035  66.521  1.00  0.00    -0.109 A  
HETATM   22  C   UNL     1      -8.880   5.641  65.459  1.00  0.00    -0.135 A  
HETATM   23  C   UNL     1      -9.776   4.584  65.608  1.00  0.00    -0.207 A  
HETATM   24  C   UNL     1      -9.851   3.900  66.820  1.00  0.00    -0.112 A  
HETATM   25  C   UNL     1      -9.022   4.266  67.879  1.00  0.00    -0.144 A  
HETATM   26  C   UNL     1      -8.124   5.326  67.732  1.00  0.00    -0.099 A  
ENDBRANCH  20  21
ENDBRANCH  18  20
ENDBRANCH  17  18
ENDBRANCH  16  17
ENDBRANCH  15  16
ENDBRANCH  13  15
ENDBRANCH  10  13
BRANCH  12  27
HETATM   27  C   UNL     1      -9.981  11.594  68.068  1.00  0.00    -0.194 A  
HETATM   28  C   UNL     1     -11.858  12.390  66.752  1.00  0.00    -0.385 A  
HETATM   29  O   UNL     1      -9.775  15.373  69.785  1.00  0.00    -0.272 OA 
HETATM   30  C   UNL     1      -9.864  12.871  68.652  1.00  0.00    -0.074 A  
HETATM   31  O   UNL     1     -11.440  16.091  68.552  1.00  0.00    -0.370 OA 
HETATM   32  C   UNL     1     -10.751  13.891  68.288  1.00  0.00    -0.251 A  
HETATM   33  C   UNL     1     -10.994  11.363  67.128  1.00  0.00    -0.340 A  
HETATM   34  C   UNL     1     -11.739  13.657  67.326  1.00  0.00    -0.416 A  
HETATM   35  N   UNL     1     -10.648  15.212  68.920  1.00  0.00    -0.233 N  
ENDBRANCH  12  27
ENDBRANCH   3   5
ENDBRANCH   2   3
TORSDOF 10
ENDMDL
MODEL      215
REMARK 921   NORMALIZED FREE ENERGY PREDICTED BY IDOCK:   -3.72 KCAL/MOL
REMARK 922        TOTAL FREE ENERGY PREDICTED BY IDOCK:   -7.41 KCAL/MOL
REMARK 923 INTER-LIGAND FREE ENERGY PREDICTED BY IDOCK:   -6.97 KCAL/MOL
REMARK 924 INTRA-LIGAND FREE ENERGY PREDICTED BY IDOCK:   -0.44 KCAL/MOL
REMARK 927      BINDING AFFINITY PREDICTED BY RF-SCORE:    0.00 PKD
ROOT
HETATM    1  C   UNL     1      -5.560  11.020  70.056  1.00  0.00    -0.075 C  
HETATM    2  O   UNL     1      -5.374  10.074  68.998  1.00  0.00    -0.036 OA 
ENDROOT
BRANCH   2   3
HETATM    3  C   UNL     1      -6.203   9.003  69.097  1.00  0.00    -0.042 C  
HETATM    4  O   UNL     1      -5.875   7.845  68.887  1.00  0.00    -0.033 OA 
BRANCH   3   5
HETATM    5  C   UNL     1      -7.584   9.420  69.449  1.00  0.00    -0.083 C  
HETATM    6  C   UNL     1      -8.152   9.001  70.605  1.00  0.00    -0.162 C  
HETATM    7  C   UNL     1      -7.484   8.196  71.694  1.00  0.00    -0.092 C  
HETATM    8  N   UNL     1      -9.481   9.292  70.859  1.00  0.00    -0.270 NA 
HETATM    9  C   UNL     1     -10.362   9.834  69.943  1.00  0.00    -0.254 C  
HETATM   10  C   UNL     1      -9.901  10.284  68.751  1.00  0.00    -0.184 C  
HETATM   11  C   UNL     1     -11.803   9.900  70.394  1.00  0.00    -0.310 C  
HETATM   12  C   UNL     1      -8.396  10.235  68.426  1.00  0.00    -0.119 C  
BRANCH  10  13
HETATM   13  C   UNL     1     -10.842  10.931  67.792  1.00  0.00    -0.259 C  
HETATM   14  O   UNL     1     -11.531  10.346  66.969  1.00  0.00    -0.189 OA 
BRANCH  13  15
HETATM   15  O   UNL     1     -10.976  12.242  68.110  1.00  0.00    -0.208 OA 
BRANCH  15  16
HETATM   16  C   UNL     1     -10.329  13.126  67.179  1.00  0.00    -0.247 C  
BRANCH  16  17
HETATM   17  C   UNL     1     -11.328  14.264  66.920  1.00  0.00    -0.343 C  
BRANCH  17  18
HETATM   18  N   UNL     1     -11.006  15.581  67.486  1.00  0.00    -0.317 NA 
HETATM   19  C   UNL     1      -9.881  15.480  68.419  1.00  0.00    -0.210 C  
BRANCH  18  20
HETATM   20  C   UNL     1     -10.661  16.523  66.393  1.00  0.00    -0.221 C  
BRANCH  20  21
HETATM   21  C   UNL     1     -10.138  17.856  66.897  1.00  0.00    -0.348 A  
HETATM   22  C   UNL     1     -10.525  18.338  68.156  1.00  0.00    -0.359 A  
HETATM   23  C   UNL     1     -10.125  19.602  68.587  1.00  0.00    -0.547 A  
HETATM   24  C   UNL     1      -9.324  20.397  67.769  1.00  0.00    -0.391 A  
HETATM   25  C   UNL     1      -8.915  19.924  66.523  1.00  0.00    -0.442 A  
HETATM   26  C   UNL     1      -9.316  18.658  66.088  1.00  0.00    -0.166 A  
ENDBRANCH  20  21
ENDBRANCH  18  20
ENDBRANCH  17  18
ENDBRANCH  16  17
ENDBRANCH  15  16
ENDBRANCH  13  15
ENDBRANCH  10  13
BRANCH  12  27
HETATM   27  C   UNL     1      -8.142   9.752  66.994  1.00  0.00    -0.113 A  
HETATM   28  C   UNL     1      -7.473  10.200  64.705  1.00  0.00    -0.132 A  
HETATM   29  O   UNL     1      -8.842   5.815  65.860  1.00  0.00    -0.145 OA 
HETATM   30  C   UNL     1      -8.415   8.415  66.640  1.00  0.00    -0.113 A  
HETATM   31  O   UNL     1      -8.283   6.248  63.785  1.00  0.00    -0.084 OA 
HETATM   32  C   UNL     1      -8.206   7.983  65.325  1.00  0.00    -0.146 A  
HETATM   33  C   UNL     1      -7.656  10.631  66.017  1.00  0.00    -0.142 A  
HETATM   34  C   UNL     1      -7.750   8.878  64.351  1.00  0.00    -0.120 A  
HETATM   35  N   UNL     1      -8.462   6.583  64.965  1.00  0.00    -0.069 N  
ENDBRANCH  12  27
ENDBRANCH   3   5
ENDBRANCH   2   3
TORSDOF 10
ENDMDL
MODEL      216
REMARK 921   NORMALIZED FREE ENERGY PREDICTED BY IDOCK:   -3.70 KCAL/MOL
REMARK 922        TOTAL FREE ENERGY PREDICTED BY IDOCK:   -7.39 KCAL/MOL
REMARK 923 INTER-LIGAND FREE ENERGY PREDICTED BY IDOCK:   -6.73 KCAL/MOL
REMARK 924 INTRA-LIGAND FREE ENERGY PREDICTED BY IDOCK:   -0.65 KCAL/MOL
REMARK 927      BINDING AFFINITY PREDICTED BY RF-SCORE:    0.00 PKD
ROOT
HETATM    1  C   UNL     1      -7.787   7.413  71.386  1.00  0.00    -0.095 C  
HETATM    2  O   UNL     1      -6.646   8.206  71.042  1.00  0.00    -0.037 OA 
ENDROOT
BRANCH   2   3
HETATM    3  C   UNL     1      -6.384   8.203  69.710  1.00  0.00    -0.036 C  
HETATM    4  O   UNL     1      -5.907   7.261  69.095  1.00  0.00    -0.018 OA 
BRANCH   3   5
HETATM    5  C   UNL     1      -6.707   9.515  69.094  1.00  0.00    -0.049 C  
HETATM    6  C   UNL     1      -6.393  10.666  69.734  1.00  0.00    -0.099 C  
HETATM    7  C   UNL     1      -5.621  10.794  71.025  1.00  0.00    -0.060 C  
HETATM    8  N   UNL     1      -6.813  11.877  69.210  1.00  0.00    -0.102 NA 
HETATM    9  C   UNL     1      -7.698  12.020  68.159  1.00  0.00    -0.135 C  
HETATM   10  C   UNL     1      -8.083  10.931  67.450  1.00  0.00    -0.114 C  
HETATM   11  C   UNL     1      -8.142  13.437  67.878  1.00  0.00    -0.162 C  
HETATM   12  C   UNL     1      -7.508   9.541  67.780  1.00  0.00    -0.084 C  
BRANCH  10  13
HETATM   13  C   UNL     1      -8.984  11.097  66.274  1.00  0.00    -0.193 C  
HETATM   14  O   UNL     1      -8.723  10.764  65.127  1.00  0.00    -0.192 OA 
BRANCH  13  15
HETATM   15  O   UNL     1     -10.213  11.476  66.700  1.00  0.00    -0.209 OA 
BRANCH  15  16
HETATM   16  C   UNL     1     -10.957  12.217  65.719  1.00  0.00    -0.297 C  
BRANCH  16  17
HETATM   17  C   UNL     1     -11.954  13.077  66.510  1.00  0.00    -0.391 C  
BRANCH  17  18
HETATM   18  N   UNL     1     -11.687  14.519  66.582  1.00  0.00    -0.380 NA 
HETATM   19  C   UNL     1     -11.458  14.932  67.969  1.00  0.00    -0.337 C  
BRANCH  18  20
HETATM   20  C   UNL     1     -10.494  14.848  65.763  1.00  0.00    -0.330 C  
BRANCH  20  21
HETATM   21  C   UNL     1     -10.022  16.279  65.942  1.00  0.00    -0.366 A  
HETATM   22  C   UNL     1      -8.723  16.544  66.399  1.00  0.00    -0.357 A  
HETATM   23  C   UNL     1      -8.311  17.851  66.655  1.00  0.00    -0.286 A  
HETATM   24  C   UNL     1      -9.191  18.912  66.449  1.00  0.00    -0.324 A  
HETATM   25  C   UNL     1     -10.479  18.667  65.976  1.00  0.00    -0.456 A  
HETATM   26  C   UNL     1     -10.895  17.357  65.720  1.00  0.00     0.000 A  
ENDBRANCH  20  21
ENDBRANCH  18  20
ENDBRANCH  17  18
ENDBRANCH  16  17
ENDBRANCH  15  16
ENDBRANCH  13  15
ENDBRANCH  10  13
BRANCH  12  27
HETATM   27  C   UNL     1      -8.594   8.461  67.762  1.00  0.00    -0.130 A  
HETATM   28  C   UNL     1     -10.593   7.464  68.712  1.00  0.00    -0.189 A  
HETATM   29  O   UNL     1      -8.585   5.399  64.951  1.00  0.00    -0.149 OA 
HETATM   30  C   UNL     1      -8.544   7.423  66.810  1.00  0.00    -0.127 A  
HETATM   31  O   UNL     1     -10.363   4.484  65.852  1.00  0.00    -0.269 OA 
HETATM   32  C   UNL     1      -9.523   6.423  66.812  1.00  0.00    -0.150 A  
HETATM   33  C   UNL     1      -9.635   8.477  68.700  1.00  0.00    -0.153 A  
HETATM   34  C   UNL     1     -10.540   6.432  67.772  1.00  0.00    -0.331 A  
HETATM   35  N   UNL     1      -9.487   5.360  65.799  1.00  0.00    -0.129 N  
ENDBRANCH  12  27
ENDBRANCH   3   5
ENDBRANCH   2   3
TORSDOF 10
ENDMDL
MODEL      217
REMARK 921   NORMALIZED FREE ENERGY PREDICTED BY IDOCK:   -3.70 KCAL/MOL
REMARK 922        TOTAL FREE ENERGY PREDICTED BY IDOCK:   -7.38 KCAL/MOL
REMARK 923 INTER-LIGAND FREE ENERGY PREDICTED BY IDOCK:   -6.88 KCAL/MOL
REMARK 924 INTRA-LIGAND FREE ENERGY PREDICTED BY IDOCK:   -0.50 KCAL/MOL
REMARK 927      BINDING AFFINITY PREDICTED BY RF-SCORE:    0.00 PKD
ROOT
HETATM    1  C   UNL     1      -5.644  11.366  66.421  1.00  0.00    -0.125 C  
HETATM    2  O   UNL     1      -5.554   9.939  66.365  1.00  0.00    -0.046 OA 
ENDROOT
BRANCH   2   3
HETATM    3  C   UNL     1      -6.220   9.410  65.306  1.00  0.00    -0.066 C  
HETATM    4  O   UNL     1      -6.271   9.912  64.193  1.00  0.00    -0.109 OA 
BRANCH   3   5
HETATM    5  C   UNL     1      -6.925   8.159  65.683  1.00  0.00    -0.066 C  
HETATM    6  C   UNL     1      -6.551   6.974  65.144  1.00  0.00    -0.047 C  
HETATM    7  C   UNL     1      -5.373   6.735  64.230  1.00  0.00    -0.027 C  
HETATM    8  N   UNL     1      -7.297   5.838  65.405  1.00  0.00    -0.074 NA 
HETATM    9  C   UNL     1      -8.524   5.825  66.039  1.00  0.00    -0.135 C  
HETATM   10  C   UNL     1      -8.997   6.958  66.612  1.00  0.00    -0.157 C  
HETATM   11  C   UNL     1      -9.229   4.488  66.055  1.00  0.00    -0.141 C  
HETATM   12  C   UNL     1      -8.159   8.250  66.599  1.00  0.00    -0.102 C  
BRANCH  10  13
HETATM   13  C   UNL     1     -10.290   6.926  67.355  1.00  0.00    -0.231 C  
HETATM   14  O   UNL     1     -11.396   6.796  66.851  1.00  0.00    -0.318 OA 
BRANCH  13  15
HETATM   15  O   UNL     1     -10.041   6.849  68.685  1.00  0.00    -0.152 OA 
BRANCH  15  16
HETATM   16  C   UNL     1     -11.229   6.893  69.494  1.00  0.00    -0.200 C  
BRANCH  16  17
HETATM   17  C   UNL     1     -10.938   6.005  70.714  1.00  0.00    -0.297 C  
BRANCH  17  18
HETATM   18  N   UNL     1     -11.702   6.277  71.938  1.00  0.00    -0.321 NA 
HETATM   19  C   UNL     1     -11.333   5.333  72.996  1.00  0.00    -0.309 C  
BRANCH  18  20
HETATM   20  C   UNL     1     -11.436   7.663  72.395  1.00  0.00    -0.340 C  
BRANCH  20  21
HETATM   21  C   UNL     1     -10.010   7.872  72.872  1.00  0.00    -0.360 A  
HETATM   22  C   UNL     1      -9.085   8.547  72.063  1.00  0.00    -0.317 A  
HETATM   23  C   UNL     1      -7.751   8.662  72.452  1.00  0.00    -0.031 A  
HETATM   24  C   UNL     1      -7.327   8.111  73.660  1.00  0.00    -0.194 A  
HETATM   25  C   UNL     1      -8.239   7.455  74.485  1.00  0.00    -0.233 A  
HETATM   26  C   UNL     1      -9.576   7.337  74.097  1.00  0.00    -0.228 A  
ENDBRANCH  20  21
ENDBRANCH  18  20
ENDBRANCH  17  18
ENDBRANCH  16  17
ENDBRANCH  15  16
ENDBRANCH  13  15
ENDBRANCH  10  13
BRANCH  12  27
HETATM   27  C   UNL     1      -9.014   9.477  66.269  1.00  0.00    -0.188 A  
HETATM   28  C   UNL     1     -10.298  11.408  66.987  1.00  0.00    -0.258 A  
HETATM   29  O   UNL     1     -10.033  10.442  62.357  1.00  0.00    -0.063 OA 
HETATM   30  C   UNL     1      -9.361   9.759  64.933  1.00  0.00    -0.327 A  
HETATM   31  O   UNL     1     -11.230  12.154  63.026  1.00  0.00    -0.248 OA 
HETATM   32  C   UNL     1     -10.164  10.866  64.636  1.00  0.00    -0.345 A  
HETATM   33  C   UNL     1      -9.478  10.321  67.287  1.00  0.00    -0.174 A  
HETATM   34  C   UNL     1     -10.647  11.683  65.663  1.00  0.00    -0.324 A  
HETATM   35  N   UNL     1     -10.499  11.175  63.240  1.00  0.00    -0.321 N  
ENDBRANCH  12  27
ENDBRANCH   3   5
ENDBRANCH   2   3
TORSDOF 10
ENDMDL
MODEL      218
REMARK 921   NORMALIZED FREE ENERGY PREDICTED BY IDOCK:   -3.69 KCAL/MOL
REMARK 922        TOTAL FREE ENERGY PREDICTED BY IDOCK:   -7.36 KCAL/MOL
REMARK 923 INTER-LIGAND FREE ENERGY PREDICTED BY IDOCK:   -6.60 KCAL/MOL
REMARK 924 INTRA-LIGAND FREE ENERGY PREDICTED BY IDOCK:   -0.76 KCAL/MOL
REMARK 927      BINDING AFFINITY PREDICTED BY RF-SCORE:    0.00 PKD
ROOT
HETATM    1  C   UNL     1     -10.883   6.771  67.020  1.00  0.00    -0.383 C  
HETATM    2  O   UNL     1      -9.860   7.580  66.430  1.00  0.00    -0.176 OA 
ENDROOT
BRANCH   2   3
HETATM    3  C   UNL     1     -10.106   8.910  66.548  1.00  0.00    -0.286 C  
HETATM    4  O   UNL     1     -11.189   9.440  66.345  1.00  0.00     0.581 OA 
BRANCH   3   5
HETATM    5  C   UNL     1      -8.874   9.656  66.909  1.00  0.00    -0.143 C  
HETATM    6  C   UNL     1      -7.655   9.110  66.688  1.00  0.00    -0.089 C  
HETATM    7  C   UNL     1      -7.369   7.803  65.988  1.00  0.00    -0.074 C  
HETATM    8  N   UNL     1      -6.521   9.760  67.145  1.00  0.00    -0.069 NA 
HETATM    9  C   UNL     1      -6.523  10.858  67.983  1.00  0.00    -0.058 C  
HETATM   10  C   UNL     1      -7.690  11.481  68.275  1.00  0.00    -0.123 C  
HETATM   11  C   UNL     1      -5.163  11.286  68.487  1.00  0.00    -0.043 C  
HETATM   12  C   UNL     1      -9.011  11.001  67.644  1.00  0.00    -0.142 C  
BRANCH  10  13
HETATM   13  C   UNL     1      -7.680  12.706  69.125  1.00  0.00     0.319 C  
HETATM   14  O   UNL     1      -7.150  12.806  70.221  1.00  0.00     0.736 OA 
BRANCH  13  15
HETATM   15  O   UNL     1      -8.164  13.751  68.411  1.00  0.00    -0.148 OA 
BRANCH  15  16
HETATM   16  C   UNL     1      -8.661  14.823  69.229  1.00  0.00    -0.026 C  
BRANCH  16  17
HETATM   17  C   UNL     1      -9.815  15.456  68.437  1.00  0.00    -0.215 C  
BRANCH  17  18
HETATM   18  N   UNL     1     -10.550  16.552  69.080  1.00  0.00    -0.299 NA 
HETATM   19  C   UNL     1     -10.388  17.796  68.321  1.00  0.00    -0.385 C  
BRANCH  18  20
HETATM   20  C   UNL     1     -11.990  16.207  69.166  1.00  0.00    -0.078 C  
BRANCH  20  21
HETATM   21  C   UNL     1     -12.376  15.581  70.494  1.00  0.00    -0.461 A  
HETATM   22  C   UNL     1     -13.655  15.034  70.673  1.00  0.00    -0.132 A  
HETATM   23  C   UNL     1     -14.050  14.541  71.916  1.00  0.00    -0.595 A  
HETATM   24  C   UNL     1     -13.167  14.581  72.994  1.00  0.00    -0.575 A  
HETATM   25  C   UNL     1     -11.886  15.103  72.827  1.00  0.00    -0.464 A  
HETATM   26  C   UNL     1     -11.488  15.599  71.582  1.00  0.00    -0.506 A  
ENDBRANCH  20  21
ENDBRANCH  18  20
ENDBRANCH  17  18
ENDBRANCH  16  17
ENDBRANCH  15  16
ENDBRANCH  13  15
ENDBRANCH  10  13
BRANCH  12  27
HETATM   27  C   UNL     1     -10.148  10.968  68.669  1.00  0.00    -0.207 A  
HETATM   28  C   UNL     1     -12.147  11.951  69.633  1.00  0.00    -0.304 A  
HETATM   29  O   UNL     1     -10.422   7.969  71.534  1.00  0.00    -0.209 OA 
HETATM   30  C   UNL     1     -10.194   9.950  69.643  1.00  0.00    -0.261 A  
HETATM   31  O   UNL     1     -12.198   8.897  72.424  1.00  0.00    -0.358 OA 
HETATM   32  C   UNL     1     -11.220   9.936  70.594  1.00  0.00    -0.344 A  
HETATM   33  C   UNL     1     -11.142  11.956  68.668  1.00  0.00    -0.295 A  
HETATM   34  C   UNL     1     -12.190  10.945  70.602  1.00  0.00    -0.472 A  
HETATM   35  N   UNL     1     -11.284   8.857  71.588  1.00  0.00    -0.319 N  
ENDBRANCH  12  27
ENDBRANCH   3   5
ENDBRANCH   2   3
TORSDOF 10
ENDMDL
MODEL      219
REMARK 921   NORMALIZED FREE ENERGY PREDICTED BY IDOCK:   -3.69 KCAL/MOL
REMARK 922        TOTAL FREE ENERGY PREDICTED BY IDOCK:   -7.36 KCAL/MOL
REMARK 923 INTER-LIGAND FREE ENERGY PREDICTED BY IDOCK:   -6.77 KCAL/MOL
REMARK 924 INTRA-LIGAND FREE ENERGY PREDICTED BY IDOCK:   -0.59 KCAL/MOL
REMARK 927      BINDING AFFINITY PREDICTED BY RF-SCORE:    0.00 PKD
ROOT
HETATM    1  C   UNL     1      -5.255   9.675  67.080  1.00  0.00    -0.035 C  
HETATM    2  O   UNL     1      -5.197   8.533  66.219  1.00  0.00    -0.030 OA 
ENDROOT
BRANCH   2   3
HETATM    3  C   UNL     1      -6.192   8.519  65.294  1.00  0.00    -0.052 C  
HETATM    4  O   UNL     1      -6.364   9.377  64.442  1.00  0.00    -0.079 OA 
BRANCH   3   5
HETATM    5  C   UNL     1      -7.083   7.346  65.479  1.00  0.00    -0.061 C  
HETATM    6  C   UNL     1      -7.070   6.329  64.584  1.00  0.00    -0.057 C  
HETATM    7  C   UNL     1      -6.137   6.182  63.406  1.00  0.00    -0.022 C  
HETATM    8  N   UNL     1      -7.994   5.305  64.698  1.00  0.00    -0.102 NA 
HETATM    9  C   UNL     1      -9.074   5.306  65.559  1.00  0.00    -0.139 C  
HETATM   10  C   UNL     1      -9.189   6.280  66.494  1.00  0.00    -0.169 C  
HETATM   11  C   UNL     1     -10.042   4.159  65.381  1.00  0.00    -0.207 C  
HETATM   12  C   UNL     1      -8.102   7.362  66.633  1.00  0.00    -0.123 C  
BRANCH  10  13
HETATM   13  C   UNL     1     -10.319   6.241  67.465  1.00  0.00    -0.200 C  
HETATM   14  O   UNL     1     -11.456   6.634  67.249  1.00  0.00    -0.206 OA 
BRANCH  13  15
HETATM   15  O   UNL     1      -9.955   5.514  68.549  1.00  0.00    -0.138 OA 
BRANCH  15  16
HETATM   16  C   UNL     1      -9.170   6.255  69.499  1.00  0.00    -0.139 C  
BRANCH  16  17
HETATM   17  C   UNL     1      -9.638   5.786  70.885  1.00  0.00    -0.168 C  
BRANCH  17  18
HETATM   18  N   UNL     1      -9.525   6.746  71.991  1.00  0.00    -0.142 NA 
HETATM   19  C   UNL     1      -9.417   8.114  71.477  1.00  0.00    -0.171 C  
BRANCH  18  20
HETATM   20  C   UNL     1     -10.717   6.639  72.869  1.00  0.00    -0.255 C  
BRANCH  20  21
HETATM   21  C   UNL     1     -11.903   7.441  72.366  1.00  0.00    -0.273 A  
HETATM   22  C   UNL     1     -11.960   8.827  72.574  1.00  0.00    -0.301 A  
HETATM   23  C   UNL     1     -13.086   9.558  72.199  1.00  0.00    -0.522 A  
HETATM   24  C   UNL     1     -14.168   8.913  71.602  1.00  0.00    -0.355 A  
HETATM   25  C   UNL     1     -14.119   7.539  71.370  1.00  0.00    -0.496 A  
HETATM   26  C   UNL     1     -12.991   6.805  71.747  1.00  0.00    -0.274 A  
ENDBRANCH  20  21
ENDBRANCH  18  20
ENDBRANCH  17  18
ENDBRANCH  16  17
ENDBRANCH  15  16
ENDBRANCH  13  15
ENDBRANCH  10  13
BRANCH  12  27
HETATM   27  C   UNL     1      -8.710   8.755  66.826  1.00  0.00    -0.134 A  
HETATM   28  C   UNL     1      -9.250  10.641  68.254  1.00  0.00    -0.153 A  
HETATM   29  O   UNL     1     -10.572  10.776  63.707  1.00  0.00    -0.287 OA 
HETATM   30  C   UNL     1      -9.356   9.399  65.752  1.00  0.00    -0.301 A  
HETATM   31  O   UNL     1     -11.095  12.450  65.023  1.00  0.00    -0.288 OA 
HETATM   32  C   UNL     1      -9.933  10.660  65.937  1.00  0.00    -0.255 A  
HETATM   33  C   UNL     1      -8.652   9.396  68.070  1.00  0.00    -0.120 A  
HETATM   34  C   UNL     1      -9.896  11.277  67.192  1.00  0.00    -0.213 A  
HETATM   35  N   UNL     1     -10.579  11.344  64.809  1.00  0.00    -0.307 N  
ENDBRANCH  12  27
ENDBRANCH   3   5
ENDBRANCH   2   3
TORSDOF 10
ENDMDL
MODEL      220
REMARK 921   NORMALIZED FREE ENERGY PREDICTED BY IDOCK:   -3.65 KCAL/MOL
REMARK 922        TOTAL FREE ENERGY PREDICTED BY IDOCK:   -7.31 KCAL/MOL
REMARK 923 INTER-LIGAND FREE ENERGY PREDICTED BY IDOCK:   -5.66 KCAL/MOL
REMARK 924 INTRA-LIGAND FREE ENERGY PREDICTED BY IDOCK:   -1.64 KCAL/MOL
REMARK 927      BINDING AFFINITY PREDICTED BY RF-SCORE:    0.00 PKD
ROOT
HETATM    1  C   UNL     1      -7.392  14.679  69.365  1.00  0.00    -0.135 C  
HETATM    2  O   UNL     1      -8.223  15.031  68.254  1.00  0.00    -0.136 OA 
ENDROOT
BRANCH   2   3
HETATM    3  C   UNL     1      -9.346  14.271  68.175  1.00  0.00    -0.206 C  
HETATM    4  O   UNL     1     -10.169  14.147  69.070  1.00  0.00    -0.211 OA 
BRANCH   3   5
HETATM    5  C   UNL     1      -9.427  13.562  66.873  1.00  0.00    -0.258 C  
HETATM    6  C   UNL     1     -10.338  13.939  65.945  1.00  0.00    -0.311 C  
HETATM    7  C   UNL     1     -11.272  15.123  66.032  1.00  0.00    -0.275 C  
HETATM    8  N   UNL     1     -10.488  13.191  64.790  1.00  0.00    -0.356 NA 
HETATM    9  C   UNL     1      -9.904  11.960  64.563  1.00  0.00    -0.178 C  
HETATM   10  C   UNL     1      -8.979  11.483  65.431  1.00  0.00     0.012 C  
HETATM   11  C   UNL     1     -10.353  11.254  63.304  1.00  0.00    -0.406 C  
HETATM   12  C   UNL     1      -8.542  12.323  66.646  1.00  0.00    -0.099 C  
BRANCH  10  13
HETATM   13  C   UNL     1      -8.300  10.186  65.148  1.00  0.00    -0.161 C  
HETATM   14  O   UNL     1      -7.096  10.031  65.009  1.00  0.00    -0.125 OA 
BRANCH  13  15
HETATM   15  O   UNL     1      -9.193   9.175  65.278  1.00  0.00    -0.221 OA 
BRANCH  15  16
HETATM   16  C   UNL     1      -8.886   8.275  66.356  1.00  0.00    -0.152 C  
BRANCH  16  17
HETATM   17  C   UNL     1      -8.233   7.047  65.704  1.00  0.00    -0.134 C  
BRANCH  17  18
HETATM   18  N   UNL     1      -8.535   5.735  66.291  1.00  0.00    -0.122 NA 
HETATM   19  C   UNL     1      -8.829   4.756  65.241  1.00  0.00    -0.149 C  
BRANCH  18  20
HETATM   20  C   UNL     1      -7.378   5.269  67.095  1.00  0.00    -0.083 C  
BRANCH  20  21
HETATM   21  C   UNL     1      -7.701   5.107  68.569  1.00  0.00    -0.079 A  
HETATM   22  C   UNL     1      -8.496   6.056  69.228  1.00  0.00    -0.115 A  
HETATM   23  C   UNL     1      -8.721   5.966  70.600  1.00  0.00    -0.137 A  
HETATM   24  C   UNL     1      -8.162   4.920  71.331  1.00  0.00    -0.112 A  
HETATM   25  C   UNL     1      -7.386   3.957  70.687  1.00  0.00    -0.041 A  
HETATM   26  C   UNL     1      -7.158   4.046  69.312  1.00  0.00    -0.047 A  
ENDBRANCH  20  21
ENDBRANCH  18  20
ENDBRANCH  17  18
ENDBRANCH  16  17
ENDBRANCH  15  16
ENDBRANCH  13  15
ENDBRANCH  10  13
BRANCH  12  27
HETATM   27  C   UNL     1      -8.435  11.470  67.914  1.00  0.00    -0.142 A  
HETATM   28  C   UNL     1      -7.097  10.467  69.674  1.00  0.00    -0.141 A  
HETATM   29  O   UNL     1     -11.762   9.642  69.606  1.00  0.00    -0.019 OA 
HETATM   30  C   UNL     1      -9.580  10.844  68.445  1.00  0.00    -0.177 A  
HETATM   31  O   UNL     1     -10.532   8.702  71.160  1.00  0.00    -0.202 OA 
HETATM   32  C   UNL     1      -9.475  10.045  69.589  1.00  0.00    -0.223 A  
HETATM   33  C   UNL     1      -7.199  11.284  68.549  1.00  0.00    -0.094 A  
HETATM   34  C   UNL     1      -8.231   9.841  70.196  1.00  0.00    -0.202 A  
HETATM   35  N   UNL     1     -10.675   9.419  70.158  1.00  0.00    -0.228 N  
ENDBRANCH  12  27
ENDBRANCH   3   5
ENDBRANCH   2   3
TORSDOF 10
ENDMDL
MODEL      221
REMARK 921   NORMALIZED FREE ENERGY PREDICTED BY IDOCK:   -3.64 KCAL/MOL
REMARK 922        TOTAL FREE ENERGY PREDICTED BY IDOCK:   -7.29 KCAL/MOL
REMARK 923 INTER-LIGAND FREE ENERGY PREDICTED BY IDOCK:   -6.28 KCAL/MOL
REMARK 924 INTRA-LIGAND FREE ENERGY PREDICTED BY IDOCK:   -1.01 KCAL/MOL
REMARK 927      BINDING AFFINITY PREDICTED BY RF-SCORE:    0.00 PKD
ROOT
HETATM    1  C   UNL     1      -5.172   3.853  69.868  1.00  0.00    -0.008 C  
HETATM    2  O   UNL     1      -6.178   4.870  69.813  1.00  0.00    -0.024 OA 
ENDROOT
BRANCH   2   3
HETATM    3  C   UNL     1      -7.430   4.385  70.020  1.00  0.00    -0.050 C  
HETATM    4  O   UNL     1      -7.848   3.325  69.580  1.00  0.00    -0.050 OA 
BRANCH   3   5
HETATM    5  C   UNL     1      -8.252   5.334  70.813  1.00  0.00    -0.110 C  
HETATM    6  C   UNL     1      -8.671   5.000  72.057  1.00  0.00    -0.129 C  
HETATM    7  C   UNL     1      -8.304   3.753  72.824  1.00  0.00    -0.094 C  
HETATM    8  N   UNL     1      -9.540   5.838  72.733  1.00  0.00    -0.149 NA 
HETATM    9  C   UNL     1     -10.180   6.930  72.178  1.00  0.00    -0.193 C  
HETATM   10  C   UNL     1      -9.840   7.349  70.935  1.00  0.00    -0.177 C  
HETATM   11  C   UNL     1     -11.216   7.588  73.060  1.00  0.00    -0.373 C  
HETATM   12  C   UNL     1      -8.716   6.645  70.153  1.00  0.00    -0.141 C  
BRANCH  10  13
HETATM   13  C   UNL     1     -10.484   8.567  70.365  1.00  0.00    -0.207 C  
HETATM   14  O   UNL     1     -11.661   8.873  70.489  1.00  0.00    -0.249 OA 
BRANCH  13  15
HETATM   15  O   UNL     1      -9.527   9.390  69.871  1.00  0.00    -0.183 OA 
BRANCH  15  16
HETATM   16  C   UNL     1      -9.875   9.979  68.607  1.00  0.00    -0.160 C  
BRANCH  16  17
HETATM   17  C   UNL     1      -9.599  11.483  68.755  1.00  0.00    -0.102 C  
BRANCH  17  18
HETATM   18  N   UNL     1     -10.660  12.405  68.330  1.00  0.00    -0.215 NA 
HETATM   19  C   UNL     1     -11.866  12.212  69.140  1.00  0.00    -0.305 C  
BRANCH  18  20
HETATM   20  C   UNL     1     -10.190  13.805  68.467  1.00  0.00    -0.235 C  
BRANCH  20  21
HETATM   21  C   UNL     1     -10.418  14.637  67.218  1.00  0.00    -0.266 A  
HETATM   22  C   UNL     1     -11.021  14.066  66.087  1.00  0.00    -0.295 A  
HETATM   23  C   UNL     1     -11.151  14.794  64.906  1.00  0.00    -0.416 A  
HETATM   24  C   UNL     1     -10.686  16.107  64.842  1.00  0.00    -0.297 A  
HETATM   25  C   UNL     1     -10.103  16.695  65.962  1.00  0.00    -0.359 A  
HETATM   26  C   UNL     1      -9.971  15.967  67.148  1.00  0.00    -0.249 A  
ENDBRANCH  20  21
ENDBRANCH  18  20
ENDBRANCH  17  18
ENDBRANCH  16  17
ENDBRANCH  15  16
ENDBRANCH  13  15
ENDBRANCH  10  13
BRANCH  12  27
HETATM   27  C   UNL     1      -9.095   6.431  68.685  1.00  0.00    -0.127 A  
HETATM   28  C   UNL     1     -10.609   5.549  67.005  1.00  0.00    -0.332 A  
HETATM   29  O   UNL     1      -6.655   7.738  65.584  1.00  0.00    -0.045 OA 
HETATM   30  C   UNL     1      -8.230   6.865  67.660  1.00  0.00    -0.117 A  
HETATM   31  O   UNL     1      -8.008   6.892  64.081  1.00  0.00    -0.120 OA 
HETATM   32  C   UNL     1      -8.567   6.646  66.320  1.00  0.00    -0.138 A  
HETATM   33  C   UNL     1     -10.291   5.786  68.341  1.00  0.00    -0.269 A  
HETATM   34  C   UNL     1      -9.749   5.973  65.989  1.00  0.00     0.013 A  
HETATM   35  N   UNL     1      -7.680   7.127  65.253  1.00  0.00    -0.106 N  
ENDBRANCH  12  27
ENDBRANCH   3   5
ENDBRANCH   2   3
TORSDOF 10
ENDMDL
MODEL      222
REMARK 921   NORMALIZED FREE ENERGY PREDICTED BY IDOCK:   -3.63 KCAL/MOL
REMARK 922        TOTAL FREE ENERGY PREDICTED BY IDOCK:   -7.27 KCAL/MOL
REMARK 923 INTER-LIGAND FREE ENERGY PREDICTED BY IDOCK:   -5.38 KCAL/MOL
REMARK 924 INTRA-LIGAND FREE ENERGY PREDICTED BY IDOCK:   -1.88 KCAL/MOL
REMARK 927      BINDING AFFINITY PREDICTED BY RF-SCORE:    0.00 PKD
ROOT
HETATM    1  C   UNL     1     -12.277  11.877  69.458  1.00  0.00    -0.136 C  
HETATM    2  O   UNL     1     -11.728  13.160  69.141  1.00  0.00    -0.287 OA 
ENDROOT
BRANCH   2   3
HETATM    3  C   UNL     1     -11.042  13.165  67.969  1.00  0.00    -0.263 C  
HETATM    4  O   UNL     1     -11.538  12.970  66.869  1.00  0.00    -0.327 OA 
BRANCH   3   5
HETATM    5  C   UNL     1      -9.591  13.390  68.193  1.00  0.00    -0.222 C  
HETATM    6  C   UNL     1      -9.062  14.629  68.053  1.00  0.00    -0.189 C  
HETATM    7  C   UNL     1      -9.821  15.904  67.777  1.00  0.00    -0.222 C  
HETATM    8  N   UNL     1      -7.691  14.801  68.139  1.00  0.00    -0.114 NA 
HETATM    9  C   UNL     1      -6.766  13.776  68.183  1.00  0.00    -0.124 C  
HETATM   10  C   UNL     1      -7.187  12.495  68.320  1.00  0.00    -0.111 C  
HETATM   11  C   UNL     1      -5.320  14.207  68.100  1.00  0.00    -0.120 C  
HETATM   12  C   UNL     1      -8.686  12.176  68.470  1.00  0.00    -0.079 C  
BRANCH  10  13
HETATM   13  C   UNL     1      -6.184  11.397  68.435  1.00  0.00    -0.045 C  
HETATM   14  O   UNL     1      -5.366  11.089  67.581  1.00  0.00    -0.040 OA 
BRANCH  13  15
HETATM   15  O   UNL     1      -6.175  10.930  69.708  1.00  0.00    -0.073 OA 
BRANCH  15  16
HETATM   16  C   UNL     1      -6.402   9.514  69.800  1.00  0.00    -0.045 C  
BRANCH  16  17
HETATM   17  C   UNL     1      -7.548   9.339  70.808  1.00  0.00    -0.133 C  
BRANCH  17  18
HETATM   18  N   UNL     1      -7.876   7.968  71.220  1.00  0.00    -0.086 NA 
HETATM   19  C   UNL     1      -7.836   7.845  72.680  1.00  0.00    -0.120 C  
BRANCH  18  20
HETATM   20  C   UNL     1      -9.228   7.608  70.728  1.00  0.00    -0.157 C  
BRANCH  20  21
HETATM   21  C   UNL     1      -9.243   6.340  69.894  1.00  0.00    -0.155 A  
HETATM   22  C   UNL     1      -9.960   5.215  70.328  1.00  0.00    -0.320 A  
HETATM   23  C   UNL     1      -9.905   4.018  69.616  1.00  0.00    -0.159 A  
HETATM   24  C   UNL     1      -9.138   3.932  68.455  1.00  0.00    -0.191 A  
HETATM   25  C   UNL     1      -8.436   5.047  68.000  1.00  0.00    -0.103 A  
HETATM   26  C   UNL     1      -8.489   6.248  68.712  1.00  0.00    -0.119 A  
ENDBRANCH  20  21
ENDBRANCH  18  20
ENDBRANCH  17  18
ENDBRANCH  16  17
ENDBRANCH  15  16
ENDBRANCH  13  15
ENDBRANCH  10  13
BRANCH  12  27
HETATM   27  C   UNL     1      -9.095  10.966  67.624  1.00  0.00    -0.148 A  
HETATM   28  C   UNL     1     -10.209   8.820  67.413  1.00  0.00    -0.318 A  
HETATM   29  O   UNL     1      -7.944  10.590  63.648  1.00  0.00    -0.126 OA 
HETATM   30  C   UNL     1      -8.665  10.860  66.286  1.00  0.00    -0.175 A  
HETATM   31  O   UNL     1      -8.913   8.629  63.489  1.00  0.00     0.138 OA 
HETATM   32  C   UNL     1      -9.019   9.742  65.523  1.00  0.00    -0.176 A  
HETATM   33  C   UNL     1      -9.881   9.943  68.171  1.00  0.00    -0.167 A  
HETATM   34  C   UNL     1      -9.777   8.712  66.090  1.00  0.00    -0.292 A  
HETATM   35  N   UNL     1      -8.595   9.648  64.121  1.00  0.00    -0.180 N  
ENDBRANCH  12  27
ENDBRANCH   3   5
ENDBRANCH   2   3
TORSDOF 10
ENDMDL
MODEL      223
REMARK 921   NORMALIZED FREE ENERGY PREDICTED BY IDOCK:   -3.62 KCAL/MOL
REMARK 922        TOTAL FREE ENERGY PREDICTED BY IDOCK:   -7.26 KCAL/MOL
REMARK 923 INTER-LIGAND FREE ENERGY PREDICTED BY IDOCK:   -5.74 KCAL/MOL
REMARK 924 INTRA-LIGAND FREE ENERGY PREDICTED BY IDOCK:   -1.52 KCAL/MOL
REMARK 927      BINDING AFFINITY PREDICTED BY RF-SCORE:    0.00 PKD
ROOT
HETATM    1  C   UNL     1     -12.998   9.211  71.782  1.00  0.00    -0.380 C  
HETATM    2  O   UNL     1     -12.762   7.831  72.080  1.00  0.00    -0.305 OA 
ENDROOT
BRANCH   2   3
HETATM    3  C   UNL     1     -11.488   7.589  72.482  1.00  0.00    -0.327 C  
HETATM    4  O   UNL     1     -10.831   8.329  73.200  1.00  0.00    -0.148 OA 
BRANCH   3   5
HETATM    5  C   UNL     1     -10.968   6.327  71.898  1.00  0.00    -0.302 C  
HETATM    6  C   UNL     1     -10.671   5.275  72.698  1.00  0.00    -0.239 C  
HETATM    7  C   UNL     1     -10.909   5.182  74.187  1.00  0.00    -0.145 C  
HETATM    8  N   UNL     1     -10.069   4.152  72.157  1.00  0.00    -0.183 NA 
HETATM    9  C   UNL     1      -9.567   4.065  70.873  1.00  0.00    -0.183 C  
HETATM   10  C   UNL     1      -9.802   5.064  69.989  1.00  0.00    -0.298 C  
HETATM   11  C   UNL     1      -8.799   2.800  70.565  1.00  0.00    -0.148 C  
HETATM   12  C   UNL     1     -10.662   6.277  70.391  1.00  0.00    -0.329 C  
BRANCH  10  13
HETATM   13  C   UNL     1      -9.317   4.937  68.584  1.00  0.00    -0.135 C  
HETATM   14  O   UNL     1     -10.023   4.938  67.587  1.00  0.00    -0.164 OA 
BRANCH  13  15
HETATM   15  O   UNL     1      -7.965   5.034  68.566  1.00  0.00    -0.085 OA 
BRANCH  15  16
HETATM   16  C   UNL     1      -7.367   4.476  67.384  1.00  0.00    -0.073 C  
BRANCH  16  17
HETATM   17  C   UNL     1      -5.885   4.878  67.435  1.00  0.00    -0.022 C  
BRANCH  17  18
HETATM   18  N   UNL     1      -5.472   6.026  66.618  1.00  0.00    -0.009 NA 
HETATM   19  C   UNL     1      -6.067   5.947  65.281  1.00  0.00    -0.026 C  
BRANCH  18  20
HETATM   20  C   UNL     1      -5.898   7.286  67.277  1.00  0.00    -0.030 C  
BRANCH  20  21
HETATM   21  C   UNL     1      -6.782   8.151  66.397  1.00  0.00    -0.062 A  
HETATM   22  C   UNL     1      -6.405   9.466  66.090  1.00  0.00    -0.068 A  
HETATM   23  C   UNL     1      -7.253  10.298  65.360  1.00  0.00    -0.143 A  
HETATM   24  C   UNL     1      -8.487   9.821  64.920  1.00  0.00    -0.165 A  
HETATM   25  C   UNL     1      -8.867   8.510  65.199  1.00  0.00    -0.116 A  
HETATM   26  C   UNL     1      -8.019   7.675  65.932  1.00  0.00    -0.116 A  
ENDBRANCH  20  21
ENDBRANCH  18  20
ENDBRANCH  17  18
ENDBRANCH  16  17
ENDBRANCH  15  16
ENDBRANCH  13  15
ENDBRANCH  10  13
BRANCH  12  27
HETATM   27  C   UNL     1     -10.051   7.593  69.898  1.00  0.00    -0.198 A  
HETATM   28  C   UNL     1     -10.003   9.435  68.319  1.00  0.00    -0.197 A  
HETATM   29  O   UNL     1      -6.762   9.310  71.771  1.00  0.00    -0.285 OA 
HETATM   30  C   UNL     1      -8.920   8.132  70.543  1.00  0.00    -0.145 A  
HETATM   31  O   UNL     1      -6.701  10.941  70.306  1.00  0.00    -0.230 OA 
HETATM   32  C   UNL     1      -8.348   9.321  70.076  1.00  0.00    -0.168 A  
HETATM   33  C   UNL     1     -10.592   8.264  68.794  1.00  0.00    -0.152 A  
HETATM   34  C   UNL     1      -8.878   9.966  68.953  1.00  0.00    -0.145 A  
HETATM   35  N   UNL     1      -7.188   9.898  70.767  1.00  0.00    -0.019 N  
ENDBRANCH  12  27
ENDBRANCH   3   5
ENDBRANCH   2   3
TORSDOF 10
ENDMDL
MODEL      224
REMARK 921   NORMALIZED FREE ENERGY PREDICTED BY IDOCK:   -3.58 KCAL/MOL
REMARK 922        TOTAL FREE ENERGY PREDICTED BY IDOCK:   -7.19 KCAL/MOL
REMARK 923 INTER-LIGAND FREE ENERGY PREDICTED BY IDOCK:   -6.87 KCAL/MOL
REMARK 924 INTRA-LIGAND FREE ENERGY PREDICTED BY IDOCK:   -0.32 KCAL/MOL
REMARK 927      BINDING AFFINITY PREDICTED BY RF-SCORE:    0.00 PKD
ROOT
HETATM    1  C   UNL     1      -8.148   6.893  74.380  1.00  0.00    -0.131 C  
HETATM    2  O   UNL     1      -7.872   7.965  73.473  1.00  0.00    -0.138 OA 
ENDROOT
BRANCH   2   3
HETATM    3  C   UNL     1      -7.256   7.549  72.337  1.00  0.00    -0.073 C  
HETATM    4  O   UNL     1      -6.709   6.465  72.197  1.00  0.00    -0.061 OA 
BRANCH   3   5
HETATM    5  C   UNL     1      -7.286   8.602  71.290  1.00  0.00    -0.105 C  
HETATM    6  C   UNL     1      -6.339   9.569  71.267  1.00  0.00    -0.020 C  
HETATM    7  C   UNL     1      -5.127   9.662  72.163  1.00  0.00    -0.077 C  
HETATM    8  N   UNL     1      -6.451  10.614  70.366  1.00  0.00    -0.257 NA 
HETATM    9  C   UNL     1      -7.560  10.869  69.583  1.00  0.00     0.023 C  
HETATM   10  C   UNL     1      -8.570   9.968  69.534  1.00  0.00    -0.197 C  
HETATM   11  C   UNL     1      -7.518  12.165  68.807  1.00  0.00    -0.075 C  
HETATM   12  C   UNL     1      -8.473   8.642  70.312  1.00  0.00    -0.133 C  
BRANCH  10  13
HETATM   13  C   UNL     1      -9.735  10.212  68.636  1.00  0.00    -0.163 C  
HETATM   14  O   UNL     1     -10.661  10.976  68.866  1.00  0.00    -0.188 OA 
BRANCH  13  15
HETATM   15  O   UNL     1      -9.509   9.623  67.437  1.00  0.00    -0.139 OA 
BRANCH  15  16
HETATM   16  C   UNL     1     -10.594   9.779  66.508  1.00  0.00    -0.080 C  
BRANCH  16  17
HETATM   17  C   UNL     1     -10.021  10.572  65.323  1.00  0.00    -0.299 C  
BRANCH  17  18
HETATM   18  N   UNL     1     -10.687  11.834  64.977  1.00  0.00    -0.283 NA 
HETATM   19  C   UNL     1     -11.356  11.724  63.678  1.00  0.00    -0.436 C  
BRANCH  18  20
HETATM   20  C   UNL     1     -11.684  12.176  66.021  1.00  0.00    -0.321 C  
BRANCH  20  21
HETATM   21  C   UNL     1     -11.479  13.559  66.612  1.00  0.00    -0.366 A  
HETATM   22  C   UNL     1     -10.686  14.504  65.944  1.00  0.00    -0.308 A  
HETATM   23  C   UNL     1     -10.417  15.743  66.523  1.00  0.00    -0.304 A  
HETATM   24  C   UNL     1     -10.946  16.058  67.773  1.00  0.00    -0.307 A  
HETATM   25  C   UNL     1     -11.753  15.138  68.441  1.00  0.00    -0.338 A  
HETATM   26  C   UNL     1     -12.023  13.894  67.863  1.00  0.00    -0.393 A  
ENDBRANCH  20  21
ENDBRANCH  18  20
ENDBRANCH  17  18
ENDBRANCH  16  17
ENDBRANCH  15  16
ENDBRANCH  13  15
ENDBRANCH  10  13
BRANCH  12  27
HETATM   27  C   UNL     1      -9.791   8.299  71.014  1.00  0.00    -0.225 A  
HETATM   28  C   UNL     1     -11.883   8.996  72.029  1.00  0.00    -0.426 A  
HETATM   29  O   UNL     1     -10.794   4.385  71.989  1.00  0.00     0.022 OA 
HETATM   30  C   UNL     1     -10.086   6.963  71.352  1.00  0.00    -0.197 A  
HETATM   31  O   UNL     1     -12.657   5.036  72.947  1.00  0.00     0.138 OA 
HETATM   32  C   UNL     1     -11.279   6.656  72.016  1.00  0.00    -0.266 A  
HETATM   33  C   UNL     1     -10.708   9.305  71.346  1.00  0.00    -0.432 A  
HETATM   34  C   UNL     1     -12.172   7.672  72.370  1.00  0.00    -0.208 A  
HETATM   35  N   UNL     1     -11.599   5.260  72.340  1.00  0.00    -0.102 N  
ENDBRANCH  12  27
ENDBRANCH   3   5
ENDBRANCH   2   3
TORSDOF 10
ENDMDL
MODEL      225
REMARK 921   NORMALIZED FREE ENERGY PREDICTED BY IDOCK:   -3.57 KCAL/MOL
REMARK 922        TOTAL FREE ENERGY PREDICTED BY IDOCK:   -7.17 KCAL/MOL
REMARK 923 INTER-LIGAND FREE ENERGY PREDICTED BY IDOCK:   -6.42 KCAL/MOL
REMARK 924 INTRA-LIGAND FREE ENERGY PREDICTED BY IDOCK:   -0.75 KCAL/MOL
REMARK 927      BINDING AFFINITY PREDICTED BY RF-SCORE:    0.00 PKD
ROOT
HETATM    1  C   UNL     1      -6.511   6.459  71.528  1.00  0.00    -0.050 C  
HETATM    2  O   UNL     1      -7.262   7.460  70.834  1.00  0.00    -0.066 OA 
ENDROOT
BRANCH   2   3
HETATM    3  C   UNL     1      -8.576   7.139  70.705  1.00  0.00    -0.146 C  
HETATM    4  O   UNL     1      -9.008   6.002  70.596  1.00  0.00    -0.143 OA 
BRANCH   3   5
HETATM    5  C   UNL     1      -9.426   8.356  70.664  1.00  0.00    -0.191 C  
HETATM    6  C   UNL     1     -10.207   8.680  71.722  1.00  0.00    -0.308 C  
HETATM    7  C   UNL     1     -10.251   7.974  73.057  1.00  0.00    -0.357 C  
HETATM    8  N   UNL     1     -11.089   9.742  71.622  1.00  0.00    -0.182 NA 
HETATM    9  C   UNL     1     -11.385  10.417  70.453  1.00  0.00    -0.337 C  
HETATM   10  C   UNL     1     -10.668  10.168  69.332  1.00  0.00    -0.266 C  
HETATM   11  C   UNL     1     -12.507  11.425  70.557  1.00  0.00    -0.381 C  
HETATM   12  C   UNL     1      -9.495   9.170  69.360  1.00  0.00    -0.161 C  
BRANCH  10  13
HETATM   13  C   UNL     1     -10.944  10.946  68.090  1.00  0.00    -0.249 C  
HETATM   14  O   UNL     1     -12.027  11.027  67.530  1.00  0.00    -0.529 OA 
BRANCH  13  15
HETATM   15  O   UNL     1      -9.870  11.717  67.795  1.00  0.00    -0.173 OA 
BRANCH  15  16
HETATM   16  C   UNL     1     -10.177  13.118  67.708  1.00  0.00    -0.231 C  
BRANCH  16  17
HETATM   17  C   UNL     1      -8.933  13.783  67.099  1.00  0.00    -0.235 C  
BRANCH  17  18
HETATM   18  N   UNL     1      -8.209  14.748  67.936  1.00  0.00    -0.141 NA 
HETATM   19  C   UNL     1      -7.709  14.101  69.153  1.00  0.00     0.023 C  
BRANCH  18  20
HETATM   20  C   UNL     1      -7.071  15.317  67.173  1.00  0.00    -0.055 C  
BRANCH  20  21
HETATM   21  C   UNL     1      -6.603  16.657  67.710  1.00  0.00    -0.158 A  
HETATM   22  C   UNL     1      -6.819  16.996  69.054  1.00  0.00    -0.229 A  
HETATM   23  C   UNL     1      -6.476  18.260  69.533  1.00  0.00    -0.201 A  
HETATM   24  C   UNL     1      -5.904  19.198  68.676  1.00  0.00    -0.230 A  
HETATM   25  C   UNL     1      -5.664  18.870  67.343  1.00  0.00    -0.160 A  
HETATM   26  C   UNL     1      -6.008  17.604  66.860  1.00  0.00    -0.189 A  
ENDBRANCH  20  21
ENDBRANCH  18  20
ENDBRANCH  17  18
ENDBRANCH  16  17
ENDBRANCH  15  16
ENDBRANCH  13  15
ENDBRANCH  10  13
BRANCH  12  27
HETATM   27  C   UNL     1      -9.497   8.258  68.129  1.00  0.00    -0.148 A  
HETATM   28  C   UNL     1     -10.543   6.525  66.790  1.00  0.00    -0.323 A  
HETATM   29  O   UNL     1      -6.367   8.273  65.394  1.00  0.00    -0.048 OA 
HETATM   30  C   UNL     1      -8.406   8.272  67.236  1.00  0.00    -0.124 A  
HETATM   31  O   UNL     1      -7.302   6.671  64.223  1.00  0.00    -0.065 OA 
HETATM   32  C   UNL     1      -8.399   7.420  66.126  1.00  0.00    -0.139 A  
HETATM   33  C   UNL     1     -10.568   7.388  67.884  1.00  0.00    -0.255 A  
HETATM   34  C   UNL     1      -9.459   6.534  65.909  1.00  0.00     0.089 A  
HETATM   35  N   UNL     1      -7.276   7.458  65.181  1.00  0.00    -0.063 N  
ENDBRANCH  12  27
ENDBRANCH   3   5
ENDBRANCH   2   3
TORSDOF 10
ENDMDL
MODEL      226
REMARK 921   NORMALIZED FREE ENERGY PREDICTED BY IDOCK:   -3.56 KCAL/MOL
REMARK 922        TOTAL FREE ENERGY PREDICTED BY IDOCK:   -7.15 KCAL/MOL
REMARK 923 INTER-LIGAND FREE ENERGY PREDICTED BY IDOCK:   -7.82 KCAL/MOL
REMARK 924 INTRA-LIGAND FREE ENERGY PREDICTED BY IDOCK:    0.67 KCAL/MOL
REMARK 927      BINDING AFFINITY PREDICTED BY RF-SCORE:    0.00 PKD
ROOT
HETATM    1  C   UNL     1      -5.276   9.597  69.107  1.00  0.00    -0.036 C  
HETATM    2  O   UNL     1      -5.678  10.740  68.345  1.00  0.00    -0.044 OA 
ENDROOT
BRANCH   2   3
HETATM    3  C   UNL     1      -6.758  11.372  68.873  1.00  0.00    -0.080 C  
HETATM    4  O   UNL     1      -7.113  11.289  70.039  1.00  0.00    -0.026 OA 
BRANCH   3   5
HETATM    5  C   UNL     1      -7.490  12.145  67.838  1.00  0.00    -0.117 C  
HETATM    6  C   UNL     1      -7.219  13.458  67.646  1.00  0.00    -0.161 C  
HETATM    7  C   UNL     1      -6.133  14.259  68.323  1.00  0.00    -0.119 C  
HETATM    8  N   UNL     1      -7.996  14.195  66.769  1.00  0.00     0.202 NA 
HETATM    9  C   UNL     1      -9.166  13.752  66.183  1.00  0.00     0.005 C  
HETATM   10  C   UNL     1      -9.535  12.455  66.314  1.00  0.00    -0.220 C  
HETATM   11  C   UNL     1      -9.931  14.795  65.401  1.00  0.00    -0.369 C  
HETATM   12  C   UNL     1      -8.638  11.460  67.075  1.00  0.00    -0.157 C  
BRANCH  10  13
HETATM   13  C   UNL     1     -10.762  11.964  65.624  1.00  0.00    -0.280 C  
HETATM   14  O   UNL     1     -10.834  10.958  64.934  1.00  0.00    -0.227 OA 
BRANCH  13  15
HETATM   15  O   UNL     1     -11.832  12.680  66.048  1.00  0.00    -0.404 OA 
BRANCH  15  16
HETATM   16  C   UNL     1     -11.890  12.834  67.476  1.00  0.00    -0.343 C  
BRANCH  16  17
HETATM   17  C   UNL     1     -12.243  14.308  67.724  1.00  0.00    -0.164 C  
BRANCH  17  18
HETATM   18  N   UNL     1     -11.594  14.971  68.863  1.00  0.00    -0.309 NA 
HETATM   19  C   UNL     1     -10.479  15.805  68.407  1.00  0.00    -0.245 C  
BRANCH  18  20
HETATM   20  C   UNL     1     -12.583  15.813  69.580  1.00  0.00     0.157 C  
BRANCH  20  21
HETATM   21  C   UNL     1     -12.693  15.478  71.057  1.00  0.00    -0.526 A  
HETATM   22  C   UNL     1     -11.927  16.178  72.000  1.00  0.00    -0.607 A  
HETATM   23  C   UNL     1     -11.952  15.817  73.346  1.00  0.00    -0.542 A  
HETATM   24  C   UNL     1     -12.750  14.755  73.768  1.00  0.00    -0.399 A  
HETATM   25  C   UNL     1     -13.532  14.062  72.846  1.00  0.00    -0.421 A  
HETATM   26  C   UNL     1     -13.508  14.422  71.496  1.00  0.00    -0.443 A  
ENDBRANCH  20  21
ENDBRANCH  18  20
ENDBRANCH  17  18
ENDBRANCH  16  17
ENDBRANCH  15  16
ENDBRANCH  13  15
ENDBRANCH  10  13
BRANCH  12  27
HETATM   27  C   UNL     1      -9.457  10.548  67.993  1.00  0.00    -0.157 A  
HETATM   28  C   UNL     1     -10.771  10.212  70.006  1.00  0.00    -0.356 A  
HETATM   29  O   UNL     1      -9.967   6.506  67.165  1.00  0.00    -0.136 OA 
HETATM   30  C   UNL     1      -9.587   9.177  67.694  1.00  0.00    -0.181 A  
HETATM   31  O   UNL     1     -11.110   6.209  69.013  1.00  0.00    -0.353 OA 
HETATM   32  C   UNL     1     -10.315   8.340  68.547  1.00  0.00    -0.199 A  
HETATM   33  C   UNL     1     -10.068  11.055  69.147  1.00  0.00    -0.167 A  
HETATM   34  C   UNL     1     -10.894   8.852  69.713  1.00  0.00    -0.207 A  
HETATM   35  N   UNL     1     -10.475   6.918  68.218  1.00  0.00    -0.193 N  
ENDBRANCH  12  27
ENDBRANCH   3   5
ENDBRANCH   2   3
TORSDOF 10
ENDMDL
MODEL      227
REMARK 921   NORMALIZED FREE ENERGY PREDICTED BY IDOCK:   -3.55 KCAL/MOL
REMARK 922        TOTAL FREE ENERGY PREDICTED BY IDOCK:   -7.15 KCAL/MOL
REMARK 923 INTER-LIGAND FREE ENERGY PREDICTED BY IDOCK:   -6.80 KCAL/MOL
REMARK 924 INTRA-LIGAND FREE ENERGY PREDICTED BY IDOCK:   -0.35 KCAL/MOL
REMARK 927      BINDING AFFINITY PREDICTED BY RF-SCORE:    0.00 PKD
ROOT
HETATM    1  C   UNL     1      -8.585  15.464  67.841  1.00  0.00    -0.155 C  
HETATM    2  O   UNL     1      -8.381  14.098  68.218  1.00  0.00    -0.143 OA 
ENDROOT
BRANCH   2   3
HETATM    3  C   UNL     1      -7.077  13.724  68.159  1.00  0.00    -0.118 C  
HETATM    4  O   UNL     1      -6.262  14.161  67.360  1.00  0.00    -0.336 OA 
BRANCH   3   5
HETATM    5  C   UNL     1      -6.771  12.673  69.162  1.00  0.00    -0.086 C  
HETATM    6  C   UNL     1      -5.965  12.947  70.215  1.00  0.00    -0.126 C  
HETATM    7  C   UNL     1      -5.384  14.293  70.575  1.00  0.00    -0.118 C  
HETATM    8  N   UNL     1      -5.587  11.927  71.070  1.00  0.00    -0.351 NA 
HETATM    9  C   UNL     1      -5.815  10.582  70.848  1.00  0.00    -0.057 C  
HETATM   10  C   UNL     1      -6.606  10.195  69.818  1.00  0.00    -0.080 C  
HETATM   11  C   UNL     1      -5.157   9.644  71.834  1.00  0.00    -0.075 C  
HETATM   12  C   UNL     1      -7.287  11.243  68.918  1.00  0.00    -0.115 C  
BRANCH  10  13
HETATM   13  C   UNL     1      -6.906   8.748  69.622  1.00  0.00    -0.046 C  
HETATM   14  O   UNL     1      -6.174   7.939  69.070  1.00  0.00    -0.037 OA 
BRANCH  13  15
HETATM   15  O   UNL     1      -8.014   8.419  70.330  1.00  0.00    -0.095 OA 
BRANCH  15  16
HETATM   16  C   UNL     1      -9.100   7.955  69.511  1.00  0.00    -0.149 C  
BRANCH  16  17
HETATM   17  C   UNL     1      -9.847   6.912  70.357  1.00  0.00    -0.179 C  
BRANCH  17  18
HETATM   18  N   UNL     1     -10.537   7.395  71.560  1.00  0.00    -0.207 NA 
HETATM   19  C   UNL     1      -9.890   8.606  72.074  1.00  0.00    -0.325 C  
BRANCH  18  20
HETATM   20  C   UNL     1     -11.955   7.688  71.238  1.00  0.00    -0.306 C  
BRANCH  20  21
HETATM   21  C   UNL     1     -12.239   9.172  71.088  1.00  0.00    -0.350 A  
HETATM   22  C   UNL     1     -11.730   9.882  69.991  1.00  0.00    -0.186 A  
HETATM   23  C   UNL     1     -11.907  11.261  69.893  1.00  0.00    -0.436 A  
HETATM   24  C   UNL     1     -12.604  11.948  70.886  1.00  0.00    -0.361 A  
HETATM   25  C   UNL     1     -13.134  11.253  71.972  1.00  0.00    -0.431 A  
HETATM   26  C   UNL     1     -12.956   9.870  72.074  1.00  0.00    -0.518 A  
ENDBRANCH  20  21
ENDBRANCH  18  20
ENDBRANCH  17  18
ENDBRANCH  16  17
ENDBRANCH  15  16
ENDBRANCH  13  15
ENDBRANCH  10  13
BRANCH  12  27
HETATM   27  C   UNL     1      -7.202  10.860  67.438  1.00  0.00    -0.094 A  
HETATM   28  C   UNL     1      -5.885  10.347  65.465  1.00  0.00    -0.119 A  
HETATM   29  O   UNL     1     -10.608  10.398  65.101  1.00  0.00    -0.191 OA 
HETATM   30  C   UNL     1      -8.377  10.737  66.670  1.00  0.00    -0.141 A  
HETATM   31  O   UNL     1      -9.403   9.985  63.317  1.00  0.00    -0.281 OA 
HETATM   32  C   UNL     1      -8.296  10.411  65.312  1.00  0.00    -0.166 A  
HETATM   33  C   UNL     1      -5.960  10.647  66.824  1.00  0.00    -0.069 A  
HETATM   34  C   UNL     1      -7.049  10.232  64.702  1.00  0.00    -0.081 A  
HETATM   35  N   UNL     1      -9.523  10.253  64.521  1.00  0.00    -0.274 N  
ENDBRANCH  12  27
ENDBRANCH   3   5
ENDBRANCH   2   3
TORSDOF 10
ENDMDL
MODEL      228
REMARK 921   NORMALIZED FREE ENERGY PREDICTED BY IDOCK:   -3.55 KCAL/MOL
REMARK 922        TOTAL FREE ENERGY PREDICTED BY IDOCK:   -7.14 KCAL/MOL
REMARK 923 INTER-LIGAND FREE ENERGY PREDICTED BY IDOCK:   -6.51 KCAL/MOL
REMARK 924 INTRA-LIGAND FREE ENERGY PREDICTED BY IDOCK:   -0.63 KCAL/MOL
REMARK 927      BINDING AFFINITY PREDICTED BY RF-SCORE:    0.00 PKD
ROOT
HETATM    1  C   UNL     1      -7.556   5.815  68.418  1.00  0.00    -0.089 C  
HETATM    2  O   UNL     1      -7.807   7.224  68.441  1.00  0.00    -0.117 OA 
ENDROOT
BRANCH   2   3
HETATM    3  C   UNL     1      -9.013   7.553  67.911  1.00  0.00    -0.131 C  
HETATM    4  O   UNL     1      -9.589   6.918  67.041  1.00  0.00    -0.144 OA 
BRANCH   3   5
HETATM    5  C   UNL     1      -9.530   8.818  68.491  1.00  0.00    -0.149 C  
HETATM    6  C   UNL     1     -10.485   8.791  69.452  1.00  0.00    -0.222 C  
HETATM    7  C   UNL     1     -11.053   7.561  70.118  1.00  0.00    -0.246 C  
HETATM    8  N   UNL     1     -11.047   9.977  69.891  1.00  0.00    -0.270 NA 
HETATM    9  C   UNL     1     -10.849  11.212  69.304  1.00  0.00    -0.229 C  
HETATM   10  C   UNL     1      -9.919  11.353  68.330  1.00  0.00    -0.203 C  
HETATM   11  C   UNL     1     -11.705  12.331  69.852  1.00  0.00    -0.346 C  
HETATM   12  C   UNL     1      -9.050  10.156  67.900  1.00  0.00    -0.133 C  
BRANCH  10  13
HETATM   13  C   UNL     1      -9.659  12.700  67.746  1.00  0.00    -0.197 C  
HETATM   14  O   UNL     1     -10.178  13.147  66.734  1.00  0.00    -0.245 OA 
BRANCH  13  15
HETATM   15  O   UNL     1      -8.924  13.432  68.617  1.00  0.00    -0.111 OA 
BRANCH  15  16
HETATM   16  C   UNL     1      -8.411  14.650  68.051  1.00  0.00    -0.146 C  
BRANCH  16  17
HETATM   17  C   UNL     1      -8.677  15.743  69.098  1.00  0.00    -0.253 C  
BRANCH  17  18
HETATM   18  N   UNL     1      -7.824  16.937  69.053  1.00  0.00    -0.222 NA 
HETATM   19  C   UNL     1      -6.496  16.643  69.599  1.00  0.00    -0.195 C  
BRANCH  18  20
HETATM   20  C   UNL     1      -7.691  17.404  67.651  1.00  0.00    -0.193 C  
BRANCH  20  21
HETATM   21  C   UNL     1      -6.851  18.661  67.516  1.00  0.00    -0.207 A  
HETATM   22  C   UNL     1      -6.193  18.947  66.311  1.00  0.00    -0.210 A  
HETATM   23  C   UNL     1      -5.346  20.049  66.207  1.00  0.00    -0.175 A  
HETATM   24  C   UNL     1      -5.152  20.885  67.305  1.00  0.00    -0.236 A  
HETATM   25  C   UNL     1      -5.814  20.626  68.504  1.00  0.00    -0.364 A  
HETATM   26  C   UNL     1      -6.663  19.521  68.611  1.00  0.00    -0.332 A  
ENDBRANCH  20  21
ENDBRANCH  18  20
ENDBRANCH  17  18
ENDBRANCH  16  17
ENDBRANCH  15  16
ENDBRANCH  13  15
ENDBRANCH  10  13
BRANCH  12  27
HETATM   27  C   UNL     1      -8.907  10.077  66.377  1.00  0.00    -0.158 A  
HETATM   28  C   UNL     1      -9.908   9.944  64.169  1.00  0.00     0.079 A  
HETATM   29  O   UNL     1      -5.185   9.906  64.536  1.00  0.00    -0.059 OA 
HETATM   30  C   UNL     1      -7.629   9.995  65.789  1.00  0.00    -0.120 A  
HETATM   31  O   UNL     1      -6.105   9.736  62.552  1.00  0.00    -0.097 OA 
HETATM   32  C   UNL     1      -7.503   9.898  64.398  1.00  0.00    -0.137 A  
HETATM   33  C   UNL     1     -10.040  10.066  65.551  1.00  0.00    -0.325 A  
HETATM   34  C   UNL     1      -8.641   9.856  63.587  1.00  0.00    -0.203 A  
HETATM   35  N   UNL     1      -6.169   9.843  63.786  1.00  0.00    -0.118 N  
ENDBRANCH  12  27
ENDBRANCH   3   5
ENDBRANCH   2   3
TORSDOF 10
ENDMDL
MODEL      229
REMARK 921   NORMALIZED FREE ENERGY PREDICTED BY IDOCK:   -3.51 KCAL/MOL
REMARK 922        TOTAL FREE ENERGY PREDICTED BY IDOCK:   -7.07 KCAL/MOL
REMARK 923 INTER-LIGAND FREE ENERGY PREDICTED BY IDOCK:   -6.25 KCAL/MOL
REMARK 924 INTRA-LIGAND FREE ENERGY PREDICTED BY IDOCK:   -0.83 KCAL/MOL
REMARK 927      BINDING AFFINITY PREDICTED BY RF-SCORE:    0.00 PKD
ROOT
HETATM    1  C   UNL     1      -5.686   4.135  70.445  1.00  0.00    -0.013 C  
HETATM    2  O   UNL     1      -7.003   4.209  69.890  1.00  0.00    -0.040 OA 
ENDROOT
BRANCH   2   3
HETATM    3  C   UNL     1      -7.804   5.087  70.548  1.00  0.00    -0.074 C  
HETATM    4  O   UNL     1      -8.777   4.777  71.219  1.00  0.00    -0.118 OA 
BRANCH   3   5
HETATM    5  C   UNL     1      -7.376   6.489  70.311  1.00  0.00    -0.089 C  
HETATM    6  C   UNL     1      -7.095   7.305  71.355  1.00  0.00    -0.064 C  
HETATM    7  C   UNL     1      -7.065   6.917  72.815  1.00  0.00    -0.074 C  
HETATM    8  N   UNL     1      -6.823   8.642  71.125  1.00  0.00    -0.064 NA 
HETATM    9  C   UNL     1      -6.984   9.285  69.913  1.00  0.00    -0.061 C  
HETATM   10  C   UNL     1      -7.269   8.566  68.802  1.00  0.00    -0.078 C  
HETATM   11  C   UNL     1      -6.790  10.784  69.948  1.00  0.00    -0.146 C  
HETATM   12  C   UNL     1      -7.373   7.030  68.870  1.00  0.00    -0.093 C  
BRANCH  10  13
HETATM   13  C   UNL     1      -7.376   9.254  67.483  1.00  0.00    -0.087 C  
HETATM   14  O   UNL     1      -6.554   9.191  66.581  1.00  0.00    -0.066 OA 
BRANCH  13  15
HETATM   15  O   UNL     1      -8.615   9.787  67.354  1.00  0.00    -0.127 OA 
BRANCH  15  16
HETATM   16  C   UNL     1      -8.610  11.132  66.847  1.00  0.00    -0.148 C  
BRANCH  16  17
HETATM   17  C   UNL     1      -9.760  11.854  67.566  1.00  0.00    -0.181 C  
BRANCH  17  18
HETATM   18  N   UNL     1      -9.429  13.092  68.285  1.00  0.00    -0.220 NA 
HETATM   19  C   UNL     1      -8.244  13.725  67.701  1.00  0.00    -0.177 C  
BRANCH  18  20
HETATM   20  C   UNL     1     -10.577  14.030  68.218  1.00  0.00    -0.249 C  
BRANCH  20  21
HETATM   21  C   UNL     1     -11.114  14.218  66.811  1.00  0.00    -0.316 A  
HETATM   22  C   UNL     1     -10.539  15.169  65.955  1.00  0.00    -0.347 A  
HETATM   23  C   UNL     1     -11.083  15.414  64.695  1.00  0.00    -0.361 A  
HETATM   24  C   UNL     1     -12.205  14.703  64.271  1.00  0.00    -0.432 A  
HETATM   25  C   UNL     1     -12.775  13.740  65.101  1.00  0.00    -0.439 A  
HETATM   26  C   UNL     1     -12.233  13.494  66.365  1.00  0.00    -0.454 A  
ENDBRANCH  20  21
ENDBRANCH  18  20
ENDBRANCH  17  18
ENDBRANCH  16  17
ENDBRANCH  15  16
ENDBRANCH  13  15
ENDBRANCH  10  13
BRANCH  12  27
HETATM   27  C   UNL     1      -8.571   6.507  68.071  1.00  0.00    -0.118 A  
HETATM   28  C   UNL     1     -10.968   6.332  67.737  1.00  0.00    -0.427 A  
HETATM   29  O   UNL     1      -8.081   4.050  64.755  1.00  0.00    -0.092 OA 
HETATM   30  C   UNL     1      -8.367   5.655  66.967  1.00  0.00    -0.107 A  
HETATM   31  O   UNL     1     -10.250   3.861  64.497  1.00  0.00    -0.210 OA 
HETATM   32  C   UNL     1      -9.464   5.158  66.254  1.00  0.00    -0.156 A  
HETATM   33  C   UNL     1      -9.879   6.850  68.436  1.00  0.00    -0.143 A  
HETATM   34  C   UNL     1     -10.767   5.482  66.647  1.00  0.00    -0.332 A  
HETATM   35  N   UNL     1      -9.249   4.295  65.086  1.00  0.00    -0.143 N  
ENDBRANCH  12  27
ENDBRANCH   3   5
ENDBRANCH   2   3
TORSDOF 10
ENDMDL
MODEL      230
REMARK 921   NORMALIZED FREE ENERGY PREDICTED BY IDOCK:   -3.49 KCAL/MOL
REMARK 922        TOTAL FREE ENERGY PREDICTED BY IDOCK:   -7.05 KCAL/MOL
REMARK 923 INTER-LIGAND FREE ENERGY PREDICTED BY IDOCK:   -7.46 KCAL/MOL
REMARK 924 INTRA-LIGAND FREE ENERGY PREDICTED BY IDOCK:    0.41 KCAL/MOL
REMARK 927      BINDING AFFINITY PREDICTED BY RF-SCORE:    0.00 PKD
ROOT
HETATM    1  C   UNL     1      -9.311   3.172  68.386  1.00  0.00    -0.184 C  
HETATM    2  O   UNL     1      -7.890   3.213  68.550  1.00  0.00    -0.058 OA 
ENDROOT
BRANCH   2   3
HETATM    3  C   UNL     1      -7.481   4.231  69.350  1.00  0.00    -0.054 C  
HETATM    4  O   UNL     1      -6.426   4.836  69.225  1.00  0.00    -0.033 OA 
BRANCH   3   5
HETATM    5  C   UNL     1      -8.460   4.490  70.436  1.00  0.00    -0.096 C  
HETATM    6  C   UNL     1      -8.795   3.506  71.303  1.00  0.00    -0.085 C  
HETATM    7  C   UNL     1      -8.190   2.124  71.371  1.00  0.00    -0.060 C  
HETATM    8  N   UNL     1      -9.800   3.723  72.229  1.00  0.00    -0.156 NA 
HETATM    9  C   UNL     1     -10.642   4.819  72.241  1.00  0.00    -0.157 C  
HETATM   10  C   UNL     1     -10.400   5.862  71.411  1.00  0.00    -0.271 C  
HETATM   11  C   UNL     1     -11.774   4.752  73.240  1.00  0.00    -0.186 C  
HETATM   12  C   UNL     1      -9.171   5.854  70.484  1.00  0.00    -0.167 C  
BRANCH  10  13
HETATM   13  C   UNL     1     -11.269   7.072  71.474  1.00  0.00    -0.249 C  
HETATM   14  O   UNL     1     -12.490   7.068  71.523  1.00  0.00    -0.349 OA 
BRANCH  13  15
HETATM   15  O   UNL     1     -10.498   8.167  71.682  1.00  0.00    -0.209 OA 
BRANCH  15  16
HETATM   16  C   UNL     1     -11.145   9.399  71.322  1.00  0.00    -0.376 C  
BRANCH  16  17
HETATM   17  C   UNL     1     -10.905   9.574  69.814  1.00  0.00    -0.243 C  
BRANCH  17  18
HETATM   18  N   UNL     1     -10.770  10.947  69.311  1.00  0.00    -0.224 NA 
HETATM   19  C   UNL     1     -10.218  10.946  67.954  1.00  0.00    -0.179 C  
BRANCH  18  20
HETATM   20  C   UNL     1     -12.097  11.610  69.307  1.00  0.00    -0.259 C  
BRANCH  20  21
HETATM   21  C   UNL     1     -12.124  12.897  70.110  1.00  0.00    -0.373 A  
HETATM   22  C   UNL     1     -12.587  12.896  71.434  1.00  0.00    -0.319 A  
HETATM   23  C   UNL     1     -12.703  14.087  72.149  1.00  0.00    -0.349 A  
HETATM   24  C   UNL     1     -12.348  15.296  71.552  1.00  0.00    -0.418 A  
HETATM   25  C   UNL     1     -11.867  15.312  70.244  1.00  0.00    -0.353 A  
HETATM   26  C   UNL     1     -11.752  14.119  69.525  1.00  0.00    -0.364 A  
ENDBRANCH  20  21
ENDBRANCH  18  20
ENDBRANCH  17  18
ENDBRANCH  16  17
ENDBRANCH  15  16
ENDBRANCH  13  15
ENDBRANCH  10  13
BRANCH  12  27
HETATM   27  C   UNL     1      -9.518   6.356  69.079  1.00  0.00    -0.131 A  
HETATM   28  C   UNL     1     -11.001   6.388  67.158  1.00  0.00    -0.476 A  
HETATM   29  O   UNL     1      -6.992   8.907  66.983  1.00  0.00    -0.073 OA 
HETATM   30  C   UNL     1      -8.625   7.200  68.388  1.00  0.00    -0.123 A  
HETATM   31  O   UNL     1      -8.319   8.885  65.237  1.00  0.00    -0.141 OA 
HETATM   32  C   UNL     1      -8.933   7.637  67.095  1.00  0.00    -0.126 A  
HETATM   33  C   UNL     1     -10.712   5.970  68.455  1.00  0.00    -0.354 A  
HETATM   34  C   UNL     1     -10.113   7.219  66.470  1.00  0.00    -0.163 A  
HETATM   35  N   UNL     1      -8.016   8.540  66.388  1.00  0.00    -0.097 N  
ENDBRANCH  12  27
ENDBRANCH   3   5
ENDBRANCH   2   3
TORSDOF 10
ENDMDL
MODEL      231
REMARK 921   NORMALIZED FREE ENERGY PREDICTED BY IDOCK:   -3.46 KCAL/MOL
REMARK 922        TOTAL FREE ENERGY PREDICTED BY IDOCK:   -7.01 KCAL/MOL
REMARK 923 INTER-LIGAND FREE ENERGY PREDICTED BY IDOCK:   -5.95 KCAL/MOL
REMARK 924 INTRA-LIGAND FREE ENERGY PREDICTED BY IDOCK:   -1.06 KCAL/MOL
REMARK 927      BINDING AFFINITY PREDICTED BY RF-SCORE:    0.00 PKD
ROOT
HETATM    1  C   UNL     1     -13.198  11.848  71.245  1.00  0.00     0.024 C  
HETATM    2  O   UNL     1     -11.908  11.459  70.763  1.00  0.00    -0.309 OA 
ENDROOT
BRANCH   2   3
HETATM    3  C   UNL     1     -11.972  10.520  69.784  1.00  0.00    -0.238 C  
HETATM    4  O   UNL     1     -13.006  10.102  69.285  1.00  0.00     0.542 OA 
BRANCH   3   5
HETATM    5  C   UNL     1     -10.619  10.023  69.424  1.00  0.00    -0.256 C  
HETATM    6  C   UNL     1      -9.847   9.410  70.352  1.00  0.00    -0.259 C  
HETATM    7  C   UNL     1     -10.249   9.058  71.765  1.00  0.00    -0.389 C  
HETATM    8  N   UNL     1      -8.543   9.067  70.039  1.00  0.00    -0.137 NA 
HETATM    9  C   UNL     1      -7.875   9.458  68.894  1.00  0.00    -0.083 C  
HETATM   10  C   UNL     1      -8.552  10.083  67.900  1.00  0.00    -0.121 C  
HETATM   11  C   UNL     1      -6.405   9.108  68.854  1.00  0.00    -0.044 C  
HETATM   12  C   UNL     1     -10.069  10.323  68.018  1.00  0.00    -0.189 C  
BRANCH  10  13
HETATM   13  C   UNL     1      -7.844  10.442  66.638  1.00  0.00    -0.120 C  
HETATM   14  O   UNL     1      -7.002  11.321  66.521  1.00  0.00    -0.140 OA 
BRANCH  13  15
HETATM   15  O   UNL     1      -8.118   9.513  65.690  1.00  0.00    -0.108 OA 
BRANCH  15  16
HETATM   16  C   UNL     1      -6.967   8.757  65.280  1.00  0.00    -0.076 C  
BRANCH  16  17
HETATM   17  C   UNL     1      -7.504   7.625  64.390  1.00  0.00    -0.099 C  
BRANCH  17  18
HETATM   18  N   UNL     1      -8.018   6.427  65.066  1.00  0.00    -0.116 NA 
HETATM   19  C   UNL     1      -9.197   6.755  65.871  1.00  0.00     0.040 C  
BRANCH  18  20
HETATM   20  C   UNL     1      -8.375   5.400  64.057  1.00  0.00    -0.116 C  
BRANCH  20  21
HETATM   21  C   UNL     1      -7.685   4.068  64.290  1.00  0.00    -0.084 A  
HETATM   22  C   UNL     1      -8.381   3.003  64.880  1.00  0.00    -0.095 A  
HETATM   23  C   UNL     1      -7.731   1.808  65.182  1.00  0.00    -0.071 A  
HETATM   24  C   UNL     1      -6.376   1.659  64.890  1.00  0.00    -0.018 A  
HETATM   25  C   UNL     1      -5.675   2.700  64.285  1.00  0.00    -0.010 A  
HETATM   26  C   UNL     1      -6.324   3.900  63.982  1.00  0.00    -0.030 A  
ENDBRANCH  20  21
ENDBRANCH  18  20
ENDBRANCH  17  18
ENDBRANCH  16  17
ENDBRANCH  15  16
ENDBRANCH  13  15
ENDBRANCH  10  13
BRANCH  12  27
HETATM   27  C   UNL     1     -10.457  11.729  67.551  1.00  0.00    -0.228 A  
HETATM   28  C   UNL     1     -10.417  14.137  67.851  1.00  0.00    -0.237 A  
HETATM   29  O   UNL     1     -12.814  12.338  64.182  1.00  0.00    -0.678 OA 
HETATM   30  C   UNL     1     -11.279  11.896  66.418  1.00  0.00    -0.387 A  
HETATM   31  O   UNL     1     -12.809  14.508  64.495  1.00  0.00    -0.613 OA 
HETATM   32  C   UNL     1     -11.654  13.180  66.008  1.00  0.00    -0.353 A  
HETATM   33  C   UNL     1     -10.020  12.862  68.250  1.00  0.00    -0.234 A  
HETATM   34  C   UNL     1     -11.237  14.303  66.732  1.00  0.00    -0.337 A  
HETATM   35  N   UNL     1     -12.484  13.354  64.810  1.00  0.00    -0.384 N  
ENDBRANCH  12  27
ENDBRANCH   3   5
ENDBRANCH   2   3
TORSDOF 10
ENDMDL
MODEL      232
REMARK 921   NORMALIZED FREE ENERGY PREDICTED BY IDOCK:   -3.44 KCAL/MOL
REMARK 922        TOTAL FREE ENERGY PREDICTED BY IDOCK:   -6.96 KCAL/MOL
REMARK 923 INTER-LIGAND FREE ENERGY PREDICTED BY IDOCK:   -5.70 KCAL/MOL
REMARK 924 INTRA-LIGAND FREE ENERGY PREDICTED BY IDOCK:   -1.26 KCAL/MOL
REMARK 927      BINDING AFFINITY PREDICTED BY RF-SCORE:    0.00 PKD
ROOT
HETATM    1  C   UNL     1      -9.690   3.632  68.827  1.00  0.00     0.016 C  
HETATM    2  O   UNL     1      -9.741   4.838  68.056  1.00  0.00    -0.147 OA 
ENDROOT
BRANCH   2   3
HETATM    3  C   UNL     1      -8.577   5.537  68.095  1.00  0.00    -0.100 C  
HETATM    4  O   UNL     1      -7.899   5.707  69.097  1.00  0.00    -0.086 OA 
BRANCH   3   5
HETATM    5  C   UNL     1      -8.252   6.117  66.767  1.00  0.00    -0.109 C  
HETATM    6  C   UNL     1      -7.351   5.510  65.958  1.00  0.00    -0.078 C  
HETATM    7  C   UNL     1      -6.667   4.187  66.208  1.00  0.00    -0.053 C  
HETATM    8  N   UNL     1      -6.963   6.127  64.782  1.00  0.00    -0.053 NA 
HETATM    9  C   UNL     1      -7.283   7.423  64.425  1.00  0.00    -0.078 C  
HETATM   10  C   UNL     1      -8.174   8.125  65.166  1.00  0.00    -0.156 C  
HETATM   11  C   UNL     1      -6.602   7.936  63.177  1.00  0.00    -0.079 C  
HETATM   12  C   UNL     1      -8.865   7.474  66.380  1.00  0.00    -0.178 C  
BRANCH  10  13
HETATM   13  C   UNL     1      -8.570   9.498  64.741  1.00  0.00    -0.176 C  
HETATM   14  O   UNL     1      -9.532   9.774  64.039  1.00  0.00    -0.242 OA 
BRANCH  13  15
HETATM   15  O   UNL     1      -7.830  10.408  65.419  1.00  0.00    -0.147 OA 
BRANCH  15  16
HETATM   16  C   UNL     1      -8.611  11.476  65.981  1.00  0.00    -0.046 C  
BRANCH  16  17
HETATM   17  C   UNL     1      -7.630  12.323  66.806  1.00  0.00     0.104 C  
BRANCH  17  18
HETATM   18  N   UNL     1      -8.166  13.012  67.987  1.00  0.00    -0.150 NA 
HETATM   19  C   UNL     1      -7.126  13.173  69.006  1.00  0.00    -0.030 C  
BRANCH  18  20
HETATM   20  C   UNL     1      -8.687  14.344  67.594  1.00  0.00    -0.189 C  
BRANCH  20  21
HETATM   21  C   UNL     1     -10.026  14.276  66.883  1.00  0.00    -0.263 A  
HETATM   22  C   UNL     1     -10.202  14.907  65.643  1.00  0.00    -0.382 A  
HETATM   23  C   UNL     1     -11.452  14.929  65.026  1.00  0.00    -0.379 A  
HETATM   24  C   UNL     1     -12.542  14.312  65.638  1.00  0.00    -0.429 A  
HETATM   25  C   UNL     1     -12.379  13.663  66.861  1.00  0.00    -0.309 A  
HETATM   26  C   UNL     1     -11.127  13.641  67.482  1.00  0.00    -0.296 A  
ENDBRANCH  20  21
ENDBRANCH  18  20
ENDBRANCH  17  18
ENDBRANCH  16  17
ENDBRANCH  15  16
ENDBRANCH  13  15
ENDBRANCH  10  13
BRANCH  12  27
HETATM   27  C   UNL     1      -8.920   8.428  67.578  1.00  0.00    -0.142 A  
HETATM   28  C   UNL     1      -7.863   9.453  69.507  1.00  0.00    -0.091 A  
HETATM   29  O   UNL     1     -12.374  10.531  68.539  1.00  0.00    -0.180 OA 
HETATM   30  C   UNL     1     -10.116   9.105  67.889  1.00  0.00    -0.246 A  
HETATM   31  O   UNL     1     -11.420  11.410  70.307  1.00  0.00    -0.277 OA 
HETATM   32  C   UNL     1     -10.172   9.955  68.998  1.00  0.00    -0.200 A  
HETATM   33  C   UNL     1      -7.794   8.624  68.389  1.00  0.00    -0.105 A  
HETATM   34  C   UNL     1      -9.051  10.119  69.819  1.00  0.00    -0.166 A  
HETATM   35  N   UNL     1     -11.410  10.684  69.302  1.00  0.00    -0.262 N  
ENDBRANCH  12  27
ENDBRANCH   3   5
ENDBRANCH   2   3
TORSDOF 10
ENDMDL
MODEL      233
REMARK 921   NORMALIZED FREE ENERGY PREDICTED BY IDOCK:   -3.41 KCAL/MOL
REMARK 922        TOTAL FREE ENERGY PREDICTED BY IDOCK:   -6.92 KCAL/MOL
REMARK 923 INTER-LIGAND FREE ENERGY PREDICTED BY IDOCK:   -5.72 KCAL/MOL
REMARK 924 INTRA-LIGAND FREE ENERGY PREDICTED BY IDOCK:   -1.20 KCAL/MOL
REMARK 927      BINDING AFFINITY PREDICTED BY RF-SCORE:    0.00 PKD
ROOT
HETATM    1  C   UNL     1     -12.713  11.942  63.164  1.00  0.00    -0.127 C  
HETATM    2  O   UNL     1     -11.863  11.481  64.219  1.00  0.00    -0.184 OA 
ENDROOT
BRANCH   2   3
HETATM    3  C   UNL     1     -10.610  12.001  64.153  1.00  0.00    -0.355 C  
HETATM    4  O   UNL     1      -9.939  12.076  63.134  1.00  0.00    -0.407 OA 
BRANCH   3   5
HETATM    5  C   UNL     1     -10.132  12.427  65.492  1.00  0.00    -0.287 C  
HETATM    6  C   UNL     1      -9.912  13.738  65.754  1.00  0.00    -0.275 C  
HETATM    7  C   UNL     1     -10.204  14.899  64.834  1.00  0.00    -0.286 C  
HETATM    8  N   UNL     1      -9.346  14.109  66.961  1.00  0.00    -0.236 NA 
HETATM    9  C   UNL     1      -8.805  13.234  67.883  1.00  0.00    -0.192 C  
HETATM   10  C   UNL     1      -8.963  11.899  67.718  1.00  0.00    -0.173 C  
HETATM   11  C   UNL     1      -8.088  13.883  69.045  1.00  0.00     0.130 C  
HETATM   12  C   UNL     1      -9.777  11.349  66.531  1.00  0.00    -0.226 C  
BRANCH  10  13
HETATM   13  C   UNL     1      -8.437  10.959  68.749  1.00  0.00    -0.150 C  
HETATM   14  O   UNL     1      -7.293  10.531  68.803  1.00  0.00    -0.080 OA 
BRANCH  13  15
HETATM   15  O   UNL     1      -9.355  10.817  69.736  1.00  0.00     0.097 OA 
BRANCH  15  16
HETATM   16  C   UNL     1     -10.404   9.889  69.414  1.00  0.00    -0.222 C  
BRANCH  16  17
HETATM   17  C   UNL     1      -9.838   8.494  69.720  1.00  0.00    -0.186 C  
BRANCH  17  18
HETATM   18  N   UNL     1     -10.546   7.687  70.721  1.00  0.00    -0.218 NA 
HETATM   19  C   UNL     1     -11.652   6.951  70.102  1.00  0.00    -0.289 C  
BRANCH  18  20
HETATM   20  C   UNL     1      -9.603   6.730  71.350  1.00  0.00    -0.167 C  
BRANCH  20  21
HETATM   21  C   UNL     1      -8.449   7.409  72.063  1.00  0.00    -0.119 A  
HETATM   22  C   UNL     1      -7.258   7.690  71.377  1.00  0.00    -0.066 A  
HETATM   23  C   UNL     1      -6.161   8.229  72.046  1.00  0.00    -0.058 A  
HETATM   24  C   UNL     1      -6.243   8.503  73.410  1.00  0.00    -0.117 A  
HETATM   25  C   UNL     1      -7.425   8.249  74.103  1.00  0.00    -0.239 A  
HETATM   26  C   UNL     1      -8.526   7.707  73.434  1.00  0.00    -0.220 A  
ENDBRANCH  20  21
ENDBRANCH  18  20
ENDBRANCH  17  18
ENDBRANCH  16  17
ENDBRANCH  15  16
ENDBRANCH  13  15
ENDBRANCH  10  13
BRANCH  12  27
HETATM   27  C   UNL     1      -9.088  10.146  65.880  1.00  0.00    -0.190 A  
HETATM   28  C   UNL     1      -8.989   7.764  65.426  1.00  0.00     0.090 A  
HETATM   29  O   UNL     1      -5.534  10.546  63.762  1.00  0.00    -0.147 OA 
HETATM   30  C   UNL     1      -7.871  10.315  65.192  1.00  0.00    -0.138 A  
HETATM   31  O   UNL     1      -5.434   8.385  63.403  1.00  0.00    -0.061 OA 
HETATM   32  C   UNL     1      -7.230   9.211  64.619  1.00  0.00    -0.098 A  
HETATM   33  C   UNL     1      -9.645   8.864  65.977  1.00  0.00    -0.320 A  
HETATM   34  C   UNL     1      -7.779   7.931  64.749  1.00  0.00    -0.118 A  
HETATM   35  N   UNL     1      -5.977   9.394  63.876  1.00  0.00    -0.087 N  
ENDBRANCH  12  27
ENDBRANCH   3   5
ENDBRANCH   2   3
TORSDOF 10
ENDMDL
MODEL      234
REMARK 921   NORMALIZED FREE ENERGY PREDICTED BY IDOCK:   -3.41 KCAL/MOL
REMARK 922        TOTAL FREE ENERGY PREDICTED BY IDOCK:   -6.92 KCAL/MOL
REMARK 923 INTER-LIGAND FREE ENERGY PREDICTED BY IDOCK:   -7.61 KCAL/MOL
REMARK 924 INTRA-LIGAND FREE ENERGY PREDICTED BY IDOCK:    0.69 KCAL/MOL
REMARK 927      BINDING AFFINITY PREDICTED BY RF-SCORE:    0.00 PKD
ROOT
HETATM    1  C   UNL     1     -10.244  15.951  70.546  1.00  0.00     0.308 C  
HETATM    2  O   UNL     1     -11.277  15.951  69.555  1.00  0.00    -0.277 OA 
ENDROOT
BRANCH   2   3
HETATM    3  C   UNL     1     -12.417  15.349  69.982  1.00  0.00    -0.283 C  
HETATM    4  O   UNL     1     -13.400  15.937  70.408  1.00  0.00    -0.240 OA 
BRANCH   3   5
HETATM    5  C   UNL     1     -12.303  13.870  69.914  1.00  0.00    -0.358 C  
HETATM    6  C   UNL     1     -12.406  13.124  71.040  1.00  0.00    -0.265 C  
HETATM    7  C   UNL     1     -12.741  13.627  72.424  1.00  0.00    -0.202 C  
HETATM    8  N   UNL     1     -12.171  11.761  70.982  1.00  0.00    -0.281 NA 
HETATM    9  C   UNL     1     -11.656  11.093  69.888  1.00  0.00    -0.337 C  
HETATM   10  C   UNL     1     -11.507  11.745  68.709  1.00  0.00    -0.350 C  
HETATM   11  C   UNL     1     -11.323   9.637  70.118  1.00  0.00    -0.275 C  
HETATM   12  C   UNL     1     -11.949  13.214  68.568  1.00  0.00    -0.324 C  
BRANCH  10  13
HETATM   13  C   UNL     1     -11.015  11.005  67.512  1.00  0.00    -0.281 C  
HETATM   14  O   UNL     1     -11.527  11.027  66.403  1.00  0.00    -0.183 OA 
BRANCH  13  15
HETATM   15  O   UNL     1      -9.798  10.473  67.783  1.00  0.00    -0.161 OA 
BRANCH  15  16
HETATM   16  C   UNL     1      -9.570   9.208  67.141  1.00  0.00    -0.164 C  
BRANCH  16  17
HETATM   17  C   UNL     1      -8.113   8.835  67.455  1.00  0.00    -0.106 C  
BRANCH  17  18
HETATM   18  N   UNL     1      -7.888   7.630  68.264  1.00  0.00    -0.119 NA 
HETATM   19  C   UNL     1      -6.552   7.082  68.013  1.00  0.00    -0.056 C  
BRANCH  18  20
HETATM   20  C   UNL     1      -8.025   7.962  69.703  1.00  0.00    -0.118 C  
BRANCH  20  21
HETATM   21  C   UNL     1      -9.107   7.158  70.402  1.00  0.00    -0.156 A  
HETATM   22  C   UNL     1     -10.062   6.455  69.652  1.00  0.00    -0.209 A  
HETATM   23  C   UNL     1     -11.112   5.790  70.283  1.00  0.00    -0.300 A  
HETATM   24  C   UNL     1     -11.217   5.812  71.672  1.00  0.00    -0.258 A  
HETATM   25  C   UNL     1     -10.264   6.489  72.432  1.00  0.00    -0.204 A  
HETATM   26  C   UNL     1      -9.211   7.157  71.803  1.00  0.00    -0.147 A  
ENDBRANCH  20  21
ENDBRANCH  18  20
ENDBRANCH  17  18
ENDBRANCH  16  17
ENDBRANCH  15  16
ENDBRANCH  13  15
ENDBRANCH  10  13
BRANCH  12  27
HETATM   27  C   UNL     1     -10.920  14.043  67.793  1.00  0.00    -0.271 A  
HETATM   28  C   UNL     1     -10.344  15.476  65.920  1.00  0.00    -0.365 A  
HETATM   29  O   UNL     1      -6.944  14.257  68.985  1.00  0.00    -0.102 OA 
HETATM   30  C   UNL     1      -9.574  14.071  68.212  1.00  0.00    -0.224 A  
HETATM   31  O   UNL     1      -6.430  15.510  67.261  1.00  0.00    -0.274 OA 
HETATM   32  C   UNL     1      -8.631  14.809  67.488  1.00  0.00    -0.187 A  
HETATM   33  C   UNL     1     -11.294  14.763  66.651  1.00  0.00    -0.347 A  
HETATM   34  C   UNL     1      -9.010  15.499  66.332  1.00  0.00    -0.359 A  
HETATM   35  N   UNL     1      -7.236  14.863  67.944  1.00  0.00    -0.136 N  
ENDBRANCH  12  27
ENDBRANCH   3   5
ENDBRANCH   2   3
TORSDOF 10
ENDMDL
MODEL      235
REMARK 921   NORMALIZED FREE ENERGY PREDICTED BY IDOCK:   -3.40 KCAL/MOL
REMARK 922        TOTAL FREE ENERGY PREDICTED BY IDOCK:   -6.91 KCAL/MOL
REMARK 923 INTER-LIGAND FREE ENERGY PREDICTED BY IDOCK:   -7.17 KCAL/MOL
REMARK 924 INTRA-LIGAND FREE ENERGY PREDICTED BY IDOCK:    0.27 KCAL/MOL
REMARK 927      BINDING AFFINITY PREDICTED BY RF-SCORE:    0.00 PKD
ROOT
HETATM    1  C   UNL     1      -8.081   9.714  69.836  1.00  0.00    -0.171 C  
HETATM    2  O   UNL     1      -8.577  10.277  68.617  1.00  0.00    -0.116 OA 
ENDROOT
BRANCH   2   3
HETATM    3  C   UNL     1      -9.894  10.013  68.413  1.00  0.00    -0.154 C  
HETATM    4  O   UNL     1     -10.651   9.550  69.253  1.00  0.00    -0.211 OA 
BRANCH   3   5
HETATM    5  C   UNL     1     -10.293  10.313  67.014  1.00  0.00    -0.299 C  
HETATM    6  C   UNL     1      -9.664   9.707  65.979  1.00  0.00    -0.264 C  
HETATM    7  C   UNL     1      -8.613   8.627  66.074  1.00  0.00    -0.173 C  
HETATM    8  N   UNL     1      -9.958  10.090  64.682  1.00  0.00    -0.249 NA 
HETATM    9  C   UNL     1     -10.726  11.185  64.334  1.00  0.00    -0.318 C  
HETATM   10  C   UNL     1     -11.398  11.867  65.293  1.00  0.00    -0.333 C  
HETATM   11  C   UNL     1     -10.763  11.505  62.857  1.00  0.00     0.023 C  
HETATM   12  C   UNL     1     -11.346  11.407  66.762  1.00  0.00    -0.252 C  
BRANCH  10  13
HETATM   13  C   UNL     1     -12.280  13.006  64.908  1.00  0.00    -0.441 C  
HETATM   14  O   UNL     1     -13.485  13.068  65.103  1.00  0.00    -0.481 OA 
BRANCH  13  15
HETATM   15  O   UNL     1     -11.515  14.049  64.501  1.00  0.00    -0.367 OA 
BRANCH  15  16
HETATM   16  C   UNL     1     -11.930  15.311  65.049  1.00  0.00    -0.029 C  
BRANCH  16  17
HETATM   17  C   UNL     1     -10.649  16.147  65.192  1.00  0.00    -0.343 C  
BRANCH  17  18
HETATM   18  N   UNL     1      -9.570  15.586  66.014  1.00  0.00    -0.320 NA 
HETATM   19  C   UNL     1      -8.984  14.410  65.363  1.00  0.00     1.384 C  
BRANCH  18  20
HETATM   20  C   UNL     1      -8.518  16.611  66.226  1.00  0.00    -0.320 C  
BRANCH  20  21
HETATM   21  C   UNL     1      -9.071  17.947  66.686  1.00  0.00    -0.279 A  
HETATM   22  C   UNL     1      -8.559  19.143  66.163  1.00  0.00    -0.233 A  
HETATM   23  C   UNL     1      -8.995  20.376  66.647  1.00  0.00    -0.296 A  
HETATM   24  C   UNL     1      -9.957  20.428  67.654  1.00  0.00    -0.514 A  
HETATM   25  C   UNL     1     -10.490  19.249  68.171  1.00  0.00    -0.450 A  
HETATM   26  C   UNL     1     -10.053  18.012  67.689  1.00  0.00    -0.352 A  
ENDBRANCH  20  21
ENDBRANCH  18  20
ENDBRANCH  17  18
ENDBRANCH  16  17
ENDBRANCH  15  16
ENDBRANCH  13  15
ENDBRANCH  10  13
BRANCH  12  27
HETATM   27  C   UNL     1     -11.169  12.589  67.720  1.00  0.00    -0.318 A  
HETATM   28  C   UNL     1     -12.116  14.283  69.176  1.00  0.00    -0.337 A  
HETATM   29  O   UNL     1      -7.419  14.163  68.577  1.00  0.00    -0.109 OA 
HETATM   30  C   UNL     1      -9.884  13.113  67.967  1.00  0.00    -0.231 A  
HETATM   31  O   UNL     1      -8.295  15.719  69.851  1.00  0.00     0.002 OA 
HETATM   32  C   UNL     1      -9.727  14.209  68.823  1.00  0.00    -0.148 A  
HETATM   33  C   UNL     1     -12.277  13.176  68.345  1.00  0.00    -0.065 A  
HETATM   34  C   UNL     1     -10.844  14.807  69.416  1.00  0.00    -0.269 A  
HETATM   35  N   UNL     1      -8.385  14.734  69.103  1.00  0.00    -0.140 N  
ENDBRANCH  12  27
ENDBRANCH   3   5
ENDBRANCH   2   3
TORSDOF 10
ENDMDL
MODEL      236
REMARK 921   NORMALIZED FREE ENERGY PREDICTED BY IDOCK:   -3.39 KCAL/MOL
REMARK 922        TOTAL FREE ENERGY PREDICTED BY IDOCK:   -6.89 KCAL/MOL
REMARK 923 INTER-LIGAND FREE ENERGY PREDICTED BY IDOCK:   -6.31 KCAL/MOL
REMARK 924 INTRA-LIGAND FREE ENERGY PREDICTED BY IDOCK:   -0.58 KCAL/MOL
REMARK 927      BINDING AFFINITY PREDICTED BY RF-SCORE:    0.00 PKD
ROOT
HETATM    1  C   UNL     1     -11.533  10.609  68.859  1.00  0.00    -0.265 C  
HETATM    2  O   UNL     1     -12.143  11.847  69.240  1.00  0.00    -0.282 OA 
ENDROOT
BRANCH   2   3
HETATM    3  C   UNL     1     -11.957  12.831  68.323  1.00  0.00    -0.229 C  
HETATM    4  O   UNL     1     -12.658  13.008  67.338  1.00  0.00    -0.020 OA 
BRANCH   3   5
HETATM    5  C   UNL     1     -10.754  13.643  68.639  1.00  0.00    -0.272 C  
HETATM    6  C   UNL     1     -10.859  14.742  69.423  1.00  0.00    -0.255 C  
HETATM    7  C   UNL     1     -12.099  15.220  70.140  1.00  0.00    -0.394 C  
HETATM    8  N   UNL     1      -9.757  15.560  69.605  1.00  0.00    -0.281 NA 
HETATM    9  C   UNL     1      -8.571  15.457  68.904  1.00  0.00    -0.207 C  
HETATM   10  C   UNL     1      -8.361  14.397  68.088  1.00  0.00    -0.158 C  
HETATM   11  C   UNL     1      -7.577  16.569  69.152  1.00  0.00    -0.210 C  
HETATM   12  C   UNL     1      -9.418  13.282  67.967  1.00  0.00    -0.219 C  
BRANCH  10  13
HETATM   13  C   UNL     1      -7.054  14.253  67.385  1.00  0.00    -0.084 C  
HETATM   14  O   UNL     1      -6.297  15.169  67.099  1.00  0.00    -0.280 OA 
BRANCH  13  15
HETATM   15  O   UNL     1      -6.733  12.939  67.300  1.00  0.00    -0.152 OA 
BRANCH  15  16
HETATM   16  C   UNL     1      -5.419  12.638  67.799  1.00  0.00    -0.116 C  
BRANCH  16  17
HETATM   17  C   UNL     1      -5.631  12.012  69.186  1.00  0.00    -0.061 C  
BRANCH  17  18
HETATM   18  N   UNL     1      -5.575  10.548  69.277  1.00  0.00    -0.037 NA 
HETATM   19  C   UNL     1      -5.601  10.117  70.678  1.00  0.00    -0.078 C  
BRANCH  18  20
HETATM   20  C   UNL     1      -6.730   9.959  68.555  1.00  0.00    -0.055 C  
BRANCH  20  21
HETATM   21  C   UNL     1      -6.467   8.550  68.056  1.00  0.00    -0.057 A  
HETATM   22  C   UNL     1      -7.156   7.462  68.610  1.00  0.00    -0.084 A  
HETATM   23  C   UNL     1      -6.855   6.157  68.224  1.00  0.00    -0.074 A  
HETATM   24  C   UNL     1      -5.866   5.923  67.271  1.00  0.00    -0.017 A  
HETATM   25  C   UNL     1      -5.185   6.995  66.696  1.00  0.00    -0.022 A  
HETATM   26  C   UNL     1      -5.484   8.304  67.082  1.00  0.00    -0.037 A  
ENDBRANCH  20  21
ENDBRANCH  18  20
ENDBRANCH  17  18
ENDBRANCH  16  17
ENDBRANCH  15  16
ENDBRANCH  13  15
ENDBRANCH  10  13
BRANCH  12  27
HETATM   27  C   UNL     1      -9.620  12.849  66.512  1.00  0.00    -0.259 A  
HETATM   28  C   UNL     1     -10.454  13.290  64.276  1.00  0.00    -0.372 A  
HETATM   29  O   UNL     1      -8.387   9.119  65.153  1.00  0.00    -0.136 OA 
HETATM   30  C   UNL     1      -9.212  11.566  66.093  1.00  0.00    -0.230 A  
HETATM   31  O   UNL     1      -9.191   9.514  63.151  1.00  0.00    -0.216 OA 
HETATM   32  C   UNL     1      -9.420  11.163  64.770  1.00  0.00    -0.218 A  
HETATM   33  C   UNL     1     -10.227  13.707  65.587  1.00  0.00    -0.316 A  
HETATM   34  C   UNL     1     -10.057  12.017  63.863  1.00  0.00    -0.394 A  
HETATM   35  N   UNL     1      -8.967   9.838  64.327  1.00  0.00    -0.225 N  
ENDBRANCH  12  27
ENDBRANCH   3   5
ENDBRANCH   2   3
TORSDOF 10
ENDMDL
MODEL      237
REMARK 921   NORMALIZED FREE ENERGY PREDICTED BY IDOCK:   -3.38 KCAL/MOL
REMARK 922        TOTAL FREE ENERGY PREDICTED BY IDOCK:   -6.87 KCAL/MOL
REMARK 923 INTER-LIGAND FREE ENERGY PREDICTED BY IDOCK:   -6.67 KCAL/MOL
REMARK 924 INTRA-LIGAND FREE ENERGY PREDICTED BY IDOCK:   -0.20 KCAL/MOL
REMARK 927      BINDING AFFINITY PREDICTED BY RF-SCORE:    0.00 PKD
ROOT
HETATM    1  C   UNL     1     -12.371  13.311  64.863  1.00  0.00    -0.425 C  
HETATM    2  O   UNL     1     -11.500  12.259  65.292  1.00  0.00    -0.331 OA 
ENDROOT
BRANCH   2   3
HETATM    3  C   UNL     1     -10.727  12.613  66.350  1.00  0.00    -0.255 C  
HETATM    4  O   UNL     1      -9.896  13.510  66.338  1.00  0.00    -0.281 OA 
BRANCH   3   5
HETATM    5  C   UNL     1     -10.982  11.737  67.522  1.00  0.00    -0.310 C  
HETATM    6  C   UNL     1     -11.516  12.251  68.656  1.00  0.00    -0.307 C  
HETATM    7  C   UNL     1     -12.006  13.665  68.858  1.00  0.00    -0.392 C  
HETATM    8  N   UNL     1     -11.630  11.452  69.781  1.00  0.00    -0.310 NA 
HETATM    9  C   UNL     1     -11.074  10.195  69.918  1.00  0.00    -0.293 C  
HETATM   10  C   UNL     1     -10.509   9.588  68.847  1.00  0.00    -0.235 C  
HETATM   11  C   UNL     1     -11.183   9.589  71.299  1.00  0.00    -0.452 C  
HETATM   12  C   UNL     1     -10.520  10.270  67.466  1.00  0.00    -0.293 C  
BRANCH  10  13
HETATM   13  C   UNL     1      -9.972   8.203  68.981  1.00  0.00    -0.189 C  
HETATM   14  O   UNL     1      -8.828   7.858  68.724  1.00  0.00    -0.138 OA 
BRANCH  13  15
HETATM   15  O   UNL     1     -10.877   7.431  69.629  1.00  0.00    -0.239 OA 
BRANCH  15  16
HETATM   16  C   UNL     1     -10.359   6.150  70.024  1.00  0.00    -0.209 C  
BRANCH  16  17
HETATM   17  C   UNL     1      -9.898   6.315  71.481  1.00  0.00    -0.173 C  
BRANCH  17  18
HETATM   18  N   UNL     1      -9.581   5.091  72.227  1.00  0.00    -0.145 NA 
HETATM   19  C   UNL     1      -9.810   3.906  71.395  1.00  0.00    -0.172 C  
BRANCH  18  20
HETATM   20  C   UNL     1      -8.164   5.125  72.663  1.00  0.00    -0.113 C  
BRANCH  20  21
HETATM   21  C   UNL     1      -7.250   5.821  71.670  1.00  0.00    -0.086 A  
HETATM   22  C   UNL     1      -6.747   5.124  70.562  1.00  0.00    -0.040 A  
HETATM   23  C   UNL     1      -5.835   5.726  69.697  1.00  0.00    -0.023 A  
HETATM   24  C   UNL     1      -5.420   7.037  69.924  1.00  0.00    -0.019 A  
HETATM   25  C   UNL     1      -5.926   7.750  71.009  1.00  0.00    -0.034 A  
HETATM   26  C   UNL     1      -6.840   7.148  71.879  1.00  0.00    -0.059 A  
ENDBRANCH  20  21
ENDBRANCH  18  20
ENDBRANCH  17  18
ENDBRANCH  16  17
ENDBRANCH  15  16
ENDBRANCH  13  15
ENDBRANCH  10  13
BRANCH  12  27
HETATM   27  C   UNL     1      -9.169  10.133  66.757  1.00  0.00    -0.174 A  
HETATM   28  C   UNL     1      -6.762  10.440  66.727  1.00  0.00    -0.086 A  
HETATM   29  O   UNL     1      -8.870   8.602  62.904  1.00  0.00    -0.062 OA 
HETATM   30  C   UNL     1      -9.109   9.634  65.440  1.00  0.00    -0.265 A  
HETATM   31  O   UNL     1      -6.703   8.932  62.875  1.00  0.00    -0.091 OA 
HETATM   32  C   UNL     1      -7.877   9.533  64.785  1.00  0.00    -0.120 A  
HETATM   33  C   UNL     1      -7.983  10.519  67.395  1.00  0.00    -0.110 A  
HETATM   34  C   UNL     1      -6.703   9.951  65.420  1.00  0.00    -0.104 A  
HETATM   35  N   UNL     1      -7.812   8.983  63.425  1.00  0.00    -0.132 N  
ENDBRANCH  12  27
ENDBRANCH   3   5
ENDBRANCH   2   3
TORSDOF 10
ENDMDL
MODEL      238
REMARK 921   NORMALIZED FREE ENERGY PREDICTED BY IDOCK:   -3.36 KCAL/MOL
REMARK 922        TOTAL FREE ENERGY PREDICTED BY IDOCK:   -6.84 KCAL/MOL
REMARK 923 INTER-LIGAND FREE ENERGY PREDICTED BY IDOCK:   -5.53 KCAL/MOL
REMARK 924 INTRA-LIGAND FREE ENERGY PREDICTED BY IDOCK:   -1.32 KCAL/MOL
REMARK 927      BINDING AFFINITY PREDICTED BY RF-SCORE:    0.00 PKD
ROOT
HETATM    1  C   UNL     1      -6.444   3.261  69.528  1.00  0.00    -0.033 C  
HETATM    2  O   UNL     1      -7.212   3.834  70.592  1.00  0.00    -0.037 OA 
ENDROOT
BRANCH   2   3
HETATM    3  C   UNL     1      -6.935   5.148  70.793  1.00  0.00    -0.055 C  
HETATM    4  O   UNL     1      -5.823   5.600  71.019  1.00  0.00    -0.022 OA 
BRANCH   3   5
HETATM    5  C   UNL     1      -8.171   5.971  70.754  1.00  0.00    -0.125 C  
HETATM    6  C   UNL     1      -9.143   5.789  71.679  1.00  0.00    -0.143 C  
HETATM    7  C   UNL     1      -9.085   4.868  72.874  1.00  0.00    -0.129 C  
HETATM    8  N   UNL     1     -10.341   6.472  71.556  1.00  0.00    -0.209 NA 
HETATM    9  C   UNL     1     -10.720   7.212  70.453  1.00  0.00    -0.235 C  
HETATM   10  C   UNL     1      -9.825   7.454  69.465  1.00  0.00    -0.165 C  
HETATM   11  C   UNL     1     -12.143   7.722  70.476  1.00  0.00     0.069 C  
HETATM   12  C   UNL     1      -8.375   6.946  69.581  1.00  0.00    -0.133 C  
BRANCH  10  13
HETATM   13  C   UNL     1     -10.216   8.311  68.309  1.00  0.00    -0.208 C  
HETATM   14  O   UNL     1     -11.029   8.013  67.446  1.00  0.00    -0.151 OA 
BRANCH  13  15
HETATM   15  O   UNL     1      -9.693   9.551  68.472  1.00  0.00    -0.147 OA 
BRANCH  15  16
HETATM   16  C   UNL     1     -10.533  10.598  67.959  1.00  0.00    -0.196 C  
BRANCH  16  17
HETATM   17  C   UNL     1      -9.706  11.305  66.874  1.00  0.00    -0.192 C  
BRANCH  17  18
HETATM   18  N   UNL     1     -10.390  12.321  66.064  1.00  0.00    -0.240 NA 
HETATM   19  C   UNL     1     -10.786  11.766  64.767  1.00  0.00    -0.302 C  
BRANCH  18  20
HETATM   20  C   UNL     1     -11.593  12.806  66.784  1.00  0.00    -0.370 C  
BRANCH  20  21
HETATM   21  C   UNL     1     -11.329  14.042  67.624  1.00  0.00    -0.336 A  
HETATM   22  C   UNL     1     -12.049  14.261  68.808  1.00  0.00    -0.300 A  
HETATM   23  C   UNL     1     -11.879  15.437  69.536  1.00  0.00    -0.370 A  
HETATM   24  C   UNL     1     -10.981  16.407  69.095  1.00  0.00    -0.324 A  
HETATM   25  C   UNL     1     -10.243  16.196  67.932  1.00  0.00    -0.261 A  
HETATM   26  C   UNL     1     -10.413  15.018  67.199  1.00  0.00    -0.277 A  
ENDBRANCH  20  21
ENDBRANCH  18  20
ENDBRANCH  17  18
ENDBRANCH  16  17
ENDBRANCH  15  16
ENDBRANCH  13  15
ENDBRANCH  10  13
BRANCH  12  27
HETATM   27  C   UNL     1      -7.877   6.350  68.262  1.00  0.00    -0.105 A  
HETATM   28  C   UNL     1      -6.314   6.350  66.405  1.00  0.00    -0.042 A  
HETATM   29  O   UNL     1      -9.824   3.168  66.428  1.00  0.00     0.070 OA 
HETATM   30  C   UNL     1      -8.577   5.288  67.656  1.00  0.00    -0.104 A  
HETATM   31  O   UNL     1      -8.433   3.214  64.733  1.00  0.00    -0.096 OA 
HETATM   32  C   UNL     1      -8.134   4.762  66.437  1.00  0.00    -0.107 A  
HETATM   33  C   UNL     1      -6.735   6.862  67.630  1.00  0.00    -0.067 A  
HETATM   34  C   UNL     1      -7.012   5.302  65.801  1.00  0.00    -0.066 A  
HETATM   35  N   UNL     1      -8.848   3.635  65.823  1.00  0.00    -0.122 N  
ENDBRANCH  12  27
ENDBRANCH   3   5
ENDBRANCH   2   3
TORSDOF 10
ENDMDL
MODEL      239
REMARK 921   NORMALIZED FREE ENERGY PREDICTED BY IDOCK:   -3.36 KCAL/MOL
REMARK 922        TOTAL FREE ENERGY PREDICTED BY IDOCK:   -6.84 KCAL/MOL
REMARK 923 INTER-LIGAND FREE ENERGY PREDICTED BY IDOCK:   -5.90 KCAL/MOL
REMARK 924 INTRA-LIGAND FREE ENERGY PREDICTED BY IDOCK:   -0.94 KCAL/MOL
REMARK 927      BINDING AFFINITY PREDICTED BY RF-SCORE:    0.00 PKD
ROOT
HETATM    1  C   UNL     1      -6.548   3.206  72.527  1.00  0.00    -0.018 C  
HETATM    2  O   UNL     1      -6.816   4.246  71.580  1.00  0.00    -0.029 OA 
ENDROOT
BRANCH   2   3
HETATM    3  C   UNL     1      -8.023   4.108  70.973  1.00  0.00    -0.071 C  
HETATM    4  O   UNL     1      -8.329   3.188  70.230  1.00  0.00    -0.048 OA 
BRANCH   3   5
HETATM    5  C   UNL     1      -8.918   5.251  71.288  1.00  0.00    -0.158 C  
HETATM    6  C   UNL     1     -10.044   5.056  72.016  1.00  0.00    -0.196 C  
HETATM    7  C   UNL     1     -10.479   3.767  72.671  1.00  0.00    -0.194 C  
HETATM    8  N   UNL     1     -10.933   6.102  72.193  1.00  0.00    -0.249 NA 
HETATM    9  C   UNL     1     -10.869   7.315  71.534  1.00  0.00    -0.224 C  
HETATM   10  C   UNL     1      -9.788   7.613  70.775  1.00  0.00    -0.177 C  
HETATM   11  C   UNL     1     -12.048   8.234  71.760  1.00  0.00    -0.364 C  
HETATM   12  C   UNL     1      -8.608   6.627  70.675  1.00  0.00    -0.142 C  
BRANCH  10  13
HETATM   13  C   UNL     1      -9.690   8.949  70.120  1.00  0.00    -0.179 C  
HETATM   14  O   UNL     1      -8.758   9.731  70.237  1.00  0.00    -0.209 OA 
BRANCH  13  15
HETATM   15  O   UNL     1     -10.688   9.077  69.211  1.00  0.00    -0.227 OA 
BRANCH  15  16
HETATM   16  C   UNL     1     -11.057  10.442  68.956  1.00  0.00    -0.248 C  
BRANCH  16  17
HETATM   17  C   UNL     1     -11.001  10.613  67.430  1.00  0.00    -0.298 C  
BRANCH  17  18
HETATM   18  N   UNL     1     -11.363  11.929  66.888  1.00  0.00    -0.344 NA 
HETATM   19  C   UNL     1     -11.527  12.904  67.969  1.00  0.00    -0.319 C  
BRANCH  18  20
HETATM   20  C   UNL     1     -10.306  12.394  65.956  1.00  0.00    -0.251 C  
BRANCH  20  21
HETATM   21  C   UNL     1      -8.950  12.546  66.621  1.00  0.00    -0.174 A  
HETATM   22  C   UNL     1      -8.190  11.413  66.947  1.00  0.00    -0.157 A  
HETATM   23  C   UNL     1      -6.987  11.539  67.639  1.00  0.00    -0.091 A  
HETATM   24  C   UNL     1      -6.523  12.800  68.008  1.00  0.00    -0.099 A  
HETATM   25  C   UNL     1      -7.256  13.937  67.673  1.00  0.00    -0.187 A  
HETATM   26  C   UNL     1      -8.463  13.814  66.980  1.00  0.00    -0.150 A  
ENDBRANCH  20  21
ENDBRANCH  18  20
ENDBRANCH  17  18
ENDBRANCH  16  17
ENDBRANCH  15  16
ENDBRANCH  13  15
ENDBRANCH  10  13
BRANCH  12  27
HETATM   27  C   UNL     1      -8.098   6.499  69.236  1.00  0.00    -0.112 A  
HETATM   28  C   UNL     1      -6.385   6.896  67.562  1.00  0.00    -0.045 A  
HETATM   29  O   UNL     1     -10.398   4.748  66.250  1.00  0.00    -0.265 OA 
HETATM   30  C   UNL     1      -8.916   5.923  68.244  1.00  0.00    -0.112 A  
HETATM   31  O   UNL     1      -8.862   5.159  64.740  1.00  0.00    -0.152 OA 
HETATM   32  C   UNL     1      -8.458   5.830  66.925  1.00  0.00    -0.108 A  
HETATM   33  C   UNL     1      -6.826   6.969  68.883  1.00  0.00    -0.072 A  
HETATM   34  C   UNL     1      -7.199   6.331  66.578  1.00  0.00    -0.073 A  
HETATM   35  N   UNL     1      -9.299   5.201  65.899  1.00  0.00    -0.157 N  
ENDBRANCH  12  27
ENDBRANCH   3   5
ENDBRANCH   2   3
TORSDOF 10
ENDMDL
MODEL      240
REMARK 921   NORMALIZED FREE ENERGY PREDICTED BY IDOCK:   -3.35 KCAL/MOL
REMARK 922        TOTAL FREE ENERGY PREDICTED BY IDOCK:   -6.83 KCAL/MOL
REMARK 923 INTER-LIGAND FREE ENERGY PREDICTED BY IDOCK:   -6.95 KCAL/MOL
REMARK 924 INTRA-LIGAND FREE ENERGY PREDICTED BY IDOCK:    0.12 KCAL/MOL
REMARK 927      BINDING AFFINITY PREDICTED BY RF-SCORE:    0.00 PKD
ROOT
HETATM    1  C   UNL     1      -6.492   7.690  71.544  1.00  0.00    -0.038 C  
HETATM    2  O   UNL     1      -7.787   7.772  72.150  1.00  0.00    -0.094 OA 
ENDROOT
BRANCH   2   3
HETATM    3  C   UNL     1      -8.772   7.276  71.358  1.00  0.00    -0.126 C  
HETATM    4  O   UNL     1      -8.599   6.489  70.439  1.00  0.00    -0.142 OA 
BRANCH   3   5
HETATM    5  C   UNL     1     -10.093   7.851  71.718  1.00  0.00    -0.236 C  
HETATM    6  C   UNL     1     -11.003   7.105  72.389  1.00  0.00    -0.251 C  
HETATM    7  C   UNL     1     -10.795   5.714  72.938  1.00  0.00    -0.303 C  
HETATM    8  N   UNL     1     -12.274   7.608  72.605  1.00  0.00    -0.100 NA 
HETATM    9  C   UNL     1     -12.777   8.761  72.033  1.00  0.00    -0.387 C  
HETATM   10  C   UNL     1     -11.954   9.581  71.336  1.00  0.00    -0.464 C  
HETATM   11  C   UNL     1     -14.246   9.015  72.279  1.00  0.00    -0.432 C  
HETATM   12  C   UNL     1     -10.452   9.259  71.212  1.00  0.00    -0.408 C  
BRANCH  10  13
HETATM   13  C   UNL     1     -12.483  10.858  70.778  1.00  0.00    -0.394 C  
HETATM   14  O   UNL     1     -13.176  10.963  69.777  1.00  0.00     0.031 OA 
BRANCH  13  15
HETATM   15  O   UNL     1     -12.257  11.861  71.662  1.00  0.00     0.070 OA 
BRANCH  15  16
HETATM   16  C   UNL     1     -13.271  12.880  71.642  1.00  0.00    -0.324 C  
BRANCH  16  17
HETATM   17  C   UNL     1     -12.565  14.163  71.174  1.00  0.00    -0.367 C  
BRANCH  17  18
HETATM   18  N   UNL     1     -12.707  14.529  69.759  1.00  0.00    -0.127 NA 
HETATM   19  C   UNL     1     -11.812  15.639  69.422  1.00  0.00    -0.375 C  
BRANCH  18  20
HETATM   20  C   UNL     1     -12.387  13.358  68.906  1.00  0.00     0.048 C  
BRANCH  20  21
HETATM   21  C   UNL     1     -11.032  13.463  68.230  1.00  0.00    -0.282 A  
HETATM   22  C   UNL     1     -10.862  13.013  66.912  1.00  0.00    -0.282 A  
HETATM   23  C   UNL     1      -9.602  13.020  66.315  1.00  0.00    -0.243 A  
HETATM   24  C   UNL     1      -8.497  13.486  67.025  1.00  0.00    -0.137 A  
HETATM   25  C   UNL     1      -8.653  13.955  68.329  1.00  0.00    -0.177 A  
HETATM   26  C   UNL     1      -9.915  13.948  68.930  1.00  0.00    -0.077 A  
ENDBRANCH  20  21
ENDBRANCH  18  20
ENDBRANCH  17  18
ENDBRANCH  16  17
ENDBRANCH  15  16
ENDBRANCH  13  15
ENDBRANCH  10  13
BRANCH  12  27
HETATM   27  C   UNL     1      -9.940   9.492  69.787  1.00  0.00    -0.234 A  
HETATM   28  C   UNL     1     -10.282   9.425  67.385  1.00  0.00    -0.298 A  
HETATM   29  O   UNL     1      -6.077  10.837  69.048  1.00  0.00    -0.041 OA 
HETATM   30  C   UNL     1      -8.615   9.924  69.574  1.00  0.00    -0.194 A  
HETATM   31  O   UNL     1      -6.386  10.724  66.880  1.00  0.00    -0.070 OA 
HETATM   32  C   UNL     1      -8.141  10.112  68.271  1.00  0.00    -0.102 A  
HETATM   33  C   UNL     1     -10.768   9.260  68.681  1.00  0.00    -0.180 A  
HETATM   34  C   UNL     1      -8.968   9.847  67.174  1.00  0.00    -0.150 A  
HETATM   35  N   UNL     1      -6.771  10.592  68.051  1.00  0.00    -0.064 N  
ENDBRANCH  12  27
ENDBRANCH   3   5
ENDBRANCH   2   3
TORSDOF 10
ENDMDL
MODEL      241
REMARK 921   NORMALIZED FREE ENERGY PREDICTED BY IDOCK:   -3.32 KCAL/MOL
REMARK 922        TOTAL FREE ENERGY PREDICTED BY IDOCK:   -6.77 KCAL/MOL
REMARK 923 INTER-LIGAND FREE ENERGY PREDICTED BY IDOCK:   -5.71 KCAL/MOL
REMARK 924 INTRA-LIGAND FREE ENERGY PREDICTED BY IDOCK:   -1.06 KCAL/MOL
REMARK 927      BINDING AFFINITY PREDICTED BY RF-SCORE:    0.00 PKD
ROOT
HETATM    1  C   UNL     1     -10.194  15.582  65.316  1.00  0.00    -0.346 C  
HETATM    2  O   UNL     1      -9.498  14.393  65.705  1.00  0.00    -0.194 OA 
ENDROOT
BRANCH   2   3
HETATM    3  C   UNL     1     -10.065  13.264  65.207  1.00  0.00    -0.239 C  
HETATM    4  O   UNL     1     -10.137  12.985  64.019  1.00  0.00    -0.347 OA 
BRANCH   3   5
HETATM    5  C   UNL     1     -10.635  12.424  66.291  1.00  0.00    -0.277 C  
HETATM    6  C   UNL     1     -11.872  12.684  66.778  1.00  0.00    -0.370 C  
HETATM    7  C   UNL     1     -12.842  13.719  66.260  1.00  0.00    -0.081 C  
HETATM    8  N   UNL     1     -12.339  11.976  67.871  1.00  0.00    -0.165 NA 
HETATM    9  C   UNL     1     -11.576  11.124  68.648  1.00  0.00    -0.315 C  
HETATM   10  C   UNL     1     -10.321  10.798  68.255  1.00  0.00    -0.195 C  
HETATM   11  C   UNL     1     -12.258  10.600  69.891  1.00  0.00    -0.346 C  
HETATM   12  C   UNL     1      -9.753  11.335  66.927  1.00  0.00    -0.215 C  
BRANCH  10  13
HETATM   13  C   UNL     1      -9.525   9.827  69.058  1.00  0.00    -0.173 C  
HETATM   14  O   UNL     1      -9.001  10.058  70.138  1.00  0.00    -0.173 OA 
BRANCH  13  15
HETATM   15  O   UNL     1      -9.646   8.591  68.516  1.00  0.00    -0.148 OA 
BRANCH  15  16
HETATM   16  C   UNL     1      -8.567   7.706  68.860  1.00  0.00    -0.129 C  
BRANCH  16  17
HETATM   17  C   UNL     1      -8.033   7.159  67.527  1.00  0.00    -0.113 C  
BRANCH  17  18
HETATM   18  N   UNL     1      -8.318   5.753  67.216  1.00  0.00    -0.105 NA 
HETATM   19  C   UNL     1      -8.639   5.594  65.795  1.00  0.00    -0.148 C  
BRANCH  18  20
HETATM   20  C   UNL     1      -7.140   4.917  67.554  1.00  0.00    -0.066 C  
BRANCH  20  21
HETATM   21  C   UNL     1      -7.483   3.729  68.434  1.00  0.00    -0.054 A  
HETATM   22  C   UNL     1      -8.757   3.619  69.011  1.00  0.00    -0.136 A  
HETATM   23  C   UNL     1      -9.051   2.581  69.893  1.00  0.00    -0.179 A  
HETATM   24  C   UNL     1      -8.078   1.632  70.203  1.00  0.00    -0.055 A  
HETATM   25  C   UNL     1      -6.814   1.716  69.622  1.00  0.00    -0.033 A  
HETATM   26  C   UNL     1      -6.516   2.756  68.738  1.00  0.00    -0.029 A  
ENDBRANCH  20  21
ENDBRANCH  18  20
ENDBRANCH  17  18
ENDBRANCH  16  17
ENDBRANCH  15  16
ENDBRANCH  13  15
ENDBRANCH  10  13
BRANCH  12  27
HETATM   27  C   UNL     1      -8.304  11.805  67.081  1.00  0.00    -0.168 A  
HETATM   28  C   UNL     1      -5.943  11.563  66.570  1.00  0.00    -0.101 A  
HETATM   29  O   UNL     1      -7.292  15.008  69.529  1.00  0.00    -0.185 OA 
HETATM   30  C   UNL     1      -7.995  12.879  67.940  1.00  0.00    -0.156 A  
HETATM   31  O   UNL     1      -5.159  14.745  69.096  1.00  0.00    -0.087 OA 
HETATM   32  C   UNL     1      -6.667  13.290  68.098  1.00  0.00    -0.114 A  
HETATM   33  C   UNL     1      -7.266  11.165  66.389  1.00  0.00    -0.094 A  
HETATM   34  C   UNL     1      -5.636  12.623  67.427  1.00  0.00    -0.087 A  
HETATM   35  N   UNL     1      -6.351  14.428  68.970  1.00  0.00    -0.092 N  
ENDBRANCH  12  27
ENDBRANCH   3   5
ENDBRANCH   2   3
TORSDOF 10
ENDMDL
MODEL      242
REMARK 921   NORMALIZED FREE ENERGY PREDICTED BY IDOCK:   -3.30 KCAL/MOL
REMARK 922        TOTAL FREE ENERGY PREDICTED BY IDOCK:   -6.74 KCAL/MOL
REMARK 923 INTER-LIGAND FREE ENERGY PREDICTED BY IDOCK:   -6.79 KCAL/MOL
REMARK 924 INTRA-LIGAND FREE ENERGY PREDICTED BY IDOCK:    0.05 KCAL/MOL
REMARK 927      BINDING AFFINITY PREDICTED BY RF-SCORE:    0.00 PKD
ROOT
HETATM    1  C   UNL     1      -6.435   6.922  70.745  1.00  0.00    -0.048 C  
HETATM    2  O   UNL     1      -5.921   8.059  70.044  1.00  0.00    -0.023 OA 
ENDROOT
BRANCH   2   3
HETATM    3  C   UNL     1      -6.532   9.218  70.400  1.00  0.00    -0.064 C  
HETATM    4  O   UNL     1      -6.673   9.608  71.550  1.00  0.00    -0.316 OA 
BRANCH   3   5
HETATM    5  C   UNL     1      -7.057   9.938  69.212  1.00  0.00    -0.069 C  
HETATM    6  C   UNL     1      -6.440  11.058  68.764  1.00  0.00    -0.051 C  
HETATM    7  C   UNL     1      -5.152  11.645  69.289  1.00  0.00    -0.048 C  
HETATM    8  N   UNL     1      -7.011  11.789  67.737  1.00  0.00    -0.087 NA 
HETATM    9  C   UNL     1      -8.278  11.580  67.226  1.00  0.00    -0.155 C  
HETATM   10  C   UNL     1      -8.987  10.491  67.609  1.00  0.00    -0.138 C  
HETATM   11  C   UNL     1      -8.751  12.614  66.230  1.00  0.00     0.182 C  
HETATM   12  C   UNL     1      -8.375   9.461  68.578  1.00  0.00    -0.118 C  
BRANCH  10  13
HETATM   13  C   UNL     1     -10.325  10.231  67.006  1.00  0.00    -0.243 C  
HETATM   14  O   UNL     1     -10.526   9.675  65.936  1.00  0.00    -0.138 OA 
BRANCH  13  15
HETATM   15  O   UNL     1     -11.290  10.513  67.915  1.00  0.00    -0.330 OA 
BRANCH  15  16
HETATM   16  C   UNL     1     -11.190  11.837  68.465  1.00  0.00    -0.252 C  
BRANCH  16  17
HETATM   17  C   UNL     1     -12.140  12.710  67.632  1.00  0.00    -0.103 C  
BRANCH  17  18
HETATM   18  N   UNL     1     -11.575  13.917  67.015  1.00  0.00    -0.349 NA 
HETATM   19  C   UNL     1     -12.177  14.154  65.700  1.00  0.00    -0.435 C  
BRANCH  18  20
HETATM   20  C   UNL     1     -11.821  15.088  67.891  1.00  0.00    -0.218 C  
BRANCH  20  21
HETATM   21  C   UNL     1     -10.601  15.975  68.060  1.00  0.00    -0.295 A  
HETATM   22  C   UNL     1      -9.322  15.408  68.165  1.00  0.00    -0.197 A  
HETATM   23  C   UNL     1      -8.208  16.207  68.413  1.00  0.00    -0.172 A  
HETATM   24  C   UNL     1      -8.355  17.586  68.550  1.00  0.00    -0.274 A  
HETATM   25  C   UNL     1      -9.616  18.168  68.428  1.00  0.00    -0.345 A  
HETATM   26  C   UNL     1     -10.736  17.368  68.181  1.00  0.00    -0.343 A  
ENDBRANCH  20  21
ENDBRANCH  18  20
ENDBRANCH  17  18
ENDBRANCH  16  17
ENDBRANCH  15  16
ENDBRANCH  13  15
ENDBRANCH  10  13
BRANCH  12  27
HETATM   27  C   UNL     1      -9.383   9.017  69.643  1.00  0.00    -0.169 A  
HETATM   28  C   UNL     1     -10.922   9.550  71.443  1.00  0.00    -0.415 A  
HETATM   29  O   UNL     1     -10.276   5.006  70.269  1.00  0.00    -0.253 OA 
HETATM   30  C   UNL     1      -9.642   7.646  69.844  1.00  0.00    -0.160 A  
HETATM   31  O   UNL     1     -11.624   5.501  71.926  1.00  0.00    -0.111 OA 
HETATM   32  C   UNL     1     -10.544   7.242  70.835  1.00  0.00    -0.220 A  
HETATM   33  C   UNL     1     -10.043   9.960  70.441  1.00  0.00    -0.258 A  
HETATM   34  C   UNL     1     -11.173   8.192  71.647  1.00  0.00    -0.314 A  
HETATM   35  N   UNL     1     -10.835   5.815  71.023  1.00  0.00    -0.261 N  
ENDBRANCH  12  27
ENDBRANCH   3   5
ENDBRANCH   2   3
TORSDOF 10
ENDMDL
MODEL      243
REMARK 921   NORMALIZED FREE ENERGY PREDICTED BY IDOCK:   -3.29 KCAL/MOL
REMARK 922        TOTAL FREE ENERGY PREDICTED BY IDOCK:   -6.73 KCAL/MOL
REMARK 923 INTER-LIGAND FREE ENERGY PREDICTED BY IDOCK:   -5.91 KCAL/MOL
REMARK 924 INTRA-LIGAND FREE ENERGY PREDICTED BY IDOCK:   -0.82 KCAL/MOL
REMARK 927      BINDING AFFINITY PREDICTED BY RF-SCORE:    0.00 PKD
ROOT
HETATM    1  C   UNL     1     -13.084   8.970  72.249  1.00  0.00    -0.445 C  
HETATM    2  O   UNL     1     -12.767   7.594  72.014  1.00  0.00    -0.292 OA 
ENDROOT
BRANCH   2   3
HETATM    3  C   UNL     1     -11.530   7.255  72.461  1.00  0.00    -0.281 C  
HETATM    4  O   UNL     1     -10.947   7.803  73.384  1.00  0.00    -0.327 OA 
BRANCH   3   5
HETATM    5  C   UNL     1     -10.947   6.156  71.650  1.00  0.00    -0.320 C  
HETATM    6  C   UNL     1     -10.602   4.983  72.235  1.00  0.00    -0.206 C  
HETATM    7  C   UNL     1     -10.843   4.592  73.673  1.00  0.00    -0.375 C  
HETATM    8  N   UNL     1      -9.944   4.017  71.494  1.00  0.00    -0.176 NA 
HETATM    9  C   UNL     1      -9.431   4.205  70.225  1.00  0.00    -0.181 C  
HETATM   10  C   UNL     1      -9.711   5.345  69.549  1.00  0.00    -0.238 C  
HETATM   11  C   UNL     1      -8.601   3.062  69.688  1.00  0.00    -0.114 C  
HETATM   12  C   UNL     1     -10.631   6.415  70.166  1.00  0.00    -0.294 C  
BRANCH  10  13
HETATM   13  C   UNL     1      -9.214   5.517  68.153  1.00  0.00    -0.109 C  
HETATM   14  O   UNL     1      -8.051   5.712  67.833  1.00  0.00    -0.100 OA 
BRANCH  13  15
HETATM   15  O   UNL     1     -10.207   5.214  67.283  1.00  0.00    -0.193 OA 
BRANCH  15  16
HETATM   16  C   UNL     1      -9.746   5.004  65.938  1.00  0.00    -0.166 C  
BRANCH  16  17
HETATM   17  C   UNL     1      -9.429   3.504  65.833  1.00  0.00    -0.138 C  
BRANCH  17  18
HETATM   18  N   UNL     1      -9.231   2.952  64.487  1.00  0.00    -0.130 NA 
HETATM   19  C   UNL     1      -9.567   3.949  63.467  1.00  0.00    -0.147 C  
BRANCH  18  20
HETATM   20  C   UNL     1      -7.817   2.532  64.323  1.00  0.00    -0.077 C  
BRANCH  20  21
HETATM   21  C   UNL     1      -6.889   3.680  63.972  1.00  0.00    -0.044 A  
HETATM   22  C   UNL     1      -6.216   4.381  64.983  1.00  0.00    -0.034 A  
HETATM   23  C   UNL     1      -5.435   5.494  64.678  1.00  0.00    -0.016 A  
HETATM   24  C   UNL     1      -5.310   5.917  63.356  1.00  0.00    -0.017 A  
HETATM   25  C   UNL     1      -5.957   5.219  62.337  1.00  0.00    -0.014 A  
HETATM   26  C   UNL     1      -6.741   4.104  62.641  1.00  0.00    -0.030 A  
ENDBRANCH  20  21
ENDBRANCH  18  20
ENDBRANCH  17  18
ENDBRANCH  16  17
ENDBRANCH  15  16
ENDBRANCH  13  15
ENDBRANCH  10  13
BRANCH  12  27
HETATM   27  C   UNL     1     -10.083   7.828  69.947  1.00  0.00    -0.203 A  
HETATM   28  C   UNL     1     -10.301  10.051  68.996  1.00  0.00    -0.223 A  
HETATM   29  O   UNL     1      -6.378   8.989  71.432  1.00  0.00    -0.071 OA 
HETATM   30  C   UNL     1      -8.811   8.179  70.443  1.00  0.00    -0.141 A  
HETATM   31  O   UNL     1      -6.569  10.976  70.524  1.00  0.00    -0.299 OA 
HETATM   32  C   UNL     1      -8.302   9.463  70.220  1.00  0.00    -0.195 A  
HETATM   33  C   UNL     1     -10.824   8.782  69.236  1.00  0.00    -0.094 A  
HETATM   34  C   UNL     1      -9.038  10.396  69.482  1.00  0.00    -0.129 A  
HETATM   35  N   UNL     1      -6.990   9.835  70.764  1.00  0.00    -0.090 N  
ENDBRANCH  12  27
ENDBRANCH   3   5
ENDBRANCH   2   3
TORSDOF 10
ENDMDL
MODEL      244
REMARK 921   NORMALIZED FREE ENERGY PREDICTED BY IDOCK:   -3.28 KCAL/MOL
REMARK 922        TOTAL FREE ENERGY PREDICTED BY IDOCK:   -6.72 KCAL/MOL
REMARK 923 INTER-LIGAND FREE ENERGY PREDICTED BY IDOCK:   -5.17 KCAL/MOL
REMARK 924 INTRA-LIGAND FREE ENERGY PREDICTED BY IDOCK:   -1.55 KCAL/MOL
REMARK 927      BINDING AFFINITY PREDICTED BY RF-SCORE:    0.00 PKD
ROOT
HETATM    1  C   UNL     1      -7.436   2.752  68.880  1.00  0.00    -0.048 C  
HETATM    2  O   UNL     1      -7.415   2.867  70.306  1.00  0.00    -0.043 OA 
ENDROOT
BRANCH   2   3
HETATM    3  C   UNL     1      -7.103   4.118  70.730  1.00  0.00    -0.033 C  
HETATM    4  O   UNL     1      -5.966   4.541  70.881  1.00  0.00    -0.016 OA 
BRANCH   3   5
HETATM    5  C   UNL     1      -8.325   4.904  71.038  1.00  0.00    -0.109 C  
HETATM    6  C   UNL     1      -9.276   4.395  71.858  1.00  0.00    -0.129 C  
HETATM    7  C   UNL     1      -9.201   3.095  72.623  1.00  0.00    -0.131 C  
HETATM    8  N   UNL     1     -10.465   5.081  72.034  1.00  0.00    -0.215 NA 
HETATM    9  C   UNL     1     -10.861   6.181  71.298  1.00  0.00    -0.266 C  
HETATM   10  C   UNL     1      -9.989   6.769  70.444  1.00  0.00    -0.193 C  
HETATM   11  C   UNL     1     -12.274   6.653  71.552  1.00  0.00    -0.391 C  
HETATM   12  C   UNL     1      -8.545   6.246  70.319  1.00  0.00    -0.138 C  
BRANCH  10  13
HETATM   13  C   UNL     1     -10.396   7.996  69.701  1.00  0.00    -0.220 C  
HETATM   14  O   UNL     1     -11.391   8.104  68.999  1.00  0.00     0.301 OA 
BRANCH  13  15
HETATM   15  O   UNL     1      -9.615   9.034  70.088  1.00  0.00    -0.172 OA 
BRANCH  15  16
HETATM   16  C   UNL     1      -9.819  10.225  69.309  1.00  0.00    -0.228 C  
BRANCH  16  17
HETATM   17  C   UNL     1      -8.415  10.761  68.989  1.00  0.00    -0.133 C  
BRANCH  17  18
HETATM   18  N   UNL     1      -8.010  10.779  67.578  1.00  0.00    -0.109 NA 
HETATM   19  C   UNL     1      -6.558  10.622  67.456  1.00  0.00    -0.065 C  
BRANCH  18  20
HETATM   20  C   UNL     1      -8.690   9.681  66.849  1.00  0.00    -0.131 C  
BRANCH  20  21
HETATM   21  C   UNL     1      -8.937   9.998  65.385  1.00  0.00    -0.213 A  
HETATM   22  C   UNL     1      -9.833  11.015  65.022  1.00  0.00    -0.321 A  
HETATM   23  C   UNL     1     -10.136  11.251  63.683  1.00  0.00    -0.432 A  
HETATM   24  C   UNL     1      -9.540  10.480  62.686  1.00  0.00    -0.285 A  
HETATM   25  C   UNL     1      -8.633   9.479  63.030  1.00  0.00    -0.217 A  
HETATM   26  C   UNL     1      -8.328   9.239  64.372  1.00  0.00    -0.175 A  
ENDBRANCH  20  21
ENDBRANCH  18  20
ENDBRANCH  17  18
ENDBRANCH  16  17
ENDBRANCH  15  16
ENDBRANCH  13  15
ENDBRANCH  10  13
BRANCH  12  27
HETATM   27  C   UNL     1      -8.091   6.181  68.857  1.00  0.00    -0.108 A  
HETATM   28  C   UNL     1      -6.501   6.753  67.115  1.00  0.00    -0.046 A  
HETATM   29  O   UNL     1     -10.354   4.254  65.951  1.00  0.00    -0.219 OA 
HETATM   30  C   UNL     1      -8.897   5.541  67.894  1.00  0.00    -0.105 A  
HETATM   31  O   UNL     1      -8.932   4.822  64.380  1.00  0.00    -0.152 OA 
HETATM   32  C   UNL     1      -8.493   5.505  66.555  1.00  0.00    -0.113 A  
HETATM   33  C   UNL     1      -6.886   6.771  68.454  1.00  0.00    -0.074 A  
HETATM   34  C   UNL     1      -7.303   6.125  66.159  1.00  0.00    -0.080 A  
HETATM   35  N   UNL     1      -9.318   4.811  65.558  1.00  0.00    -0.156 N  
ENDBRANCH  12  27
ENDBRANCH   3   5
ENDBRANCH   2   3
TORSDOF 10
ENDMDL
MODEL      245
REMARK 921   NORMALIZED FREE ENERGY PREDICTED BY IDOCK:   -3.24 KCAL/MOL
REMARK 922        TOTAL FREE ENERGY PREDICTED BY IDOCK:   -6.66 KCAL/MOL
REMARK 923 INTER-LIGAND FREE ENERGY PREDICTED BY IDOCK:   -4.79 KCAL/MOL
REMARK 924 INTRA-LIGAND FREE ENERGY PREDICTED BY IDOCK:   -1.87 KCAL/MOL
REMARK 927      BINDING AFFINITY PREDICTED BY RF-SCORE:    0.00 PKD
ROOT
HETATM    1  C   UNL     1     -10.686  10.138  66.660  1.00  0.00    -0.086 C  
HETATM    2  O   UNL     1     -10.364   8.947  67.386  1.00  0.00    -0.232 OA 
ENDROOT
BRANCH   2   3
HETATM    3  C   UNL     1      -9.920   9.200  68.644  1.00  0.00    -0.170 C  
HETATM    4  O   UNL     1      -9.191  10.131  68.952  1.00  0.00    -0.154 OA 
BRANCH   3   5
HETATM    5  C   UNL     1     -10.392   8.168  69.601  1.00  0.00    -0.221 C  
HETATM    6  C   UNL     1     -11.136   8.522  70.676  1.00  0.00    -0.252 C  
HETATM    7  C   UNL     1     -11.661   9.903  70.990  1.00  0.00    -0.466 C  
HETATM    8  N   UNL     1     -11.462   7.570  71.626  1.00  0.00    -0.254 NA 
HETATM    9  C   UNL     1     -10.939   6.292  71.678  1.00  0.00    -0.261 C  
HETATM   10  C   UNL     1     -10.176   5.835  70.655  1.00  0.00    -0.280 C  
HETATM   11  C   UNL     1     -11.309   5.492  72.906  1.00  0.00    -0.348 C  
HETATM   12  C   UNL     1      -9.923   6.714  69.416  1.00  0.00    -0.169 C  
BRANCH  10  13
HETATM   13  C   UNL     1      -9.670   4.433  70.681  1.00  0.00    -0.213 C  
HETATM   14  O   UNL     1      -9.685   3.655  69.738  1.00  0.00    -0.185 OA 
BRANCH  13  15
HETATM   15  O   UNL     1      -9.000   4.219  71.840  1.00  0.00    -0.115 OA 
BRANCH  15  16
HETATM   16  C   UNL     1      -8.277   2.977  71.862  1.00  0.00    -0.058 C  
BRANCH  16  17
HETATM   17  C   UNL     1      -6.796   3.351  71.704  1.00  0.00    -0.027 C  
BRANCH  17  18
HETATM   18  N   UNL     1      -6.148   4.020  72.839  1.00  0.00    -0.015 NA 
HETATM   19  C   UNL     1      -5.142   3.145  73.448  1.00  0.00     0.000 C  
BRANCH  18  20
HETATM   20  C   UNL     1      -5.501   5.273  72.378  1.00  0.00    -0.017 C  
BRANCH  20  21
HETATM   21  C   UNL     1      -6.044   6.513  73.063  1.00  0.00    -0.054 A  
HETATM   22  C   UNL     1      -5.189   7.348  73.798  1.00  0.00    -0.045 A  
HETATM   23  C   UNL     1      -5.694   8.437  74.507  1.00  0.00    -0.108 A  
HETATM   24  C   UNL     1      -7.061   8.711  74.483  1.00  0.00    -0.173 A  
HETATM   25  C   UNL     1      -7.921   7.903  73.741  1.00  0.00    -0.240 A  
HETATM   26  C   UNL     1      -7.417   6.810  73.030  1.00  0.00    -0.086 A  
ENDBRANCH  20  21
ENDBRANCH  18  20
ENDBRANCH  17  18
ENDBRANCH  16  17
ENDBRANCH  15  16
ENDBRANCH  13  15
ENDBRANCH  10  13
BRANCH  12  27
HETATM   27  C   UNL     1      -8.461   6.648  68.964  1.00  0.00    -0.130 A  
HETATM   28  C   UNL     1      -6.101   7.004  69.403  1.00  0.00    -0.033 A  
HETATM   29  O   UNL     1      -7.406   5.369  65.153  1.00  0.00    -0.066 OA 
HETATM   30  C   UNL     1      -8.142   6.234  67.655  1.00  0.00    -0.117 A  
HETATM   31  O   UNL     1      -5.282   5.743  65.549  1.00  0.00    -0.009 OA 
HETATM   32  C   UNL     1      -6.808   6.199  67.237  1.00  0.00    -0.063 A  
HETATM   33  C   UNL     1      -7.426   7.017  69.834  1.00  0.00    -0.090 A  
HETATM   34  C   UNL     1      -5.785   6.599  68.104  1.00  0.00    -0.012 A  
HETATM   35  N   UNL     1      -6.475   5.737  65.884  1.00  0.00    -0.039 N  
ENDBRANCH  12  27
ENDBRANCH   3   5
ENDBRANCH   2   3
TORSDOF 10
ENDMDL
MODEL      246
REMARK 921   NORMALIZED FREE ENERGY PREDICTED BY IDOCK:   -3.24 KCAL/MOL
REMARK 922        TOTAL FREE ENERGY PREDICTED BY IDOCK:   -6.65 KCAL/MOL
REMARK 923 INTER-LIGAND FREE ENERGY PREDICTED BY IDOCK:   -6.31 KCAL/MOL
REMARK 924 INTRA-LIGAND FREE ENERGY PREDICTED BY IDOCK:   -0.34 KCAL/MOL
REMARK 927      BINDING AFFINITY PREDICTED BY RF-SCORE:    0.00 PKD
ROOT
HETATM    1  C   UNL     1     -12.526  10.194  71.507  1.00  0.00    -0.427 C  
HETATM    2  O   UNL     1     -11.384  10.522  70.710  1.00  0.00    -0.327 OA 
ENDROOT
BRANCH   2   3
HETATM    3  C   UNL     1     -10.946   9.478  69.961  1.00  0.00    -0.251 C  
HETATM    4  O   UNL     1     -11.629   8.520  69.632  1.00  0.00     0.220 OA 
BRANCH   3   5
HETATM    5  C   UNL     1      -9.506   9.620  69.627  1.00  0.00    -0.226 C  
HETATM    6  C   UNL     1      -8.558   9.288  70.536  1.00  0.00    -0.233 C  
HETATM    7  C   UNL     1      -8.791   8.660  71.890  1.00  0.00    -0.275 C  
HETATM    8  N   UNL     1      -7.226   9.544  70.260  1.00  0.00    -0.101 NA 
HETATM    9  C   UNL     1      -6.769  10.289  69.190  1.00  0.00    -0.058 C  
HETATM   10  C   UNL     1      -7.633  10.677  68.222  1.00  0.00    -0.097 C  
HETATM   11  C   UNL     1      -5.285  10.580  69.193  1.00  0.00    -0.038 C  
HETATM   12  C   UNL     1      -9.115  10.260  68.284  1.00  0.00    -0.139 C  
BRANCH  10  13
HETATM   13  C   UNL     1      -7.126  11.422  67.034  1.00  0.00    -0.138 C  
HETATM   14  O   UNL     1      -6.498  12.470  67.067  1.00  0.00    -0.148 OA 
BRANCH  13  15
HETATM   15  O   UNL     1      -7.280  10.657  65.926  1.00  0.00    -0.137 OA 
BRANCH  15  16
HETATM   16  C   UNL     1      -6.302   9.610  65.811  1.00  0.00    -0.075 C  
BRANCH  16  17
HETATM   17  C   UNL     1      -6.848   8.639  64.753  1.00  0.00    -0.073 C  
BRANCH  17  18
HETATM   18  N   UNL     1      -6.651   7.204  64.994  1.00  0.00    -0.046 NA 
HETATM   19  C   UNL     1      -5.316   6.787  64.556  1.00  0.00    -0.027 C  
BRANCH  18  20
HETATM   20  C   UNL     1      -6.813   6.913  66.439  1.00  0.00    -0.064 C  
BRANCH  20  21
HETATM   21  C   UNL     1      -7.591   5.638  66.708  1.00  0.00    -0.092 A  
HETATM   22  C   UNL     1      -8.436   5.103  65.724  1.00  0.00    -0.124 A  
HETATM   23  C   UNL     1      -9.224   3.986  65.995  1.00  0.00    -0.153 A  
HETATM   24  C   UNL     1      -9.172   3.383  67.250  1.00  0.00    -0.222 A  
HETATM   25  C   UNL     1      -8.323   3.891  68.232  1.00  0.00    -0.101 A  
HETATM   26  C   UNL     1      -7.533   5.012  67.964  1.00  0.00    -0.075 A  
ENDBRANCH  20  21
ENDBRANCH  18  20
ENDBRANCH  17  18
ENDBRANCH  16  17
ENDBRANCH  15  16
ENDBRANCH  13  15
ENDBRANCH  10  13
BRANCH  12  27
HETATM   27  C   UNL     1     -10.046  11.421  67.923  1.00  0.00    -0.198 A  
HETATM   28  C   UNL     1     -11.397  13.325  68.586  1.00  0.00    -0.324 A  
HETATM   29  O   UNL     1     -11.275  12.102  64.011  1.00  0.00    -0.330 OA 
HETATM   30  C   UNL     1     -10.462  11.606  66.589  1.00  0.00    -0.268 A  
HETATM   31  O   UNL     1     -12.530  13.789  64.634  1.00  0.00    -0.548 OA 
HETATM   32  C   UNL     1     -11.333  12.653  66.266  1.00  0.00    -0.329 A  
HETATM   33  C   UNL     1     -10.511  12.300  68.910  1.00  0.00    -0.131 A  
HETATM   34  C   UNL     1     -11.815  13.504  67.265  1.00  0.00    -0.427 A  
HETATM   35  N   UNL     1     -11.741  12.862  64.871  1.00  0.00    -0.331 N  
ENDBRANCH  12  27
ENDBRANCH   3   5
ENDBRANCH   2   3
TORSDOF 10
ENDMDL
MODEL      247
REMARK 921   NORMALIZED FREE ENERGY PREDICTED BY IDOCK:   -3.24 KCAL/MOL
REMARK 922        TOTAL FREE ENERGY PREDICTED BY IDOCK:   -6.65 KCAL/MOL
REMARK 923 INTER-LIGAND FREE ENERGY PREDICTED BY IDOCK:   -5.70 KCAL/MOL
REMARK 924 INTRA-LIGAND FREE ENERGY PREDICTED BY IDOCK:   -0.95 KCAL/MOL
REMARK 927      BINDING AFFINITY PREDICTED BY RF-SCORE:    0.00 PKD
ROOT
HETATM    1  C   UNL     1      -8.558  15.543  67.767  1.00  0.00    -0.152 C  
HETATM    2  O   UNL     1      -8.482  14.143  68.060  1.00  0.00    -0.151 OA 
ENDROOT
BRANCH   2   3
HETATM    3  C   UNL     1      -7.215  13.660  67.999  1.00  0.00    -0.130 C  
HETATM    4  O   UNL     1      -6.352  14.061  67.233  1.00  0.00    -0.295 OA 
BRANCH   3   5
HETATM    5  C   UNL     1      -7.018  12.540  68.954  1.00  0.00    -0.088 C  
HETATM    6  C   UNL     1      -6.193  12.685  70.018  1.00  0.00    -0.060 C  
HETATM    7  C   UNL     1      -5.480  13.949  70.437  1.00  0.00    -0.124 C  
HETATM    8  N   UNL     1      -5.920  11.595  70.826  1.00  0.00    -0.346 NA 
HETATM    9  C   UNL     1      -6.280  10.291  70.545  1.00  0.00    -0.116 C  
HETATM   10  C   UNL     1      -7.102  10.031  69.500  1.00  0.00    -0.091 C  
HETATM   11  C   UNL     1      -5.722   9.250  71.487  1.00  0.00    -0.069 C  
HETATM   12  C   UNL     1      -7.673  11.181  68.649  1.00  0.00    -0.135 C  
BRANCH  10  13
HETATM   13  C   UNL     1      -7.545   8.631  69.240  1.00  0.00    -0.094 C  
HETATM   14  O   UNL     1      -6.878   7.766  68.692  1.00  0.00    -0.059 OA 
BRANCH  13  15
HETATM   15  O   UNL     1      -8.713   8.402  69.888  1.00  0.00    -0.132 OA 
BRANCH  15  16
HETATM   16  C   UNL     1      -9.827   8.193  69.004  1.00  0.00    -0.176 C  
BRANCH  16  17
HETATM   17  C   UNL     1     -10.805   7.288  69.768  1.00  0.00    -0.235 C  
BRANCH  17  18
HETATM   18  N   UNL     1     -11.101   5.974  69.183  1.00  0.00    -0.370 NA 
HETATM   19  C   UNL     1     -10.834   5.981  67.742  1.00  0.00    -0.290 C  
BRANCH  18  20
HETATM   20  C   UNL     1     -10.266   4.937  69.837  1.00  0.00    -0.229 C  
BRANCH  20  21
HETATM   21  C   UNL     1      -9.288   4.271  68.887  1.00  0.00    -0.222 A  
HETATM   22  C   UNL     1      -8.090   4.913  68.540  1.00  0.00    -0.085 A  
HETATM   23  C   UNL     1      -7.229   4.352  67.598  1.00  0.00    -0.068 A  
HETATM   24  C   UNL     1      -7.550   3.136  66.997  1.00  0.00    -0.075 A  
HETATM   25  C   UNL     1      -8.727   2.475  67.347  1.00  0.00    -0.138 A  
HETATM   26  C   UNL     1      -9.592   3.036  68.290  1.00  0.00    -0.125 A  
ENDBRANCH  20  21
ENDBRANCH  18  20
ENDBRANCH  17  18
ENDBRANCH  16  17
ENDBRANCH  15  16
ENDBRANCH  13  15
ENDBRANCH  10  13
BRANCH  12  27
HETATM   27  C   UNL     1      -7.622  10.857  67.152  1.00  0.00    -0.109 A  
HETATM   28  C   UNL     1      -6.371  10.206  65.177  1.00  0.00    -0.121 A  
HETATM   29  O   UNL     1     -10.998  11.125  64.742  1.00  0.00    -0.260 OA 
HETATM   30  C   UNL     1      -8.781  10.984  66.361  1.00  0.00    -0.174 A  
HETATM   31  O   UNL     1      -9.843  10.585  62.959  1.00  0.00    -0.315 OA 
HETATM   32  C   UNL     1      -8.726  10.712  64.990  1.00  0.00    -0.176 A  
HETATM   33  C   UNL     1      -6.424  10.452  66.548  1.00  0.00    -0.089 A  
HETATM   34  C   UNL     1      -7.518  10.338  64.391  1.00  0.00    -0.084 A  
HETATM   35  N   UNL     1      -9.942  10.814  64.173  1.00  0.00    -0.319 N  
ENDBRANCH  12  27
ENDBRANCH   3   5
ENDBRANCH   2   3
TORSDOF 10
ENDMDL
MODEL      248
REMARK 921   NORMALIZED FREE ENERGY PREDICTED BY IDOCK:   -3.24 KCAL/MOL
REMARK 922        TOTAL FREE ENERGY PREDICTED BY IDOCK:   -6.65 KCAL/MOL
REMARK 923 INTER-LIGAND FREE ENERGY PREDICTED BY IDOCK:   -6.91 KCAL/MOL
REMARK 924 INTRA-LIGAND FREE ENERGY PREDICTED BY IDOCK:    0.26 KCAL/MOL
REMARK 927      BINDING AFFINITY PREDICTED BY RF-SCORE:    0.00 PKD
ROOT
HETATM    1  C   UNL     1      -7.339  14.094  68.847  1.00  0.00    -0.122 C  
HETATM    2  O   UNL     1      -8.031  13.023  68.195  1.00  0.00    -0.135 OA 
ENDROOT
BRANCH   2   3
HETATM    3  C   UNL     1      -7.190  12.115  67.637  1.00  0.00    -0.123 C  
HETATM    4  O   UNL     1      -6.357  12.370  66.780  1.00  0.00    -0.139 OA 
BRANCH   3   5
HETATM    5  C   UNL     1      -7.443  10.750  68.166  1.00  0.00    -0.091 C  
HETATM    6  C   UNL     1      -6.475  10.091  68.847  1.00  0.00    -0.048 C  
HETATM    7  C   UNL     1      -5.126  10.639  69.248  1.00  0.00    -0.038 C  
HETATM    8  N   UNL     1      -6.679   8.775  69.222  1.00  0.00    -0.049 NA 
HETATM    9  C   UNL     1      -7.734   7.987  68.805  1.00  0.00    -0.108 C  
HETATM   10  C   UNL     1      -8.757   8.544  68.112  1.00  0.00    -0.142 C  
HETATM   11  C   UNL     1      -7.651   6.532  69.204  1.00  0.00    -0.100 C  
HETATM   12  C   UNL     1      -8.773  10.057  67.823  1.00  0.00    -0.125 C  
BRANCH  10  13
HETATM   13  C   UNL     1      -9.927   7.706  67.722  1.00  0.00    -0.174 C  
HETATM   14  O   UNL     1     -10.458   7.697  66.621  1.00  0.00    -0.281 OA 
BRANCH  13  15
HETATM   15  O   UNL     1     -10.179   6.804  68.701  1.00  0.00    -0.160 OA 
BRANCH  15  16
HETATM   16  C   UNL     1     -11.397   7.065  69.420  1.00  0.00    -0.042 C  
BRANCH  16  17
HETATM   17  C   UNL     1     -10.985   7.869  70.662  1.00  0.00    -0.245 C  
BRANCH  17  18
HETATM   18  N   UNL     1     -11.832   7.741  71.855  1.00  0.00    -0.285 NA 
HETATM   19  C   UNL     1     -13.165   7.252  71.491  1.00  0.00    -0.379 C  
BRANCH  18  20
HETATM   20  C   UNL     1     -11.204   6.801  72.815  1.00  0.00    -0.231 C  
BRANCH  20  21
HETATM   21  C   UNL     1      -9.736   7.095  73.066  1.00  0.00    -0.216 A  
HETATM   22  C   UNL     1      -8.753   6.567  72.216  1.00  0.00    -0.130 A  
HETATM   23  C   UNL     1      -7.400   6.755  72.492  1.00  0.00    -0.090 A  
HETATM   24  C   UNL     1      -7.011   7.481  73.616  1.00  0.00    -0.098 A  
HETATM   25  C   UNL     1      -7.977   8.029  74.459  1.00  0.00    -0.291 A  
HETATM   26  C   UNL     1      -9.334   7.841  74.186  1.00  0.00     0.049 A  
ENDBRANCH  20  21
ENDBRANCH  18  20
ENDBRANCH  17  18
ENDBRANCH  16  17
ENDBRANCH  15  16
ENDBRANCH  13  15
ENDBRANCH  10  13
BRANCH  12  27
HETATM   27  C   UNL     1      -9.207  10.354  66.384  1.00  0.00    -0.187 A  
HETATM   28  C   UNL     1      -8.819  10.212  63.993  1.00  0.00    -0.247 A  
HETATM   29  O   UNL     1     -12.659  12.512  65.545  1.00  0.00    -0.642 OA 
HETATM   30  C   UNL     1     -10.370  11.111  66.138  1.00  0.00    -0.302 A  
HETATM   31  O   UNL     1     -12.268  12.418  63.390  1.00  0.00    -0.520 OA 
HETATM   32  C   UNL     1     -10.751  11.402  64.824  1.00  0.00    -0.298 A  
HETATM   33  C   UNL     1      -8.448   9.897  65.299  1.00  0.00    -0.158 A  
HETATM   34  C   UNL     1      -9.968  10.968  63.749  1.00  0.00    -0.404 A  
HETATM   35  N   UNL     1     -11.980  12.164  64.569  1.00  0.00    -0.358 N  
ENDBRANCH  12  27
ENDBRANCH   3   5
ENDBRANCH   2   3
TORSDOF 10
ENDMDL
MODEL      249
REMARK 921   NORMALIZED FREE ENERGY PREDICTED BY IDOCK:   -3.22 KCAL/MOL
REMARK 922        TOTAL FREE ENERGY PREDICTED BY IDOCK:   -6.62 KCAL/MOL
REMARK 923 INTER-LIGAND FREE ENERGY PREDICTED BY IDOCK:   -6.29 KCAL/MOL
REMARK 924 INTRA-LIGAND FREE ENERGY PREDICTED BY IDOCK:   -0.33 KCAL/MOL
REMARK 927      BINDING AFFINITY PREDICTED BY RF-SCORE:    0.00 PKD
ROOT
HETATM    1  C   UNL     1     -13.202  11.684  63.460  1.00  0.00     0.419 C  
HETATM    2  O   UNL     1     -12.874  12.814  64.276  1.00  0.00    -0.689 OA 
ENDROOT
BRANCH   2   3
HETATM    3  C   UNL     1     -11.535  12.988  64.420  1.00  0.00    -0.365 C  
HETATM    4  O   UNL     1     -10.680  12.351  63.823  1.00  0.00    -0.388 OA 
BRANCH   3   5
HETATM    5  C   UNL     1     -11.232  14.026  65.438  1.00  0.00    -0.319 C  
HETATM    6  C   UNL     1     -11.164  15.332  65.084  1.00  0.00    -0.370 C  
HETATM    7  C   UNL     1     -11.473  15.911  63.724  1.00  0.00     0.786 C  
HETATM    8  N   UNL     1     -10.757  16.272  66.014  1.00  0.00    -0.262 NA 
HETATM    9  C   UNL     1     -10.229  15.979  67.257  1.00  0.00    -0.277 C  
HETATM   10  C   UNL     1     -10.243  14.703  67.710  1.00  0.00    -0.229 C  
HETATM   11  C   UNL     1      -9.694  17.165  68.027  1.00  0.00    -0.274 C  
HETATM   12  C   UNL     1     -10.882  13.581  66.869  1.00  0.00    -0.286 C  
BRANCH  10  13
HETATM   13  C   UNL     1      -9.735  14.399  69.079  1.00  0.00    -0.077 C  
HETATM   14  O   UNL     1      -8.559  14.288  69.391  1.00  0.00     0.170 OA 
BRANCH  13  15
HETATM   15  O   UNL     1     -10.758  14.475  69.964  1.00  0.00    -0.087 OA 
BRANCH  15  16
HETATM   16  C   UNL     1     -11.950  13.805  69.521  1.00  0.00    -0.345 C  
BRANCH  16  17
HETATM   17  C   UNL     1     -11.945  12.437  70.220  1.00  0.00    -0.289 C  
BRANCH  17  18
HETATM   18  N   UNL     1     -13.246  11.882  70.617  1.00  0.00     0.366 NA 
HETATM   19  C   UNL     1     -13.299  10.444  70.339  1.00  0.00     0.198 C  
BRANCH  18  20
HETATM   20  C   UNL     1     -13.467  12.116  72.065  1.00  0.00    -0.286 C  
BRANCH  20  21
HETATM   21  C   UNL     1     -13.394  13.582  72.451  1.00  0.00    -0.641 A  
HETATM   22  C   UNL     1     -12.390  14.036  73.319  1.00  0.00     0.343 A  
HETATM   23  C   UNL     1     -12.369  15.361  73.752  1.00  0.00    -0.735 A  
HETATM   24  C   UNL     1     -13.347  16.252  73.316  1.00  0.00    -0.350 A  
HETATM   25  C   UNL     1     -14.340  15.822  72.437  1.00  0.00    -0.327 A  
HETATM   26  C   UNL     1     -14.364  14.494  72.003  1.00  0.00    -0.639 A  
ENDBRANCH  20  21
ENDBRANCH  18  20
ENDBRANCH  17  18
ENDBRANCH  16  17
ENDBRANCH  15  16
ENDBRANCH  13  15
ENDBRANCH  10  13
BRANCH  12  27
HETATM   27  C   UNL     1     -10.022  12.314  66.868  1.00  0.00    -0.223 A  
HETATM   28  C   UNL     1      -9.822   9.901  67.038  1.00  0.00    -0.241 A  
HETATM   29  O   UNL     1      -5.885  12.481  66.501  1.00  0.00     0.031 OA 
HETATM   30  C   UNL     1      -8.619  12.411  66.767  1.00  0.00    -0.129 A  
HETATM   31  O   UNL     1      -5.717  10.304  66.705  1.00  0.00    -0.048 OA 
HETATM   32  C   UNL     1      -7.834  11.253  66.793  1.00  0.00    -0.155 A  
HETATM   33  C   UNL     1     -10.611  11.048  66.988  1.00  0.00    -0.303 A  
HETATM   34  C   UNL     1      -8.431   9.997  66.944  1.00  0.00    -0.125 A  
HETATM   35  N   UNL     1      -6.375  11.354  66.656  1.00  0.00    -0.140 N  
ENDBRANCH  12  27
ENDBRANCH   3   5
ENDBRANCH   2   3
TORSDOF 10
ENDMDL
MODEL      250
REMARK 921   NORMALIZED FREE ENERGY PREDICTED BY IDOCK:   -3.15 KCAL/MOL
REMARK 922        TOTAL FREE ENERGY PREDICTED BY IDOCK:   -6.52 KCAL/MOL
REMARK 923 INTER-LIGAND FREE ENERGY PREDICTED BY IDOCK:   -5.95 KCAL/MOL
REMARK 924 INTRA-LIGAND FREE ENERGY PREDICTED BY IDOCK:   -0.57 KCAL/MOL
REMARK 927      BINDING AFFINITY PREDICTED BY RF-SCORE:    0.00 PKD
ROOT
HETATM    1  C   UNL     1      -7.117  16.919  68.916  1.00  0.00    -0.220 C  
HETATM    2  O   UNL     1      -7.626  15.911  68.036  1.00  0.00    -0.124 OA 
ENDROOT
BRANCH   2   3
HETATM    3  C   UNL     1      -8.626  15.180  68.594  1.00  0.00    -0.172 C  
HETATM    4  O   UNL     1      -8.746  14.961  69.790  1.00  0.00    -0.001 OA 
BRANCH   3   5
HETATM    5  C   UNL     1      -9.537  14.632  67.557  1.00  0.00    -0.206 C  
HETATM    6  C   UNL     1     -10.838  15.005  67.525  1.00  0.00    -0.297 C  
HETATM    7  C   UNL     1     -11.497  16.045  68.400  1.00  0.00    -0.331 C  
HETATM    8  N   UNL     1     -11.704  14.392  66.636  1.00  0.00    -0.385 NA 
HETATM    9  C   UNL     1     -11.400  13.279  65.875  1.00  0.00    -0.311 C  
HETATM   10  C   UNL     1     -10.127  12.818  65.837  1.00  0.00    -0.286 C  
HETATM   11  C   UNL     1     -12.559  12.684  65.110  1.00  0.00    -0.459 C  
HETATM   12  C   UNL     1      -9.007  13.549  66.601  1.00  0.00    -0.133 C  
BRANCH  10  13
HETATM   13  C   UNL     1      -9.787  11.659  64.962  1.00  0.00    -0.248 C  
HETATM   14  O   UNL     1      -9.741  11.680  63.741  1.00  0.00    -0.273 OA 
BRANCH  13  15
HETATM   15  O   UNL     1      -9.333  10.637  65.727  1.00  0.00    -0.171 OA 
BRANCH  15  16
HETATM   16  C   UNL     1     -10.343   9.663  66.040  1.00  0.00    -0.090 C  
BRANCH  16  17
HETATM   17  C   UNL     1      -9.594   8.342  66.272  1.00  0.00    -0.196 C  
BRANCH  17  18
HETATM   18  N   UNL     1     -10.057   7.492  67.376  1.00  0.00    -0.194 NA 
HETATM   19  C   UNL     1     -10.969   6.456  66.883  1.00  0.00    -0.341 C  
BRANCH  18  20
HETATM   20  C   UNL     1      -8.893   6.854  68.038  1.00  0.00    -0.123 C  
BRANCH  20  21
HETATM   21  C   UNL     1      -7.803   6.444  67.064  1.00  0.00    -0.104 A  
HETATM   22  C   UNL     1      -7.900   5.234  66.361  1.00  0.00    -0.103 A  
HETATM   23  C   UNL     1      -6.863   4.805  65.536  1.00  0.00    -0.061 A  
HETATM   24  C   UNL     1      -5.716   5.585  65.395  1.00  0.00    -0.017 A  
HETATM   25  C   UNL     1      -5.612   6.800  66.071  1.00  0.00    -0.025 A  
HETATM   26  C   UNL     1      -6.651   7.231  66.901  1.00  0.00    -0.059 A  
ENDBRANCH  20  21
ENDBRANCH  18  20
ENDBRANCH  17  18
ENDBRANCH  16  17
ENDBRANCH  15  16
ENDBRANCH  13  15
ENDBRANCH  10  13
BRANCH  12  27
HETATM   27  C   UNL     1      -8.080  12.567  67.324  1.00  0.00    -0.179 A  
HETATM   28  C   UNL     1      -5.878  11.602  67.658  1.00  0.00    -0.060 A  
HETATM   29  O   UNL     1      -9.507   9.932  70.204  1.00  0.00    -0.237 OA 
HETATM   30  C   UNL     1      -8.603  11.670  68.276  1.00  0.00    -0.162 A  
HETATM   31  O   UNL     1      -7.521   9.037  70.458  1.00  0.00    -0.072 OA 
HETATM   32  C   UNL     1      -7.759  10.756  68.917  1.00  0.00    -0.129 A  
HETATM   33  C   UNL     1      -6.709  12.531  67.035  1.00  0.00     0.051 A  
HETATM   34  C   UNL     1      -6.398  10.709  68.597  1.00  0.00    -0.046 A  
HETATM   35  N   UNL     1      -8.301   9.844  69.932  1.00  0.00    -0.186 N  
ENDBRANCH  12  27
ENDBRANCH   3   5
ENDBRANCH   2   3
TORSDOF 10
ENDMDL
MODEL      251
REMARK 921   NORMALIZED FREE ENERGY PREDICTED BY IDOCK:   -3.11 KCAL/MOL
REMARK 922        TOTAL FREE ENERGY PREDICTED BY IDOCK:   -6.45 KCAL/MOL
REMARK 923 INTER-LIGAND FREE ENERGY PREDICTED BY IDOCK:   -5.93 KCAL/MOL
REMARK 924 INTRA-LIGAND FREE ENERGY PREDICTED BY IDOCK:   -0.53 KCAL/MOL
REMARK 927      BINDING AFFINITY PREDICTED BY RF-SCORE:    0.00 PKD
ROOT
HETATM    1  C   UNL     1      -5.211  15.814  68.095  1.00  0.00    -0.114 C  
HETATM    2  O   UNL     1      -6.583  16.222  68.115  1.00  0.00    -0.118 OA 
ENDROOT
BRANCH   2   3
HETATM    3  C   UNL     1      -7.355  15.436  68.909  1.00  0.00    -0.147 C  
HETATM    4  O   UNL     1      -7.101  15.153  70.070  1.00  0.00    -0.166 OA 
BRANCH   3   5
HETATM    5  C   UNL     1      -8.534  14.916  68.169  1.00  0.00    -0.146 C  
HETATM    6  C   UNL     1      -9.772  15.398  68.431  1.00  0.00    -0.211 C  
HETATM    7  C   UNL     1     -10.115  16.534  69.365  1.00  0.00    -0.230 C  
HETATM    8  N   UNL     1     -10.874  14.816  67.828  1.00  0.00    -0.272 NA 
HETATM    9  C   UNL     1     -10.850  13.644  67.098  1.00  0.00    -0.285 C  
HETATM   10  C   UNL     1      -9.663  13.073  66.781  1.00  0.00    -0.248 C  
HETATM   11  C   UNL     1     -12.203  13.112  66.685  1.00  0.00    -0.331 C  
HETATM   12  C   UNL     1      -8.338  13.743  67.192  1.00  0.00    -0.153 C  
BRANCH  10  13
HETATM   13  C   UNL     1      -9.636  11.845  65.935  1.00  0.00    -0.231 C  
HETATM   14  O   UNL     1      -9.761  11.818  64.720  1.00  0.00    -0.233 OA 
BRANCH  13  15
HETATM   15  O   UNL     1      -9.243  10.790  66.688  1.00  0.00    -0.162 OA 
BRANCH  15  16
HETATM   16  C   UNL     1     -10.338  10.021  67.213  1.00  0.00    -0.237 C  
BRANCH  16  17
HETATM   17  C   UNL     1     -10.134   8.590  66.691  1.00  0.00    -0.294 C  
BRANCH  17  18
HETATM   18  N   UNL     1     -10.240   7.498  67.667  1.00  0.00    -0.196 NA 
HETATM   19  C   UNL     1     -10.706   8.006  68.960  1.00  0.00    -0.088 C  
BRANCH  18  20
HETATM   20  C   UNL     1     -11.186   6.471  67.167  1.00  0.00    -0.235 C  
BRANCH  20  21
HETATM   21  C   UNL     1     -10.524   5.134  66.887  1.00  0.00    -0.280 A  
HETATM   22  C   UNL     1     -10.025   4.357  67.942  1.00  0.00    -0.087 A  
HETATM   23  C   UNL     1      -9.334   3.173  67.689  1.00  0.00    -0.247 A  
HETATM   24  C   UNL     1      -9.140   2.746  66.376  1.00  0.00    -0.137 A  
HETATM   25  C   UNL     1      -9.647   3.498  65.317  1.00  0.00    -0.140 A  
HETATM   26  C   UNL     1     -10.339   4.685  65.569  1.00  0.00    -0.225 A  
ENDBRANCH  20  21
ENDBRANCH  18  20
ENDBRANCH  17  18
ENDBRANCH  16  17
ENDBRANCH  15  16
ENDBRANCH  13  15
ENDBRANCH  10  13
BRANCH  12  27
HETATM   27  C   UNL     1      -7.331  12.723  67.733  1.00  0.00    -0.130 A  
HETATM   28  C   UNL     1      -5.133  11.697  67.678  1.00  0.00    -0.058 A  
HETATM   29  O   UNL     1      -8.331  10.066  70.769  1.00  0.00    -0.020 OA 
HETATM   30  C   UNL     1      -7.714  11.820  68.746  1.00  0.00    -0.091 A  
HETATM   31  O   UNL     1      -6.357   9.117  70.672  1.00  0.00    -0.045 OA 
HETATM   32  C   UNL     1      -6.800  10.873  69.221  1.00  0.00    -0.105 A  
HETATM   33  C   UNL     1      -6.030  12.659  67.218  1.00  0.00    -0.077 A  
HETATM   34  C   UNL     1      -5.514  10.798  68.677  1.00  0.00    -0.040 A  
HETATM   35  N   UNL     1      -7.191   9.953  70.297  1.00  0.00    -0.147 N  
ENDBRANCH  12  27
ENDBRANCH   3   5
ENDBRANCH   2   3
TORSDOF 10
ENDMDL
MODEL      252
REMARK 921   NORMALIZED FREE ENERGY PREDICTED BY IDOCK:   -3.10 KCAL/MOL
REMARK 922        TOTAL FREE ENERGY PREDICTED BY IDOCK:   -6.43 KCAL/MOL
REMARK 923 INTER-LIGAND FREE ENERGY PREDICTED BY IDOCK:   -6.33 KCAL/MOL
REMARK 924 INTRA-LIGAND FREE ENERGY PREDICTED BY IDOCK:   -0.11 KCAL/MOL
REMARK 927      BINDING AFFINITY PREDICTED BY RF-SCORE:    0.00 PKD
ROOT
HETATM    1  C   UNL     1     -12.749  11.896  63.385  1.00  0.00    -0.366 C  
HETATM    2  O   UNL     1     -11.824  11.125  64.160  1.00  0.00     0.176 OA 
ENDROOT
BRANCH   2   3
HETATM    3  C   UNL     1     -10.539  11.535  64.006  1.00  0.00    -0.379 C  
HETATM    4  O   UNL     1      -9.915  11.497  62.955  1.00  0.00    -0.365 OA 
BRANCH   3   5
HETATM    5  C   UNL     1      -9.961  11.994  65.295  1.00  0.00    -0.273 C  
HETATM    6  C   UNL     1      -9.917  13.315  65.592  1.00  0.00    -0.230 C  
HETATM    7  C   UNL     1     -10.506  14.440  64.775  1.00  0.00    -0.394 C  
HETATM    8  N   UNL     1      -9.263  13.737  66.736  1.00  0.00    -0.253 NA 
HETATM    9  C   UNL     1      -8.475  12.934  67.539  1.00  0.00    -0.186 C  
HETATM   10  C   UNL     1      -8.441  11.596  67.327  1.00  0.00    -0.156 C  
HETATM   11  C   UNL     1      -7.722  13.656  68.633  1.00  0.00    -0.107 C  
HETATM   12  C   UNL     1      -9.309  10.957  66.226  1.00  0.00    -0.203 C  
BRANCH  10  13
HETATM   13  C   UNL     1      -7.644  10.725  68.237  1.00  0.00    -0.098 C  
HETATM   14  O   UNL     1      -6.474  10.412  68.075  1.00  0.00    -0.059 OA 
BRANCH  13  15
HETATM   15  O   UNL     1      -8.346  10.504  69.376  1.00  0.00    -0.157 OA 
BRANCH  15  16
HETATM   16  C   UNL     1      -9.554   9.754  69.168  1.00  0.00    -0.188 C  
BRANCH  16  17
HETATM   17  C   UNL     1      -9.179   8.282  69.403  1.00  0.00    -0.155 C  
BRANCH  17  18
HETATM   18  N   UNL     1     -10.040   7.506  70.304  1.00  0.00    -0.193 NA 
HETATM   19  C   UNL     1     -10.910   6.608  69.540  1.00  0.00    -0.289 C  
BRANCH  18  20
HETATM   20  C   UNL     1      -9.202   6.712  71.235  1.00  0.00    -0.155 C  
BRANCH  20  21
HETATM   21  C   UNL     1      -9.294   5.216  70.994  1.00  0.00    -0.198 A  
HETATM   22  C   UNL     1      -9.687   4.355  72.029  1.00  0.00    -0.227 A  
HETATM   23  C   UNL     1      -9.686   2.974  71.845  1.00  0.00    -0.234 A  
HETATM   24  C   UNL     1      -9.300   2.435  70.619  1.00  0.00    -0.209 A  
HETATM   25  C   UNL     1      -8.926   3.278  69.574  1.00  0.00    -0.176 A  
HETATM   26  C   UNL     1      -8.925   4.663  69.757  1.00  0.00    -0.140 A  
ENDBRANCH  20  21
ENDBRANCH  18  20
ENDBRANCH  17  18
ENDBRANCH  16  17
ENDBRANCH  15  16
ENDBRANCH  13  15
ENDBRANCH  10  13
BRANCH  12  27
HETATM   27  C   UNL     1      -8.531   9.901  65.435  1.00  0.00    -0.155 A  
HETATM   28  C   UNL     1      -6.951   9.314  63.689  1.00  0.00    -0.091 A  
HETATM   29  O   UNL     1      -9.024   5.836  66.148  1.00  0.00    -0.142 OA 
HETATM   30  C   UNL     1      -8.743   8.531  65.687  1.00  0.00    -0.213 A  
HETATM   31  O   UNL     1      -7.631   5.321  64.534  1.00  0.00    -0.070 OA 
HETATM   32  C   UNL     1      -8.051   7.567  64.945  1.00  0.00    -0.121 A  
HETATM   33  C   UNL     1      -7.619  10.279  64.441  1.00  0.00    -0.094 A  
HETATM   34  C   UNL     1      -7.165   7.956  63.934  1.00  0.00    -0.088 A  
HETATM   35  N   UNL     1      -8.249   6.140  65.230  1.00  0.00    -0.139 N  
ENDBRANCH  12  27
ENDBRANCH   3   5
ENDBRANCH   2   3
TORSDOF 10
ENDMDL
MODEL      253
REMARK 921   NORMALIZED FREE ENERGY PREDICTED BY IDOCK:   -3.10 KCAL/MOL
REMARK 922        TOTAL FREE ENERGY PREDICTED BY IDOCK:   -6.43 KCAL/MOL
REMARK 923 INTER-LIGAND FREE ENERGY PREDICTED BY IDOCK:   -5.38 KCAL/MOL
REMARK 924 INTRA-LIGAND FREE ENERGY PREDICTED BY IDOCK:   -1.05 KCAL/MOL
REMARK 927      BINDING AFFINITY PREDICTED BY RF-SCORE:    0.00 PKD
ROOT
HETATM    1  C   UNL     1      -5.128   7.765  67.671  1.00  0.00    -0.030 C  
HETATM    2  O   UNL     1      -5.497   6.382  67.707  1.00  0.00    -0.004 OA 
ENDROOT
BRANCH   2   3
HETATM    3  C   UNL     1      -5.757   5.939  68.964  1.00  0.00    -0.012 C  
HETATM    4  O   UNL     1      -5.253   4.949  69.473  1.00  0.00     0.000 OA 
BRANCH   3   5
HETATM    5  C   UNL     1      -6.776   6.786  69.635  1.00  0.00    -0.050 C  
HETATM    6  C   UNL     1      -6.486   7.409  70.802  1.00  0.00    -0.039 C  
HETATM    7  C   UNL     1      -5.147   7.433  71.499  1.00  0.00    -0.027 C  
HETATM    8  N   UNL     1      -7.482   8.090  71.480  1.00  0.00    -0.069 NA 
HETATM    9  C   UNL     1      -8.826   8.048  71.162  1.00  0.00    -0.140 C  
HETATM   10  C   UNL     1      -9.229   7.447  70.017  1.00  0.00    -0.148 C  
HETATM   11  C   UNL     1      -9.744   8.731  72.149  1.00  0.00    -0.335 C  
HETATM   12  C   UNL     1      -8.196   6.846  69.045  1.00  0.00    -0.125 C  
BRANCH  10  13
HETATM   13  C   UNL     1     -10.672   7.463  69.642  1.00  0.00    -0.235 C  
HETATM   14  O   UNL     1     -11.469   6.560  69.848  1.00  0.00    -0.390 OA 
BRANCH  13  15
HETATM   15  O   UNL     1     -11.014   8.708  69.230  1.00  0.00    -0.124 OA 
BRANCH  15  16
HETATM   16  C   UNL     1     -10.467   9.057  67.947  1.00  0.00    -0.234 C  
BRANCH  16  17
HETATM   17  C   UNL     1     -11.224  10.317  67.498  1.00  0.00    -0.117 C  
BRANCH  17  18
HETATM   18  N   UNL     1     -10.417  11.481  67.108  1.00  0.00    -0.215 NA 
HETATM   19  C   UNL     1      -9.658  11.195  65.887  1.00  0.00    -0.218 C  
BRANCH  18  20
HETATM   20  C   UNL     1     -11.303  12.649  66.880  1.00  0.00    -0.320 C  
BRANCH  20  21
HETATM   21  C   UNL     1     -11.162  13.722  67.944  1.00  0.00    -0.299 A  
HETATM   22  C   UNL     1     -12.286  14.438  68.381  1.00  0.00    -0.028 A  
HETATM   23  C   UNL     1     -12.153  15.487  69.289  1.00  0.00    -0.284 A  
HETATM   24  C   UNL     1     -10.894  15.828  69.780  1.00  0.00    -0.314 A  
HETATM   25  C   UNL     1      -9.769  15.113  69.371  1.00  0.00    -0.206 A  
HETATM   26  C   UNL     1      -9.900  14.062  68.460  1.00  0.00    -0.225 A  
ENDBRANCH  20  21
ENDBRANCH  18  20
ENDBRANCH  17  18
ENDBRANCH  16  17
ENDBRANCH  15  16
ENDBRANCH  13  15
ENDBRANCH  10  13
BRANCH  12  27
HETATM   27  C   UNL     1      -8.643   5.479  68.517  1.00  0.00    -0.102 A  
HETATM   28  C   UNL     1      -9.151   3.136  68.896  1.00  0.00    -0.208 A  
HETATM   29  O   UNL     1      -9.469   4.853  64.492  1.00  0.00    -0.032 OA 
HETATM   30  C   UNL     1      -8.889   5.297  67.142  1.00  0.00    -0.109 A  
HETATM   31  O   UNL     1      -9.876   2.727  64.843  1.00  0.00    -0.051 OA 
HETATM   32  C   UNL     1      -9.273   4.041  66.659  1.00  0.00    -0.163 A  
HETATM   33  C   UNL     1      -8.793   4.390  69.387  1.00  0.00    -0.133 A  
HETATM   34  C   UNL     1      -9.389   2.954  67.532  1.00  0.00    -0.218 A  
HETATM   35  N   UNL     1      -9.560   3.861  65.230  1.00  0.00    -0.174 N  
ENDBRANCH  12  27
ENDBRANCH   3   5
ENDBRANCH   2   3
TORSDOF 10
ENDMDL
MODEL      254
REMARK 921   NORMALIZED FREE ENERGY PREDICTED BY IDOCK:   -3.05 KCAL/MOL
REMARK 922        TOTAL FREE ENERGY PREDICTED BY IDOCK:   -6.35 KCAL/MOL
REMARK 923 INTER-LIGAND FREE ENERGY PREDICTED BY IDOCK:   -5.40 KCAL/MOL
REMARK 924 INTRA-LIGAND FREE ENERGY PREDICTED BY IDOCK:   -0.95 KCAL/MOL
REMARK 927      BINDING AFFINITY PREDICTED BY RF-SCORE:    0.00 PKD
ROOT
HETATM    1  C   UNL     1     -10.187   4.848  71.979  1.00  0.00    -0.199 C  
HETATM    2  O   UNL     1     -10.507   5.296  70.658  1.00  0.00    -0.260 OA 
ENDROOT
BRANCH   2   3
HETATM    3  C   UNL     1     -11.187   6.471  70.650  1.00  0.00    -0.329 C  
HETATM    4  O   UNL     1     -12.381   6.588  70.880  1.00  0.00    -0.290 OA 
BRANCH   3   5
HETATM    5  C   UNL     1     -10.301   7.603  70.276  1.00  0.00    -0.214 C  
HETATM    6  C   UNL     1     -10.575   8.857  70.708  1.00  0.00    -0.226 C  
HETATM    7  C   UNL     1     -11.676   9.258  71.661  1.00  0.00    -0.462 C  
HETATM    8  N   UNL     1      -9.817   9.920  70.249  1.00  0.00    -0.234 NA 
HETATM    9  C   UNL     1      -8.892   9.848  69.226  1.00  0.00    -0.174 C  
HETATM   10  C   UNL     1      -8.545   8.642  68.715  1.00  0.00    -0.130 C  
HETATM   11  C   UNL     1      -8.315  11.174  68.783  1.00  0.00    -0.136 C  
HETATM   12  C   UNL     1      -9.143   7.347  69.296  1.00  0.00    -0.135 C  
BRANCH  10  13
HETATM   13  C   UNL     1      -7.496   8.561  67.659  1.00  0.00    -0.094 C  
HETATM   14  O   UNL     1      -6.393   8.052  67.791  1.00  0.00    -0.050 OA 
BRANCH  13  15
HETATM   15  O   UNL     1      -8.023   8.947  66.472  1.00  0.00    -0.101 OA 
BRANCH  15  16
HETATM   16  C   UNL     1      -7.162   9.817  65.718  1.00  0.00    -0.104 C  
BRANCH  16  17
HETATM   17  C   UNL     1      -6.821   9.054  64.429  1.00  0.00    -0.085 C  
BRANCH  17  18
HETATM   18  N   UNL     1      -7.945   8.517  63.650  1.00  0.00    -0.155 NA 
HETATM   19  C   UNL     1      -8.726   9.605  63.055  1.00  0.00    -0.226 C  
BRANCH  18  20
HETATM   20  C   UNL     1      -7.430   7.632  62.576  1.00  0.00    -0.100 C  
BRANCH  20  21
HETATM   21  C   UNL     1      -7.616   6.156  62.879  1.00  0.00    -0.081 A  
HETATM   22  C   UNL     1      -8.751   5.475  62.413  1.00  0.00    -0.027 A  
HETATM   23  C   UNL     1      -8.976   4.145  62.764  1.00  0.00    -0.111 A  
HETATM   24  C   UNL     1      -8.064   3.474  63.578  1.00  0.00    -0.088 A  
HETATM   25  C   UNL     1      -6.922   4.131  64.032  1.00  0.00    -0.046 A  
HETATM   26  C   UNL     1      -6.694   5.465  63.683  1.00  0.00    -0.037 A  
ENDBRANCH  20  21
ENDBRANCH  18  20
ENDBRANCH  17  18
ENDBRANCH  16  17
ENDBRANCH  15  16
ENDBRANCH  13  15
ENDBRANCH  10  13
BRANCH  12  27
HETATM   27  C   UNL     1      -9.548   6.366  68.191  1.00  0.00    -0.115 A  
HETATM   28  C   UNL     1     -10.908   5.811  66.259  1.00  0.00    -0.032 A  
HETATM   29  O   UNL     1      -7.862   2.578  67.905  1.00  0.00    -0.059 OA 
HETATM   30  C   UNL     1      -8.974   5.080  68.140  1.00  0.00    -0.119 A  
HETATM   31  O   UNL     1      -9.134   2.074  66.191  1.00  0.00    -0.116 OA 
HETATM   32  C   UNL     1      -9.364   4.177  67.145  1.00  0.00    -0.176 A  
HETATM   33  C   UNL     1     -10.506   6.724  67.232  1.00  0.00    -0.352 A  
HETATM   34  C   UNL     1     -10.344   4.534  66.213  1.00  0.00    -0.227 A  
HETATM   35  N   UNL     1      -8.742   2.849  67.076  1.00  0.00    -0.115 N  
ENDBRANCH  12  27
ENDBRANCH   3   5
ENDBRANCH   2   3
TORSDOF 10
ENDMDL
MODEL      255
REMARK 921   NORMALIZED FREE ENERGY PREDICTED BY IDOCK:   -3.04 KCAL/MOL
REMARK 922        TOTAL FREE ENERGY PREDICTED BY IDOCK:   -6.33 KCAL/MOL
REMARK 923 INTER-LIGAND FREE ENERGY PREDICTED BY IDOCK:   -5.48 KCAL/MOL
REMARK 924 INTRA-LIGAND FREE ENERGY PREDICTED BY IDOCK:   -0.85 KCAL/MOL
REMARK 927      BINDING AFFINITY PREDICTED BY RF-SCORE:    0.00 PKD
ROOT
HETATM    1  C   UNL     1     -10.814   5.451  69.680  1.00  0.00    -0.088 C  
HETATM    2  O   UNL     1     -10.399   5.012  68.382  1.00  0.00    -0.119 OA 
ENDROOT
BRANCH   2   3
HETATM    3  C   UNL     1      -9.106   4.598  68.354  1.00  0.00    -0.120 C  
HETATM    4  O   UNL     1      -8.622   3.770  69.112  1.00  0.00    -0.074 OA 
BRANCH   3   5
HETATM    5  C   UNL     1      -8.332   5.317  67.311  1.00  0.00    -0.107 C  
HETATM    6  C   UNL     1      -7.915   4.667  66.199  1.00  0.00    -0.103 C  
HETATM    7  C   UNL     1      -8.242   3.243  65.815  1.00  0.00    -0.094 C  
HETATM    8  N   UNL     1      -7.088   5.314  65.298  1.00  0.00    -0.065 NA 
HETATM    9  C   UNL     1      -6.485   6.538  65.515  1.00  0.00    -0.039 C  
HETATM   10  C   UNL     1      -6.826   7.273  66.600  1.00  0.00    -0.065 C  
HETATM   11  C   UNL     1      -5.487   6.962  64.461  1.00  0.00    -0.031 C  
HETATM   12  C   UNL     1      -7.913   6.775  67.572  1.00  0.00    -0.115 C  
BRANCH  10  13
HETATM   13  C   UNL     1      -6.225   8.624  66.796  1.00  0.00    -0.059 C  
HETATM   14  O   UNL     1      -5.131   8.849  67.292  1.00  0.00    -0.032 OA 
BRANCH  13  15
HETATM   15  O   UNL     1      -6.978   9.548  66.152  1.00  0.00    -0.088 OA 
BRANCH  15  16
HETATM   16  C   UNL     1      -7.162  10.760  66.902  1.00  0.00    -0.115 C  
BRANCH  16  17
HETATM   17  C   UNL     1      -8.532  10.627  67.585  1.00  0.00    -0.118 C  
BRANCH  17  18
HETATM   18  N   UNL     1      -9.675  10.277  66.733  1.00  0.00    -0.179 NA 
HETATM   19  C   UNL     1     -10.934  10.662  67.376  1.00  0.00    -0.298 C  
BRANCH  18  20
HETATM   20  C   UNL     1      -9.554  10.970  65.426  1.00  0.00    -0.225 C  
BRANCH  20  21
HETATM   21  C   UNL     1     -10.415  12.215  65.328  1.00  0.00    -0.311 A  
HETATM   22  C   UNL     1     -11.768  12.115  64.971  1.00  0.00    -0.371 A  
HETATM   23  C   UNL     1     -12.543  13.259  64.788  1.00  0.00    -0.398 A  
HETATM   24  C   UNL     1     -11.977  14.520  64.969  1.00  0.00    -0.399 A  
HETATM   25  C   UNL     1     -10.640  14.636  65.343  1.00  0.00    -0.390 A  
HETATM   26  C   UNL     1      -9.861  13.491  65.526  1.00  0.00    -0.165 A  
ENDBRANCH  20  21
ENDBRANCH  18  20
ENDBRANCH  17  18
ENDBRANCH  16  17
ENDBRANCH  15  16
ENDBRANCH  13  15
ENDBRANCH  10  13
BRANCH  12  27
HETATM   27  C   UNL     1      -7.507   6.990  69.033  1.00  0.00    -0.095 A  
HETATM   28  C   UNL     1      -5.960   6.628  70.868  1.00  0.00    -0.028 A  
HETATM   29  O   UNL     1      -9.905   9.124  71.674  1.00  0.00    -0.305 OA 
HETATM   30  C   UNL     1      -8.358   7.697  69.907  1.00  0.00    -0.132 A  
HETATM   31  O   UNL     1      -8.521   8.745  73.333  1.00  0.00    -0.351 OA 
HETATM   32  C   UNL     1      -7.997   7.871  71.247  1.00  0.00    -0.092 A  
HETATM   33  C   UNL     1      -6.302   6.473  69.525  1.00  0.00    -0.038 A  
HETATM   34  C   UNL     1      -6.806   7.323  71.735  1.00  0.00    -0.058 A  
HETATM   35  N   UNL     1      -8.870   8.634  72.148  1.00  0.00    -0.210 N  
ENDBRANCH  12  27
ENDBRANCH   3   5
ENDBRANCH   2   3
TORSDOF 10
ENDMDL
MODEL      256
REMARK 921   NORMALIZED FREE ENERGY PREDICTED BY IDOCK:   -3.02 KCAL/MOL
REMARK 922        TOTAL FREE ENERGY PREDICTED BY IDOCK:   -6.30 KCAL/MOL
REMARK 923 INTER-LIGAND FREE ENERGY PREDICTED BY IDOCK:   -5.43 KCAL/MOL
REMARK 924 INTRA-LIGAND FREE ENERGY PREDICTED BY IDOCK:   -0.87 KCAL/MOL
REMARK 927      BINDING AFFINITY PREDICTED BY RF-SCORE:    0.00 PKD
ROOT
HETATM    1  C   UNL     1      -5.687   3.177  71.879  1.00  0.00    -0.009 C  
HETATM    2  O   UNL     1      -6.314   4.161  71.049  1.00  0.00    -0.017 OA 
ENDROOT
BRANCH   2   3
HETATM    3  C   UNL     1      -7.617   3.880  70.792  1.00  0.00    -0.044 C  
HETATM    4  O   UNL     1      -8.006   2.971  70.074  1.00  0.00    -0.043 OA 
BRANCH   3   5
HETATM    5  C   UNL     1      -8.520   4.853  71.457  1.00  0.00    -0.124 C  
HETATM    6  C   UNL     1      -9.535   4.417  72.242  1.00  0.00    -0.135 C  
HETATM    7  C   UNL     1      -9.821   2.986  72.628  1.00  0.00    -0.209 C  
HETATM    8  N   UNL     1     -10.444   5.328  72.751  1.00  0.00    -0.205 NA 
HETATM    9  C   UNL     1     -10.523   6.658  72.385  1.00  0.00    -0.207 C  
HETATM   10  C   UNL     1      -9.561   7.197  71.599  1.00  0.00    -0.163 C  
HETATM   11  C   UNL     1     -11.707   7.412  72.945  1.00  0.00    -0.109 C  
HETATM   12  C   UNL     1      -8.356   6.351  71.145  1.00  0.00    -0.123 C  
BRANCH  10  13
HETATM   13  C   UNL     1      -9.611   8.649  71.261  1.00  0.00    -0.225 C  
HETATM   14  O   UNL     1      -8.840   9.501  71.676  1.00  0.00    -0.118 OA 
BRANCH  13  15
HETATM   15  O   UNL     1     -10.505   8.846  70.262  1.00  0.00    -0.195 OA 
BRANCH  15  16
HETATM   16  C   UNL     1     -10.142   9.914  69.371  1.00  0.00    -0.212 C  
BRANCH  16  17
HETATM   17  C   UNL     1     -11.384  10.178  68.506  1.00  0.00    -0.108 C  
BRANCH  17  18
HETATM   18  N   UNL     1     -11.536  11.527  67.944  1.00  0.00    -0.478 NA 
HETATM   19  C   UNL     1     -10.774  12.501  68.730  1.00  0.00    -0.202 C  
BRANCH  18  20
HETATM   20  C   UNL     1     -11.058  11.539  66.540  1.00  0.00    -0.282 C  
BRANCH  20  21
HETATM   21  C   UNL     1     -11.351  12.844  65.821  1.00  0.00    -0.349 A  
HETATM   22  C   UNL     1     -10.309  13.581  65.240  1.00  0.00    -0.344 A  
HETATM   23  C   UNL     1     -10.554  14.824  64.659  1.00  0.00    -0.234 A  
HETATM   24  C   UNL     1     -11.848  15.343  64.644  1.00  0.00    -0.218 A  
HETATM   25  C   UNL     1     -12.898  14.614  65.200  1.00  0.00     0.037 A  
HETATM   26  C   UNL     1     -12.654  13.368  65.784  1.00  0.00    -0.455 A  
ENDBRANCH  20  21
ENDBRANCH  18  20
ENDBRANCH  17  18
ENDBRANCH  16  17
ENDBRANCH  15  16
ENDBRANCH  13  15
ENDBRANCH  10  13
BRANCH  12  27
HETATM   27  C   UNL     1      -8.025   6.584  69.668  1.00  0.00    -0.120 A  
HETATM   28  C   UNL     1      -8.354   6.050  67.323  1.00  0.00    -0.105 A  
HETATM   29  O   UNL     1      -5.146   9.338  68.483  1.00  0.00    -0.034 OA 
HETATM   30  C   UNL     1      -7.024   7.507  69.304  1.00  0.00    -0.068 A  
HETATM   31  O   UNL     1      -5.420   8.808  66.372  1.00  0.00    -0.034 OA 
HETATM   32  C   UNL     1      -6.706   7.700  67.956  1.00  0.00    -0.063 A  
HETATM   33  C   UNL     1      -8.693   5.871  68.663  1.00  0.00    -0.109 A  
HETATM   34  C   UNL     1      -7.358   6.960  66.963  1.00  0.00    -0.086 A  
HETATM   35  N   UNL     1      -5.685   8.686  67.577  1.00  0.00    -0.039 N  
ENDBRANCH  12  27
ENDBRANCH   3   5
ENDBRANCH   2   3
TORSDOF 10
ENDMDL
MODEL      257
REMARK 921   NORMALIZED FREE ENERGY PREDICTED BY IDOCK:   -3.01 KCAL/MOL
REMARK 922        TOTAL FREE ENERGY PREDICTED BY IDOCK:   -6.29 KCAL/MOL
REMARK 923 INTER-LIGAND FREE ENERGY PREDICTED BY IDOCK:   -4.48 KCAL/MOL
REMARK 924 INTRA-LIGAND FREE ENERGY PREDICTED BY IDOCK:   -1.81 KCAL/MOL
REMARK 927      BINDING AFFINITY PREDICTED BY RF-SCORE:    0.00 PKD
ROOT
HETATM    1  C   UNL     1      -5.125   7.762  67.669  1.00  0.00    -0.030 C  
HETATM    2  O   UNL     1      -5.485   6.377  67.700  1.00  0.00    -0.005 OA 
ENDROOT
BRANCH   2   3
HETATM    3  C   UNL     1      -5.751   5.930  68.955  1.00  0.00    -0.012 C  
HETATM    4  O   UNL     1      -5.241   4.945  69.467  1.00  0.00     0.000 OA 
BRANCH   3   5
HETATM    5  C   UNL     1      -6.785   6.766  69.616  1.00  0.00    -0.050 C  
HETATM    6  C   UNL     1      -6.514   7.390  70.787  1.00  0.00    -0.039 C  
HETATM    7  C   UNL     1      -5.181   7.427  71.497  1.00  0.00    -0.027 C  
HETATM    8  N   UNL     1      -7.524   8.059  71.456  1.00  0.00    -0.069 NA 
HETATM    9  C   UNL     1      -8.864   8.004  71.125  1.00  0.00    -0.140 C  
HETATM   10  C   UNL     1      -9.249   7.399  69.975  1.00  0.00    -0.148 C  
HETATM   11  C   UNL     1      -9.799   8.675  72.105  1.00  0.00    -0.387 C  
HETATM   12  C   UNL     1      -8.200   6.811  69.013  1.00  0.00    -0.117 C  
BRANCH  10  13
HETATM   13  C   UNL     1     -10.688   7.401  69.587  1.00  0.00    -0.235 C  
HETATM   14  O   UNL     1     -11.480   6.493  69.792  1.00  0.00    -0.388 OA 
BRANCH  13  15
HETATM   15  O   UNL     1     -11.037   8.639  69.161  1.00  0.00    -0.013 OA 
BRANCH  15  16
HETATM   16  C   UNL     1     -10.491   8.979  67.876  1.00  0.00    -0.234 C  
BRANCH  16  17
HETATM   17  C   UNL     1     -11.240  10.241  67.422  1.00  0.00    -0.068 C  
BRANCH  17  18
HETATM   18  N   UNL     1     -10.428  11.394  67.014  1.00  0.00    -0.226 NA 
HETATM   19  C   UNL     1     -11.261  12.405  66.358  1.00  0.00    -0.319 C  
BRANCH  18  20
HETATM   20  C   UNL     1      -9.771  11.988  68.205  1.00  0.00    -0.199 C  
BRANCH  20  21
HETATM   21  C   UNL     1      -8.271  11.759  68.236  1.00  0.00    -0.157 A  
HETATM   22  C   UNL     1      -7.633  11.410  69.435  1.00  0.00     0.104 A  
HETATM   23  C   UNL     1      -6.246  11.289  69.494  1.00  0.00    -0.099 A  
HETATM   24  C   UNL     1      -5.478  11.506  68.351  1.00  0.00    -0.045 A  
HETATM   25  C   UNL     1      -6.099  11.834  67.147  1.00  0.00    -0.144 A  
HETATM   26  C   UNL     1      -7.489  11.957  67.086  1.00  0.00    -0.146 A  
ENDBRANCH  20  21
ENDBRANCH  18  20
ENDBRANCH  17  18
ENDBRANCH  16  17
ENDBRANCH  15  16
ENDBRANCH  13  15
ENDBRANCH  10  13
BRANCH  12  27
HETATM   27  C   UNL     1      -8.628   5.440  68.479  1.00  0.00    -0.098 A  
HETATM   28  C   UNL     1      -9.120   3.093  68.851  1.00  0.00    -0.208 A  
HETATM   29  O   UNL     1      -9.393   4.807  64.443  1.00  0.00    -0.106 OA 
HETATM   30  C   UNL     1      -8.854   5.256  67.100  1.00  0.00    -0.109 A  
HETATM   31  O   UNL     1      -9.785   2.678  64.788  1.00  0.00    -0.112 OA 
HETATM   32  C   UNL     1      -9.219   3.997  66.612  1.00  0.00    -0.163 A  
HETATM   33  C   UNL     1      -8.779   4.350  69.347  1.00  0.00    -0.121 A  
HETATM   34  C   UNL     1      -9.337   2.909  67.483  1.00  0.00    -0.218 A  
HETATM   35  N   UNL     1      -9.485   3.815  65.180  1.00  0.00    -0.159 N  
ENDBRANCH  12  27
ENDBRANCH   3   5
ENDBRANCH   2   3
TORSDOF 10
ENDMDL
MODEL      258
REMARK 921   NORMALIZED FREE ENERGY PREDICTED BY IDOCK:   -3.01 KCAL/MOL
REMARK 922        TOTAL FREE ENERGY PREDICTED BY IDOCK:   -6.29 KCAL/MOL
REMARK 923 INTER-LIGAND FREE ENERGY PREDICTED BY IDOCK:   -8.04 KCAL/MOL
REMARK 924 INTRA-LIGAND FREE ENERGY PREDICTED BY IDOCK:    1.75 KCAL/MOL
REMARK 927      BINDING AFFINITY PREDICTED BY RF-SCORE:    0.00 PKD
ROOT
HETATM    1  C   UNL     1     -13.521   9.850  70.602  1.00  0.00     0.070 C  
HETATM    2  O   UNL     1     -13.057  11.051  69.974  1.00  0.00    -0.009 OA 
ENDROOT
BRANCH   2   3
HETATM    3  C   UNL     1     -11.703  11.126  69.918  1.00  0.00    -0.355 C  
HETATM    4  O   UNL     1     -10.948  10.165  69.946  1.00  0.00    -0.252 OA 
BRANCH   3   5
HETATM    5  C   UNL     1     -11.243  12.538  69.869  1.00  0.00     0.088 C  
HETATM    6  C   UNL     1     -11.867  13.486  70.608  1.00  0.00    -0.120 C  
HETATM    7  C   UNL     1     -12.972  13.260  71.612  1.00  0.00    -0.441 C  
HETATM    8  N   UNL     1     -11.512  14.815  70.456  1.00  0.00    -0.267 NA 
HETATM    9  C   UNL     1     -10.680  15.304  69.467  1.00  0.00    -0.265 C  
HETATM   10  C   UNL     1     -10.008  14.442  68.666  1.00  0.00    -0.241 C  
HETATM   11  C   UNL     1     -10.579  16.810  69.395  1.00  0.00    -0.318 C  
HETATM   12  C   UNL     1     -10.131  12.921  68.877  1.00  0.00     0.043 C  
BRANCH  10  13
HETATM   13  C   UNL     1      -9.059  14.971  67.644  1.00  0.00    -0.182 C  
HETATM   14  O   UNL     1      -7.873  14.688  67.564  1.00  0.00    -0.162 OA 
BRANCH  13  15
HETATM   15  O   UNL     1      -9.752  15.643  66.694  1.00  0.00    -0.230 OA 
BRANCH  15  16
HETATM   16  C   UNL     1      -8.948  16.574  65.949  1.00  0.00    -0.130 C  
BRANCH  16  17
HETATM   17  C   UNL     1      -8.669  17.745  66.905  1.00  0.00    -0.248 C  
BRANCH  17  18
HETATM   18  N   UNL     1      -7.267  18.006  67.254  1.00  0.00    -0.191 NA 
HETATM   19  C   UNL     1      -6.372  17.164  66.457  1.00  0.00    -0.218 C  
BRANCH  18  20
HETATM   20  C   UNL     1      -6.951  19.435  67.012  1.00  0.00    -0.197 C  
BRANCH  20  21
HETATM   21  C   UNL     1      -6.486  19.712  65.594  1.00  0.00    -0.268 A  
HETATM   22  C   UNL     1      -6.871  20.892  64.940  1.00  0.00    -0.001 A  
HETATM   23  C   UNL     1      -6.527  21.112  63.608  1.00  0.00    -0.232 A  
HETATM   24  C   UNL     1      -5.785  20.159  62.913  1.00  0.00    -0.294 A  
HETATM   25  C   UNL     1      -5.377  18.990  63.554  1.00  0.00    -0.289 A  
HETATM   26  C   UNL     1      -5.722  18.767  64.890  1.00  0.00    -0.290 A  
ENDBRANCH  20  21
ENDBRANCH  18  20
ENDBRANCH  17  18
ENDBRANCH  16  17
ENDBRANCH  15  16
ENDBRANCH  13  15
ENDBRANCH  10  13
BRANCH  12  27
HETATM   27  C   UNL     1     -10.281  12.175  67.548  1.00  0.00    -0.209 A  
HETATM   28  C   UNL     1      -9.514  10.495  65.973  1.00  0.00    -0.227 A  
HETATM   29  O   UNL     1     -13.288  13.124  64.839  1.00  0.00    -0.553 OA 
HETATM   30  C   UNL     1     -11.297  12.542  66.642  1.00  0.00    -0.389 A  
HETATM   31  O   UNL     1     -12.551  11.636  63.406  1.00  0.00    -0.485 OA 
HETATM   32  C   UNL     1     -11.417  11.876  65.417  1.00  0.00    -0.251 A  
HETATM   33  C   UNL     1      -9.404  11.138  67.205  1.00  0.00    -0.170 A  
HETATM   34  C   UNL     1     -10.516  10.863  65.073  1.00  0.00    -0.331 A  
HETATM   35  N   UNL     1     -12.496  12.238  64.489  1.00  0.00    -0.422 N  
ENDBRANCH  12  27
ENDBRANCH   3   5
ENDBRANCH   2   3
TORSDOF 10
ENDMDL
MODEL      259
REMARK 921   NORMALIZED FREE ENERGY PREDICTED BY IDOCK:   -3.00 KCAL/MOL
REMARK 922        TOTAL FREE ENERGY PREDICTED BY IDOCK:   -6.28 KCAL/MOL
REMARK 923 INTER-LIGAND FREE ENERGY PREDICTED BY IDOCK:   -6.59 KCAL/MOL
REMARK 924 INTRA-LIGAND FREE ENERGY PREDICTED BY IDOCK:    0.31 KCAL/MOL
REMARK 927      BINDING AFFINITY PREDICTED BY RF-SCORE:    0.00 PKD
ROOT
HETATM    1  C   UNL     1     -10.868   6.751  67.013  1.00  0.00    -0.383 C  
HETATM    2  O   UNL     1      -9.868   7.551  66.374  1.00  0.00    -0.176 OA 
ENDROOT
BRANCH   2   3
HETATM    3  C   UNL     1     -10.129   8.881  66.449  1.00  0.00    -0.263 C  
HETATM    4  O   UNL     1     -11.229   9.386  66.279  1.00  0.00     0.745 OA 
BRANCH   3   5
HETATM    5  C   UNL     1      -8.893   9.659  66.717  1.00  0.00    -0.148 C  
HETATM    6  C   UNL     1      -7.678   9.134  66.428  1.00  0.00    -0.096 C  
HETATM    7  C   UNL     1      -7.410   7.819  65.736  1.00  0.00    -0.076 C  
HETATM    8  N   UNL     1      -6.533   9.816  66.800  1.00  0.00    -0.066 NA 
HETATM    9  C   UNL     1      -6.505  10.930  67.617  1.00  0.00    -0.056 C  
HETATM   10  C   UNL     1      -7.664  11.535  67.970  1.00  0.00    -0.119 C  
HETATM   11  C   UNL     1      -5.126  11.396  68.025  1.00  0.00    -0.043 C  
HETATM   12  C   UNL     1      -9.012  11.016  67.434  1.00  0.00    -0.141 C  
BRANCH  10  13
HETATM   13  C   UNL     1      -7.628  12.776  68.795  1.00  0.00    -0.025 C  
HETATM   14  O   UNL     1      -7.002  12.920  69.835  1.00  0.00     0.239 OA 
BRANCH  13  15
HETATM   15  O   UNL     1      -8.220  13.786  68.112  1.00  0.00    -0.141 OA 
BRANCH  15  16
HETATM   16  C   UNL     1      -8.347  14.997  68.876  1.00  0.00    -0.183 C  
BRANCH  16  17
HETATM   17  C   UNL     1      -7.083  15.818  68.574  1.00  0.00    -0.118 C  
BRANCH  17  18
HETATM   18  N   UNL     1      -7.009  17.170  69.143  1.00  0.00    -0.237 NA 
HETATM   19  C   UNL     1      -5.874  17.280  70.063  1.00  0.00    -0.230 C  
BRANCH  18  20
HETATM   20  C   UNL     1      -6.862  18.164  68.052  1.00  0.00    -0.208 C  
BRANCH  20  21
HETATM   21  C   UNL     1      -8.179  18.789  67.631  1.00  0.00    -0.282 A  
HETATM   22  C   UNL     1      -8.368  19.222  66.310  1.00  0.00    -0.327 A  
HETATM   23  C   UNL     1      -9.538  19.880  65.937  1.00  0.00    -0.339 A  
HETATM   24  C   UNL     1     -10.541  20.106  66.879  1.00  0.00    -0.344 A  
HETATM   25  C   UNL     1     -10.377  19.664  68.191  1.00  0.00    -0.561 A  
HETATM   26  C   UNL     1      -9.204  19.005  68.567  1.00  0.00    -0.413 A  
ENDBRANCH  20  21
ENDBRANCH  18  20
ENDBRANCH  17  18
ENDBRANCH  16  17
ENDBRANCH  15  16
ENDBRANCH  13  15
ENDBRANCH  10  13
BRANCH  12  27
HETATM   27  C   UNL     1     -10.081  10.980  68.530  1.00  0.00    -0.198 A  
HETATM   28  C   UNL     1     -12.047  11.930  69.590  1.00  0.00    -0.304 A  
HETATM   29  O   UNL     1     -10.076   8.065  71.494  1.00  0.00    -0.173 OA 
HETATM   30  C   UNL     1     -10.033   9.992  69.534  1.00  0.00    -0.249 A  
HETATM   31  O   UNL     1     -11.823   8.965  72.467  1.00  0.00    -0.291 OA 
HETATM   32  C   UNL     1     -10.996   9.976  70.548  1.00  0.00    -0.326 A  
HETATM   33  C   UNL     1     -11.105  11.936  68.563  1.00  0.00    -0.290 A  
HETATM   34  C   UNL     1     -11.996  10.955  70.588  1.00  0.00    -0.467 A  
HETATM   35  N   UNL     1     -10.962   8.928  71.576  1.00  0.00    -0.300 N  
ENDBRANCH  12  27
ENDBRANCH   3   5
ENDBRANCH   2   3
TORSDOF 10
ENDMDL
MODEL      260
REMARK 921   NORMALIZED FREE ENERGY PREDICTED BY IDOCK:   -2.99 KCAL/MOL
REMARK 922        TOTAL FREE ENERGY PREDICTED BY IDOCK:   -6.26 KCAL/MOL
REMARK 923 INTER-LIGAND FREE ENERGY PREDICTED BY IDOCK:   -8.19 KCAL/MOL
REMARK 924 INTRA-LIGAND FREE ENERGY PREDICTED BY IDOCK:    1.93 KCAL/MOL
REMARK 927      BINDING AFFINITY PREDICTED BY RF-SCORE:    0.00 PKD
ROOT
HETATM    1  C   UNL     1     -13.402   9.942  71.196  1.00  0.00    -0.301 C  
HETATM    2  O   UNL     1     -13.361  11.130  70.398  1.00  0.00     0.190 OA 
ENDROOT
BRANCH   2   3
HETATM    3  C   UNL     1     -12.199  11.260  69.707  1.00  0.00    -0.275 C  
HETATM    4  O   UNL     1     -11.688  10.380  69.030  1.00  0.00    -0.202 OA 
BRANCH   3   5
HETATM    5  C   UNL     1     -11.594  12.600  69.915  1.00  0.00    -0.248 C  
HETATM    6  C   UNL     1     -12.043  13.406  70.907  1.00  0.00    -0.183 C  
HETATM    7  C   UNL     1     -13.074  13.054  71.953  1.00  0.00    -0.483 C  
HETATM    8  N   UNL     1     -11.560  14.699  71.010  1.00  0.00    -0.271 NA 
HETATM    9  C   UNL     1     -10.770  15.326  70.066  1.00  0.00    -0.279 C  
HETATM   10  C   UNL     1     -10.269  14.614  69.028  1.00  0.00    -0.222 C  
HETATM   11  C   UNL     1     -10.511  16.794  70.313  1.00  0.00     0.312 C  
HETATM   12  C   UNL     1     -10.538  13.101  68.915  1.00  0.00    -0.159 C  
BRANCH  10  13
HETATM   13  C   UNL     1      -9.361  15.276  68.048  1.00  0.00    -0.197 C  
HETATM   14  O   UNL     1      -8.441  14.734  67.452  1.00  0.00    -0.175 OA 
BRANCH  13  15
HETATM   15  O   UNL     1      -9.838  16.511  67.758  1.00  0.00    -0.234 OA 
BRANCH  15  16
HETATM   16  C   UNL     1     -10.747  16.527  66.645  1.00  0.00    -0.150 C  
BRANCH  16  17
HETATM   17  C   UNL     1     -10.252  17.648  65.716  1.00  0.00    -0.150 C  
BRANCH  17  18
HETATM   18  N   UNL     1     -10.431  19.030  66.179  1.00  0.00    -0.463 NA 
HETATM   19  C   UNL     1     -11.001  19.052  67.529  1.00  0.00    -0.275 C  
BRANCH  18  20
HETATM   20  C   UNL     1      -9.123  19.729  66.181  1.00  0.00    -0.343 C  
BRANCH  20  21
HETATM   21  C   UNL     1      -8.014  18.919  66.827  1.00  0.00    -0.269 A  
HETATM   22  C   UNL     1      -7.717  19.086  68.188  1.00  0.00    -0.326 A  
HETATM   23  C   UNL     1      -6.641  18.416  68.769  1.00  0.00    -0.256 A  
HETATM   24  C   UNL     1      -5.853  17.563  67.998  1.00  0.00    -0.148 A  
HETATM   25  C   UNL     1      -6.147  17.372  66.649  1.00  0.00    -0.239 A  
HETATM   26  C   UNL     1      -7.224  18.043  66.064  1.00  0.00    -0.316 A  
ENDBRANCH  20  21
ENDBRANCH  18  20
ENDBRANCH  17  18
ENDBRANCH  16  17
ENDBRANCH  15  16
ENDBRANCH  13  15
ENDBRANCH  10  13
BRANCH  12  27
HETATM   27  C   UNL     1     -10.885  12.693  67.480  1.00  0.00    -0.267 A  
HETATM   28  C   UNL     1     -12.349  12.817  65.548  1.00  0.00    -0.495 A  
HETATM   29  O   UNL     1      -8.550   9.994  65.350  1.00  0.00    -0.138 OA 
HETATM   30  C   UNL     1     -10.084  11.756  66.797  1.00  0.00    -0.235 A  
HETATM   31  O   UNL     1      -9.910  10.078  63.632  1.00  0.00    -0.140 OA 
HETATM   32  C   UNL     1     -10.418  11.365  65.496  1.00  0.00    -0.268 A  
HETATM   33  C   UNL     1     -12.008  13.228  66.836  1.00  0.00    -0.430 A  
HETATM   34  C   UNL     1     -11.559  11.882  64.874  1.00  0.00    -0.290 A  
HETATM   35  N   UNL     1      -9.565  10.412  64.775  1.00  0.00    -0.266 N  
ENDBRANCH  12  27
ENDBRANCH   3   5
ENDBRANCH   2   3
TORSDOF 10
ENDMDL
MODEL      261
REMARK 921   NORMALIZED FREE ENERGY PREDICTED BY IDOCK:   -2.98 KCAL/MOL
REMARK 922        TOTAL FREE ENERGY PREDICTED BY IDOCK:   -6.23 KCAL/MOL
REMARK 923 INTER-LIGAND FREE ENERGY PREDICTED BY IDOCK:   -6.89 KCAL/MOL
REMARK 924 INTRA-LIGAND FREE ENERGY PREDICTED BY IDOCK:    0.66 KCAL/MOL
REMARK 927      BINDING AFFINITY PREDICTED BY RF-SCORE:    0.00 PKD
ROOT
HETATM    1  C   UNL     1     -10.319   5.724  66.265  1.00  0.00    -0.074 C  
HETATM    2  O   UNL     1      -9.241   5.476  67.174  1.00  0.00    -0.111 OA 
ENDROOT
BRANCH   2   3
HETATM    3  C   UNL     1      -8.122   6.182  66.869  1.00  0.00    -0.109 C  
HETATM    4  O   UNL     1      -7.037   6.039  67.414  1.00  0.00    -0.070 OA 
BRANCH   3   5
HETATM    5  C   UNL     1      -8.392   7.193  65.816  1.00  0.00    -0.144 C  
HETATM    6  C   UNL     1      -7.714   7.157  64.644  1.00  0.00    -0.112 C  
HETATM    7  C   UNL     1      -6.732   6.097  64.206  1.00  0.00    -0.038 C  
HETATM    8  N   UNL     1      -7.883   8.178  63.724  1.00  0.00    -0.142 NA 
HETATM    9  C   UNL     1      -8.563   9.356  63.966  1.00  0.00    -0.205 C  
HETATM   10  C   UNL     1      -9.272   9.501  65.111  1.00  0.00    -0.305 C  
HETATM   11  C   UNL     1      -8.465  10.393  62.871  1.00  0.00    -0.187 C  
HETATM   12  C   UNL     1      -9.362   8.346  66.126  1.00  0.00    -0.267 C  
BRANCH  10  13
HETATM   13  C   UNL     1     -10.060  10.746  65.338  1.00  0.00    -0.285 C  
HETATM   14  O   UNL     1     -10.915  11.193  64.587  1.00  0.00    -0.281 OA 
BRANCH  13  15
HETATM   15  O   UNL     1      -9.839  11.194  66.598  1.00  0.00    -0.191 OA 
BRANCH  15  16
HETATM   16  C   UNL     1      -9.357  12.547  66.649  1.00  0.00    -0.236 C  
BRANCH  16  17
HETATM   17  C   UNL     1      -9.613  13.029  68.086  1.00  0.00    -0.227 C  
BRANCH  17  18
HETATM   18  N   UNL     1     -10.954  13.542  68.392  1.00  0.00    -0.256 NA 
HETATM   19  C   UNL     1     -11.715  12.561  69.171  1.00  0.00    -0.321 C  
BRANCH  18  20
HETATM   20  C   UNL     1     -10.842  14.806  69.160  1.00  0.00    -0.260 C  
BRANCH  20  21
HETATM   21  C   UNL     1     -10.250  15.946  68.351  1.00  0.00    -0.226 A  
HETATM   22  C   UNL     1     -10.768  16.260  67.086  1.00  0.00    -0.247 A  
HETATM   23  C   UNL     1     -10.172  17.243  66.297  1.00  0.00    -0.347 A  
HETATM   24  C   UNL     1      -9.055  17.931  66.767  1.00  0.00    -0.276 A  
HETATM   25  C   UNL     1      -8.540  17.644  68.030  1.00  0.00    -0.248 A  
HETATM   26  C   UNL     1      -9.134  16.658  68.822  1.00  0.00    -0.256 A  
ENDBRANCH  20  21
ENDBRANCH  18  20
ENDBRANCH  17  18
ENDBRANCH  16  17
ENDBRANCH  15  16
ENDBRANCH  13  15
ENDBRANCH  10  13
BRANCH  12  27
HETATM   27  C   UNL     1      -9.201   8.845  67.566  1.00  0.00    -0.153 A  
HETATM   28  C   UNL     1     -10.145   9.324  69.750  1.00  0.00    -0.218 A  
HETATM   29  O   UNL     1      -5.570  10.287  68.984  1.00  0.00    -0.038 OA 
HETATM   30  C   UNL     1      -7.961   9.351  68.004  1.00  0.00    -0.092 A  
HETATM   31  O   UNL     1      -6.450  10.760  70.936  1.00  0.00    -0.343 OA 
HETATM   32  C   UNL     1      -7.823   9.829  69.312  1.00  0.00    -0.105 A  
HETATM   33  C   UNL     1     -10.283   8.824  68.456  1.00  0.00    -0.220 A  
HETATM   34  C   UNL     1      -8.918   9.832  70.182  1.00  0.00    -0.235 A  
HETATM   35  N   UNL     1      -6.522  10.327  69.777  1.00  0.00    -0.067 N  
ENDBRANCH  12  27
ENDBRANCH   3   5
ENDBRANCH   2   3
TORSDOF 10
ENDMDL
MODEL      262
REMARK 921   NORMALIZED FREE ENERGY PREDICTED BY IDOCK:   -2.94 KCAL/MOL
REMARK 922        TOTAL FREE ENERGY PREDICTED BY IDOCK:   -6.18 KCAL/MOL
REMARK 923 INTER-LIGAND FREE ENERGY PREDICTED BY IDOCK:   -6.38 KCAL/MOL
REMARK 924 INTRA-LIGAND FREE ENERGY PREDICTED BY IDOCK:    0.20 KCAL/MOL
REMARK 927      BINDING AFFINITY PREDICTED BY RF-SCORE:    0.00 PKD
ROOT
HETATM    1  C   UNL     1      -6.489   8.316  67.768  1.00  0.00    -0.057 C  
HETATM    2  O   UNL     1      -5.790   7.068  67.712  1.00  0.00    -0.023 OA 
ENDROOT
BRANCH   2   3
HETATM    3  C   UNL     1      -5.953   6.321  68.834  1.00  0.00    -0.021 C  
HETATM    4  O   UNL     1      -5.395   5.256  69.050  1.00  0.00    -0.003 OA 
BRANCH   3   5
HETATM    5  C   UNL     1      -6.941   6.940  69.754  1.00  0.00    -0.062 C  
HETATM    6  C   UNL     1      -6.547   7.417  70.959  1.00  0.00    -0.043 C  
HETATM    7  C   UNL     1      -5.130   7.494  71.475  1.00  0.00    -0.027 C  
HETATM    8  N   UNL     1      -7.496   7.873  71.858  1.00  0.00    -0.074 NA 
HETATM    9  C   UNL     1      -8.861   7.724  71.711  1.00  0.00    -0.119 C  
HETATM   10  C   UNL     1      -9.365   7.251  70.545  1.00  0.00    -0.158 C  
HETATM   11  C   UNL     1      -9.689   8.147  72.903  1.00  0.00    -0.340 C  
HETATM   12  C   UNL     1      -8.430   6.920  69.367  1.00  0.00    -0.133 C  
BRANCH  10  13
HETATM   13  C   UNL     1     -10.842   7.155  70.364  1.00  0.00    -0.246 C  
HETATM   14  O   UNL     1     -11.548   6.240  70.762  1.00  0.00    -0.344 OA 
BRANCH  13  15
HETATM   15  O   UNL     1     -11.312   8.331  69.880  1.00  0.00    -0.105 OA 
BRANCH  15  16
HETATM   16  C   UNL     1     -10.305   9.129  69.237  1.00  0.00    -0.216 C  
BRANCH  16  17
HETATM   17  C   UNL     1     -10.999  10.443  68.846  1.00  0.00    -0.245 C  
BRANCH  17  18
HETATM   18  N   UNL     1     -10.243  11.374  67.998  1.00  0.00    -0.180 NA 
HETATM   19  C   UNL     1      -8.995  11.773  68.655  1.00  0.00    -0.066 C  
BRANCH  18  20
HETATM   20  C   UNL     1      -9.936  10.729  66.699  1.00  0.00    -0.206 C  
BRANCH  20  21
HETATM   21  C   UNL     1     -10.577  11.432  65.516  1.00  0.00    -0.328 A  
HETATM   22  C   UNL     1     -11.502  12.466  65.723  1.00  0.00    -0.416 A  
HETATM   23  C   UNL     1     -12.164  13.054  64.647  1.00  0.00    -0.477 A  
HETATM   24  C   UNL     1     -11.903  12.623  63.348  1.00  0.00    -0.594 A  
HETATM   25  C   UNL     1     -10.971  11.611  63.124  1.00  0.00    -0.247 A  
HETATM   26  C   UNL     1     -10.307  11.018  64.201  1.00  0.00    -0.434 A  
ENDBRANCH  20  21
ENDBRANCH  18  20
ENDBRANCH  17  18
ENDBRANCH  16  17
ENDBRANCH  15  16
ENDBRANCH  13  15
ENDBRANCH  10  13
BRANCH  12  27
HETATM   27  C   UNL     1      -8.817   5.601  68.691  1.00  0.00    -0.109 A  
HETATM   28  C   UNL     1      -9.358   3.239  68.830  1.00  0.00    -0.232 A  
HETATM   29  O   UNL     1      -9.217   5.295  64.565  1.00  0.00     0.033 OA 
HETATM   30  C   UNL     1      -8.918   5.528  67.287  1.00  0.00    -0.111 A  
HETATM   31  O   UNL     1      -9.654   3.151  64.704  1.00  0.00    -0.152 OA 
HETATM   32  C   UNL     1      -9.247   4.316  66.670  1.00  0.00    -0.144 A  
HETATM   33  C   UNL     1      -9.055   4.449  69.452  1.00  0.00    -0.171 A  
HETATM   34  C   UNL     1      -9.451   3.165  67.438  1.00  0.00    -0.177 A  
HETATM   35  N   UNL     1      -9.382   4.250  65.209  1.00  0.00    -0.154 N  
ENDBRANCH  12  27
ENDBRANCH   3   5
ENDBRANCH   2   3
TORSDOF 10
ENDMDL
MODEL      263
REMARK 921   NORMALIZED FREE ENERGY PREDICTED BY IDOCK:   -2.84 KCAL/MOL
REMARK 922        TOTAL FREE ENERGY PREDICTED BY IDOCK:   -6.02 KCAL/MOL
REMARK 923 INTER-LIGAND FREE ENERGY PREDICTED BY IDOCK:   -5.43 KCAL/MOL
REMARK 924 INTRA-LIGAND FREE ENERGY PREDICTED BY IDOCK:   -0.59 KCAL/MOL
REMARK 927      BINDING AFFINITY PREDICTED BY RF-SCORE:    0.00 PKD
ROOT
HETATM    1  C   UNL     1      -7.499   4.571  67.833  1.00  0.00    -0.069 C  
HETATM    2  O   UNL     1      -7.473   5.959  67.487  1.00  0.00    -0.076 OA 
ENDROOT
BRANCH   2   3
HETATM    3  C   UNL     1      -8.686   6.427  67.092  1.00  0.00    -0.110 C  
HETATM    4  O   UNL     1      -9.295   6.038  66.107  1.00  0.00    -0.161 OA 
BRANCH   3   5
HETATM    5  C   UNL     1      -9.162   7.513  67.985  1.00  0.00    -0.137 C  
HETATM    6  C   UNL     1     -10.177   7.289  68.853  1.00  0.00    -0.193 C  
HETATM    7  C   UNL     1     -10.861   5.968  69.114  1.00  0.00    -0.422 C  
HETATM    8  N   UNL     1     -10.696   8.342  69.587  1.00  0.00    -0.221 NA 
HETATM    9  C   UNL     1     -10.386   9.673  69.387  1.00  0.00    -0.213 C  
HETATM   10  C   UNL     1      -9.388  10.012  68.537  1.00  0.00    -0.145 C  
HETATM   11  C   UNL     1     -11.208  10.654  70.192  1.00  0.00    -0.378 C  
HETATM   12  C   UNL     1      -8.566   8.922  67.823  1.00  0.00    -0.125 C  
BRANCH  10  13
HETATM   13  C   UNL     1      -9.011  11.445  68.374  1.00  0.00    -0.172 C  
HETATM   14  O   UNL     1      -9.665  12.289  67.779  1.00  0.00    -0.189 OA 
BRANCH  13  15
HETATM   15  O   UNL     1      -7.943  11.721  69.162  1.00  0.00     0.032 OA 
BRANCH  15  16
HETATM   16  C   UNL     1      -7.090  12.749  68.632  1.00  0.00    -0.100 C  
BRANCH  16  17
HETATM   17  C   UNL     1      -7.264  13.959  69.563  1.00  0.00     0.147 C  
BRANCH  17  18
HETATM   18  N   UNL     1      -6.388  15.114  69.333  1.00  0.00    -0.120 NA 
HETATM   19  C   UNL     1      -5.186  14.711  68.597  1.00  0.00    -0.095 C  
BRANCH  18  20
HETATM   20  C   UNL     1      -7.119  16.149  68.560  1.00  0.00    -0.139 C  
BRANCH  20  21
HETATM   21  C   UNL     1      -6.517  17.535  68.701  1.00  0.00    -0.194 A  
HETATM   22  C   UNL     1      -5.870  18.140  67.613  1.00  0.00    -0.154 A  
HETATM   23  C   UNL     1      -5.235  19.373  67.759  1.00  0.00    -0.173 A  
HETATM   24  C   UNL     1      -5.246  20.021  68.993  1.00  0.00    -0.220 A  
HETATM   25  C   UNL     1      -5.902  19.442  70.078  1.00  0.00    -0.292 A  
HETATM   26  C   UNL     1      -6.538  18.206  69.935  1.00  0.00     0.119 A  
ENDBRANCH  20  21
ENDBRANCH  18  20
ENDBRANCH  17  18
ENDBRANCH  16  17
ENDBRANCH  15  16
ENDBRANCH  13  15
ENDBRANCH  10  13
BRANCH  12  27
HETATM   27  C   UNL     1      -8.329   9.266  66.349  1.00  0.00    -0.120 A  
HETATM   28  C   UNL     1      -6.929   9.205  64.368  1.00  0.00    -0.091 A  
HETATM   29  O   UNL     1     -11.100  11.441  64.141  1.00  0.00    -0.362 OA 
HETATM   30  C   UNL     1      -9.279  10.027  65.639  1.00  0.00    -0.234 A  
HETATM   31  O   UNL     1      -9.800  11.420  62.375  1.00  0.00    -0.004 OA 
HETATM   32  C   UNL     1      -9.050  10.361  64.300  1.00  0.00    -0.238 A  
HETATM   33  C   UNL     1      -7.163   8.848  65.694  1.00  0.00    -0.085 A  
HETATM   34  C   UNL     1      -7.867   9.966  63.666  1.00  0.00    -0.145 A  
HETATM   35  N   UNL     1     -10.055  11.128  63.553  1.00  0.00    -0.350 N  
ENDBRANCH  12  27
ENDBRANCH   3   5
ENDBRANCH   2   3
TORSDOF 10
ENDMDL
MODEL      264
REMARK 921   NORMALIZED FREE ENERGY PREDICTED BY IDOCK:   -2.83 KCAL/MOL
REMARK 922        TOTAL FREE ENERGY PREDICTED BY IDOCK:   -6.00 KCAL/MOL
REMARK 923 INTER-LIGAND FREE ENERGY PREDICTED BY IDOCK:   -5.33 KCAL/MOL
REMARK 924 INTRA-LIGAND FREE ENERGY PREDICTED BY IDOCK:   -0.67 KCAL/MOL
REMARK 927      BINDING AFFINITY PREDICTED BY RF-SCORE:    0.00 PKD
ROOT
HETATM    1  C   UNL     1      -5.143  14.321  68.606  1.00  0.00    -0.095 C  
HETATM    2  O   UNL     1      -6.533  14.265  68.270  1.00  0.00    -0.093 OA 
ENDROOT
BRANCH   2   3
HETATM    3  C   UNL     1      -7.103  13.072  68.580  1.00  0.00    -0.103 C  
HETATM    4  O   UNL     1      -6.994  12.507  69.658  1.00  0.00     0.072 OA 
BRANCH   3   5
HETATM    5  C   UNL     1      -7.842  12.510  67.421  1.00  0.00    -0.175 C  
HETATM    6  C   UNL     1      -8.723  13.277  66.735  1.00  0.00    -0.080 C  
HETATM    7  C   UNL     1      -8.991  14.747  66.949  1.00  0.00    -0.276 C  
HETATM    8  N   UNL     1      -9.497  12.705  65.740  1.00  0.00    -0.109 NA 
HETATM    9  C   UNL     1      -9.588  11.350  65.489  1.00  0.00    -0.228 C  
HETATM   10  C   UNL     1      -8.756  10.490  66.124  1.00  0.00    -0.167 C  
HETATM   11  C   UNL     1     -10.630  10.951  64.468  1.00  0.00    -0.335 C  
HETATM   12  C   UNL     1      -7.679  11.016  67.092  1.00  0.00    -0.131 C  
BRANCH  10  13
HETATM   13  C   UNL     1      -8.810   9.035  65.800  1.00  0.00    -0.179 C  
HETATM   14  O   UNL     1      -8.389   8.520  64.775  1.00  0.00    -0.160 OA 
BRANCH  13  15
HETATM   15  O   UNL     1      -9.201   8.346  66.899  1.00  0.00    -0.142 OA 
BRANCH  15  16
HETATM   16  C   UNL     1     -10.629   8.240  67.030  1.00  0.00    -0.258 C  
BRANCH  16  17
HETATM   17  C   UNL     1     -10.901   6.804  67.504  1.00  0.00    -0.318 C  
BRANCH  17  18
HETATM   18  N   UNL     1     -10.327   6.404  68.795  1.00  0.00    -0.180 NA 
HETATM   19  C   UNL     1     -11.368   6.337  69.824  1.00  0.00    -0.436 C  
BRANCH  18  20
HETATM   20  C   UNL     1      -9.675   5.078  68.662  1.00  0.00    -0.158 C  
BRANCH  20  21
HETATM   21  C   UNL     1      -8.165   5.137  68.805  1.00  0.00    -0.085 A  
HETATM   22  C   UNL     1      -7.373   5.618  67.753  1.00  0.00    -0.077 A  
HETATM   23  C   UNL     1      -5.982   5.590  67.839  1.00  0.00    -0.018 A  
HETATM   24  C   UNL     1      -5.364   5.088  68.983  1.00  0.00    -0.004 A  
HETATM   25  C   UNL     1      -6.138   4.626  70.046  1.00  0.00    -0.018 A  
HETATM   26  C   UNL     1      -7.533   4.651  69.962  1.00  0.00    -0.054 A  
ENDBRANCH  20  21
ENDBRANCH  18  20
ENDBRANCH  17  18
ENDBRANCH  16  17
ENDBRANCH  15  16
ENDBRANCH  13  15
ENDBRANCH  10  13
BRANCH  12  27
HETATM   27  C   UNL     1      -7.598  10.165  68.363  1.00  0.00    -0.087 A  
HETATM   28  C   UNL     1      -6.367   8.667  69.823  1.00  0.00    -0.035 A  
HETATM   29  O   UNL     1     -10.820   9.813  70.966  1.00  0.00    -0.326 OA 
HETATM   30  C   UNL     1      -8.719  10.049  69.209  1.00  0.00    -0.182 A  
HETATM   31  O   UNL     1      -9.711   8.421  72.247  1.00  0.00    -0.260 OA 
HETATM   32  C   UNL     1      -8.651   9.251  70.357  1.00  0.00    -0.219 A  
HETATM   33  C   UNL     1      -6.421   9.479  68.692  1.00  0.00    -0.052 A  
HETATM   34  C   UNL     1      -7.481   8.546  70.658  1.00  0.00    -0.066 A  
HETATM   35  N   UNL     1      -9.810   9.155  71.253  1.00  0.00    -0.299 N  
ENDBRANCH  12  27
ENDBRANCH   3   5
ENDBRANCH   2   3
TORSDOF 10
ENDMDL
MODEL      265
REMARK 921   NORMALIZED FREE ENERGY PREDICTED BY IDOCK:   -2.80 KCAL/MOL
REMARK 922        TOTAL FREE ENERGY PREDICTED BY IDOCK:   -5.95 KCAL/MOL
REMARK 923 INTER-LIGAND FREE ENERGY PREDICTED BY IDOCK:   -6.53 KCAL/MOL
REMARK 924 INTRA-LIGAND FREE ENERGY PREDICTED BY IDOCK:    0.57 KCAL/MOL
REMARK 927      BINDING AFFINITY PREDICTED BY RF-SCORE:    0.00 PKD
ROOT
HETATM    1  C   UNL     1     -11.585  15.711  68.830  1.00  0.00    -0.384 C  
HETATM    2  O   UNL     1     -10.273  15.228  68.524  1.00  0.00    -0.216 OA 
ENDROOT
BRANCH   2   3
HETATM    3  C   UNL     1     -10.053  15.111  67.189  1.00  0.00    -0.239 C  
HETATM    4  O   UNL     1      -9.973  16.049  66.410  1.00  0.00    -0.262 OA 
BRANCH   3   5
HETATM    5  C   UNL     1      -9.969  13.686  66.780  1.00  0.00    -0.270 C  
HETATM    6  C   UNL     1     -11.097  12.958  66.602  1.00  0.00    -0.284 C  
HETATM    7  C   UNL     1     -12.517  13.469  66.675  1.00  0.00    -0.263 C  
HETATM    8  N   UNL     1     -11.003  11.601  66.346  1.00  0.00    -0.289 NA 
HETATM    9  C   UNL     1      -9.840  10.859  66.429  1.00  0.00    -0.207 C  
HETATM   10  C   UNL     1      -8.653  11.486  66.609  1.00  0.00    -0.176 C  
HETATM   11  C   UNL     1     -10.016   9.366  66.276  1.00  0.00    -0.353 C  
HETATM   12  C   UNL     1      -8.583  13.023  66.679  1.00  0.00     0.027 C  
BRANCH  10  13
HETATM   13  C   UNL     1      -7.393  10.689  66.630  1.00  0.00    -0.129 C  
HETATM   14  O   UNL     1      -6.475  10.791  65.830  1.00  0.00    -0.125 OA 
BRANCH  13  15
HETATM   15  O   UNL     1      -7.325   9.987  67.787  1.00  0.00    -0.087 OA 
BRANCH  15  16
HETATM   16  C   UNL     1      -6.564   8.773  67.677  1.00  0.00    -0.062 C  
BRANCH  16  17
HETATM   17  C   UNL     1      -6.265   8.333  69.119  1.00  0.00    -0.039 C  
BRANCH  17  18
HETATM   18  N   UNL     1      -7.242   7.450  69.767  1.00  0.00    -0.079 NA 
HETATM   19  C   UNL     1      -6.605   6.200  70.191  1.00  0.00    -0.044 C  
BRANCH  18  20
HETATM   20  C   UNL     1      -7.827   8.133  70.947  1.00  0.00    -0.091 C  
BRANCH  20  21
HETATM   21  C   UNL     1      -9.287   7.786  71.175  1.00  0.00    -0.164 A  
HETATM   22  C   UNL     1      -9.912   8.114  72.387  1.00  0.00    -0.345 A  
HETATM   23  C   UNL     1     -11.223   7.718  72.642  1.00  0.00    -0.438 A  
HETATM   24  C   UNL     1     -11.931   6.995  71.684  1.00  0.00    -0.365 A  
HETATM   25  C   UNL     1     -11.331   6.677  70.467  1.00  0.00    -0.413 A  
HETATM   26  C   UNL     1     -10.016   7.072  70.209  1.00  0.00    -0.186 A  
ENDBRANCH  20  21
ENDBRANCH  18  20
ENDBRANCH  17  18
ENDBRANCH  16  17
ENDBRANCH  15  16
ENDBRANCH  13  15
ENDBRANCH  10  13
BRANCH  12  27
HETATM   27  C   UNL     1      -7.651  13.498  67.797  1.00  0.00    -0.163 A  
HETATM   28  C   UNL     1      -6.458  13.077  69.868  1.00  0.00     0.043 A  
HETATM   29  O   UNL     1      -6.161  17.377  67.902  1.00  0.00    -0.138 OA 
HETATM   30  C   UNL     1      -7.186  14.828  67.814  1.00  0.00    -0.192 A  
HETATM   31  O   UNL     1      -5.129  16.995  69.799  1.00  0.00    -0.145 OA 
HETATM   32  C   UNL     1      -6.354  15.266  68.851  1.00  0.00    -0.095 A  
HETATM   33  C   UNL     1      -7.266  12.627  68.826  1.00  0.00    -0.083 A  
HETATM   34  C   UNL     1      -6.002  14.397  69.889  1.00  0.00    -0.132 A  
HETATM   35  N   UNL     1      -5.845  16.644  68.850  1.00  0.00    -0.139 N  
ENDBRANCH  12  27
ENDBRANCH   3   5
ENDBRANCH   2   3
TORSDOF 10
ENDMDL
MODEL      266
REMARK 921   NORMALIZED FREE ENERGY PREDICTED BY IDOCK:   -2.68 KCAL/MOL
REMARK 922        TOTAL FREE ENERGY PREDICTED BY IDOCK:   -5.77 KCAL/MOL
REMARK 923 INTER-LIGAND FREE ENERGY PREDICTED BY IDOCK:   -6.53 KCAL/MOL
REMARK 924 INTRA-LIGAND FREE ENERGY PREDICTED BY IDOCK:    0.76 KCAL/MOL
REMARK 927      BINDING AFFINITY PREDICTED BY RF-SCORE:    0.00 PKD
ROOT
HETATM    1  C   UNL     1     -11.053  16.213  71.074  1.00  0.00    -0.133 C  
HETATM    2  O   UNL     1     -11.754  15.810  69.893  1.00  0.00    -0.331 OA 
ENDROOT
BRANCH   2   3
HETATM    3  C   UNL     1     -12.916  15.162  70.165  1.00  0.00    -0.091 C  
HETATM    4  O   UNL     1     -13.986  15.711  70.383  1.00  0.00    -0.010 OA 
BRANCH   3   5
HETATM    5  C   UNL     1     -12.716  13.692  70.212  1.00  0.00    -0.163 C  
HETATM    6  C   UNL     1     -12.787  13.030  71.392  1.00  0.00    -0.292 C  
HETATM    7  C   UNL     1     -13.165  13.618  72.731  1.00  0.00    -0.431 C  
HETATM    8  N   UNL     1     -12.473  11.683  71.441  1.00  0.00    -0.266 NA 
HETATM    9  C   UNL     1     -11.908  10.964  70.405  1.00  0.00    -0.357 C  
HETATM   10  C   UNL     1     -11.785  11.531  69.181  1.00  0.00    -0.395 C  
HETATM   11  C   UNL     1     -11.494   9.552  70.751  1.00  0.00    -0.378 C  
HETATM   12  C   UNL     1     -12.310  12.956  68.923  1.00  0.00     0.153 C  
BRANCH  10  13
HETATM   13  C   UNL     1     -11.238  10.730  68.048  1.00  0.00    -0.307 C  
HETATM   14  O   UNL     1     -11.649  10.755  66.898  1.00  0.00    -0.255 OA 
BRANCH  13  15
HETATM   15  O   UNL     1     -10.086  10.132  68.437  1.00  0.00    -0.155 OA 
BRANCH  15  16
HETATM   16  C   UNL     1     -10.079   8.710  68.229  1.00  0.00    -0.192 C  
BRANCH  16  17
HETATM   17  C   UNL     1      -8.614   8.332  67.963  1.00  0.00    -0.132 C  
BRANCH  17  18
HETATM   18  N   UNL     1      -7.888   7.659  69.048  1.00  0.00    -0.117 NA 
HETATM   19  C   UNL     1      -7.747   8.549  70.204  1.00  0.00    -0.086 C  
BRANCH  18  20
HETATM   20  C   UNL     1      -8.619   6.433  69.453  1.00  0.00    -0.130 C  
BRANCH  20  21
HETATM   21  C   UNL     1      -7.705   5.247  69.702  1.00  0.00    -0.073 A  
HETATM   22  C   UNL     1      -6.343   5.322  69.375  1.00  0.00    -0.034 A  
HETATM   23  C   UNL     1      -5.515   4.209  69.513  1.00  0.00    -0.015 A  
HETATM   24  C   UNL     1      -6.037   3.008  69.990  1.00  0.00    -0.023 A  
HETATM   25  C   UNL     1      -7.384   2.923  70.339  1.00  0.00    -0.040 A  
HETATM   26  C   UNL     1      -8.216   4.037  70.199  1.00  0.00    -0.069 A  
ENDBRANCH  20  21
ENDBRANCH  18  20
ENDBRANCH  17  18
ENDBRANCH  16  17
ENDBRANCH  15  16
ENDBRANCH  13  15
ENDBRANCH  10  13
BRANCH  12  27
HETATM   27  C   UNL     1     -11.322  13.781  68.092  1.00  0.00    -0.315 A  
HETATM   28  C   UNL     1     -10.830  15.154  66.152  1.00  0.00    -0.330 A  
HETATM   29  O   UNL     1      -7.328  14.152  69.181  1.00  0.00    -0.122 OA 
HETATM   30  C   UNL     1      -9.969  13.863  68.478  1.00  0.00    -0.221 A  
HETATM   31  O   UNL     1      -6.889  15.349  67.397  1.00  0.00    -0.181 OA 
HETATM   32  C   UNL     1      -9.064  14.597  67.704  1.00  0.00    -0.193 A  
HETATM   33  C   UNL     1     -11.743  14.446  66.932  1.00  0.00    -0.422 A  
HETATM   34  C   UNL     1      -9.488  15.230  66.531  1.00  0.00    -0.308 A  
HETATM   35  N   UNL     1      -7.661  14.707  68.124  1.00  0.00    -0.116 N  
ENDBRANCH  12  27
ENDBRANCH   3   5
ENDBRANCH   2   3
TORSDOF 10
ENDMDL
MODEL      267
REMARK 921   NORMALIZED FREE ENERGY PREDICTED BY IDOCK:   -2.61 KCAL/MOL
REMARK 922        TOTAL FREE ENERGY PREDICTED BY IDOCK:   -5.65 KCAL/MOL
REMARK 923 INTER-LIGAND FREE ENERGY PREDICTED BY IDOCK:   -7.18 KCAL/MOL
REMARK 924 INTRA-LIGAND FREE ENERGY PREDICTED BY IDOCK:    1.52 KCAL/MOL
REMARK 927      BINDING AFFINITY PREDICTED BY RF-SCORE:    0.00 PKD
ROOT
HETATM    1  C   UNL     1     -11.159  15.745  69.811  1.00  0.00    -0.322 C  
HETATM    2  O   UNL     1     -10.280  15.325  68.762  1.00  0.00    -0.214 OA 
ENDROOT
BRANCH   2   3
HETATM    3  C   UNL     1      -8.969  15.479  69.080  1.00  0.00    -0.256 C  
HETATM    4  O   UNL     1      -8.450  16.537  69.403  1.00  0.00    -0.135 OA 
BRANCH   3   5
HETATM    5  C   UNL     1      -8.226  14.201  68.939  1.00  0.00    -0.014 C  
HETATM    6  C   UNL     1      -6.999  14.059  69.495  1.00  0.00    -0.007 C  
HETATM    7  C   UNL     1      -6.291  15.059  70.377  1.00  0.00    -0.071 C  
HETATM    8  N   UNL     1      -6.265  12.912  69.248  1.00  0.00    -0.098 NA 
HETATM    9  C   UNL     1      -6.598  11.944  68.320  1.00  0.00    -0.054 C  
HETATM   10  C   UNL     1      -7.802  11.991  67.701  1.00  0.00    -0.149 C  
HETATM   11  C   UNL     1      -5.555  10.871  68.104  1.00  0.00    -0.039 C  
HETATM   12  C   UNL     1      -8.820  13.092  68.053  1.00  0.00    -0.191 C  
BRANCH  10  13
HETATM   13  C   UNL     1      -8.187  10.908  66.751  1.00  0.00    -0.140 C  
HETATM   14  O   UNL     1      -7.819  10.818  65.589  1.00  0.00    -0.147 OA 
BRANCH  13  15
HETATM   15  O   UNL     1      -8.833   9.927  67.427  1.00  0.00    -0.131 OA 
BRANCH  15  16
HETATM   16  C   UNL     1      -8.817   8.659  66.750  1.00  0.00    -0.134 C  
BRANCH  16  17
HETATM   17  C   UNL     1     -10.140   7.970  67.120  1.00  0.00    -0.263 C  
BRANCH  17  18
HETATM   18  N   UNL     1     -10.053   6.684  67.823  1.00  0.00    -0.139 NA 
HETATM   19  C   UNL     1      -8.866   6.645  68.682  1.00  0.00    -0.122 C  
BRANCH  18  20
HETATM   20  C   UNL     1     -11.269   6.482  68.648  1.00  0.00    -0.216 C  
BRANCH  20  21
HETATM   21  C   UNL     1     -11.133   7.032  70.056  1.00  0.00    -0.316 A  
HETATM   22  C   UNL     1     -11.117   8.417  70.277  1.00  0.00    -0.216 A  
HETATM   23  C   UNL     1     -10.900   8.931  71.555  1.00  0.00    -0.396 A  
HETATM   24  C   UNL     1     -10.706   8.066  72.630  1.00  0.00    -0.426 A  
HETATM   25  C   UNL     1     -10.740   6.687  72.431  1.00  0.00    -0.252 A  
HETATM   26  C   UNL     1     -10.956   6.169  71.151  1.00  0.00    -0.343 A  
ENDBRANCH  20  21
ENDBRANCH  18  20
ENDBRANCH  17  18
ENDBRANCH  16  17
ENDBRANCH  15  16
ENDBRANCH  13  15
ENDBRANCH  10  13
BRANCH  12  27
HETATM   27  C   UNL     1      -9.487  13.669  66.801  1.00  0.00    -0.275 A  
HETATM   28  C   UNL     1      -9.716  15.445  65.162  1.00  0.00    -0.015 A  
HETATM   29  O   UNL     1     -12.555  11.665  64.838  1.00  0.00     0.008 OA 
HETATM   30  C   UNL     1     -10.542  12.973  66.177  1.00  0.00    -0.289 A  
HETATM   31  O   UNL     1     -12.783  13.301  63.396  1.00  0.00    -0.695 OA 
HETATM   32  C   UNL     1     -11.166  13.515  65.047  1.00  0.00    -0.322 A  
HETATM   33  C   UNL     1      -9.074  14.899  66.272  1.00  0.00    -0.262 A  
HETATM   34  C   UNL     1     -10.766  14.759  64.547  1.00  0.00    -0.124 A  
HETATM   35  N   UNL     1     -12.244  12.774  64.380  1.00  0.00    -0.408 N  
ENDBRANCH  12  27
ENDBRANCH   3   5
ENDBRANCH   2   3
TORSDOF 10
ENDMDL
MODEL      268
REMARK 921   NORMALIZED FREE ENERGY PREDICTED BY IDOCK:   -2.60 KCAL/MOL
REMARK 922        TOTAL FREE ENERGY PREDICTED BY IDOCK:   -5.64 KCAL/MOL
REMARK 923 INTER-LIGAND FREE ENERGY PREDICTED BY IDOCK:   -3.94 KCAL/MOL
REMARK 924 INTRA-LIGAND FREE ENERGY PREDICTED BY IDOCK:   -1.69 KCAL/MOL
REMARK 927      BINDING AFFINITY PREDICTED BY RF-SCORE:    0.00 PKD
ROOT
HETATM    1  C   UNL     1     -11.051   7.122  73.260  1.00  0.00    -0.212 C  
HETATM    2  O   UNL     1     -10.578   6.495  72.064  1.00  0.00    -0.211 OA 
ENDROOT
BRANCH   2   3
HETATM    3  C   UNL     1     -11.078   7.065  70.937  1.00  0.00    -0.267 C  
HETATM    4  O   UNL     1     -11.990   6.604  70.268  1.00  0.00    -0.387 OA 
BRANCH   3   5
HETATM    5  C   UNL     1     -10.340   8.306  70.587  1.00  0.00    -0.220 C  
HETATM    6  C   UNL     1     -10.995   9.488  70.496  1.00  0.00    -0.288 C  
HETATM    7  C   UNL     1     -12.448   9.737  70.822  1.00  0.00    -0.297 C  
HETATM    8  N   UNL     1     -10.321  10.610  70.046  1.00  0.00    -0.053 NA 
HETATM    9  C   UNL     1      -9.053  10.605  69.497  1.00  0.00     0.040 C  
HETATM   10  C   UNL     1      -8.310   9.473  69.531  1.00  0.00    -0.145 C  
HETATM   11  C   UNL     1      -8.596  11.923  68.917  1.00  0.00     0.151 C  
HETATM   12  C   UNL     1      -8.850   8.203  70.215  1.00  0.00    -0.141 C  
BRANCH  10  13
HETATM   13  C   UNL     1      -6.917   9.488  69.000  1.00  0.00    -0.058 C  
HETATM   14  O   UNL     1      -5.914   9.175  69.625  1.00  0.00    -0.032 OA 
BRANCH  13  15
HETATM   15  O   UNL     1      -6.949   9.696  67.661  1.00  0.00    -0.084 OA 
BRANCH  15  16
HETATM   16  C   UNL     1      -6.030   8.867  66.930  1.00  0.00    -0.057 C  
BRANCH  16  17
HETATM   17  C   UNL     1      -6.364   9.081  65.445  1.00  0.00    -0.064 C  
BRANCH  17  18
HETATM   18  N   UNL     1      -6.440  10.467  64.967  1.00  0.00    -0.078 NA 
HETATM   19  C   UNL     1      -5.135  10.913  64.471  1.00  0.00    -0.041 C  
BRANCH  18  20
HETATM   20  C   UNL     1      -7.444  10.566  63.880  1.00  0.00     0.092 C  
BRANCH  20  21
HETATM   21  C   UNL     1      -8.799  11.053  64.361  1.00  0.00     0.007 A  
HETATM   22  C   UNL     1      -9.933  10.907  63.549  1.00  0.00    -0.419 A  
HETATM   23  C   UNL     1     -11.162  11.433  63.942  1.00  0.00    -0.364 A  
HETATM   24  C   UNL     1     -11.276  12.106  65.157  1.00  0.00    -0.378 A  
HETATM   25  C   UNL     1     -10.162  12.243  65.985  1.00  0.00    -0.267 A  
HETATM   26  C   UNL     1      -8.929  11.717  65.592  1.00  0.00     0.045 A  
ENDBRANCH  20  21
ENDBRANCH  18  20
ENDBRANCH  17  18
ENDBRANCH  16  17
ENDBRANCH  15  16
ENDBRANCH  13  15
ENDBRANCH  10  13
BRANCH  12  27
HETATM   27  C   UNL     1      -8.564   6.947  69.386  1.00  0.00    -0.133 A  
HETATM   28  C   UNL     1      -7.499   4.780  69.139  1.00  0.00    -0.056 A  
HETATM   29  O   UNL     1     -10.021   6.504  65.518  1.00  0.00     0.671 OA 
HETATM   30  C   UNL     1      -9.053   6.843  68.068  1.00  0.00    -0.120 A  
HETATM   31  O   UNL     1      -9.011   4.571  65.293  1.00  0.00    -0.133 OA 
HETATM   32  C   UNL     1      -8.769   5.706  67.303  1.00  0.00    -0.107 A  
HETATM   33  C   UNL     1      -7.799   5.899  69.914  1.00  0.00    -0.096 A  
HETATM   34  C   UNL     1      -7.978   4.680  67.831  1.00  0.00    -0.089 A  
HETATM   35  N   UNL     1      -9.305   5.586  65.942  1.00  0.00    -0.152 N  
ENDBRANCH  12  27
ENDBRANCH   3   5
ENDBRANCH   2   3
TORSDOF 10
ENDMDL
MODEL      269
REMARK 921   NORMALIZED FREE ENERGY PREDICTED BY IDOCK:   -2.38 KCAL/MOL
REMARK 922        TOTAL FREE ENERGY PREDICTED BY IDOCK:   -5.30 KCAL/MOL
REMARK 923 INTER-LIGAND FREE ENERGY PREDICTED BY IDOCK:   -5.47 KCAL/MOL
REMARK 924 INTRA-LIGAND FREE ENERGY PREDICTED BY IDOCK:    0.18 KCAL/MOL
REMARK 927      BINDING AFFINITY PREDICTED BY RF-SCORE:    0.00 PKD
ROOT
HETATM    1  C   UNL     1     -10.601  16.324  68.989  1.00  0.00    -0.286 C  
HETATM    2  O   UNL     1      -9.832  15.163  68.656  1.00  0.00    -0.204 OA 
ENDROOT
BRANCH   2   3
HETATM    3  C   UNL     1      -9.563  15.072  67.328  1.00  0.00    -0.207 C  
HETATM    4  O   UNL     1      -9.281  16.018  66.607  1.00  0.00    -0.213 OA 
BRANCH   3   5
HETATM    5  C   UNL     1      -9.704  13.676  66.843  1.00  0.00    -0.262 C  
HETATM    6  C   UNL     1     -10.932  13.125  66.693  1.00  0.00    -0.283 C  
HETATM    7  C   UNL     1     -12.258  13.824  66.871  1.00  0.00    -0.408 C  
HETATM    8  N   UNL     1     -11.045  11.785  66.364  1.00  0.00    -0.299 NA 
HETATM    9  C   UNL     1      -9.998  10.884  66.344  1.00  0.00    -0.221 C  
HETATM   10  C   UNL     1      -8.726  11.327  66.488  1.00  0.00    -0.178 C  
HETATM   11  C   UNL     1     -10.393   9.441  66.127  1.00  0.00    -0.162 C  
HETATM   12  C   UNL     1      -8.434  12.833  66.631  1.00  0.00     0.046 C  
BRANCH  10  13
HETATM   13  C   UNL     1      -7.593  10.361  66.399  1.00  0.00    -0.123 C  
HETATM   14  O   UNL     1      -6.766  10.318  65.500  1.00  0.00    -0.115 OA 
BRANCH  13  15
HETATM   15  O   UNL     1      -7.493   9.678  67.565  1.00  0.00    -0.090 OA 
BRANCH  15  16
HETATM   16  C   UNL     1      -8.011   8.339  67.490  1.00  0.00    -0.110 C  
BRANCH  16  17
HETATM   17  C   UNL     1      -7.497   7.621  68.748  1.00  0.00    -0.100 C  
BRANCH  17  18
HETATM   18  N   UNL     1      -8.427   7.500  69.878  1.00  0.00    -0.137 NA 
HETATM   19  C   UNL     1      -9.756   7.096  69.411  1.00  0.00    -0.160 C  
BRANCH  18  20
HETATM   20  C   UNL     1      -7.913   6.496  70.842  1.00  0.00    -0.111 C  
BRANCH  20  21
HETATM   21  C   UNL     1      -7.262   7.120  72.063  1.00  0.00    -0.076 A  
HETATM   22  C   UNL     1      -5.865   7.152  72.183  1.00  0.00    -0.037 A  
HETATM   23  C   UNL     1      -5.261   7.638  73.341  1.00  0.00    -0.041 A  
HETATM   24  C   UNL     1      -6.046   8.107  74.393  1.00  0.00    -0.113 A  
HETATM   25  C   UNL     1      -7.436   8.100  74.282  1.00  0.00    -0.247 A  
HETATM   26  C   UNL     1      -8.044   7.612  73.122  1.00  0.00    -0.163 A  
ENDBRANCH  20  21
ENDBRANCH  18  20
ENDBRANCH  17  18
ENDBRANCH  16  17
ENDBRANCH  15  16
ENDBRANCH  13  15
ENDBRANCH  10  13
BRANCH  12  27
HETATM   27  C   UNL     1      -7.390  13.106  67.718  1.00  0.00    -0.143 A  
HETATM   28  C   UNL     1      -5.588  14.460  68.618  1.00  0.00    -0.093 A  
HETATM   29  O   UNL     1      -6.884  10.548  70.955  1.00  0.00    -0.270 OA 
HETATM   30  C   UNL     1      -7.229  12.203  68.788  1.00  0.00    -0.103 A  
HETATM   31  O   UNL     1      -5.224  11.756  71.728  1.00  0.00    -0.337 OA 
HETATM   32  C   UNL     1      -6.257  12.442  69.766  1.00  0.00    -0.119 A  
HETATM   33  C   UNL     1      -6.570  14.241  67.654  1.00  0.00    -0.172 A  
HETATM   34  C   UNL     1      -5.424  13.562  69.675  1.00  0.00    -0.092 A  
HETATM   35  N   UNL     1      -6.112  11.516  70.896  1.00  0.00     0.154 N  
ENDBRANCH  12  27
ENDBRANCH   3   5
ENDBRANCH   2   3
TORSDOF 10
ENDMDL
MODEL      270
REMARK 921   NORMALIZED FREE ENERGY PREDICTED BY IDOCK:   -2.38 KCAL/MOL
REMARK 922        TOTAL FREE ENERGY PREDICTED BY IDOCK:   -5.29 KCAL/MOL
REMARK 923 INTER-LIGAND FREE ENERGY PREDICTED BY IDOCK:   -4.69 KCAL/MOL
REMARK 924 INTRA-LIGAND FREE ENERGY PREDICTED BY IDOCK:   -0.60 KCAL/MOL
REMARK 927      BINDING AFFINITY PREDICTED BY RF-SCORE:    0.00 PKD
ROOT
HETATM    1  C   UNL     1      -8.367  16.215  66.808  1.00  0.00    -0.264 C  
HETATM    2  O   UNL     1      -7.801  15.254  67.706  1.00  0.00    -0.127 OA 
ENDROOT
BRANCH   2   3
HETATM    3  C   UNL     1      -8.691  14.301  68.086  1.00  0.00    -0.174 C  
HETATM    4  O   UNL     1      -9.212  14.233  69.189  1.00  0.00    -0.031 OA 
BRANCH   3   5
HETATM    5  C   UNL     1      -8.918  13.311  67.002  1.00  0.00    -0.230 C  
HETATM    6  C   UNL     1     -10.089  13.300  66.321  1.00  0.00    -0.294 C  
HETATM    7  C   UNL     1     -11.222  14.288  66.465  1.00  0.00    -0.333 C  
HETATM    8  N   UNL     1     -10.336  12.295  65.403  1.00  0.00    -0.263 NA 
HETATM    9  C   UNL     1      -9.556  11.167  65.234  1.00  0.00    -0.230 C  
HETATM   10  C   UNL     1      -8.364  11.072  65.871  1.00  0.00    -0.119 C  
HETATM   11  C   UNL     1     -10.120  10.126  64.295  1.00  0.00    -0.030 C  
HETATM   12  C   UNL     1      -7.853  12.230  66.749  1.00  0.00     0.043 C  
BRANCH  10  13
HETATM   13  C   UNL     1      -7.492   9.886  65.634  1.00  0.00    -0.116 C  
HETATM   14  O   UNL     1      -7.615   8.796  66.173  1.00  0.00    -0.091 OA 
BRANCH  13  15
HETATM   15  O   UNL     1      -6.677  10.132  64.580  1.00  0.00    -0.129 OA 
BRANCH  15  16
HETATM   16  C   UNL     1      -6.717   9.106  63.574  1.00  0.00    -0.090 C  
BRANCH  16  17
HETATM   17  C   UNL     1      -5.806   7.980  64.087  1.00  0.00    -0.056 C  
BRANCH  17  18
HETATM   18  N   UNL     1      -6.158   6.606  63.704  1.00  0.00    -0.034 NA 
HETATM   19  C   UNL     1      -5.734   5.659  64.739  1.00  0.00    -0.021 C  
BRANCH  18  20
HETATM   20  C   UNL     1      -7.624   6.502  63.506  1.00  0.00    -0.092 C  
BRANCH  20  21
HETATM   21  C   UNL     1      -8.161   5.103  63.743  1.00  0.00    -0.126 A  
HETATM   22  C   UNL     1      -7.926   4.086  62.806  1.00  0.00    -0.070 A  
HETATM   23  C   UNL     1      -8.492   2.823  62.969  1.00  0.00    -0.085 A  
HETATM   24  C   UNL     1      -9.295   2.557  64.076  1.00  0.00    -0.123 A  
HETATM   25  C   UNL     1      -9.522   3.550  65.027  1.00  0.00    -0.159 A  
HETATM   26  C   UNL     1      -8.957   4.818  64.865  1.00  0.00    -0.151 A  
ENDBRANCH  20  21
ENDBRANCH  18  20
ENDBRANCH  17  18
ENDBRANCH  16  17
ENDBRANCH  15  16
ENDBRANCH  13  15
ENDBRANCH  10  13
BRANCH  12  27
HETATM   27  C   UNL     1      -7.247  11.721  68.061  1.00  0.00    -0.084 A  
HETATM   28  C   UNL     1      -5.399  11.619  69.631  1.00  0.00    -0.065 A  
HETATM   29  O   UNL     1      -9.318   9.125  70.561  1.00  0.00    -0.200 OA 
HETATM   30  C   UNL     1      -7.969  10.821  68.871  1.00  0.00    -0.143 A  
HETATM   31  O   UNL     1      -7.621   9.005  71.944  1.00  0.00    -0.334 OA 
HETATM   32  C   UNL     1      -7.403  10.338  70.056  1.00  0.00    -0.149 A  
HETATM   33  C   UNL     1      -5.966  12.123  68.462  1.00  0.00    -0.053 A  
HETATM   34  C   UNL     1      -6.111  10.722  70.431  1.00  0.00    -0.135 A  
HETATM   35  N   UNL     1      -8.169   9.425  70.915  1.00  0.00    -0.131 N  
ENDBRANCH  12  27
ENDBRANCH   3   5
ENDBRANCH   2   3
TORSDOF 10
ENDMDL
MODEL      271
REMARK 921   NORMALIZED FREE ENERGY PREDICTED BY IDOCK:   -2.38 KCAL/MOL
REMARK 922        TOTAL FREE ENERGY PREDICTED BY IDOCK:   -5.29 KCAL/MOL
REMARK 923 INTER-LIGAND FREE ENERGY PREDICTED BY IDOCK:   -5.97 KCAL/MOL
REMARK 924 INTRA-LIGAND FREE ENERGY PREDICTED BY IDOCK:    0.68 KCAL/MOL
REMARK 927      BINDING AFFINITY PREDICTED BY RF-SCORE:    0.00 PKD
ROOT
HETATM    1  C   UNL     1     -10.366  15.831  69.937  1.00  0.00    -0.309 C  
HETATM    2  O   UNL     1      -9.828  16.617  68.868  1.00  0.00    -0.240 OA 
ENDROOT
BRANCH   2   3
HETATM    3  C   UNL     1      -9.341  15.861  67.851  1.00  0.00    -0.207 C  
HETATM    4  O   UNL     1      -9.406  16.159  66.668  1.00  0.00    -0.213 OA 
BRANCH   3   5
HETATM    5  C   UNL     1      -8.757  14.592  68.354  1.00  0.00    -0.175 C  
HETATM    6  C   UNL     1      -7.430  14.503  68.608  1.00  0.00    -0.128 C  
HETATM    7  C   UNL     1      -6.424  15.627  68.534  1.00  0.00    -0.107 C  
HETATM    8  N   UNL     1      -6.880  13.281  68.953  1.00  0.00    -0.102 NA 
HETATM    9  C   UNL     1      -7.542  12.070  68.893  1.00  0.00    -0.016 C  
HETATM   10  C   UNL     1      -8.873  12.042  68.643  1.00  0.00    -0.024 C  
HETATM   11  C   UNL     1      -6.684  10.852  69.151  1.00  0.00    -0.079 C  
HETATM   12  C   UNL     1      -9.663  13.352  68.467  1.00  0.00    -0.156 C  
BRANCH  10  13
HETATM   13  C   UNL     1      -9.598  10.739  68.646  1.00  0.00    -0.187 C  
HETATM   14  O   UNL     1     -10.304  10.321  69.551  1.00  0.00    -0.217 OA 
BRANCH  13  15
HETATM   15  O   UNL     1      -9.527  10.183  67.412  1.00  0.00    -0.150 OA 
BRANCH  15  16
HETATM   16  C   UNL     1      -8.641   9.053  67.343  1.00  0.00    -0.115 C  
BRANCH  16  17
HETATM   17  C   UNL     1      -9.406   7.882  67.979  1.00  0.00    -0.145 C  
BRANCH  17  18
HETATM   18  N   UNL     1      -8.644   6.659  68.263  1.00  0.00    -0.120 NA 
HETATM   19  C   UNL     1      -8.063   6.714  69.608  1.00  0.00    -0.126 C  
BRANCH  18  20
HETATM   20  C   UNL     1      -9.537   5.479  68.157  1.00  0.00    -0.119 C  
BRANCH  20  21
HETATM   21  C   UNL     1      -8.805   4.211  67.756  1.00  0.00    -0.130 A  
HETATM   22  C   UNL     1      -8.050   4.172  66.575  1.00  0.00    -0.101 A  
HETATM   23  C   UNL     1      -7.451   2.987  66.151  1.00  0.00    -0.072 A  
HETATM   24  C   UNL     1      -7.592   1.825  66.908  1.00  0.00    -0.061 A  
HETATM   25  C   UNL     1      -8.323   1.852  68.095  1.00  0.00    -0.077 A  
HETATM   26  C   UNL     1      -8.925   3.038  68.521  1.00  0.00    -0.190 A  
ENDBRANCH  20  21
ENDBRANCH  18  20
ENDBRANCH  17  18
ENDBRANCH  16  17
ENDBRANCH  15  16
ENDBRANCH  13  15
ENDBRANCH  10  13
BRANCH  12  27
HETATM   27  C   UNL     1     -10.648  13.267  67.297  1.00  0.00    -0.250 A  
HETATM   28  C   UNL     1     -12.829  13.729  66.339  1.00  0.00     0.034 A  
HETATM   29  O   UNL     1      -9.668  11.327  63.754  1.00  0.00    -0.251 OA 
HETATM   30  C   UNL     1     -10.290  12.579  66.120  1.00  0.00    -0.274 A  
HETATM   31  O   UNL     1     -11.661  11.709  62.922  1.00  0.00     0.012 OA 
HETATM   32  C   UNL     1     -11.201  12.481  65.062  1.00  0.00    -0.306 A  
HETATM   33  C   UNL     1     -11.918  13.852  67.386  1.00  0.00    -0.436 A  
HETATM   34  C   UNL     1     -12.478  13.041  65.175  1.00  0.00    -0.552 A  
HETATM   35  N   UNL     1     -10.816  11.790  63.825  1.00  0.00    -0.385 N  
ENDBRANCH  12  27
ENDBRANCH   3   5
ENDBRANCH   2   3
TORSDOF 10
ENDMDL
MODEL      272
REMARK 921   NORMALIZED FREE ENERGY PREDICTED BY IDOCK:   -2.27 KCAL/MOL
REMARK 922        TOTAL FREE ENERGY PREDICTED BY IDOCK:   -5.12 KCAL/MOL
REMARK 923 INTER-LIGAND FREE ENERGY PREDICTED BY IDOCK:   -6.03 KCAL/MOL
REMARK 924 INTRA-LIGAND FREE ENERGY PREDICTED BY IDOCK:    0.92 KCAL/MOL
REMARK 927      BINDING AFFINITY PREDICTED BY RF-SCORE:    0.00 PKD
ROOT
HETATM    1  C   UNL     1     -10.753  15.653  68.473  1.00  0.00    -0.264 C  
HETATM    2  O   UNL     1      -9.725  14.666  68.340  1.00  0.00    -0.205 OA 
ENDROOT
BRANCH   2   3
HETATM    3  C   UNL     1      -9.325  14.492  67.054  1.00  0.00    -0.238 C  
HETATM    4  O   UNL     1      -8.954  15.388  66.312  1.00  0.00    -0.297 OA 
BRANCH   3   5
HETATM    5  C   UNL     1      -9.441  13.070  66.641  1.00  0.00    -0.256 C  
HETATM    6  C   UNL     1     -10.656  12.532  66.375  1.00  0.00    -0.247 C  
HETATM    7  C   UNL     1     -11.976  13.265  66.349  1.00  0.00    -0.465 C  
HETATM    8  N   UNL     1     -10.762  11.177  66.116  1.00  0.00    -0.252 NA 
HETATM    9  C   UNL     1      -9.743  10.258  66.278  1.00  0.00    -0.209 C  
HETATM   10  C   UNL     1      -8.487  10.687  66.549  1.00  0.00    -0.144 C  
HETATM   11  C   UNL     1     -10.145   8.812  66.101  1.00  0.00    -0.154 C  
HETATM   12  C   UNL     1      -8.177  12.193  66.636  1.00  0.00    -0.017 C  
BRANCH  10  13
HETATM   13  C   UNL     1      -7.376   9.698  66.656  1.00  0.00    -0.090 C  
HETATM   14  O   UNL     1      -6.451   9.581  65.866  1.00  0.00    -0.073 OA 
BRANCH  13  15
HETATM   15  O   UNL     1      -7.430   9.092  67.867  1.00  0.00    -0.084 OA 
BRANCH  15  16
HETATM   16  C   UNL     1      -7.721   7.686  67.791  1.00  0.00    -0.122 C  
BRANCH  16  17
HETATM   17  C   UNL     1      -8.601   7.374  69.011  1.00  0.00    -0.133 C  
BRANCH  17  18
HETATM   18  N   UNL     1      -8.165   6.283  69.892  1.00  0.00    -0.119 NA 
HETATM   19  C   UNL     1      -6.721   6.358  70.129  1.00  0.00    -0.050 C  
BRANCH  18  20
HETATM   20  C   UNL     1      -8.885   6.369  71.187  1.00  0.00    -0.138 C  
BRANCH  20  21
HETATM   21  C   UNL     1      -9.279   5.013  71.742  1.00  0.00    -0.171 A  
HETATM   22  C   UNL     1      -8.813   3.837  71.136  1.00  0.00    -0.135 A  
HETATM   23  C   UNL     1      -9.243   2.588  71.581  1.00  0.00    -0.173 A  
HETATM   24  C   UNL     1     -10.139   2.498  72.645  1.00  0.00    -0.228 A  
HETATM   25  C   UNL     1     -10.596   3.656  73.271  1.00  0.00    -0.276 A  
HETATM   26  C   UNL     1     -10.167   4.909  72.826  1.00  0.00    -0.227 A  
ENDBRANCH  20  21
ENDBRANCH  18  20
ENDBRANCH  17  18
ENDBRANCH  16  17
ENDBRANCH  15  16
ENDBRANCH  13  15
ENDBRANCH  10  13
BRANCH  12  27
HETATM   27  C   UNL     1      -7.264  12.516  67.823  1.00  0.00    -0.125 A  
HETATM   28  C   UNL     1      -5.699  13.998  68.938  1.00  0.00    -0.082 A  
HETATM   29  O   UNL     1      -6.773   9.863  70.985  1.00  0.00    -0.300 OA 
HETATM   30  C   UNL     1      -7.102  11.581  68.865  1.00  0.00    -0.111 A  
HETATM   31  O   UNL     1      -5.322  11.191  71.955  1.00  0.00    -0.328 OA 
HETATM   32  C   UNL     1      -6.249  11.867  69.937  1.00  0.00    -0.139 A  
HETATM   33  C   UNL     1      -6.566  13.729  67.881  1.00  0.00    -0.164 A  
HETATM   34  C   UNL     1      -5.533  13.069  69.968  1.00  0.00    -0.112 A  
HETATM   35  N   UNL     1      -6.105  10.905  71.037  1.00  0.00     0.095 N  
ENDBRANCH  12  27
ENDBRANCH   3   5
ENDBRANCH   2   3
TORSDOF 10
ENDMDL
MODEL      273
REMARK 921   NORMALIZED FREE ENERGY PREDICTED BY IDOCK:   -2.20 KCAL/MOL
REMARK 922        TOTAL FREE ENERGY PREDICTED BY IDOCK:   -5.01 KCAL/MOL
REMARK 923 INTER-LIGAND FREE ENERGY PREDICTED BY IDOCK:   -6.02 KCAL/MOL
REMARK 924 INTRA-LIGAND FREE ENERGY PREDICTED BY IDOCK:    1.01 KCAL/MOL
REMARK 927      BINDING AFFINITY PREDICTED BY RF-SCORE:    0.00 PKD
ROOT
HETATM    1  C   UNL     1     -10.834  15.287  70.759  1.00  0.00    -0.214 C  
HETATM    2  O   UNL     1     -10.435  15.155  69.391  1.00  0.00    -0.236 OA 
ENDROOT
BRANCH   2   3
HETATM    3  C   UNL     1      -9.139  15.501  69.183  1.00  0.00    -0.248 C  
HETATM    4  O   UNL     1      -8.726  16.649  69.111  1.00  0.00    -0.228 OA 
BRANCH   3   5
HETATM    5  C   UNL     1      -8.282  14.301  69.005  1.00  0.00     0.020 C  
HETATM    6  C   UNL     1      -7.035  14.266  69.532  1.00  0.00    -0.083 C  
HETATM    7  C   UNL     1      -6.404  15.317  70.415  1.00  0.00    -0.001 C  
HETATM    8  N   UNL     1      -6.203  13.197  69.251  1.00  0.00    -0.097 NA 
HETATM    9  C   UNL     1      -6.465  12.215  68.315  1.00  0.00    -0.055 C  
HETATM   10  C   UNL     1      -7.682  12.157  67.722  1.00  0.00    -0.139 C  
HETATM   11  C   UNL     1      -5.331  11.249  68.059  1.00  0.00    -0.043 C  
HETATM   12  C   UNL     1      -8.790  13.152  68.115  1.00  0.00    -0.194 C  
BRANCH  10  13
HETATM   13  C   UNL     1      -7.985  11.056  66.764  1.00  0.00    -0.152 C  
HETATM   14  O   UNL     1      -7.477  10.915  65.661  1.00  0.00    -0.083 OA 
BRANCH  13  15
HETATM   15  O   UNL     1      -8.748  10.122  67.381  1.00  0.00    -0.125 OA 
BRANCH  15  16
HETATM   16  C   UNL     1      -8.000   8.983  67.838  1.00  0.00    -0.102 C  
BRANCH  16  17
HETATM   17  C   UNL     1      -8.956   7.784  67.735  1.00  0.00    -0.128 C  
BRANCH  17  18
HETATM   18  N   UNL     1     -10.073   7.733  68.687  1.00  0.00    -0.194 NA 
HETATM   19  C   UNL     1     -11.078   6.760  68.251  1.00  0.00    -0.141 C  
BRANCH  18  20
HETATM   20  C   UNL     1      -9.567   7.355  70.030  1.00  0.00    -0.168 C  
BRANCH  20  21
HETATM   21  C   UNL     1      -8.897   5.994  70.055  1.00  0.00    -0.139 A  
HETATM   22  C   UNL     1      -7.500   5.894  70.136  1.00  0.00    -0.082 A  
HETATM   23  C   UNL     1      -6.871   4.652  70.066  1.00  0.00    -0.044 A  
HETATM   24  C   UNL     1      -7.631   3.492  69.923  1.00  0.00    -0.044 A  
HETATM   25  C   UNL     1      -9.021   3.573  69.861  1.00  0.00    -0.173 A  
HETATM   26  C   UNL     1      -9.654   4.817  69.929  1.00  0.00    -0.251 A  
ENDBRANCH  20  21
ENDBRANCH  18  20
ENDBRANCH  17  18
ENDBRANCH  16  17
ENDBRANCH  15  16
ENDBRANCH  13  15
ENDBRANCH  10  13
BRANCH  12  27
HETATM   27  C   UNL     1      -9.537  13.682  66.887  1.00  0.00    -0.262 A  
HETATM   28  C   UNL     1     -10.001  15.466  65.308  1.00  0.00    -0.305 A  
HETATM   29  O   UNL     1     -12.355  11.377  64.881  1.00  0.00     0.240 OA 
HETATM   30  C   UNL     1     -10.504  12.881  66.247  1.00  0.00    -0.282 A  
HETATM   31  O   UNL     1     -12.799  13.017  63.494  1.00  0.00    -0.664 OA 
HETATM   32  C   UNL     1     -11.203  13.376  65.141  1.00  0.00    -0.305 A  
HETATM   33  C   UNL     1      -9.285  14.970  66.396  1.00  0.00    -0.328 A  
HETATM   34  C   UNL     1     -10.965  14.675  64.679  1.00  0.00    -0.340 A  
HETATM   35  N   UNL     1     -12.189  12.530  64.457  1.00  0.00    -0.435 N  
ENDBRANCH  12  27
ENDBRANCH   3   5
ENDBRANCH   2   3
TORSDOF 10
ENDMDL
MODEL      274
REMARK 921   NORMALIZED FREE ENERGY PREDICTED BY IDOCK:   -2.20 KCAL/MOL
REMARK 922        TOTAL FREE ENERGY PREDICTED BY IDOCK:   -5.00 KCAL/MOL
REMARK 923 INTER-LIGAND FREE ENERGY PREDICTED BY IDOCK:   -7.49 KCAL/MOL
REMARK 924 INTRA-LIGAND FREE ENERGY PREDICTED BY IDOCK:    2.49 KCAL/MOL
REMARK 927      BINDING AFFINITY PREDICTED BY RF-SCORE:    0.00 PKD
ROOT
HETATM    1  C   UNL     1      -9.210  18.159  68.705  1.00  0.00    -0.233 C  
HETATM    2  O   UNL     1      -8.023  17.408  68.983  1.00  0.00    -0.221 OA 
ENDROOT
BRANCH   2   3
HETATM    3  C   UNL     1      -8.196  16.071  68.825  1.00  0.00    -0.211 C  
HETATM    4  O   UNL     1      -7.781  15.218  69.595  1.00  0.00    -0.219 OA 
BRANCH   3   5
HETATM    5  C   UNL     1      -8.916  15.766  67.562  1.00  0.00    -0.201 C  
HETATM    6  C   UNL     1      -8.701  16.516  66.455  1.00  0.00    -0.322 C  
HETATM    7  C   UNL     1      -7.690  17.627  66.304  1.00  0.00    -0.324 C  
HETATM    8  N   UNL     1      -9.471  16.302  65.324  1.00  0.00    -0.197 NA 
HETATM    9  C   UNL     1     -10.588  15.491  65.269  1.00  0.00    -0.424 C  
HETATM   10  C   UNL     1     -10.898  14.700  66.324  1.00  0.00    -0.321 C  
HETATM   11  C   UNL     1     -11.365  15.551  63.974  1.00  0.00     0.225 C  
HETATM   12  C   UNL     1      -9.990  14.664  67.568  1.00  0.00    -0.223 C  
BRANCH  10  13
HETATM   13  C   UNL     1     -12.065  13.776  66.236  1.00  0.00    -0.446 C  
HETATM   14  O   UNL     1     -13.215  14.053  66.541  1.00  0.00     0.305 OA 
BRANCH  13  15
HETATM   15  O   UNL     1     -11.699  12.653  65.571  1.00  0.00    -0.359 OA 
BRANCH  15  16
HETATM   16  C   UNL     1     -11.627  11.488  66.409  1.00  0.00     0.051 C  
BRANCH  16  17
HETATM   17  C   UNL     1     -10.134  11.279  66.708  1.00  0.00    -0.219 C  
BRANCH  17  18
HETATM   18  N   UNL     1      -9.717   9.939  67.140  1.00  0.00    -0.171 NA 
HETATM   19  C   UNL     1     -10.560   8.913  66.519  1.00  0.00     0.019 C  
BRANCH  18  20
HETATM   20  C   UNL     1      -8.300   9.711  66.765  1.00  0.00    -0.117 C  
BRANCH  20  21
HETATM   21  C   UNL     1      -8.133   8.701  65.645  1.00  0.00    -0.110 A  
HETATM   22  C   UNL     1      -7.820   7.365  65.938  1.00  0.00    -0.104 A  
HETATM   23  C   UNL     1      -7.574   6.451  64.914  1.00  0.00    -0.093 A  
HETATM   24  C   UNL     1      -7.647   6.859  63.583  1.00  0.00    -0.101 A  
HETATM   25  C   UNL     1      -7.977   8.178  63.276  1.00  0.00    -0.149 A  
HETATM   26  C   UNL     1      -8.222   9.096  64.300  1.00  0.00    -0.161 A  
ENDBRANCH  20  21
ENDBRANCH  18  20
ENDBRANCH  17  18
ENDBRANCH  16  17
ENDBRANCH  15  16
ENDBRANCH  13  15
ENDBRANCH  10  13
BRANCH  12  27
HETATM   27  C   UNL     1     -10.806  14.683  68.865  1.00  0.00    -0.257 A  
HETATM   28  C   UNL     1     -11.738  15.890  70.753  1.00  0.00    -0.433 A  
HETATM   29  O   UNL     1     -12.421  11.210  70.479  1.00  0.00    -0.323 OA 
HETATM   30  C   UNL     1     -11.317  13.482  69.396  1.00  0.00    -0.293 A  
HETATM   31  O   UNL     1     -13.213  12.307  72.204  1.00  0.00    -0.496 OA 
HETATM   32  C   UNL     1     -12.040  13.497  70.594  1.00  0.00    -0.309 A  
HETATM   33  C   UNL     1     -11.038  15.884  69.548  1.00  0.00    -0.315 A  
HETATM   34  C   UNL     1     -12.238  14.698  71.283  1.00  0.00    -0.410 A  
HETATM   35  N   UNL     1     -12.598  12.249  71.130  1.00  0.00    -0.326 N  
ENDBRANCH  12  27
ENDBRANCH   3   5
ENDBRANCH   2   3
TORSDOF 10
ENDMDL
MODEL      275
REMARK 921   NORMALIZED FREE ENERGY PREDICTED BY IDOCK:   -2.15 KCAL/MOL
REMARK 922        TOTAL FREE ENERGY PREDICTED BY IDOCK:   -4.92 KCAL/MOL
REMARK 923 INTER-LIGAND FREE ENERGY PREDICTED BY IDOCK:   -5.34 KCAL/MOL
REMARK 924 INTRA-LIGAND FREE ENERGY PREDICTED BY IDOCK:    0.42 KCAL/MOL
REMARK 927      BINDING AFFINITY PREDICTED BY RF-SCORE:    0.00 PKD
ROOT
HETATM    1  C   UNL     1      -9.641   3.429  67.302  1.00  0.00    -0.089 C  
HETATM    2  O   UNL     1      -8.862   4.610  67.081  1.00  0.00    -0.107 OA 
ENDROOT
BRANCH   2   3
HETATM    3  C   UNL     1      -9.433   5.458  66.187  1.00  0.00    -0.157 C  
HETATM    4  O   UNL     1     -10.444   5.217  65.545  1.00  0.00    -0.002 OA 
BRANCH   3   5
HETATM    5  C   UNL     1      -8.642   6.707  66.048  1.00  0.00    -0.152 C  
HETATM    6  C   UNL     1      -7.849   6.897  64.967  1.00  0.00    -0.121 C  
HETATM    7  C   UNL     1      -7.735   5.989  63.765  1.00  0.00    -0.101 C  
HETATM    8  N   UNL     1      -7.021   8.005  64.911  1.00  0.00    -0.062 NA 
HETATM    9  C   UNL     1      -6.789   8.872  65.961  1.00  0.00    -0.076 C  
HETATM   10  C   UNL     1      -7.525   8.770  67.094  1.00  0.00    -0.088 C  
HETATM   11  C   UNL     1      -5.714   9.907  65.718  1.00  0.00    -0.059 C  
HETATM   12  C   UNL     1      -8.648   7.722  67.205  1.00  0.00    -0.128 C  
BRANCH  10  13
HETATM   13  C   UNL     1      -7.320   9.750  68.199  1.00  0.00    -0.080 C  
HETATM   14  O   UNL     1      -6.371   9.763  68.970  1.00  0.00    -0.041 OA 
BRANCH  13  15
HETATM   15  O   UNL     1      -8.229  10.748  68.088  1.00  0.00    -0.111 OA 
BRANCH  15  16
HETATM   16  C   UNL     1      -8.102  11.508  66.875  1.00  0.00    -0.164 C  
BRANCH  16  17
HETATM   17  C   UNL     1      -9.241  12.538  66.904  1.00  0.00    -0.211 C  
BRANCH  17  18
HETATM   18  N   UNL     1      -9.165  13.594  67.922  1.00  0.00    -0.194 NA 
HETATM   19  C   UNL     1      -8.190  14.616  67.533  1.00  0.00    -0.188 C  
BRANCH  18  20
HETATM   20  C   UNL     1     -10.499  14.220  68.093  1.00  0.00    -0.246 C  
BRANCH  20  21
HETATM   21  C   UNL     1     -11.305  13.609  69.224  1.00  0.00    -0.323 A  
HETATM   22  C   UNL     1     -12.012  14.431  70.115  1.00  0.00    -0.386 A  
HETATM   23  C   UNL     1     -12.678  13.885  71.210  1.00  0.00    -0.444 A  
HETATM   24  C   UNL     1     -12.655  12.508  71.426  1.00  0.00    -0.297 A  
HETATM   25  C   UNL     1     -11.975  11.676  70.539  1.00  0.00    -0.413 A  
HETATM   26  C   UNL     1     -11.304  12.221  69.440  1.00  0.00    -0.294 A  
ENDBRANCH  20  21
ENDBRANCH  18  20
ENDBRANCH  17  18
ENDBRANCH  16  17
ENDBRANCH  15  16
ENDBRANCH  13  15
ENDBRANCH  10  13
BRANCH  12  27
HETATM   27  C   UNL     1      -8.637   7.021  68.567  1.00  0.00    -0.123 A  
HETATM   28  C   UNL     1      -9.649   6.605  70.733  1.00  0.00    -0.183 A  
HETATM   29  O   UNL     1      -5.527   4.509  69.705  1.00  0.00    -0.007 OA 
HETATM   30  C   UNL     1      -7.553   6.196  68.929  1.00  0.00    -0.092 A  
HETATM   31  O   UNL     1      -6.429   4.184  71.677  1.00  0.00    -0.017 OA 
HETATM   32  C   UNL     1      -7.532   5.577  70.184  1.00  0.00    -0.070 A  
HETATM   33  C   UNL     1      -9.687   7.205  69.476  1.00  0.00    -0.157 A  
HETATM   34  C   UNL     1      -8.571   5.793  71.095  1.00  0.00    -0.128 A  
HETATM   35  N   UNL     1      -6.417   4.694  70.547  1.00  0.00    -0.029 N  
ENDBRANCH  12  27
ENDBRANCH   3   5
ENDBRANCH   2   3
TORSDOF 10
ENDMDL
MODEL      276
REMARK 921   NORMALIZED FREE ENERGY PREDICTED BY IDOCK:   -2.14 KCAL/MOL
REMARK 922        TOTAL FREE ENERGY PREDICTED BY IDOCK:   -4.91 KCAL/MOL
REMARK 923 INTER-LIGAND FREE ENERGY PREDICTED BY IDOCK:   -4.46 KCAL/MOL
REMARK 924 INTRA-LIGAND FREE ENERGY PREDICTED BY IDOCK:   -0.45 KCAL/MOL
REMARK 927      BINDING AFFINITY PREDICTED BY RF-SCORE:    0.00 PKD
ROOT
HETATM    1  C   UNL     1      -8.994  14.760  66.228  1.00  0.00    -0.118 C  
HETATM    2  O   UNL     1      -9.294  13.633  67.058  1.00  0.00    -0.230 OA 
ENDROOT
BRANCH   2   3
HETATM    3  C   UNL     1     -10.527  13.117  66.820  1.00  0.00    -0.261 C  
HETATM    4  O   UNL     1     -11.296  13.517  65.959  1.00  0.00    -0.305 OA 
BRANCH   3   5
HETATM    5  C   UNL     1     -10.850  12.027  67.777  1.00  0.00    -0.256 C  
HETATM    6  C   UNL     1     -11.010  12.299  69.094  1.00  0.00    -0.162 C  
HETATM    7  C   UNL     1     -10.999  13.665  69.737  1.00  0.00     0.112 C  
HETATM    8  N   UNL     1     -11.183  11.259  69.991  1.00  0.00    -0.197 NA 
HETATM    9  C   UNL     1     -11.030   9.920  69.688  1.00  0.00    -0.252 C  
HETATM   10  C   UNL     1     -10.861   9.535  68.400  1.00  0.00    -0.183 C  
HETATM   11  C   UNL     1     -11.099   8.980  70.870  1.00  0.00    -0.343 C  
HETATM   12  C   UNL     1     -10.881  10.576  67.265  1.00  0.00    -0.338 C  
BRANCH  10  13
HETATM   13  C   UNL     1     -10.764   8.085  68.069  1.00  0.00    -0.047 C  
HETATM   14  O   UNL     1     -11.466   7.492  67.262  1.00  0.00     0.356 OA 
BRANCH  13  15
HETATM   15  O   UNL     1      -9.648   7.568  68.638  1.00  0.00    -0.149 OA 
BRANCH  15  16
HETATM   16  C   UNL     1      -8.590   7.317  67.698  1.00  0.00    -0.126 C  
BRANCH  16  17
HETATM   17  C   UNL     1      -7.459   6.661  68.505  1.00  0.00    -0.092 C  
BRANCH  17  18
HETATM   18  N   UNL     1      -7.794   6.163  69.846  1.00  0.00    -0.107 NA 
HETATM   19  C   UNL     1      -7.049   4.936  70.141  1.00  0.00    -0.050 C  
BRANCH  18  20
HETATM   20  C   UNL     1      -7.466   7.197  70.858  1.00  0.00    -0.080 C  
BRANCH  20  21
HETATM   21  C   UNL     1      -6.982   6.613  72.173  1.00  0.00    -0.072 A  
HETATM   22  C   UNL     1      -5.625   6.687  72.523  1.00  0.00    -0.038 A  
HETATM   23  C   UNL     1      -5.155   6.073  73.683  1.00  0.00    -0.024 A  
HETATM   24  C   UNL     1      -6.038   5.385  74.514  1.00  0.00    -0.059 A  
HETATM   25  C   UNL     1      -7.392   5.321  74.191  1.00  0.00    -0.086 A  
HETATM   26  C   UNL     1      -7.865   5.934  73.028  1.00  0.00    -0.103 A  
ENDBRANCH  20  21
ENDBRANCH  18  20
ENDBRANCH  17  18
ENDBRANCH  16  17
ENDBRANCH  15  16
ENDBRANCH  13  15
ENDBRANCH  10  13
BRANCH  12  27
HETATM   27  C   UNL     1      -9.771  10.318  66.241  1.00  0.00    -0.263 A  
HETATM   28  C   UNL     1      -9.071   9.711  63.998  1.00  0.00    -0.246 A  
HETATM   29  O   UNL     1      -5.751  10.560  67.268  1.00  0.00    -0.041 OA 
HETATM   30  C   UNL     1      -8.418  10.384  66.631  1.00  0.00    -0.126 A  
HETATM   31  O   UNL     1      -5.136   9.962  65.249  1.00  0.00    -0.041 OA 
HETATM   32  C   UNL     1      -7.407  10.123  65.700  1.00  0.00    -0.144 A  
HETATM   33  C   UNL     1     -10.083   9.994  64.914  1.00  0.00    -0.184 A  
HETATM   34  C   UNL     1      -7.731   9.769  64.386  1.00  0.00    -0.134 A  
HETATM   35  N   UNL     1      -5.998  10.222  66.101  1.00  0.00    -0.072 N  
ENDBRANCH  12  27
ENDBRANCH   3   5
ENDBRANCH   2   3
TORSDOF 10
ENDMDL
MODEL      277
REMARK 921   NORMALIZED FREE ENERGY PREDICTED BY IDOCK:   -2.07 KCAL/MOL
REMARK 922        TOTAL FREE ENERGY PREDICTED BY IDOCK:   -4.80 KCAL/MOL
REMARK 923 INTER-LIGAND FREE ENERGY PREDICTED BY IDOCK:   -5.23 KCAL/MOL
REMARK 924 INTRA-LIGAND FREE ENERGY PREDICTED BY IDOCK:    0.43 KCAL/MOL
REMARK 927      BINDING AFFINITY PREDICTED BY RF-SCORE:    0.00 PKD
ROOT
HETATM    1  C   UNL     1      -9.177  10.807  67.783  1.00  0.00    -0.152 C  
HETATM    2  O   UNL     1      -8.287   9.778  67.339  1.00  0.00    -0.114 OA 
ENDROOT
BRANCH   2   3
HETATM    3  C   UNL     1      -7.026   9.927  67.822  1.00  0.00    -0.085 C  
HETATM    4  O   UNL     1      -6.093  10.410  67.197  1.00  0.00    -0.053 OA 
BRANCH   3   5
HETATM    5  C   UNL     1      -6.907   9.382  69.198  1.00  0.00    -0.050 C  
HETATM    6  C   UNL     1      -6.382  10.140  70.190  1.00  0.00    -0.107 C  
HETATM    7  C   UNL     1      -5.970  11.589  70.092  1.00  0.00    -0.159 C  
HETATM    8  N   UNL     1      -6.160   9.578  71.435  1.00  0.00    -0.186 NA 
HETATM    9  C   UNL     1      -6.260   8.231  71.725  1.00  0.00    -0.050 C  
HETATM   10  C   UNL     1      -6.770   7.380  70.802  1.00  0.00    -0.047 C  
HETATM   11  C   UNL     1      -5.801   7.832  73.109  1.00  0.00    -0.049 C  
HETATM   12  C   UNL     1      -7.277   7.909  69.447  1.00  0.00    -0.079 C  
BRANCH  10  13
HETATM   13  C   UNL     1      -6.941   5.938  71.141  1.00  0.00    -0.068 C  
HETATM   14  O   UNL     1      -6.096   5.069  70.993  1.00  0.00    -0.017 OA 
BRANCH  13  15
HETATM   15  O   UNL     1      -8.095   5.774  71.833  1.00  0.00    -0.110 OA 
BRANCH  15  16
HETATM   16  C   UNL     1      -9.113   5.082  71.092  1.00  0.00    -0.142 C  
BRANCH  16  17
HETATM   17  C   UNL     1     -10.243   6.101  70.879  1.00  0.00    -0.201 C  
BRANCH  17  18
HETATM   18  N   UNL     1     -10.197   6.907  69.651  1.00  0.00    -0.188 NA 
HETATM   19  C   UNL     1     -11.300   6.546  68.757  1.00  0.00    -0.148 C  
BRANCH  18  20
HETATM   20  C   UNL     1     -10.288   8.347  69.995  1.00  0.00    -0.211 C  
BRANCH  20  21
HETATM   21  C   UNL     1     -11.527   8.692  70.800  1.00  0.00    -0.293 A  
HETATM   22  C   UNL     1     -12.297   7.675  71.385  1.00  0.00    -0.358 A  
HETATM   23  C   UNL     1     -13.486   7.975  72.047  1.00  0.00    -0.275 A  
HETATM   24  C   UNL     1     -13.918   9.297  72.141  1.00  0.00    -0.422 A  
HETATM   25  C   UNL     1     -13.154  10.321  71.583  1.00  0.00    -0.553 A  
HETATM   26  C   UNL     1     -11.962  10.022  70.917  1.00  0.00    -0.453 A  
ENDBRANCH  20  21
ENDBRANCH  18  20
ENDBRANCH  17  18
ENDBRANCH  16  17
ENDBRANCH  15  16
ENDBRANCH  13  15
ENDBRANCH  10  13
BRANCH  12  27
HETATM   27  C   UNL     1      -6.832   7.014  68.287  1.00  0.00    -0.074 A  
HETATM   28  C   UNL     1      -5.132   6.294  66.711  1.00  0.00    -0.005 A  
HETATM   29  O   UNL     1      -9.434   4.321  66.481  1.00  0.00    -0.156 OA 
HETATM   30  C   UNL     1      -7.749   6.131  67.682  1.00  0.00    -0.098 A  
HETATM   31  O   UNL     1      -7.902   3.718  65.033  1.00  0.00    -0.084 OA 
HETATM   32  C   UNL     1      -7.347   5.332  66.606  1.00  0.00    -0.086 A  
HETATM   33  C   UNL     1      -5.520   7.074  67.799  1.00  0.00    -0.016 A  
HETATM   34  C   UNL     1      -6.043   5.424  66.107  1.00  0.00    -0.030 A  
HETATM   35  N   UNL     1      -8.295   4.391  65.997  1.00  0.00    -0.113 N  
ENDBRANCH  12  27
ENDBRANCH   3   5
ENDBRANCH   2   3
TORSDOF 10
ENDMDL
MODEL      278
REMARK 921   NORMALIZED FREE ENERGY PREDICTED BY IDOCK:   -1.99 KCAL/MOL
REMARK 922        TOTAL FREE ENERGY PREDICTED BY IDOCK:   -4.67 KCAL/MOL
REMARK 923 INTER-LIGAND FREE ENERGY PREDICTED BY IDOCK:   -5.70 KCAL/MOL
REMARK 924 INTRA-LIGAND FREE ENERGY PREDICTED BY IDOCK:    1.03 KCAL/MOL
REMARK 927      BINDING AFFINITY PREDICTED BY RF-SCORE:    0.00 PKD
ROOT
HETATM    1  C   UNL     1     -10.834  15.287  70.759  1.00  0.00    -0.214 C  
HETATM    2  O   UNL     1     -10.435  15.155  69.391  1.00  0.00    -0.236 OA 
ENDROOT
BRANCH   2   3
HETATM    3  C   UNL     1      -9.139  15.501  69.183  1.00  0.00    -0.248 C  
HETATM    4  O   UNL     1      -8.726  16.649  69.111  1.00  0.00    -0.228 OA 
BRANCH   3   5
HETATM    5  C   UNL     1      -8.282  14.301  69.005  1.00  0.00     0.020 C  
HETATM    6  C   UNL     1      -7.035  14.266  69.532  1.00  0.00    -0.083 C  
HETATM    7  C   UNL     1      -6.404  15.317  70.415  1.00  0.00    -0.001 C  
HETATM    8  N   UNL     1      -6.203  13.197  69.251  1.00  0.00    -0.097 NA 
HETATM    9  C   UNL     1      -6.465  12.215  68.315  1.00  0.00    -0.055 C  
HETATM   10  C   UNL     1      -7.682  12.157  67.722  1.00  0.00    -0.139 C  
HETATM   11  C   UNL     1      -5.331  11.249  68.059  1.00  0.00    -0.043 C  
HETATM   12  C   UNL     1      -8.790  13.152  68.115  1.00  0.00    -0.194 C  
BRANCH  10  13
HETATM   13  C   UNL     1      -7.985  11.056  66.764  1.00  0.00    -0.152 C  
HETATM   14  O   UNL     1      -7.477  10.915  65.661  1.00  0.00    -0.083 OA 
BRANCH  13  15
HETATM   15  O   UNL     1      -8.748  10.122  67.381  1.00  0.00    -0.125 OA 
BRANCH  15  16
HETATM   16  C   UNL     1      -8.000   8.983  67.838  1.00  0.00    -0.102 C  
BRANCH  16  17
HETATM   17  C   UNL     1      -8.956   7.784  67.735  1.00  0.00    -0.128 C  
BRANCH  17  18
HETATM   18  N   UNL     1      -8.670   6.622  68.585  1.00  0.00    -0.124 NA 
HETATM   19  C   UNL     1      -9.831   5.731  68.649  1.00  0.00    -0.138 C  
BRANCH  18  20
HETATM   20  C   UNL     1      -7.505   5.881  68.042  1.00  0.00    -0.085 C  
BRANCH  20  21
HETATM   21  C   UNL     1      -7.659   5.516  66.577  1.00  0.00    -0.088 A  
HETATM   22  C   UNL     1      -6.941   6.214  65.595  1.00  0.00    -0.057 A  
HETATM   23  C   UNL     1      -7.145   5.948  64.242  1.00  0.00    -0.053 A  
HETATM   24  C   UNL     1      -8.065   4.975  63.853  1.00  0.00    -0.119 A  
HETATM   25  C   UNL     1      -8.771   4.259  64.818  1.00  0.00    -0.135 A  
HETATM   26  C   UNL     1      -8.569   4.524  66.175  1.00  0.00    -0.113 A  
ENDBRANCH  20  21
ENDBRANCH  18  20
ENDBRANCH  17  18
ENDBRANCH  16  17
ENDBRANCH  15  16
ENDBRANCH  13  15
ENDBRANCH  10  13
BRANCH  12  27
HETATM   27  C   UNL     1      -9.537  13.682  66.887  1.00  0.00    -0.262 A  
HETATM   28  C   UNL     1     -10.001  15.466  65.308  1.00  0.00    -0.305 A  
HETATM   29  O   UNL     1     -12.355  11.377  64.881  1.00  0.00     0.240 OA 
HETATM   30  C   UNL     1     -10.504  12.881  66.247  1.00  0.00    -0.282 A  
HETATM   31  O   UNL     1     -12.799  13.017  63.494  1.00  0.00    -0.664 OA 
HETATM   32  C   UNL     1     -11.203  13.376  65.141  1.00  0.00    -0.305 A  
HETATM   33  C   UNL     1      -9.285  14.970  66.396  1.00  0.00    -0.328 A  
HETATM   34  C   UNL     1     -10.965  14.675  64.679  1.00  0.00    -0.340 A  
HETATM   35  N   UNL     1     -12.189  12.530  64.457  1.00  0.00    -0.435 N  
ENDBRANCH  12  27
ENDBRANCH   3   5
ENDBRANCH   2   3
TORSDOF 10
ENDMDL
MODEL      279
REMARK 921   NORMALIZED FREE ENERGY PREDICTED BY IDOCK:   -1.83 KCAL/MOL
REMARK 922        TOTAL FREE ENERGY PREDICTED BY IDOCK:   -4.42 KCAL/MOL
REMARK 923 INTER-LIGAND FREE ENERGY PREDICTED BY IDOCK:   -5.02 KCAL/MOL
REMARK 924 INTRA-LIGAND FREE ENERGY PREDICTED BY IDOCK:    0.60 KCAL/MOL
REMARK 927      BINDING AFFINITY PREDICTED BY RF-SCORE:    0.00 PKD
ROOT
HETATM    1  C   UNL     1     -10.650  16.323  69.031  1.00  0.00    -0.286 C  
HETATM    2  O   UNL     1      -9.814  15.186  68.788  1.00  0.00    -0.208 OA 
ENDROOT
BRANCH   2   3
HETATM    3  C   UNL     1      -9.410  15.096  67.495  1.00  0.00    -0.198 C  
HETATM    4  O   UNL     1      -9.099  16.046  66.793  1.00  0.00    -0.212 OA 
BRANCH   3   5
HETATM    5  C   UNL     1      -9.441  13.690  67.018  1.00  0.00    -0.252 C  
HETATM    6  C   UNL     1     -10.619  13.101  66.700  1.00  0.00    -0.279 C  
HETATM    7  C   UNL     1     -11.976  13.763  66.674  1.00  0.00    -0.469 C  
HETATM    8  N   UNL     1     -10.646  11.755  66.380  1.00  0.00    -0.245 NA 
HETATM    9  C   UNL     1      -9.583  10.885  66.526  1.00  0.00    -0.194 C  
HETATM   10  C   UNL     1      -8.358  11.367  66.845  1.00  0.00    -0.159 C  
HETATM   11  C   UNL     1      -9.902   9.429  66.277  1.00  0.00    -0.351 C  
HETATM   12  C   UNL     1      -8.131  12.882  67.005  1.00  0.00    -0.057 C  
BRANCH  10  13
HETATM   13  C   UNL     1      -7.198  10.434  66.936  1.00  0.00    -0.099 C  
HETATM   14  O   UNL     1      -6.186  10.492  66.254  1.00  0.00    -0.085 OA 
BRANCH  13  15
HETATM   15  O   UNL     1      -7.341   9.644  68.027  1.00  0.00    -0.081 OA 
BRANCH  15  16
HETATM   16  C   UNL     1      -6.379   8.579  68.094  1.00  0.00    -0.056 C  
BRANCH  16  17
HETATM   17  C   UNL     1      -6.395   8.090  69.551  1.00  0.00    -0.034 C  
BRANCH  17  18
HETATM   18  N   UNL     1      -7.144   6.860  69.838  1.00  0.00    -0.069 NA 
HETATM   19  C   UNL     1      -6.699   6.269  71.102  1.00  0.00    -0.055 C  
BRANCH  18  20
HETATM   20  C   UNL     1      -8.594   7.166  69.916  1.00  0.00    -0.141 C  
BRANCH  20  21
HETATM   21  C   UNL     1      -9.370   6.696  68.699  1.00  0.00    -0.129 A  
HETATM   22  C   UNL     1     -10.719   7.046  68.541  1.00  0.00    -0.219 A  
HETATM   23  C   UNL     1     -11.464   6.543  67.476  1.00  0.00     0.158 A  
HETATM   24  C   UNL     1     -10.868   5.691  66.548  1.00  0.00    -0.239 A  
HETATM   25  C   UNL     1      -9.522   5.350  66.680  1.00  0.00    -0.151 A  
HETATM   26  C   UNL     1      -8.773   5.852  67.748  1.00  0.00    -0.104 A  
ENDBRANCH  20  21
ENDBRANCH  18  20
ENDBRANCH  17  18
ENDBRANCH  16  17
ENDBRANCH  15  16
ENDBRANCH  13  15
ENDBRANCH  10  13
BRANCH  12  27
HETATM   27  C   UNL     1      -7.263  13.199  68.227  1.00  0.00    -0.107 A  
HETATM   28  C   UNL     1      -5.871  14.741  69.481  1.00  0.00    -0.102 A  
HETATM   29  O   UNL     1      -6.501  10.357  71.162  1.00  0.00    -0.336 OA 
HETATM   30  C   UNL     1      -7.005  12.202  69.189  1.00  0.00    -0.053 A  
HETATM   31  O   UNL     1      -5.206  11.746  72.258  1.00  0.00    -0.340 OA 
HETATM   32  C   UNL     1      -6.192  12.487  70.292  1.00  0.00     0.021 A  
HETATM   33  C   UNL     1      -6.700  14.471  68.394  1.00  0.00    -0.105 A  
HETATM   34  C   UNL     1      -5.609  13.751  70.432  1.00  0.00    -0.140 A  
HETATM   35  N   UNL     1      -5.950  11.457  71.309  1.00  0.00     0.357 N  
ENDBRANCH  12  27
ENDBRANCH   3   5
ENDBRANCH   2   3
TORSDOF 10
ENDMDL
MODEL      280
REMARK 921   NORMALIZED FREE ENERGY PREDICTED BY IDOCK:   -1.83 KCAL/MOL
REMARK 922        TOTAL FREE ENERGY PREDICTED BY IDOCK:   -4.42 KCAL/MOL
REMARK 923 INTER-LIGAND FREE ENERGY PREDICTED BY IDOCK:   -6.02 KCAL/MOL
REMARK 924 INTRA-LIGAND FREE ENERGY PREDICTED BY IDOCK:    1.60 KCAL/MOL
REMARK 927      BINDING AFFINITY PREDICTED BY RF-SCORE:    0.00 PKD
ROOT
HETATM    1  C   UNL     1      -7.975   7.739  71.234  1.00  0.00    -0.094 C  
HETATM    2  O   UNL     1      -7.694   8.035  69.862  1.00  0.00    -0.095 OA 
ENDROOT
BRANCH   2   3
HETATM    3  C   UNL     1      -6.365   8.146  69.608  1.00  0.00    -0.033 C  
HETATM    4  O   UNL     1      -5.645   7.228  69.245  1.00  0.00    -0.015 OA 
BRANCH   3   5
HETATM    5  C   UNL     1      -5.878   9.523  69.875  1.00  0.00    -0.036 C  
HETATM    6  C   UNL     1      -5.639   9.929  71.145  1.00  0.00    -0.076 C  
HETATM    7  C   UNL     1      -5.716   9.078  72.390  1.00  0.00    -0.071 C  
HETATM    8  N   UNL     1      -5.309  11.251  71.390  1.00  0.00    -0.321 NA 
HETATM    9  C   UNL     1      -5.371  12.268  70.458  1.00  0.00    -0.145 C  
HETATM   10  C   UNL     1      -5.607  11.974  69.156  1.00  0.00    -0.061 C  
HETATM   11  C   UNL     1      -5.131  13.658  71.001  1.00  0.00    -0.134 C  
HETATM   12  C   UNL     1      -5.764  10.511  68.701  1.00  0.00    -0.040 C  
BRANCH  10  13
HETATM   13  C   UNL     1      -5.606  13.066  68.141  1.00  0.00    -0.093 C  
HETATM   14  O   UNL     1      -5.187  12.972  66.997  1.00  0.00    -0.321 OA 
BRANCH  13  15
HETATM   15  O   UNL     1      -6.329  14.114  68.607  1.00  0.00    -0.080 OA 
BRANCH  15  16
HETATM   16  C   UNL     1      -6.925  14.907  67.567  1.00  0.00    -0.176 C  
BRANCH  16  17
HETATM   17  C   UNL     1      -7.983  15.779  68.260  1.00  0.00    -0.130 C  
BRANCH  17  18
HETATM   18  N   UNL     1      -8.707  16.746  67.424  1.00  0.00    -0.190 NA 
HETATM   19  C   UNL     1      -9.135  16.124  66.169  1.00  0.00    -0.347 C  
BRANCH  18  20
HETATM   20  C   UNL     1      -9.893  17.251  68.158  1.00  0.00    -0.290 C  
BRANCH  20  21
HETATM   21  C   UNL     1     -10.839  16.147  68.595  1.00  0.00    -0.311 A  
HETATM   22  C   UNL     1     -11.292  16.085  69.921  1.00  0.00    -0.340 A  
HETATM   23  C   UNL     1     -12.086  15.025  70.353  1.00  0.00    -0.384 A  
HETATM   24  C   UNL     1     -12.446  14.015  69.462  1.00  0.00    -0.159 A  
HETATM   25  C   UNL     1     -12.021  14.072  68.136  1.00  0.00    -0.382 A  
HETATM   26  C   UNL     1     -11.224  15.134  67.700  1.00  0.00    -0.329 A  
ENDBRANCH  20  21
ENDBRANCH  18  20
ENDBRANCH  17  18
ENDBRANCH  16  17
ENDBRANCH  15  16
ENDBRANCH  13  15
ENDBRANCH  10  13
BRANCH  12  27
HETATM   27  C   UNL     1      -6.924  10.347  67.714  1.00  0.00    -0.083 A  
HETATM   28  C   UNL     1      -7.758   9.701  65.528  1.00  0.00    -0.112 A  
HETATM   29  O   UNL     1     -10.804  11.470  68.696  1.00  0.00    -0.190 OA 
HETATM   30  C   UNL     1      -8.222  10.763  68.073  1.00  0.00    -0.115 A  
HETATM   31  O   UNL     1     -11.532  10.928  66.700  1.00  0.00    -0.233 OA 
HETATM   32  C   UNL     1      -9.276  10.635  67.161  1.00  0.00    -0.147 A  
HETATM   33  C   UNL     1      -6.710   9.803  66.441  1.00  0.00    -0.080 A  
HETATM   34  C   UNL     1      -9.043  10.119  65.881  1.00  0.00    -0.190 A  
HETATM   35  N   UNL     1     -10.633  11.040  67.547  1.00  0.00    -0.212 N  
ENDBRANCH  12  27
ENDBRANCH   3   5
ENDBRANCH   2   3
TORSDOF 10
ENDMDL
MODEL      281
REMARK 921   NORMALIZED FREE ENERGY PREDICTED BY IDOCK:   -1.82 KCAL/MOL
REMARK 922        TOTAL FREE ENERGY PREDICTED BY IDOCK:   -4.40 KCAL/MOL
REMARK 923 INTER-LIGAND FREE ENERGY PREDICTED BY IDOCK:   -4.51 KCAL/MOL
REMARK 924 INTRA-LIGAND FREE ENERGY PREDICTED BY IDOCK:    0.11 KCAL/MOL
REMARK 927      BINDING AFFINITY PREDICTED BY RF-SCORE:    0.00 PKD
ROOT
HETATM    1  C   UNL     1      -9.649   3.440  67.295  1.00  0.00    -0.089 C  
HETATM    2  O   UNL     1      -8.928   4.653  67.055  1.00  0.00    -0.110 OA 
ENDROOT
BRANCH   2   3
HETATM    3  C   UNL     1      -9.578   5.495  66.212  1.00  0.00    -0.156 C  
HETATM    4  O   UNL     1     -10.582   5.209  65.577  1.00  0.00     0.006 OA 
BRANCH   3   5
HETATM    5  C   UNL     1      -8.883   6.804  66.115  1.00  0.00    -0.161 C  
HETATM    6  C   UNL     1      -8.220   7.144  64.984  1.00  0.00    -0.093 C  
HETATM    7  C   UNL     1      -8.177   6.357  63.696  1.00  0.00     0.044 C  
HETATM    8  N   UNL     1      -7.472   8.308  64.954  1.00  0.00    -0.087 NA 
HETATM    9  C   UNL     1      -7.185   9.094  66.054  1.00  0.00    -0.094 C  
HETATM   10  C   UNL     1      -7.791   8.840  67.238  1.00  0.00    -0.097 C  
HETATM   11  C   UNL     1      -6.206  10.218  65.806  1.00  0.00    -0.109 C  
HETATM   12  C   UNL     1      -8.831   7.710  67.358  1.00  0.00    -0.124 C  
BRANCH  10  13
HETATM   13  C   UNL     1      -7.532   9.730  68.406  1.00  0.00    -0.083 C  
HETATM   14  O   UNL     1      -6.475   9.815  69.014  1.00  0.00    -0.044 OA 
BRANCH  13  15
HETATM   15  O   UNL     1      -8.574  10.583  68.561  1.00  0.00    -0.122 OA 
BRANCH  15  16
HETATM   16  C   UNL     1      -8.201  11.844  69.141  1.00  0.00     0.347 C  
BRANCH  16  17
HETATM   17  C   UNL     1      -9.136  12.888  68.510  1.00  0.00    -0.049 C  
BRANCH  17  18
HETATM   18  N   UNL     1     -10.575  12.599  68.532  1.00  0.00    -0.241 NA 
HETATM   19  C   UNL     1     -11.161  12.997  69.815  1.00  0.00     0.059 C  
BRANCH  18  20
HETATM   20  C   UNL     1     -11.248  13.331  67.431  1.00  0.00    -0.289 C  
BRANCH  20  21
HETATM   21  C   UNL     1     -11.103  12.647  66.084  1.00  0.00    -0.327 A  
HETATM   22  C   UNL     1     -12.179  12.621  65.183  1.00  0.00    -0.539 A  
HETATM   23  C   UNL     1     -12.086  11.918  63.984  1.00  0.00    -0.444 A  
HETATM   24  C   UNL     1     -10.912  11.237  63.664  1.00  0.00    -0.369 A  
HETATM   25  C   UNL     1      -9.827  11.270  64.539  1.00  0.00    -0.317 A  
HETATM   26  C   UNL     1      -9.919  11.974  65.743  1.00  0.00    -0.266 A  
ENDBRANCH  20  21
ENDBRANCH  18  20
ENDBRANCH  17  18
ENDBRANCH  16  17
ENDBRANCH  15  16
ENDBRANCH  13  15
ENDBRANCH  10  13
BRANCH  12  27
HETATM   27  C   UNL     1      -8.635   6.894  68.640  1.00  0.00    -0.123 A  
HETATM   28  C   UNL     1      -9.274   6.362  70.920  1.00  0.00    -0.161 A  
HETATM   29  O   UNL     1      -5.595   4.081  68.995  1.00  0.00    -0.015 OA 
HETATM   30  C   UNL     1      -7.577   5.967  68.733  1.00  0.00    -0.090 A  
HETATM   31  O   UNL     1      -6.154   3.649  71.071  1.00  0.00    -0.014 OA 
HETATM   32  C   UNL     1      -7.384   5.241  69.914  1.00  0.00    -0.064 A  
HETATM   33  C   UNL     1      -9.486   7.070  69.738  1.00  0.00    -0.145 A  
HETATM   34  C   UNL     1      -8.222   5.449  71.015  1.00  0.00    -0.118 A  
HETATM   35  N   UNL     1      -6.301   4.253  69.999  1.00  0.00    -0.027 N  
ENDBRANCH  12  27
ENDBRANCH   3   5
ENDBRANCH   2   3
TORSDOF 10
ENDMDL
MODEL      282
REMARK 921   NORMALIZED FREE ENERGY PREDICTED BY IDOCK:   -1.75 KCAL/MOL
REMARK 922        TOTAL FREE ENERGY PREDICTED BY IDOCK:   -4.29 KCAL/MOL
REMARK 923 INTER-LIGAND FREE ENERGY PREDICTED BY IDOCK:   -7.80 KCAL/MOL
REMARK 924 INTRA-LIGAND FREE ENERGY PREDICTED BY IDOCK:    3.52 KCAL/MOL
REMARK 927      BINDING AFFINITY PREDICTED BY RF-SCORE:    0.00 PKD
ROOT
HETATM    1  C   UNL     1     -10.070   8.199  70.729  1.00  0.00    -0.189 C  
HETATM    2  O   UNL     1     -10.217   9.145  69.665  1.00  0.00    -0.188 OA 
ENDROOT
BRANCH   2   3
HETATM    3  C   UNL     1      -9.123   9.933  69.505  1.00  0.00    -0.223 C  
HETATM    4  O   UNL     1      -8.143   9.922  70.235  1.00  0.00    -0.181 OA 
BRANCH   3   5
HETATM    5  C   UNL     1      -9.285  10.854  68.351  1.00  0.00    -0.168 C  
HETATM    6  C   UNL     1      -8.198  11.345  67.710  1.00  0.00    -0.125 C  
HETATM    7  C   UNL     1      -6.757  10.975  67.973  1.00  0.00    -0.063 C  
HETATM    8  N   UNL     1      -8.360  12.299  66.721  1.00  0.00    -0.136 NA 
HETATM    9  C   UNL     1      -9.545  12.949  66.435  1.00  0.00    -0.252 C  
HETATM   10  C   UNL     1     -10.696  12.540  67.023  1.00  0.00    -0.268 C  
HETATM   11  C   UNL     1      -9.438  14.075  65.432  1.00  0.00     0.215 C  
HETATM   12  C   UNL     1     -10.700  11.330  67.976  1.00  0.00    -0.245 C  
BRANCH  10  13
HETATM   13  C   UNL     1     -11.984  13.198  66.660  1.00  0.00    -0.389 C  
HETATM   14  O   UNL     1     -12.856  12.711  65.956  1.00  0.00    -0.161 OA 
BRANCH  13  15
HETATM   15  O   UNL     1     -12.136  14.324  67.398  1.00  0.00    -0.400 OA 
BRANCH  15  16
HETATM   16  C   UNL     1     -10.906  15.035  67.619  1.00  0.00    -0.291 C  
BRANCH  16  17
HETATM   17  C   UNL     1     -11.028  16.341  66.819  1.00  0.00    -0.031 C  
BRANCH  17  18
HETATM   18  N   UNL     1     -10.416  17.543  67.400  1.00  0.00    -0.350 NA 
HETATM   19  C   UNL     1     -10.248  17.387  68.848  1.00  0.00    -0.352 C  
BRANCH  18  20
HETATM   20  C   UNL     1      -9.094  17.785  66.771  1.00  0.00    -0.262 C  
BRANCH  20  21
HETATM   21  C   UNL     1      -7.934  17.266  67.600  1.00  0.00    -0.195 A  
HETATM   22  C   UNL     1      -7.320  18.092  68.553  1.00  0.00    -0.285 A  
HETATM   23  C   UNL     1      -6.196  17.657  69.254  1.00  0.00    -0.239 A  
HETATM   24  C   UNL     1      -5.676  16.386  69.016  1.00  0.00    -0.130 A  
HETATM   25  C   UNL     1      -6.286  15.546  68.087  1.00  0.00    -0.133 A  
HETATM   26  C   UNL     1      -7.412  15.980  67.382  1.00  0.00    -0.208 A  
ENDBRANCH  20  21
ENDBRANCH  18  20
ENDBRANCH  17  18
ENDBRANCH  16  17
ENDBRANCH  15  16
ENDBRANCH  13  15
ENDBRANCH  10  13
BRANCH  12  27
HETATM   27  C   UNL     1     -11.553  11.593  69.221  1.00  0.00    -0.385 A  
HETATM   28  C   UNL     1     -13.176  10.843  70.862  1.00  0.00    -0.091 A  
HETATM   29  O   UNL     1     -11.550  15.284  71.132  1.00  0.00    -0.310 OA 
HETATM   30  C   UNL     1     -11.546  12.865  69.827  1.00  0.00    -0.288 A  
HETATM   31  O   UNL     1     -13.054  14.606  72.577  1.00  0.00    -0.354 OA 
HETATM   32  C   UNL     1     -12.345  13.110  70.949  1.00  0.00    -0.307 A  
HETATM   33  C   UNL     1     -12.364  10.585  69.759  1.00  0.00    -0.200 A  
HETATM   34  C   UNL     1     -13.174  12.105  71.459  1.00  0.00    -0.270 A  
HETATM   35  N   UNL     1     -12.314  14.427  71.599  1.00  0.00    -0.352 N  
ENDBRANCH  12  27
ENDBRANCH   3   5
ENDBRANCH   2   3
TORSDOF 10
ENDMDL
MODEL      283
REMARK 921   NORMALIZED FREE ENERGY PREDICTED BY IDOCK:   -1.62 KCAL/MOL
REMARK 922        TOTAL FREE ENERGY PREDICTED BY IDOCK:   -4.09 KCAL/MOL
REMARK 923 INTER-LIGAND FREE ENERGY PREDICTED BY IDOCK:   -6.44 KCAL/MOL
REMARK 924 INTRA-LIGAND FREE ENERGY PREDICTED BY IDOCK:    2.34 KCAL/MOL
REMARK 927      BINDING AFFINITY PREDICTED BY RF-SCORE:    0.00 PKD
ROOT
HETATM    1  C   UNL     1     -11.270   6.585  67.129  1.00  0.00    -0.235 C  
HETATM    2  O   UNL     1     -10.493   7.611  66.501  1.00  0.00    -0.215 OA 
ENDROOT
BRANCH   2   3
HETATM    3  C   UNL     1     -10.605   8.813  67.123  1.00  0.00    -0.233 C  
HETATM    4  O   UNL     1     -11.642   9.264  67.587  1.00  0.00     0.706 OA 
BRANCH   3   5
HETATM    5  C   UNL     1      -9.311   9.541  67.127  1.00  0.00    -0.174 C  
HETATM    6  C   UNL     1      -8.150   8.872  66.929  1.00  0.00    -0.109 C  
HETATM    7  C   UNL     1      -8.003   7.409  66.585  1.00  0.00    -0.121 C  
HETATM    8  N   UNL     1      -6.945   9.540  67.061  1.00  0.00    -0.084 NA 
HETATM    9  C   UNL     1      -6.800  10.819  67.563  1.00  0.00    -0.079 C  
HETATM   10  C   UNL     1      -7.898  11.577  67.801  1.00  0.00    -0.126 C  
HETATM   11  C   UNL     1      -5.374  11.271  67.776  1.00  0.00    -0.045 C  
HETATM   12  C   UNL     1      -9.304  11.039  67.477  1.00  0.00    -0.167 C  
BRANCH  10  13
HETATM   13  C   UNL     1      -7.737  12.981  68.278  1.00  0.00    -0.141 C  
HETATM   14  O   UNL     1      -7.256  13.316  69.350  1.00  0.00     0.055 OA 
BRANCH  13  15
HETATM   15  O   UNL     1      -8.007  13.834  67.260  1.00  0.00    -0.169 OA 
BRANCH  15  16
HETATM   16  C   UNL     1      -7.430  15.138  67.437  1.00  0.00    -0.210 C  
BRANCH  16  17
HETATM   17  C   UNL     1      -8.042  16.020  66.338  1.00  0.00    -0.220 C  
BRANCH  17  18
HETATM   18  N   UNL     1      -8.405  17.395  66.705  1.00  0.00    -0.234 NA 
HETATM   19  C   UNL     1      -9.589  17.403  67.569  1.00  0.00    -0.257 C  
BRANCH  18  20
HETATM   20  C   UNL     1      -7.271  18.039  67.413  1.00  0.00    -0.193 C  
BRANCH  20  21
HETATM   21  C   UNL     1      -6.700  19.231  66.667  1.00  0.00    -0.199 A  
HETATM   22  C   UNL     1      -6.690  19.250  65.265  1.00  0.00    -0.253 A  
HETATM   23  C   UNL     1      -6.086  20.297  64.572  1.00  0.00    -0.329 A  
HETATM   24  C   UNL     1      -5.490  21.345  65.272  1.00  0.00    -0.110 A  
HETATM   25  C   UNL     1      -5.510  21.351  66.666  1.00  0.00    -0.343 A  
HETATM   26  C   UNL     1      -6.114  20.301  67.363  1.00  0.00    -0.235 A  
ENDBRANCH  20  21
ENDBRANCH  18  20
ENDBRANCH  17  18
ENDBRANCH  16  17
ENDBRANCH  15  16
ENDBRANCH  13  15
ENDBRANCH  10  13
BRANCH  12  27
HETATM   27  C   UNL     1     -10.304  11.360  68.593  1.00  0.00    -0.219 A  
HETATM   28  C   UNL     1     -11.566  10.684  70.552  1.00  0.00    -0.444 A  
HETATM   29  O   UNL     1     -12.166  15.067  68.858  1.00  0.00    -0.216 OA 
HETATM   30  C   UNL     1     -10.935  12.620  68.636  1.00  0.00    -0.292 A  
HETATM   31  O   UNL     1     -13.335  14.423  70.598  1.00  0.00    -0.274 OA 
HETATM   32  C   UNL     1     -11.867  12.902  69.641  1.00  0.00    -0.320 A  
HETATM   33  C   UNL     1     -10.619  10.405  69.568  1.00  0.00    -0.274 A  
HETATM   34  C   UNL     1     -12.197  11.929  70.592  1.00  0.00    -0.424 A  
HETATM   35  N   UNL     1     -12.501  14.225  69.703  1.00  0.00    -0.257 N  
ENDBRANCH  12  27
ENDBRANCH   3   5
ENDBRANCH   2   3
TORSDOF 10
ENDMDL
MODEL      284
REMARK 921   NORMALIZED FREE ENERGY PREDICTED BY IDOCK:   -1.53 KCAL/MOL
REMARK 922        TOTAL FREE ENERGY PREDICTED BY IDOCK:   -3.94 KCAL/MOL
REMARK 923 INTER-LIGAND FREE ENERGY PREDICTED BY IDOCK:   -5.26 KCAL/MOL
REMARK 924 INTRA-LIGAND FREE ENERGY PREDICTED BY IDOCK:    1.32 KCAL/MOL
REMARK 927      BINDING AFFINITY PREDICTED BY RF-SCORE:    0.00 PKD
ROOT
HETATM    1  C   UNL     1     -10.176  13.092  66.476  1.00  0.00    -0.277 C  
HETATM    2  O   UNL     1     -10.056  12.412  67.730  1.00  0.00    -0.195 OA 
ENDROOT
BRANCH   2   3
HETATM    3  C   UNL     1     -10.305  11.080  67.632  1.00  0.00    -0.191 C  
HETATM    4  O   UNL     1      -9.961  10.373  66.697  1.00  0.00    -0.194 OA 
BRANCH   3   5
HETATM    5  C   UNL     1     -11.096  10.593  68.791  1.00  0.00    -0.316 C  
HETATM    6  C   UNL     1     -12.053  11.377  69.343  1.00  0.00    -0.291 C  
HETATM    7  C   UNL     1     -12.513  12.724  68.837  1.00  0.00     0.421 C  
HETATM    8  N   UNL     1     -12.693  10.964  70.498  1.00  0.00    -0.308 NA 
HETATM    9  C   UNL     1     -12.318   9.878  71.266  1.00  0.00    -0.381 C  
HETATM   10  C   UNL     1     -11.367   9.029  70.810  1.00  0.00    -0.329 C  
HETATM   11  C   UNL     1     -13.059   9.727  72.575  1.00  0.00    -0.199 C  
HETATM   12  C   UNL     1     -10.729   9.240  69.424  1.00  0.00    -0.222 C  
BRANCH  10  13
HETATM   13  C   UNL     1     -11.012   7.820  71.609  1.00  0.00    -0.235 C  
HETATM   14  O   UNL     1     -10.678   7.819  72.784  1.00  0.00    -0.295 OA 
BRANCH  13  15
HETATM   15  O   UNL     1     -11.319   6.707  70.899  1.00  0.00    -0.285 OA 
BRANCH  15  16
HETATM   16  C   UNL     1     -11.089   5.486  71.620  1.00  0.00    -0.122 C  
BRANCH  16  17
HETATM   17  C   UNL     1     -10.286   4.583  70.671  1.00  0.00    -0.088 C  
BRANCH  17  18
HETATM   18  N   UNL     1      -9.553   5.240  69.581  1.00  0.00    -0.150 NA 
HETATM   19  C   UNL     1      -8.149   5.438  69.949  1.00  0.00    -0.088 C  
BRANCH  18  20
HETATM   20  C   UNL     1      -9.633   4.409  68.355  1.00  0.00    -0.140 C  
BRANCH  20  21
HETATM   21  C   UNL     1      -8.276   4.129  67.734  1.00  0.00    -0.094 A  
HETATM   22  C   UNL     1      -7.674   5.076  66.892  1.00  0.00    -0.092 A  
HETATM   23  C   UNL     1      -6.473   4.790  66.245  1.00  0.00    -0.041 A  
HETATM   24  C   UNL     1      -5.854   3.557  66.437  1.00  0.00    -0.023 A  
HETATM   25  C   UNL     1      -6.430   2.613  67.286  1.00  0.00    -0.036 A  
HETATM   26  C   UNL     1      -7.634   2.896  67.935  1.00  0.00    -0.057 A  
ENDBRANCH  20  21
ENDBRANCH  18  20
ENDBRANCH  17  18
ENDBRANCH  16  17
ENDBRANCH  15  16
ENDBRANCH  13  15
ENDBRANCH  10  13
BRANCH  12  27
HETATM   27  C   UNL     1      -9.212   9.029  69.460  1.00  0.00    -0.152 A  
HETATM   28  C   UNL     1      -7.122   8.550  68.324  1.00  0.00    -0.085 A  
HETATM   29  O   UNL     1      -7.074   9.156  73.023  1.00  0.00    -0.231 OA 
HETATM   30  C   UNL     1      -8.524   9.054  70.690  1.00  0.00    -0.229 A  
HETATM   31  O   UNL     1      -5.202   8.673  71.987  1.00  0.00    -0.035 OA 
HETATM   32  C   UNL     1      -7.142   8.836  70.724  1.00  0.00    -0.069 A  
HETATM   33  C   UNL     1      -8.494   8.790  68.281  1.00  0.00    -0.130 A  
HETATM   34  C   UNL     1      -6.440   8.568  69.544  1.00  0.00    -0.040 A  
HETATM   35  N   UNL     1      -6.422   8.893  72.002  1.00  0.00    -0.060 N  
ENDBRANCH  12  27
ENDBRANCH   3   5
ENDBRANCH   2   3
TORSDOF 10
ENDMDL
MODEL      285
REMARK 921   NORMALIZED FREE ENERGY PREDICTED BY IDOCK:   -1.40 KCAL/MOL
REMARK 922        TOTAL FREE ENERGY PREDICTED BY IDOCK:   -3.74 KCAL/MOL
REMARK 923 INTER-LIGAND FREE ENERGY PREDICTED BY IDOCK:   -4.68 KCAL/MOL
REMARK 924 INTRA-LIGAND FREE ENERGY PREDICTED BY IDOCK:    0.94 KCAL/MOL
REMARK 927      BINDING AFFINITY PREDICTED BY RF-SCORE:    0.00 PKD
ROOT
HETATM    1  C   UNL     1     -11.874  13.645  69.430  1.00  0.00    -0.339 C  
HETATM    2  O   UNL     1     -11.484  13.464  68.065  1.00  0.00    -0.268 OA 
ENDROOT
BRANCH   2   3
HETATM    3  C   UNL     1     -10.136  13.406  67.905  1.00  0.00    -0.238 C  
HETATM    4  O   UNL     1      -9.327  14.037  68.569  1.00  0.00    -0.206 OA 
BRANCH   3   5
HETATM    5  C   UNL     1      -9.765  12.510  66.780  1.00  0.00    -0.234 C  
HETATM    6  C   UNL     1     -10.699  12.119  65.881  1.00  0.00    -0.266 C  
HETATM    7  C   UNL     1     -12.134  12.584  65.816  1.00  0.00    -0.443 C  
HETATM    8  N   UNL     1     -10.368  11.185  64.915  1.00  0.00    -0.296 NA 
HETATM    9  C   UNL     1      -9.193  10.460  64.884  1.00  0.00    -0.221 C  
HETATM   10  C   UNL     1      -8.191  10.766  65.743  1.00  0.00    -0.146 C  
HETATM   11  C   UNL     1      -9.131   9.375  63.833  1.00  0.00    -0.087 C  
HETATM   12  C   UNL     1      -8.335  11.943  66.725  1.00  0.00    -0.153 C  
BRANCH  10  13
HETATM   13  C   UNL     1      -6.898  10.027  65.662  1.00  0.00    -0.114 C  
HETATM   14  O   UNL     1      -5.789  10.539  65.621  1.00  0.00    -0.101 OA 
BRANCH  13  15
HETATM   15  O   UNL     1      -7.124   8.705  65.853  1.00  0.00    -0.074 OA 
BRANCH  15  16
HETATM   16  C   UNL     1      -7.582   8.388  67.178  1.00  0.00    -0.093 C  
BRANCH  16  17
HETATM   17  C   UNL     1      -8.479   7.150  67.026  1.00  0.00    -0.122 C  
BRANCH  17  18
HETATM   18  N   UNL     1      -7.811   5.849  66.888  1.00  0.00    -0.101 NA 
HETATM   19  C   UNL     1      -7.093   5.505  68.118  1.00  0.00    -0.067 C  
BRANCH  18  20
HETATM   20  C   UNL     1      -8.817   4.800  66.590  1.00  0.00    -0.110 C  
BRANCH  20  21
HETATM   21  C   UNL     1      -8.606   4.136  65.242  1.00  0.00    -0.119 A  
HETATM   22  C   UNL     1      -9.676   4.000  64.345  1.00  0.00    -0.175 A  
HETATM   23  C   UNL     1      -9.514   3.310  63.145  1.00  0.00    -0.096 A  
HETATM   24  C   UNL     1      -8.278   2.754  62.821  1.00  0.00    -0.073 A  
HETATM   25  C   UNL     1      -7.200   2.897  63.693  1.00  0.00    -0.049 A  
HETATM   26  C   UNL     1      -7.359   3.588  64.898  1.00  0.00    -0.072 A  
ENDBRANCH  20  21
ENDBRANCH  18  20
ENDBRANCH  17  18
ENDBRANCH  16  17
ENDBRANCH  15  16
ENDBRANCH  13  15
ENDBRANCH  10  13
BRANCH  12  27
HETATM   27  C   UNL     1      -7.819  11.583  68.121  1.00  0.00    -0.128 A  
HETATM   28  C   UNL     1      -6.180  11.833  69.894  1.00  0.00    -0.141 A  
HETATM   29  O   UNL     1      -9.743   8.770  70.502  1.00  0.00    -0.171 OA 
HETATM   30  C   UNL     1      -8.483  10.605  68.890  1.00  0.00    -0.154 A  
HETATM   31  O   UNL     1      -8.226   8.972  72.072  1.00  0.00    -0.360 OA 
HETATM   32  C   UNL     1      -7.995  10.259  70.155  1.00  0.00     0.119 A  
HETATM   33  C   UNL     1      -6.675  12.200  68.644  1.00  0.00    -0.081 A  
HETATM   34  C   UNL     1      -6.834  10.860  70.653  1.00  0.00     0.678 A  
HETATM   35  N   UNL     1      -8.705   9.263  70.967  1.00  0.00    -0.181 N  
ENDBRANCH  12  27
ENDBRANCH   3   5
ENDBRANCH   2   3
TORSDOF 10
ENDMDL
MODEL      286
REMARK 921   NORMALIZED FREE ENERGY PREDICTED BY IDOCK:   -1.38 KCAL/MOL
REMARK 922        TOTAL FREE ENERGY PREDICTED BY IDOCK:   -3.71 KCAL/MOL
REMARK 923 INTER-LIGAND FREE ENERGY PREDICTED BY IDOCK:   -4.11 KCAL/MOL
REMARK 924 INTRA-LIGAND FREE ENERGY PREDICTED BY IDOCK:    0.40 KCAL/MOL
REMARK 927      BINDING AFFINITY PREDICTED BY RF-SCORE:    0.00 PKD
ROOT
HETATM    1  C   UNL     1     -13.331  13.329  71.651  1.00  0.00    -0.322 C  
HETATM    2  O   UNL     1     -12.954  13.389  70.272  1.00  0.00     0.018 OA 
ENDROOT
BRANCH   2   3
HETATM    3  C   UNL     1     -11.657  13.750  70.095  1.00  0.00    -0.160 C  
HETATM    4  O   UNL     1     -10.965  14.301  70.938  1.00  0.00     0.299 OA 
BRANCH   3   5
HETATM    5  C   UNL     1     -11.191  13.434  68.721  1.00  0.00    -0.315 C  
HETATM    6  C   UNL     1     -11.728  14.073  67.653  1.00  0.00    -0.377 C  
HETATM    7  C   UNL     1     -12.728  15.203  67.693  1.00  0.00     1.498 C  
HETATM    8  N   UNL     1     -11.377  13.679  66.374  1.00  0.00    -0.309 NA 
HETATM    9  C   UNL     1     -10.645  12.549  66.066  1.00  0.00    -0.263 C  
HETATM   10  C   UNL     1     -10.065  11.831  67.058  1.00  0.00    -0.232 C  
HETATM   11  C   UNL     1     -10.537  12.231  64.592  1.00  0.00    -0.338 C  
HETATM   12  C   UNL     1     -10.180  12.290  68.524  1.00  0.00    -0.213 C  
BRANCH  10  13
HETATM   13  C   UNL     1      -9.219  10.651  66.719  1.00  0.00    -0.156 C  
HETATM   14  O   UNL     1      -8.012  10.571  66.891  1.00  0.00    -0.115 OA 
BRANCH  13  15
HETATM   15  O   UNL     1     -10.017   9.607  66.390  1.00  0.00    -0.223 OA 
BRANCH  15  16
HETATM   16  C   UNL     1      -9.701   9.023  65.115  1.00  0.00     0.329 C  
BRANCH  16  17
HETATM   17  C   UNL     1      -8.429   8.190  65.340  1.00  0.00    -0.147 C  
BRANCH  17  18
HETATM   18  N   UNL     1      -8.595   6.737  65.472  1.00  0.00    -0.125 NA 
HETATM   19  C   UNL     1      -8.358   6.072  64.187  1.00  0.00     0.010 C  
BRANCH  18  20
HETATM   20  C   UNL     1      -7.642   6.216  66.483  1.00  0.00    -0.094 C  
BRANCH  20  21
HETATM   21  C   UNL     1      -8.291   5.285  67.491  1.00  0.00    -0.106 A  
HETATM   22  C   UNL     1      -8.539   5.721  68.801  1.00  0.00    -0.109 A  
HETATM   23  C   UNL     1      -9.049   4.846  69.758  1.00  0.00    -0.157 A  
HETATM   24  C   UNL     1      -9.326   3.523  69.416  1.00  0.00    -0.243 A  
HETATM   25  C   UNL     1      -9.104   3.080  68.113  1.00  0.00    -0.219 A  
HETATM   26  C   UNL     1      -8.592   3.955  67.152  1.00  0.00    -0.109 A  
ENDBRANCH  20  21
ENDBRANCH  18  20
ENDBRANCH  17  18
ENDBRANCH  16  17
ENDBRANCH  15  16
ENDBRANCH  13  15
ENDBRANCH  10  13
BRANCH  12  27
HETATM   27  C   UNL     1     -10.471  11.116  69.464  1.00  0.00    -0.080 A  
HETATM   28  C   UNL     1     -12.028   9.824  70.806  1.00  0.00    -0.382 A  
HETATM   29  O   UNL     1      -7.461   8.563  70.767  1.00  0.00    -0.059 OA 
HETATM   30  C   UNL     1      -9.421  10.286  69.906  1.00  0.00    -0.061 A  
HETATM   31  O   UNL     1      -8.872   7.437  72.014  1.00  0.00    -0.123 OA 
HETATM   32  C   UNL     1      -9.686   9.229  70.784  1.00  0.00    -0.282 A  
HETATM   33  C   UNL     1     -11.775  10.863  69.911  1.00  0.00    -0.418 A  
HETATM   34  C   UNL     1     -10.986   9.006  71.249  1.00  0.00    -0.384 A  
HETATM   35  N   UNL     1      -8.595   8.347  71.219  1.00  0.00    -0.146 N  
ENDBRANCH  12  27
ENDBRANCH   3   5
ENDBRANCH   2   3
TORSDOF 10
ENDMDL
MODEL      287
REMARK 921   NORMALIZED FREE ENERGY PREDICTED BY IDOCK:   -1.38 KCAL/MOL
REMARK 922        TOTAL FREE ENERGY PREDICTED BY IDOCK:   -3.70 KCAL/MOL
REMARK 923 INTER-LIGAND FREE ENERGY PREDICTED BY IDOCK:   -3.78 KCAL/MOL
REMARK 924 INTRA-LIGAND FREE ENERGY PREDICTED BY IDOCK:    0.08 KCAL/MOL
REMARK 927      BINDING AFFINITY PREDICTED BY RF-SCORE:    0.00 PKD
ROOT
HETATM    1  C   UNL     1     -11.791   8.996  70.583  1.00  0.00    -0.154 C  
HETATM    2  O   UNL     1     -11.694  10.413  70.756  1.00  0.00    -0.321 OA 
ENDROOT
BRANCH   2   3
HETATM    3  C   UNL     1     -11.926  11.102  69.609  1.00  0.00    -0.359 C  
HETATM    4  O   UNL     1     -12.517  10.657  68.636  1.00  0.00    -0.252 OA 
BRANCH   3   5
HETATM    5  C   UNL     1     -11.326  12.459  69.663  1.00  0.00    -0.193 C  
HETATM    6  C   UNL     1     -11.907  13.434  70.403  1.00  0.00    -0.208 C  
HETATM    7  C   UNL     1     -13.103  13.280  71.312  1.00  0.00    -0.299 C  
HETATM    8  N   UNL     1     -11.411  14.725  70.343  1.00  0.00    -0.263 NA 
HETATM    9  C   UNL     1     -10.461  15.167  69.443  1.00  0.00    -0.255 C  
HETATM   10  C   UNL     1      -9.819  14.276  68.650  1.00  0.00    -0.228 C  
HETATM   11  C   UNL     1     -10.205  16.657  69.454  1.00  0.00    -0.251 C  
HETATM   12  C   UNL     1     -10.108  12.768  68.775  1.00  0.00    -0.057 C  
BRANCH  10  13
HETATM   13  C   UNL     1      -8.746  14.747  67.728  1.00  0.00    -0.172 C  
HETATM   14  O   UNL     1      -7.666  14.201  67.558  1.00  0.00    -0.164 OA 
BRANCH  13  15
HETATM   15  O   UNL     1      -9.229  15.747  66.951  1.00  0.00    -0.208 OA 
BRANCH  15  16
HETATM   16  C   UNL     1      -8.203  16.502  66.286  1.00  0.00    -0.325 C  
BRANCH  16  17
HETATM   17  C   UNL     1      -7.467  17.274  67.391  1.00  0.00    -0.170 C  
BRANCH  17  18
HETATM   18  N   UNL     1      -6.393  18.185  66.973  1.00  0.00    -0.169 NA 
HETATM   19  C   UNL     1      -6.806  19.581  67.142  1.00  0.00    -0.200 C  
BRANCH  18  20
HETATM   20  C   UNL     1      -5.176  17.925  67.780  1.00  0.00    -0.137 C  
BRANCH  20  21
HETATM   21  C   UNL     1      -5.469  17.228  69.096  1.00  0.00    -0.165 A  
HETATM   22  C   UNL     1      -5.192  15.862  69.250  1.00  0.00    -0.109 A  
HETATM   23  C   UNL     1      -5.543  15.192  70.421  1.00  0.00    -0.138 A  
HETATM   24  C   UNL     1      -6.168  15.883  71.458  1.00  0.00     1.519 A  
HETATM   25  C   UNL     1      -6.432  17.245  71.329  1.00  0.00     2.740 A  
HETATM   26  C   UNL     1      -6.082  17.918  70.155  1.00  0.00    -0.029 A  
ENDBRANCH  20  21
ENDBRANCH  18  20
ENDBRANCH  17  18
ENDBRANCH  16  17
ENDBRANCH  15  16
ENDBRANCH  13  15
ENDBRANCH  10  13
BRANCH  12  27
HETATM   27  C   UNL     1     -10.230  12.099  67.403  1.00  0.00    -0.211 A  
HETATM   28  C   UNL     1      -9.392  10.555  65.727  1.00  0.00    -0.229 A  
HETATM   29  O   UNL     1     -13.285  13.075  64.760  1.00  0.00    -0.709 OA 
HETATM   30  C   UNL     1     -11.264  12.474  66.522  1.00  0.00    -0.356 A  
HETATM   31  O   UNL     1     -12.487  11.713  63.238  1.00  0.00    -0.471 OA 
HETATM   32  C   UNL     1     -11.358  11.879  65.259  1.00  0.00    -0.275 A  
HETATM   33  C   UNL     1      -9.307  11.125  66.996  1.00  0.00    -0.182 A  
HETATM   34  C   UNL     1     -10.414  10.931  64.852  1.00  0.00    -0.352 A  
HETATM   35  N   UNL     1     -12.455  12.249  64.355  1.00  0.00    -0.428 N  
ENDBRANCH  12  27
ENDBRANCH   3   5
ENDBRANCH   2   3
TORSDOF 10
ENDMDL
MODEL      288
REMARK 921   NORMALIZED FREE ENERGY PREDICTED BY IDOCK:   -1.38 KCAL/MOL
REMARK 922        TOTAL FREE ENERGY PREDICTED BY IDOCK:   -3.70 KCAL/MOL
REMARK 923 INTER-LIGAND FREE ENERGY PREDICTED BY IDOCK:   -4.57 KCAL/MOL
REMARK 924 INTRA-LIGAND FREE ENERGY PREDICTED BY IDOCK:    0.87 KCAL/MOL
REMARK 927      BINDING AFFINITY PREDICTED BY RF-SCORE:    0.00 PKD
ROOT
HETATM    1  C   UNL     1     -13.322  13.323  71.636  1.00  0.00    -0.322 C  
HETATM    2  O   UNL     1     -12.875  13.293  70.277  1.00  0.00    -0.042 OA 
ENDROOT
BRANCH   2   3
HETATM    3  C   UNL     1     -11.554  13.581  70.150  1.00  0.00    -0.120 C  
HETATM    4  O   UNL     1     -10.886  14.173  70.984  1.00  0.00     0.801 OA 
BRANCH   3   5
HETATM    5  C   UNL     1     -11.027  13.127  68.838  1.00  0.00    -0.270 C  
HETATM    6  C   UNL     1     -11.432  13.727  67.693  1.00  0.00    -0.323 C  
HETATM    7  C   UNL     1     -12.329  14.937  67.582  1.00  0.00     0.298 C  
HETATM    8  N   UNL     1     -11.032  13.213  66.472  1.00  0.00    -0.283 NA 
HETATM    9  C   UNL     1     -10.384  12.006  66.296  1.00  0.00    -0.221 C  
HETATM   10  C   UNL     1      -9.938  11.317  67.375  1.00  0.00    -0.206 C  
HETATM   11  C   UNL     1     -10.205  11.572  64.859  1.00  0.00    -0.324 C  
HETATM   12  C   UNL     1     -10.111  11.891  68.794  1.00  0.00    -0.133 C  
BRANCH  10  13
HETATM   13  C   UNL     1      -9.179  10.049  67.180  1.00  0.00    -0.141 C  
HETATM   14  O   UNL     1      -7.991   9.888  67.419  1.00  0.00    -0.105 OA 
BRANCH  13  15
HETATM   15  O   UNL     1     -10.046   9.046  66.898  1.00  0.00    -0.221 OA 
BRANCH  15  16
HETATM   16  C   UNL     1      -9.699   8.304  65.717  1.00  0.00     0.229 C  
BRANCH  16  17
HETATM   17  C   UNL     1      -8.529   7.394  66.123  1.00  0.00    -0.145 C  
BRANCH  17  18
HETATM   18  N   UNL     1      -8.838   5.984  66.392  1.00  0.00    -0.132 NA 
HETATM   19  C   UNL     1     -10.150   5.857  67.033  1.00  0.00    -0.183 C  
BRANCH  18  20
HETATM   20  C   UNL     1      -8.832   5.220  65.120  1.00  0.00    -0.129 C  
BRANCH  20  21
HETATM   21  C   UNL     1      -8.035   3.931  65.201  1.00  0.00    -0.093 A  
HETATM   22  C   UNL     1      -8.246   2.907  64.265  1.00  0.00    -0.083 A  
HETATM   23  C   UNL     1      -7.586   1.686  64.386  1.00  0.00    -0.059 A  
HETATM   24  C   UNL     1      -6.699   1.474  65.440  1.00  0.00    -0.030 A  
HETATM   25  C   UNL     1      -6.463   2.488  66.366  1.00  0.00    -0.028 A  
HETATM   26  C   UNL     1      -7.124   3.713  66.248  1.00  0.00    -0.063 A  
ENDBRANCH  20  21
ENDBRANCH  18  20
ENDBRANCH  17  18
ENDBRANCH  16  17
ENDBRANCH  15  16
ENDBRANCH  13  15
ENDBRANCH  10  13
BRANCH  12  27
HETATM   27  C   UNL     1     -10.567  10.818  69.787  1.00  0.00    -0.191 A  
HETATM   28  C   UNL     1     -12.323   9.750  71.079  1.00  0.00    -0.422 A  
HETATM   29  O   UNL     1      -7.880   8.165  71.525  1.00  0.00    -0.091 OA 
HETATM   30  C   UNL     1      -9.624   9.952  70.376  1.00  0.00    -0.117 A  
HETATM   31  O   UNL     1      -9.470   7.244  72.723  1.00  0.00    -0.141 OA 
HETATM   32  C   UNL     1     -10.040   8.989  71.302  1.00  0.00    -0.314 A  
HETATM   33  C   UNL     1     -11.918  10.695  70.138  1.00  0.00    -0.417 A  
HETATM   34  C   UNL     1     -11.387   8.896  71.668  1.00  0.00    -0.407 A  
HETATM   35  N   UNL     1      -9.060   8.067  71.891  1.00  0.00    -0.142 N  
ENDBRANCH  12  27
ENDBRANCH   3   5
ENDBRANCH   2   3
TORSDOF 10
ENDMDL
MODEL      289
REMARK 921   NORMALIZED FREE ENERGY PREDICTED BY IDOCK:   -1.37 KCAL/MOL
REMARK 922        TOTAL FREE ENERGY PREDICTED BY IDOCK:   -3.69 KCAL/MOL
REMARK 923 INTER-LIGAND FREE ENERGY PREDICTED BY IDOCK:   -4.82 KCAL/MOL
REMARK 924 INTRA-LIGAND FREE ENERGY PREDICTED BY IDOCK:    1.14 KCAL/MOL
REMARK 927      BINDING AFFINITY PREDICTED BY RF-SCORE:    0.00 PKD
ROOT
HETATM    1  C   UNL     1     -10.244  15.129  65.886  1.00  0.00    -0.324 C  
HETATM    2  O   UNL     1      -9.534  14.091  65.203  1.00  0.00     0.103 OA 
ENDROOT
BRANCH   2   3
HETATM    3  C   UNL     1     -10.345  13.086  64.783  1.00  0.00    -0.336 C  
HETATM    4  O   UNL     1     -10.535  12.785  63.614  1.00  0.00    -0.382 OA 
BRANCH   3   5
HETATM    5  C   UNL     1     -11.017  12.421  65.929  1.00  0.00    -0.323 C  
HETATM    6  C   UNL     1     -12.176  12.919  66.424  1.00  0.00    -0.231 C  
HETATM    7  C   UNL     1     -12.970  14.074  65.862  1.00  0.00    -0.223 C  
HETATM    8  N   UNL     1     -12.723  12.367  67.569  1.00  0.00     0.977 NA 
HETATM    9  C   UNL     1     -12.094  11.444  68.382  1.00  0.00    -0.048 C  
HETATM   10  C   UNL     1     -10.926  10.884  67.985  1.00  0.00    -0.317 C  
HETATM   11  C   UNL     1     -12.816  11.119  69.669  1.00  0.00     0.276 C  
HETATM   12  C   UNL     1     -10.315  11.236  66.615  1.00  0.00    -0.279 C  
BRANCH  10  13
HETATM   13  C   UNL     1     -10.283   9.838  68.832  1.00  0.00    -0.200 C  
HETATM   14  O   UNL     1      -9.940   8.729  68.451  1.00  0.00    -0.167 OA 
BRANCH  13  15
HETATM   15  O   UNL     1      -9.945  10.376  70.029  1.00  0.00    -0.156 OA 
BRANCH  15  16
HETATM   16  C   UNL     1     -10.542   9.700  71.149  1.00  0.00    -0.257 C  
BRANCH  16  17
HETATM   17  C   UNL     1      -9.557   8.588  71.540  1.00  0.00    -0.228 C  
BRANCH  17  18
HETATM   18  N   UNL     1     -10.129   7.312  71.990  1.00  0.00    -0.184 NA 
HETATM   19  C   UNL     1     -11.586   7.318  71.835  1.00  0.00    -0.277 C  
BRANCH  18  20
HETATM   20  C   UNL     1      -9.550   6.199  71.200  1.00  0.00    -0.175 C  
BRANCH  20  21
HETATM   21  C   UNL     1      -9.420   4.909  71.990  1.00  0.00    -0.185 A  
HETATM   22  C   UNL     1     -10.503   4.425  72.738  1.00  0.00    -0.253 A  
HETATM   23  C   UNL     1     -10.365   3.293  73.539  1.00  0.00    -0.234 A  
HETATM   24  C   UNL     1      -9.143   2.625  73.597  1.00  0.00    -0.084 A  
HETATM   25  C   UNL     1      -8.063   3.082  72.845  1.00  0.00    -0.067 A  
HETATM   26  C   UNL     1      -8.199   4.217  72.041  1.00  0.00    -0.095 A  
ENDBRANCH  20  21
ENDBRANCH  18  20
ENDBRANCH  17  18
ENDBRANCH  16  17
ENDBRANCH  15  16
ENDBRANCH  13  15
ENDBRANCH  10  13
BRANCH  12  27
HETATM   27  C   UNL     1      -8.803  11.457  66.710  1.00  0.00    -0.179 A  
HETATM   28  C   UNL     1      -6.540  10.863  66.061  1.00  0.00    -0.080 A  
HETATM   29  O   UNL     1      -7.166  14.325  69.234  1.00  0.00    -0.125 OA 
HETATM   30  C   UNL     1      -8.282  12.421  67.596  1.00  0.00    -0.169 A  
HETATM   31  O   UNL     1      -5.127  13.743  68.675  1.00  0.00    -0.076 OA 
HETATM   32  C   UNL     1      -6.899  12.604  67.699  1.00  0.00    -0.144 A  
HETATM   33  C   UNL     1      -7.918  10.694  65.936  1.00  0.00    -0.157 A  
HETATM   34  C   UNL     1      -6.024  11.814  66.945  1.00  0.00    -0.140 A  
HETATM   35  N   UNL     1      -6.360  13.630  68.600  1.00  0.00    -0.084 N  
ENDBRANCH  12  27
ENDBRANCH   3   5
ENDBRANCH   2   3
TORSDOF 10
ENDMDL
MODEL      290
REMARK 921   NORMALIZED FREE ENERGY PREDICTED BY IDOCK:   -1.34 KCAL/MOL
REMARK 922        TOTAL FREE ENERGY PREDICTED BY IDOCK:   -3.64 KCAL/MOL
REMARK 923 INTER-LIGAND FREE ENERGY PREDICTED BY IDOCK:   -4.92 KCAL/MOL
REMARK 924 INTRA-LIGAND FREE ENERGY PREDICTED BY IDOCK:    1.28 KCAL/MOL
REMARK 927      BINDING AFFINITY PREDICTED BY RF-SCORE:    0.00 PKD
ROOT
HETATM    1  C   UNL     1     -10.654  15.722  70.360  1.00  0.00    -0.229 C  
HETATM    2  O   UNL     1     -10.329  16.771  69.441  1.00  0.00    -0.302 OA 
ENDROOT
BRANCH   2   3
HETATM    3  C   UNL     1      -9.632  16.329  68.363  1.00  0.00    -0.216 C  
HETATM    4  O   UNL     1      -9.590  16.894  67.280  1.00  0.00    -0.239 OA 
BRANCH   3   5
HETATM    5  C   UNL     1      -8.959  15.036  68.648  1.00  0.00    -0.186 C  
HETATM    6  C   UNL     1      -7.616  14.988  68.819  1.00  0.00    -0.137 C  
HETATM    7  C   UNL     1      -6.672  16.166  68.857  1.00  0.00    -0.147 C  
HETATM    8  N   UNL     1      -6.988  13.762  68.957  1.00  0.00    -0.111 NA 
HETATM    9  C   UNL     1      -7.593  12.536  68.756  1.00  0.00    -0.024 C  
HETATM   10  C   UNL     1      -8.933  12.469  68.572  1.00  0.00    -0.052 C  
HETATM   11  C   UNL     1      -6.664  11.345  68.793  1.00  0.00    -0.073 C  
HETATM   12  C   UNL     1      -9.795  13.745  68.626  1.00  0.00    -0.158 C  
BRANCH  10  13
HETATM   13  C   UNL     1      -9.593  11.140  68.423  1.00  0.00    -0.192 C  
HETATM   14  O   UNL     1      -9.923  10.405  69.342  1.00  0.00    -0.216 OA 
BRANCH  13  15
HETATM   15  O   UNL     1      -9.961  10.963  67.131  1.00  0.00    -0.181 OA 
BRANCH  15  16
HETATM   16  C   UNL     1      -8.947  10.340  66.326  1.00  0.00    -0.153 C  
BRANCH  16  17
HETATM   17  C   UNL     1      -9.059   8.833  66.603  1.00  0.00    -0.158 C  
BRANCH  17  18
HETATM   18  N   UNL     1      -8.007   7.969  66.052  1.00  0.00    -0.097 NA 
HETATM   19  C   UNL     1      -6.935   7.773  67.032  1.00  0.00    -0.077 C  
BRANCH  18  20
HETATM   20  C   UNL     1      -8.585   6.654  65.679  1.00  0.00    -0.123 C  
BRANCH  20  21
HETATM   21  C   UNL     1      -7.804   5.947  64.587  1.00  0.00    -0.114 A  
HETATM   22  C   UNL     1      -7.474   4.589  64.718  1.00  0.00    -0.072 A  
HETATM   23  C   UNL     1      -6.679   3.955  63.766  1.00  0.00    -0.043 A  
HETATM   24  C   UNL     1      -6.209   4.667  62.664  1.00  0.00    -0.018 A  
HETATM   25  C   UNL     1      -6.544   6.012  62.508  1.00  0.00    -0.033 A  
HETATM   26  C   UNL     1      -7.340   6.650  63.463  1.00  0.00    -0.072 A  
ENDBRANCH  20  21
ENDBRANCH  18  20
ENDBRANCH  17  18
ENDBRANCH  16  17
ENDBRANCH  15  16
ENDBRANCH  13  15
ENDBRANCH  10  13
BRANCH  12  27
HETATM   27  C   UNL     1     -10.840  13.770  67.507  1.00  0.00    -0.274 A  
HETATM   28  C   UNL     1     -13.108  14.185  66.749  1.00  0.00     1.414 A  
HETATM   29  O   UNL     1      -9.926  12.566  63.635  1.00  0.00    -0.355 OA 
HETATM   30  C   UNL     1     -10.501  13.330  66.212  1.00  0.00    -0.289 A  
HETATM   31  O   UNL     1     -11.991  12.898  62.978  1.00  0.00    -0.428 OA 
HETATM   32  C   UNL     1     -11.464  13.331  65.197  1.00  0.00    -0.295 A  
HETATM   33  C   UNL     1     -12.147  14.210  67.758  1.00  0.00    -0.321 A  
HETATM   34  C   UNL     1     -12.774  13.742  65.467  1.00  0.00    -0.530 A  
HETATM   35  N   UNL     1     -11.101  12.901  63.841  1.00  0.00    -0.414 N  
ENDBRANCH  12  27
ENDBRANCH   3   5
ENDBRANCH   2   3
TORSDOF 10
ENDMDL
MODEL      291
REMARK 921   NORMALIZED FREE ENERGY PREDICTED BY IDOCK:   -1.17 KCAL/MOL
REMARK 922        TOTAL FREE ENERGY PREDICTED BY IDOCK:   -3.38 KCAL/MOL
REMARK 923 INTER-LIGAND FREE ENERGY PREDICTED BY IDOCK:   -5.29 KCAL/MOL
REMARK 924 INTRA-LIGAND FREE ENERGY PREDICTED BY IDOCK:    1.92 KCAL/MOL
REMARK 927      BINDING AFFINITY PREDICTED BY RF-SCORE:    0.00 PKD
ROOT
HETATM    1  C   UNL     1     -12.847   9.905  71.832  1.00  0.00    -0.429 C  
HETATM    2  O   UNL     1     -12.535   8.521  72.029  1.00  0.00    -0.320 OA 
ENDROOT
BRANCH   2   3
HETATM    3  C   UNL     1     -11.214   8.251  71.869  1.00  0.00    -0.300 C  
HETATM    4  O   UNL     1     -10.308   8.828  72.454  1.00  0.00    -0.300 OA 
BRANCH   3   5
HETATM    5  C   UNL     1     -10.999   7.193  70.850  1.00  0.00    -0.276 C  
HETATM    6  C   UNL     1     -10.679   5.933  71.230  1.00  0.00    -0.264 C  
HETATM    7  C   UNL     1     -10.605   5.413  72.646  1.00  0.00    -0.274 C  
HETATM    8  N   UNL     1     -10.357   4.990  70.270  1.00  0.00    -0.258 NA 
HETATM    9  C   UNL     1     -10.154   5.261  68.931  1.00  0.00    -0.184 C  
HETATM   10  C   UNL     1     -10.440   6.492  68.443  1.00  0.00    -0.258 C  
HETATM   11  C   UNL     1      -9.641   4.102  68.108  1.00  0.00    -0.195 C  
HETATM   12  C   UNL     1     -11.030   7.579  69.361  1.00  0.00    -0.099 C  
BRANCH  10  13
HETATM   13  C   UNL     1     -10.285   6.763  66.985  1.00  0.00    -0.237 C  
HETATM   14  O   UNL     1     -10.696   7.753  66.399  1.00  0.00     0.113 OA 
BRANCH  13  15
HETATM   15  O   UNL     1      -9.439   5.851  66.446  1.00  0.00    -0.154 OA 
BRANCH  15  16
HETATM   16  C   UNL     1      -8.365   6.441  65.694  1.00  0.00    -0.147 C  
BRANCH  16  17
HETATM   17  C   UNL     1      -7.221   6.656  66.697  1.00  0.00    -0.073 C  
BRANCH  17  18
HETATM   18  N   UNL     1      -5.874   6.249  66.275  1.00  0.00    -0.023 NA 
HETATM   19  C   UNL     1      -5.163   5.600  67.380  1.00  0.00    -0.005 C  
BRANCH  18  20
HETATM   20  C   UNL     1      -5.971   5.312  65.129  1.00  0.00    -0.025 C  
BRANCH  20  21
HETATM   21  C   UNL     1      -6.522   3.952  65.515  1.00  0.00    -0.033 A  
HETATM   22  C   UNL     1      -7.012   3.081  64.530  1.00  0.00    -0.049 A  
HETATM   23  C   UNL     1      -7.604   1.870  64.882  1.00  0.00    -0.063 A  
HETATM   24  C   UNL     1      -7.706   1.507  66.224  1.00  0.00    -0.065 A  
HETATM   25  C   UNL     1      -7.205   2.352  67.214  1.00  0.00    -0.056 A  
HETATM   26  C   UNL     1      -6.613   3.568  66.863  1.00  0.00    -0.041 A  
ENDBRANCH  20  21
ENDBRANCH  18  20
ENDBRANCH  17  18
ENDBRANCH  16  17
ENDBRANCH  15  16
ENDBRANCH  13  15
ENDBRANCH  10  13
BRANCH  12  27
HETATM   27  C   UNL     1     -10.371   8.942  69.121  1.00  0.00    -0.230 A  
HETATM   28  C   UNL     1     -10.528  11.273  68.466  1.00  0.00    -0.218 A  
HETATM   29  O   UNL     1      -6.282   9.507  69.604  1.00  0.00    -0.038 OA 
HETATM   30  C   UNL     1      -8.978   9.090  69.269  1.00  0.00    -0.144 A  
HETATM   31  O   UNL     1      -6.433  11.599  68.962  1.00  0.00    -0.067 OA 
HETATM   32  C   UNL     1      -8.375  10.329  69.025  1.00  0.00    -0.148 A  
HETATM   33  C   UNL     1     -11.137  10.048  68.732  1.00  0.00    -0.219 A  
HETATM   34  C   UNL     1      -9.146  11.419  68.607  1.00  0.00    -0.138 A  
HETATM   35  N   UNL     1      -6.927  10.489  69.211  1.00  0.00    -0.075 N  
ENDBRANCH  12  27
ENDBRANCH   3   5
ENDBRANCH   2   3
TORSDOF 10
ENDMDL
MODEL      292
REMARK 921   NORMALIZED FREE ENERGY PREDICTED BY IDOCK:   -0.66 KCAL/MOL
REMARK 922        TOTAL FREE ENERGY PREDICTED BY IDOCK:   -2.57 KCAL/MOL
REMARK 923 INTER-LIGAND FREE ENERGY PREDICTED BY IDOCK:   -5.36 KCAL/MOL
REMARK 924 INTRA-LIGAND FREE ENERGY PREDICTED BY IDOCK:    2.79 KCAL/MOL
REMARK 927      BINDING AFFINITY PREDICTED BY RF-SCORE:    0.00 PKD
ROOT
HETATM    1  C   UNL     1      -7.949   7.773  71.234  1.00  0.00    -0.094 C  
HETATM    2  O   UNL     1      -7.920   8.141  69.851  1.00  0.00    -0.104 OA 
ENDROOT
BRANCH   2   3
HETATM    3  C   UNL     1      -6.664   8.393  69.399  1.00  0.00    -0.045 C  
HETATM    4  O   UNL     1      -6.002   7.626  68.717  1.00  0.00    -0.029 OA 
BRANCH   3   5
HETATM    5  C   UNL     1      -6.172   9.708  69.882  1.00  0.00    -0.048 C  
HETATM    6  C   UNL     1      -5.911   9.900  71.197  1.00  0.00    -0.058 C  
HETATM    7  C   UNL     1      -5.966   8.854  72.285  1.00  0.00    -0.066 C  
HETATM    8  N   UNL     1      -5.575  11.163  71.651  1.00  0.00    -0.330 NA 
HETATM    9  C   UNL     1      -5.653  12.321  70.900  1.00  0.00    -0.099 C  
HETATM   10  C   UNL     1      -5.912  12.245  69.572  1.00  0.00    -0.110 C  
HETATM   11  C   UNL     1      -5.403  13.602  71.661  1.00  0.00    -0.205 C  
HETATM   12  C   UNL     1      -6.078  10.877  68.885  1.00  0.00    -0.040 C  
BRANCH  10  13
HETATM   13  C   UNL     1      -5.928  13.490  68.751  1.00  0.00    -0.084 C  
HETATM   14  O   UNL     1      -5.719  13.549  67.548  1.00  0.00    -0.316 OA 
BRANCH  13  15
HETATM   15  O   UNL     1      -6.414  14.512  69.495  1.00  0.00    -0.115 OA 
BRANCH  15  16
HETATM   16  C   UNL     1      -5.887  15.796  69.120  1.00  0.00    -0.109 C  
BRANCH  16  17
HETATM   17  C   UNL     1      -6.950  16.824  69.538  1.00  0.00    -0.089 C  
BRANCH  17  18
HETATM   18  N   UNL     1      -6.701  18.227  69.183  1.00  0.00    -0.262 NA 
HETATM   19  C   UNL     1      -6.024  18.319  67.887  1.00  0.00    -0.167 C  
BRANCH  18  20
HETATM   20  C   UNL     1      -7.988  18.963  69.125  1.00  0.00    -0.088 C  
BRANCH  20  21
HETATM   21  C   UNL     1      -8.955  18.393  68.103  1.00  0.00    -0.325 A  
HETATM   22  C   UNL     1     -10.281  18.110  68.464  1.00  0.00    -0.399 A  
HETATM   23  C   UNL     1     -11.150  17.502  67.560  1.00  0.00     0.066 A  
HETATM   24  C   UNL     1     -10.708  17.176  66.279  1.00  0.00    -0.079 A  
HETATM   25  C   UNL     1      -9.399  17.470  65.898  1.00  0.00     0.028 A  
HETATM   26  C   UNL     1      -8.525  18.078  66.803  1.00  0.00    -0.274 A  
ENDBRANCH  20  21
ENDBRANCH  18  20
ENDBRANCH  17  18
ENDBRANCH  16  17
ENDBRANCH  15  16
ENDBRANCH  13  15
ENDBRANCH  10  13
BRANCH  12  27
HETATM   27  C   UNL     1      -7.255  10.875  67.905  1.00  0.00    -0.086 A  
HETATM   28  C   UNL     1      -8.162  10.426  65.698  1.00  0.00    -0.158 A  
HETATM   29  O   UNL     1     -11.003  12.307  68.990  1.00  0.00    -0.233 OA 
HETATM   30  C   UNL     1      -8.505  11.392  68.300  1.00  0.00    -0.154 A  
HETATM   31  O   UNL     1     -11.793  11.942  66.977  1.00  0.00    -0.585 OA 
HETATM   32  C   UNL     1      -9.573  11.412  67.395  1.00  0.00    -0.174 A  
HETATM   33  C   UNL     1      -7.102  10.380  66.602  1.00  0.00    -0.112 A  
HETATM   34  C   UNL     1      -9.399  10.945  66.088  1.00  0.00    -0.211 A  
HETATM   35  N   UNL     1     -10.883  11.923  67.817  1.00  0.00    -0.202 N  
ENDBRANCH  12  27
ENDBRANCH   3   5
ENDBRANCH   2   3
TORSDOF 10
ENDMDL
MODEL      293
REMARK 921   NORMALIZED FREE ENERGY PREDICTED BY IDOCK:   -0.61 KCAL/MOL
REMARK 922        TOTAL FREE ENERGY PREDICTED BY IDOCK:   -2.48 KCAL/MOL
REMARK 923 INTER-LIGAND FREE ENERGY PREDICTED BY IDOCK:   -5.36 KCAL/MOL
REMARK 924 INTRA-LIGAND FREE ENERGY PREDICTED BY IDOCK:    2.88 KCAL/MOL
REMARK 927      BINDING AFFINITY PREDICTED BY RF-SCORE:    0.00 PKD
ROOT
HETATM    1  C   UNL     1     -10.621   5.657  66.044  1.00  0.00     0.105 C  
HETATM    2  O   UNL     1      -9.724   4.896  66.860  1.00  0.00    -0.150 OA 
ENDROOT
BRANCH   2   3
HETATM    3  C   UNL     1      -8.428   5.020  66.474  1.00  0.00    -0.110 C  
HETATM    4  O   UNL     1      -7.592   4.131  66.543  1.00  0.00    -0.086 OA 
BRANCH   3   5
HETATM    5  C   UNL     1      -8.135   6.396  65.999  1.00  0.00    -0.120 C  
HETATM    6  C   UNL     1      -7.746   6.610  64.720  1.00  0.00    -0.111 C  
HETATM    7  C   UNL     1      -7.662   5.576  63.622  1.00  0.00    -0.089 C  
HETATM    8  N   UNL     1      -7.354   7.877  64.326  1.00  0.00    -0.082 NA 
HETATM    9  C   UNL     1      -7.148   8.943  65.181  1.00  0.00    -0.084 C  
HETATM   10  C   UNL     1      -7.499   8.837  66.485  1.00  0.00    -0.085 C  
HETATM   11  C   UNL     1      -6.554  10.177  64.542  1.00  0.00    -0.118 C  
HETATM   12  C   UNL     1      -8.166   7.553  67.014  1.00  0.00    -0.124 C  
BRANCH  10  13
HETATM   13  C   UNL     1      -7.339  10.011  67.391  1.00  0.00    -0.090 C  
HETATM   14  O   UNL     1      -6.274  10.487  67.755  1.00  0.00    -0.054 OA 
BRANCH  13  15
HETATM   15  O   UNL     1      -8.545  10.600  67.580  1.00  0.00    -0.122 OA 
BRANCH  15  16
HETATM   16  C   UNL     1      -9.656   9.737  67.283  1.00  0.00    -0.157 C  
BRANCH  16  17
HETATM   17  C   UNL     1     -10.728  10.637  66.648  1.00  0.00    -0.181 C  
BRANCH  17  18
HETATM   18  N   UNL     1     -11.429  11.574  67.536  1.00  0.00    -0.463 NA 
HETATM   19  C   UNL     1     -10.989  11.397  68.922  1.00  0.00    -0.226 C  
BRANCH  18  20
HETATM   20  C   UNL     1     -11.161  12.967  67.104  1.00  0.00    -0.286 C  
BRANCH  20  21
HETATM   21  C   UNL     1     -11.308  13.979  68.225  1.00  0.00    -0.317 A  
HETATM   22  C   UNL     1     -10.447  15.083  68.300  1.00  0.00    -0.237 A  
HETATM   23  C   UNL     1     -10.514  15.967  69.376  1.00  0.00    -0.265 A  
HETATM   24  C   UNL     1     -11.450  15.762  70.388  1.00  0.00    -0.380 A  
HETATM   25  C   UNL     1     -12.327  14.681  70.318  1.00  0.00    -0.406 A  
HETATM   26  C   UNL     1     -12.260  13.793  69.241  1.00  0.00    -0.307 A  
ENDBRANCH  20  21
ENDBRANCH  18  20
ENDBRANCH  17  18
ENDBRANCH  16  17
ENDBRANCH  15  16
ENDBRANCH  13  15
ENDBRANCH  10  13
BRANCH  12  27
HETATM   27  C   UNL     1      -7.587   7.130  68.367  1.00  0.00    -0.118 A  
HETATM   28  C   UNL     1      -5.780   7.151  69.987  1.00  0.00    -0.023 A  
HETATM   29  O   UNL     1      -9.677   4.638  70.955  1.00  0.00    -0.163 OA 
HETATM   30  C   UNL     1      -8.313   6.263  69.208  1.00  0.00    -0.117 A  
HETATM   31  O   UNL     1      -8.015   4.627  72.386  1.00  0.00    -0.091 OA 
HETATM   32  C   UNL     1      -7.771   5.857  70.432  1.00  0.00    -0.096 A  
HETATM   33  C   UNL     1      -6.325   7.579  68.778  1.00  0.00    -0.039 A  
HETATM   34  C   UNL     1      -6.497   6.287  70.817  1.00  0.00    -0.041 A  
HETATM   35  N   UNL     1      -8.543   4.979  71.320  1.00  0.00    -0.123 N  
ENDBRANCH  12  27
ENDBRANCH   3   5
ENDBRANCH   2   3
TORSDOF 10
ENDMDL
MODEL      294
REMARK 921   NORMALIZED FREE ENERGY PREDICTED BY IDOCK:   -0.34 KCAL/MOL
REMARK 922        TOTAL FREE ENERGY PREDICTED BY IDOCK:   -2.06 KCAL/MOL
REMARK 923 INTER-LIGAND FREE ENERGY PREDICTED BY IDOCK:   -4.49 KCAL/MOL
REMARK 924 INTRA-LIGAND FREE ENERGY PREDICTED BY IDOCK:    2.44 KCAL/MOL
REMARK 927      BINDING AFFINITY PREDICTED BY RF-SCORE:    0.00 PKD
ROOT
HETATM    1  C   UNL     1      -9.597  16.743  70.314  1.00  0.00     1.622 C  
HETATM    2  O   UNL     1      -9.760  15.747  69.299  1.00  0.00    -0.229 OA 
ENDROOT
BRANCH   2   3
HETATM    3  C   UNL     1      -8.787  15.793  68.354  1.00  0.00    -0.185 C  
HETATM    4  O   UNL     1      -8.577  16.743  67.614  1.00  0.00    -0.201 OA 
BRANCH   3   5
HETATM    5  C   UNL     1      -8.031  14.516  68.294  1.00  0.00    -0.137 C  
HETATM    6  C   UNL     1      -6.678  14.523  68.254  1.00  0.00    -0.116 C  
HETATM    7  C   UNL     1      -5.782  15.734  68.369  1.00  0.00    -0.110 C  
HETATM    8  N   UNL     1      -5.992  13.335  68.069  1.00  0.00    -0.107 NA 
HETATM    9  C   UNL     1      -6.576  12.128  67.738  1.00  0.00    -0.100 C  
HETATM   10  C   UNL     1      -7.925  12.009  67.743  1.00  0.00    -0.147 C  
HETATM   11  C   UNL     1      -5.610  11.010  67.418  1.00  0.00    -0.048 C  
HETATM   12  C   UNL     1      -8.813  13.197  68.158  1.00  0.00    -0.194 C  
BRANCH  10  13
HETATM   13  C   UNL     1      -8.551  10.687  67.452  1.00  0.00    -0.122 C  
HETATM   14  O   UNL     1      -8.281   9.967  66.502  1.00  0.00    -0.117 OA 
BRANCH  13  15
HETATM   15  O   UNL     1      -9.310  10.307  68.508  1.00  0.00    -0.144 OA 
BRANCH  15  16
HETATM   16  C   UNL     1      -8.577  10.230  69.742  1.00  0.00    -0.056 C  
BRANCH  16  17
HETATM   17  C   UNL     1      -9.565   9.681  70.783  1.00  0.00    -0.087 C  
BRANCH  17  18
HETATM   18  N   UNL     1      -9.064   8.657  71.709  1.00  0.00    -0.230 NA 
HETATM   19  C   UNL     1      -7.895   9.152  72.441  1.00  0.00     0.727 C  
BRANCH  18  20
HETATM   20  C   UNL     1     -10.132   8.287  72.670  1.00  0.00    -0.295 C  
BRANCH  20  21
HETATM   21  C   UNL     1     -11.509   8.766  72.247  1.00  0.00    -0.376 A  
HETATM   22  C   UNL     1     -11.832  10.130  72.303  1.00  0.00     1.040 A  
HETATM   23  C   UNL     1     -13.121  10.568  72.005  1.00  0.00    -0.511 A  
HETATM   24  C   UNL     1     -14.102   9.649  71.638  1.00  0.00    -0.023 A  
HETATM   25  C   UNL     1     -13.792   8.293  71.558  1.00  0.00    -0.382 A  
HETATM   26  C   UNL     1     -12.501   7.851  71.858  1.00  0.00    -0.352 A  
ENDBRANCH  20  21
ENDBRANCH  18  20
ENDBRANCH  17  18
ENDBRANCH  16  17
ENDBRANCH  15  16
ENDBRANCH  13  15
ENDBRANCH  10  13
BRANCH  12  27
HETATM   27  C   UNL     1     -10.021  13.353  67.229  1.00  0.00    -0.232 A  
HETATM   28  C   UNL     1     -12.043  12.456  66.231  1.00  0.00    -0.256 A  
HETATM   29  O   UNL     1     -10.613  16.795  64.975  1.00  0.00    -0.695 OA 
HETATM   30  C   UNL     1     -10.176  14.524  66.460  1.00  0.00    -0.282 A  
HETATM   31  O   UNL     1     -12.411  15.950  64.045  1.00  0.00    -0.724 OA 
HETATM   32  C   UNL     1     -11.266  14.654  65.593  1.00  0.00    -0.342 A  
HETATM   33  C   UNL     1     -10.973  12.331  67.115  1.00  0.00    -0.308 A  
HETATM   34  C   UNL     1     -12.193  13.614  65.464  1.00  0.00    -0.476 A  
HETATM   35  N   UNL     1     -11.442  15.887  64.816  1.00  0.00    -0.298 N  
ENDBRANCH  12  27
ENDBRANCH   3   5
ENDBRANCH   2   3
TORSDOF 10
ENDMDL
MODEL      295
REMARK 921   NORMALIZED FREE ENERGY PREDICTED BY IDOCK:   -0.32 KCAL/MOL
REMARK 922        TOTAL FREE ENERGY PREDICTED BY IDOCK:   -2.02 KCAL/MOL
REMARK 923 INTER-LIGAND FREE ENERGY PREDICTED BY IDOCK:   -3.20 KCAL/MOL
REMARK 924 INTRA-LIGAND FREE ENERGY PREDICTED BY IDOCK:    1.18 KCAL/MOL
REMARK 927      BINDING AFFINITY PREDICTED BY RF-SCORE:    0.00 PKD
ROOT
HETATM    1  C   UNL     1      -9.105  15.881  70.665  1.00  0.00     2.057 C  
HETATM    2  O   UNL     1      -9.381  15.029  69.548  1.00  0.00    -0.164 OA 
ENDROOT
BRANCH   2   3
HETATM    3  C   UNL     1      -8.461  15.144  68.557  1.00  0.00    -0.160 C  
HETATM    4  O   UNL     1      -8.346  16.112  67.820  1.00  0.00    -0.152 OA 
BRANCH   3   5
HETATM    5  C   UNL     1      -7.633  13.916  68.444  1.00  0.00    -0.130 C  
HETATM    6  C   UNL     1      -6.318  14.005  68.132  1.00  0.00    -0.128 C  
HETATM    7  C   UNL     1      -5.516  15.274  67.972  1.00  0.00    -0.143 C  
HETATM    8  N   UNL     1      -5.590  12.850  67.905  1.00  0.00    -0.107 NA 
HETATM    9  C   UNL     1      -6.130  11.583  67.790  1.00  0.00    -0.052 C  
HETATM   10  C   UNL     1      -7.439  11.381  68.076  1.00  0.00    -0.100 C  
HETATM   11  C   UNL     1      -5.159  10.504  67.368  1.00  0.00    -0.037 C  
HETATM   12  C   UNL     1      -8.320  12.545  68.569  1.00  0.00    -0.069 C  
BRANCH  10  13
HETATM   13  C   UNL     1      -8.003  10.002  68.017  1.00  0.00    -0.101 C  
HETATM   14  O   UNL     1      -8.602   9.441  68.923  1.00  0.00    -0.125 OA 
BRANCH  13  15
HETATM   15  O   UNL     1      -7.938   9.545  66.743  1.00  0.00    -0.107 OA 
BRANCH  15  16
HETATM   16  C   UNL     1      -8.355  10.513  65.765  1.00  0.00    -0.166 C  
BRANCH  16  17
HETATM   17  C   UNL     1      -7.930   9.942  64.403  1.00  0.00    -0.146 C  
BRANCH  17  18
HETATM   18  N   UNL     1      -8.938   9.936  63.335  1.00  0.00    -0.241 NA 
HETATM   19  C   UNL     1      -8.941  11.217  62.623  1.00  0.00    -0.265 C  
BRANCH  18  20
HETATM   20  C   UNL     1      -8.647   8.839  62.380  1.00  0.00    -0.188 C  
BRANCH  20  21
HETATM   21  C   UNL     1      -7.571   7.888  62.872  1.00  0.00    -0.125 A  
HETATM   22  C   UNL     1      -6.221   8.268  62.837  1.00  0.00    -0.086 A  
HETATM   23  C   UNL     1      -5.219   7.369  63.199  1.00  0.00    -0.034 A  
HETATM   24  C   UNL     1      -5.555   6.081  63.610  1.00  0.00    -0.018 A  
HETATM   25  C   UNL     1      -6.893   5.694  63.670  1.00  0.00    -0.041 A  
HETATM   26  C   UNL     1      -7.899   6.593  63.306  1.00  0.00    -0.108 A  
ENDBRANCH  20  21
ENDBRANCH  18  20
ENDBRANCH  17  18
ENDBRANCH  16  17
ENDBRANCH  15  16
ENDBRANCH  13  15
ENDBRANCH  10  13
BRANCH  12  27
HETATM   27  C   UNL     1      -9.694  12.540  67.892  1.00  0.00    -0.205 A  
HETATM   28  C   UNL     1     -12.022  11.857  67.851  1.00  0.00    -0.189 A  
HETATM   29  O   UNL     1     -10.335  14.416  64.239  1.00  0.00    -0.066 OA 
HETATM   30  C   UNL     1      -9.868  13.165  66.641  1.00  0.00    -0.261 A  
HETATM   31  O   UNL     1     -12.424  13.749  64.193  1.00  0.00    -0.652 OA 
HETATM   32  C   UNL     1     -11.118  13.138  66.013  1.00  0.00    -0.280 A  
HETATM   33  C   UNL     1     -10.786  11.902  68.494  1.00  0.00    -0.257 A  
HETATM   34  C   UNL     1     -12.193  12.471  66.608  1.00  0.00    -0.012 A  
HETATM   35  N   UNL     1     -11.305  13.816  64.724  1.00  0.00    -0.346 N  
ENDBRANCH  12  27
ENDBRANCH   3   5
ENDBRANCH   2   3
TORSDOF 10
ENDMDL
MODEL      296
REMARK 921   NORMALIZED FREE ENERGY PREDICTED BY IDOCK:   -0.20 KCAL/MOL
REMARK 922        TOTAL FREE ENERGY PREDICTED BY IDOCK:   -1.83 KCAL/MOL
REMARK 923 INTER-LIGAND FREE ENERGY PREDICTED BY IDOCK:   -3.93 KCAL/MOL
REMARK 924 INTRA-LIGAND FREE ENERGY PREDICTED BY IDOCK:    2.09 KCAL/MOL
REMARK 927      BINDING AFFINITY PREDICTED BY RF-SCORE:    0.00 PKD
ROOT
HETATM    1  C   UNL     1      -8.887   8.812  72.676  1.00  0.00     0.155 C  
HETATM    2  O   UNL     1      -8.017   7.676  72.697  1.00  0.00    -0.094 OA 
ENDROOT
BRANCH   2   3
HETATM    3  C   UNL     1      -7.374   7.482  71.517  1.00  0.00    -0.075 C  
HETATM    4  O   UNL     1      -7.195   6.394  70.991  1.00  0.00    -0.075 OA 
BRANCH   3   5
HETATM    5  C   UNL     1      -6.867   8.763  70.962  1.00  0.00    -0.074 C  
HETATM    6  C   UNL     1      -6.108   9.586  71.725  1.00  0.00     0.085 C  
HETATM    7  C   UNL     1      -5.598   9.303  73.118  1.00  0.00    -0.012 C  
HETATM    8  N   UNL     1      -5.750  10.832  71.240  1.00  0.00    -0.335 NA 
HETATM    9  C   UNL     1      -6.253  11.407  70.088  1.00  0.00    -0.138 C  
HETATM   10  C   UNL     1      -7.028  10.674  69.253  1.00  0.00    -0.096 C  
HETATM   11  C   UNL     1      -5.846  12.844  69.855  1.00  0.00    -0.132 C  
HETATM   12  C   UNL     1      -7.318   9.192  69.554  1.00  0.00    -0.068 C  
BRANCH  10  13
HETATM   13  C   UNL     1      -7.512  11.276  67.977  1.00  0.00    -0.095 C  
HETATM   14  O   UNL     1      -7.038  11.071  66.870  1.00  0.00    -0.109 OA 
BRANCH  13  15
HETATM   15  O   UNL     1      -8.686  11.916  68.201  1.00  0.00    -0.161 OA 
BRANCH  15  16
HETATM   16  C   UNL     1      -9.573  11.897  67.070  1.00  0.00    -0.189 C  
BRANCH  16  17
HETATM   17  C   UNL     1     -10.985  12.098  67.641  1.00  0.00    -0.243 C  
BRANCH  17  18
HETATM   18  N   UNL     1     -11.319  13.435  68.149  1.00  0.00    -0.269 NA 
HETATM   19  C   UNL     1     -10.544  13.737  69.356  1.00  0.00     0.096 C  
BRANCH  18  20
HETATM   20  C   UNL     1     -11.030  14.452  67.107  1.00  0.00    -0.303 C  
BRANCH  20  21
HETATM   21  C   UNL     1      -9.928  15.417  67.504  1.00  0.00    -0.226 A  
HETATM   22  C   UNL     1      -8.601  15.172  67.124  1.00  0.00    -0.247 A  
HETATM   23  C   UNL     1      -7.571  16.003  67.562  1.00  0.00    -0.179 A  
HETATM   24  C   UNL     1      -7.856  17.096  68.379  1.00  0.00    -0.244 A  
HETATM   25  C   UNL     1      -9.172  17.365  68.748  1.00  0.00    -0.238 A  
HETATM   26  C   UNL     1     -10.207  16.533  68.312  1.00  0.00    -0.268 A  
ENDBRANCH  20  21
ENDBRANCH  18  20
ENDBRANCH  17  18
ENDBRANCH  16  17
ENDBRANCH  15  16
ENDBRANCH  13  15
ENDBRANCH  10  13
BRANCH  12  27
HETATM   27  C   UNL     1      -8.787   8.840  69.303  1.00  0.00    -0.140 A  
HETATM   28  C   UNL     1     -10.521   7.917  67.877  1.00  0.00    -0.261 A  
HETATM   29  O   UNL     1     -11.754   9.750  72.069  1.00  0.00    -0.212 OA 
HETATM   30  C   UNL     1      -9.770   9.187  70.252  1.00  0.00    -0.248 A  
HETATM   31  O   UNL     1     -13.315   8.957  70.747  1.00  0.00     0.114 OA 
HETATM   32  C   UNL     1     -11.115   8.888  70.010  1.00  0.00    -0.170 A  
HETATM   33  C   UNL     1      -9.177   8.191  68.124  1.00  0.00    -0.136 A  
HETATM   34  C   UNL     1     -11.496   8.267  68.815  1.00  0.00     0.948 A  
HETATM   35  N   UNL     1     -12.133   9.222  71.013  1.00  0.00    -0.293 N  
ENDBRANCH  12  27
ENDBRANCH   3   5
ENDBRANCH   2   3
TORSDOF 10
ENDMDL
MODEL      297
REMARK 921   NORMALIZED FREE ENERGY PREDICTED BY IDOCK:   -0.07 KCAL/MOL
REMARK 922        TOTAL FREE ENERGY PREDICTED BY IDOCK:   -1.64 KCAL/MOL
REMARK 923 INTER-LIGAND FREE ENERGY PREDICTED BY IDOCK:   -5.22 KCAL/MOL
REMARK 924 INTRA-LIGAND FREE ENERGY PREDICTED BY IDOCK:    3.58 KCAL/MOL
REMARK 927      BINDING AFFINITY PREDICTED BY RF-SCORE:    0.00 PKD
ROOT
HETATM    1  C   UNL     1      -9.074  10.118  67.925  1.00  0.00    -0.131 C  
HETATM    2  O   UNL     1      -8.260   8.951  67.768  1.00  0.00    -0.109 OA 
ENDROOT
BRANCH   2   3
HETATM    3  C   UNL     1      -6.985   9.136  68.197  1.00  0.00    -0.076 C  
HETATM    4  O   UNL     1      -6.032   9.374  67.471  1.00  0.00    -0.048 OA 
BRANCH   3   5
HETATM    5  C   UNL     1      -6.881   8.963  69.669  1.00  0.00    -0.050 C  
HETATM    6  C   UNL     1      -6.218   9.875  70.419  1.00  0.00    -0.094 C  
HETATM    7  C   UNL     1      -5.621  11.175  69.933  1.00  0.00    -0.073 C  
HETATM    8  N   UNL     1      -6.019   9.637  71.767  1.00  0.00    -0.272 NA 
HETATM    9  C   UNL     1      -6.286   8.443  72.408  1.00  0.00    -0.069 C  
HETATM   10  C   UNL     1      -6.943   7.458  71.749  1.00  0.00    -0.062 C  
HETATM   11  C   UNL     1      -5.824   8.364  73.845  1.00  0.00    -0.108 C  
HETATM   12  C   UNL     1      -7.433   7.676  70.305  1.00  0.00    -0.083 C  
BRANCH  10  13
HETATM   13  C   UNL     1      -7.290   6.196  72.464  1.00  0.00    -0.086 C  
HETATM   14  O   UNL     1      -6.515   5.286  72.715  1.00  0.00    -0.055 OA 
BRANCH  13  15
HETATM   15  O   UNL     1      -8.541   6.300  72.976  1.00  0.00    -0.121 OA 
BRANCH  15  16
HETATM   16  C   UNL     1      -9.477   5.379  72.394  1.00  0.00    -0.143 C  
BRANCH  16  17
HETATM   17  C   UNL     1     -10.528   6.244  71.682  1.00  0.00    -0.217 C  
BRANCH  17  18
HETATM   18  N   UNL     1     -10.250   6.630  70.293  1.00  0.00    -0.186 NA 
HETATM   19  C   UNL     1     -10.988   5.773  69.361  1.00  0.00    -0.282 C  
BRANCH  18  20
HETATM   20  C   UNL     1     -10.641   8.045  70.080  1.00  0.00    -0.242 C  
BRANCH  20  21
HETATM   21  C   UNL     1     -11.931   8.421  70.786  1.00  0.00    -0.122 A  
HETATM   22  C   UNL     1     -12.109   9.717  71.293  1.00  0.00    -0.457 A  
HETATM   23  C   UNL     1     -13.250  10.045  72.022  1.00  0.00    -0.545 A  
HETATM   24  C   UNL     1     -14.234   9.083  72.247  1.00  0.00    -0.432 A  
HETATM   25  C   UNL     1     -14.081   7.797  71.733  1.00  0.00    -0.519 A  
HETATM   26  C   UNL     1     -12.937   7.465  71.002  1.00  0.00    -0.204 A  
ENDBRANCH  20  21
ENDBRANCH  18  20
ENDBRANCH  17  18
ENDBRANCH  16  17
ENDBRANCH  15  16
ENDBRANCH  13  15
ENDBRANCH  10  13
BRANCH  12  27
HETATM   27  C   UNL     1      -7.161   6.452  69.425  1.00  0.00    -0.086 A  
HETATM   28  C   UNL     1      -7.238   5.350  67.263  1.00  0.00    -0.075 A  
HETATM   29  O   UNL     1      -5.570   2.945  70.989  1.00  0.00    -0.011 OA 
HETATM   30  C   UNL     1      -6.645   5.271  69.995  1.00  0.00    -0.039 A  
HETATM   31  O   UNL     1      -5.693   1.948  69.039  1.00  0.00    -0.020 OA 
HETATM   32  C   UNL     1      -6.421   4.146  69.193  1.00  0.00    -0.036 A  
HETATM   33  C   UNL     1      -7.440   6.482  68.052  1.00  0.00    -0.095 A  
HETATM   34  C   UNL     1      -6.732   4.178  67.829  1.00  0.00    -0.050 A  
HETATM   35  N   UNL     1      -5.854   2.927  69.783  1.00  0.00    -0.022 N  
ENDBRANCH  12  27
ENDBRANCH   3   5
ENDBRANCH   2   3
TORSDOF 10
ENDMDL
MODEL      298
REMARK 921   NORMALIZED FREE ENERGY PREDICTED BY IDOCK:   -0.07 KCAL/MOL
REMARK 922        TOTAL FREE ENERGY PREDICTED BY IDOCK:   -1.63 KCAL/MOL
REMARK 923 INTER-LIGAND FREE ENERGY PREDICTED BY IDOCK:   -2.87 KCAL/MOL
REMARK 924 INTRA-LIGAND FREE ENERGY PREDICTED BY IDOCK:    1.24 KCAL/MOL
REMARK 927      BINDING AFFINITY PREDICTED BY RF-SCORE:    0.00 PKD
ROOT
HETATM    1  C   UNL     1      -7.232  18.401  68.200  1.00  0.00    -0.261 C  
HETATM    2  O   UNL     1      -7.783  17.229  67.589  1.00  0.00    -0.179 OA 
ENDROOT
BRANCH   2   3
HETATM    3  C   UNL     1      -8.494  16.466  68.458  1.00  0.00    -0.211 C  
HETATM    4  O   UNL     1      -8.363  16.487  69.673  1.00  0.00     0.122 OA 
BRANCH   3   5
HETATM    5  C   UNL     1      -9.424  15.557  67.742  1.00  0.00    -0.204 C  
HETATM    6  C   UNL     1     -10.761  15.660  67.931  1.00  0.00    -0.294 C  
HETATM    7  C   UNL     1     -11.475  16.709  68.750  1.00  0.00    -0.042 C  
HETATM    8  N   UNL     1     -11.607  14.726  67.358  1.00  0.00    -0.364 NA 
HETATM    9  C   UNL     1     -11.196  13.562  66.736  1.00  0.00    -0.310 C  
HETATM   10  C   UNL     1      -9.879  13.355  66.500  1.00  0.00    -0.286 C  
HETATM   11  C   UNL     1     -12.306  12.615  66.343  1.00  0.00     0.040 C  
HETATM   12  C   UNL     1      -8.838  14.425  66.879  1.00  0.00    -0.246 C  
BRANCH  10  13
HETATM   13  C   UNL     1      -9.444  12.130  65.768  1.00  0.00    -0.147 C  
HETATM   14  O   UNL     1      -9.304  12.038  64.558  1.00  0.00     0.062 OA 
BRANCH  13  15
HETATM   15  O   UNL     1      -9.025  11.200  66.660  1.00  0.00    -0.160 OA 
BRANCH  15  16
HETATM   16  C   UNL     1     -10.095  10.607  67.415  1.00  0.00    -0.194 C  
BRANCH  16  17
HETATM   17  C   UNL     1      -9.985   9.093  67.179  1.00  0.00    -0.218 C  
BRANCH  17  18
HETATM   18  N   UNL     1      -9.601   8.261  68.327  1.00  0.00    -0.145 NA 
HETATM   19  C   UNL     1      -9.280   9.099  69.486  1.00  0.00    -0.159 C  
BRANCH  18  20
HETATM   20  C   UNL     1     -10.714   7.343  68.673  1.00  0.00    -0.101 C  
BRANCH  20  21
HETATM   21  C   UNL     1     -10.495   6.605  69.981  1.00  0.00    -0.250 A  
HETATM   22  C   UNL     1     -10.900   7.180  71.194  1.00  0.00    -0.261 A  
HETATM   23  C   UNL     1     -10.620   6.552  72.407  1.00  0.00    -0.242 A  
HETATM   24  C   UNL     1      -9.940   5.336  72.422  1.00  0.00    -0.219 A  
HETATM   25  C   UNL     1      -9.549   4.741  71.223  1.00  0.00    -0.232 A  
HETATM   26  C   UNL     1      -9.827   5.369  70.006  1.00  0.00    -0.274 A  
ENDBRANCH  20  21
ENDBRANCH  18  20
ENDBRANCH  17  18
ENDBRANCH  16  17
ENDBRANCH  15  16
ENDBRANCH  13  15
ENDBRANCH  10  13
BRANCH  12  27
HETATM   27  C   UNL     1      -7.600  13.804  67.533  1.00  0.00    -0.185 A  
HETATM   28  C   UNL     1      -5.523  12.560  67.358  1.00  0.00    -0.097 A  
HETATM   29  O   UNL     1      -6.994  13.948  71.642  1.00  0.00     1.290 OA 
HETATM   30  C   UNL     1      -7.440  13.850  68.932  1.00  0.00    -0.080 A  
HETATM   31  O   UNL     1      -5.146  12.780  71.473  1.00  0.00    -0.157 OA 
HETATM   32  C   UNL     1      -6.321  13.259  69.529  1.00  0.00    -0.104 A  
HETATM   33  C   UNL     1      -6.623  13.167  66.755  1.00  0.00     1.212 A  
HETATM   34  C   UNL     1      -5.368  12.599  68.746  1.00  0.00    -0.058 A  
HETATM   35  N   UNL     1      -6.141  13.335  70.985  1.00  0.00     0.088 N  
ENDBRANCH  12  27
ENDBRANCH   3   5
ENDBRANCH   2   3
TORSDOF 10
ENDMDL
MODEL      299
REMARK 921   NORMALIZED FREE ENERGY PREDICTED BY IDOCK:    0.01 KCAL/MOL
REMARK 922        TOTAL FREE ENERGY PREDICTED BY IDOCK:   -1.50 KCAL/MOL
REMARK 923 INTER-LIGAND FREE ENERGY PREDICTED BY IDOCK:   -3.98 KCAL/MOL
REMARK 924 INTRA-LIGAND FREE ENERGY PREDICTED BY IDOCK:    2.48 KCAL/MOL
REMARK 927      BINDING AFFINITY PREDICTED BY RF-SCORE:    0.00 PKD
ROOT
HETATM    1  C   UNL     1     -12.351  12.630  69.299  1.00  0.00     0.132 C  
HETATM    2  O   UNL     1     -11.617  12.207  68.145  1.00  0.00    -0.295 OA 
ENDROOT
BRANCH   2   3
HETATM    3  C   UNL     1     -10.282  12.109  68.377  1.00  0.00    -0.210 C  
HETATM    4  O   UNL     1      -9.678  12.720  69.246  1.00  0.00     0.420 OA 
BRANCH   3   5
HETATM    5  C   UNL     1      -9.631  11.198  67.402  1.00  0.00    -0.183 C  
HETATM    6  C   UNL     1      -9.860  11.340  66.074  1.00  0.00    -0.229 C  
HETATM    7  C   UNL     1     -10.664  12.434  65.414  1.00  0.00    -0.317 C  
HETATM    8  N   UNL     1      -9.350  10.407  65.188  1.00  0.00    -0.201 NA 
HETATM    9  C   UNL     1      -8.758   9.212  65.551  1.00  0.00    -0.181 C  
HETATM   10  C   UNL     1      -8.486   8.964  66.855  1.00  0.00    -0.113 C  
HETATM   11  C   UNL     1      -8.437   8.278  64.407  1.00  0.00    -0.022 C  
HETATM   12  C   UNL     1      -8.791  10.022  67.932  1.00  0.00    -0.125 C  
BRANCH  10  13
HETATM   13  C   UNL     1      -7.786   7.704  67.236  1.00  0.00    -0.113 C  
HETATM   14  O   UNL     1      -6.580   7.514  67.169  1.00  0.00    -0.058 OA 
BRANCH  13  15
HETATM   15  O   UNL     1      -8.658   6.879  67.865  1.00  0.00    -0.122 OA 
BRANCH  15  16
HETATM   16  C   UNL     1      -9.980   6.908  67.302  1.00  0.00    -0.172 C  
BRANCH  16  17
HETATM   17  C   UNL     1      -9.962   5.904  66.139  1.00  0.00     0.013 C  
BRANCH  17  18
HETATM   18  N   UNL     1      -9.056   4.755  66.258  1.00  0.00    -0.118 NA 
HETATM   19  C   UNL     1      -9.649   3.717  67.106  1.00  0.00    -0.153 C  
BRANCH  18  20
HETATM   20  C   UNL     1      -8.777   4.197  64.912  1.00  0.00    -0.125 C  
BRANCH  20  21
HETATM   21  C   UNL     1      -7.477   3.417  64.846  1.00  0.00    -0.073 A  
HETATM   22  C   UNL     1      -6.469   3.796  63.948  1.00  0.00    -0.034 A  
HETATM   23  C   UNL     1      -5.310   3.032  63.815  1.00  0.00    -0.009 A  
HETATM   24  C   UNL     1      -5.141   1.883  64.585  1.00  0.00    -0.004 A  
HETATM   25  C   UNL     1      -6.125   1.504  65.497  1.00  0.00    -0.021 A  
HETATM   26  C   UNL     1      -7.287   2.267  65.631  1.00  0.00    -0.066 A  
ENDBRANCH  20  21
ENDBRANCH  18  20
ENDBRANCH  17  18
ENDBRANCH  16  17
ENDBRANCH  15  16
ENDBRANCH  13  15
ENDBRANCH  10  13
BRANCH  12  27
HETATM   27  C   UNL     1      -9.425   9.395  69.177  1.00  0.00    -0.163 A  
HETATM   28  C   UNL     1     -11.360   9.008  70.591  1.00  0.00    -0.311 A  
HETATM   29  O   UNL     1      -7.179   7.213  71.910  1.00  0.00    -0.077 OA 
HETATM   30  C   UNL     1      -8.627   8.683  70.095  1.00  0.00    -0.138 A  
HETATM   31  O   UNL     1      -8.926   6.914  73.201  1.00  0.00    -0.128 OA 
HETATM   32  C   UNL     1      -9.205   8.133  71.245  1.00  0.00    -0.156 A  
HETATM   33  C   UNL     1     -10.796   9.537  69.431  1.00  0.00    -0.226 A  
HETATM   34  C   UNL     1     -10.568   8.308  71.504  1.00  0.00    -0.296 A  
HETATM   35  N   UNL     1      -8.378   7.366  72.185  1.00  0.00    -0.107 N  
ENDBRANCH  12  27
ENDBRANCH   3   5
ENDBRANCH   2   3
TORSDOF 10
ENDMDL
MODEL      300
REMARK 921   NORMALIZED FREE ENERGY PREDICTED BY IDOCK:    0.10 KCAL/MOL
REMARK 922        TOTAL FREE ENERGY PREDICTED BY IDOCK:   -1.35 KCAL/MOL
REMARK 923 INTER-LIGAND FREE ENERGY PREDICTED BY IDOCK:   -5.06 KCAL/MOL
REMARK 924 INTRA-LIGAND FREE ENERGY PREDICTED BY IDOCK:    3.70 KCAL/MOL
REMARK 927      BINDING AFFINITY PREDICTED BY RF-SCORE:    0.00 PKD
ROOT
HETATM    1  C   UNL     1     -13.557  12.471  72.690  1.00  0.00     0.213 C  
HETATM    2  O   UNL     1     -12.483  11.894  71.939  1.00  0.00    -0.030 OA 
ENDROOT
BRANCH   2   3
HETATM    3  C   UNL     1     -12.897  10.915  71.094  1.00  0.00    -0.409 C  
HETATM    4  O   UNL     1     -14.063  10.693  70.803  1.00  0.00     1.052 OA 
BRANCH   3   5
HETATM    5  C   UNL     1     -11.752  10.109  70.600  1.00  0.00    -0.425 C  
HETATM    6  C   UNL     1     -11.304   9.049  71.314  1.00  0.00    -0.319 C  
HETATM    7  C   UNL     1     -11.921   8.488  72.573  1.00  0.00    -0.401 C  
HETATM    8  N   UNL     1     -10.160   8.385  70.908  1.00  0.00    -0.189 NA 
HETATM    9  C   UNL     1      -9.303   8.820  69.915  1.00  0.00    -0.162 C  
HETATM   10  C   UNL     1      -9.651   9.876  69.141  1.00  0.00    -0.204 C  
HETATM   11  C   UNL     1      -8.028   8.022  69.768  1.00  0.00    -0.115 C  
HETATM   12  C   UNL     1     -11.013  10.570  69.332  1.00  0.00    -0.297 C  
BRANCH  10  13
HETATM   13  C   UNL     1      -8.757  10.300  68.026  1.00  0.00    -0.122 C  
HETATM   14  O   UNL     1      -7.873  11.141  68.105  1.00  0.00    -0.107 OA 
BRANCH  13  15
HETATM   15  O   UNL     1      -8.929   9.467  66.971  1.00  0.00    -0.129 OA 
BRANCH  15  16
HETATM   16  C   UNL     1      -9.901   9.937  66.022  1.00  0.00    -0.264 C  
BRANCH  16  17
HETATM   17  C   UNL     1      -9.187  11.012  65.189  1.00  0.00    -0.205 C  
BRANCH  17  18
HETATM   18  N   UNL     1     -10.033  11.957  64.448  1.00  0.00    -0.254 NA 
HETATM   19  C   UNL     1     -10.833  11.253  63.442  1.00  0.00    -0.230 C  
BRANCH  18  20
HETATM   20  C   UNL     1     -10.932  12.667  65.389  1.00  0.00    -0.286 C  
BRANCH  20  21
HETATM   21  C   UNL     1     -10.669  14.160  65.456  1.00  0.00    -0.330 A  
HETATM   22  C   UNL     1      -9.363  14.642  65.632  1.00  0.00     0.062 A  
HETATM   23  C   UNL     1      -9.123  16.006  65.787  1.00  0.00    -0.168 A  
HETATM   24  C   UNL     1     -10.185  16.908  65.759  1.00  0.00    -0.287 A  
HETATM   25  C   UNL     1     -11.486  16.448  65.564  1.00  0.00     0.500 A  
HETATM   26  C   UNL     1     -11.730  15.080  65.410  1.00  0.00    -0.170 A  
ENDBRANCH  20  21
ENDBRANCH  18  20
ENDBRANCH  17  18
ENDBRANCH  16  17
ENDBRANCH  15  16
ENDBRANCH  13  15
ENDBRANCH  10  13
BRANCH  12  27
HETATM   27  C   UNL     1     -10.883  12.096  69.280  1.00  0.00    -0.105 A  
HETATM   28  C   UNL     1      -9.652  14.087  68.639  1.00  0.00    -0.159 A  
HETATM   29  O   UNL     1     -13.727  14.590  71.002  1.00  0.00    -0.339 OA 
HETATM   30  C   UNL     1     -11.854  12.909  69.898  1.00  0.00    -0.373 A  
HETATM   31  O   UNL     1     -12.578  16.377  70.459  1.00  0.00     0.205 OA 
HETATM   32  C   UNL     1     -11.720  14.302  69.871  1.00  0.00    -0.311 A  
HETATM   33  C   UNL     1      -9.792  12.700  68.640  1.00  0.00    -0.077 A  
HETATM   34  C   UNL     1     -10.611  14.893  69.256  1.00  0.00    -0.248 A  
HETATM   35  N   UNL     1     -12.748  15.149  70.488  1.00  0.00    -0.372 N  
ENDBRANCH  12  27
ENDBRANCH   3   5
ENDBRANCH   2   3
TORSDOF 10
ENDMDL
MODEL      301
REMARK 921   NORMALIZED FREE ENERGY PREDICTED BY IDOCK:    0.43 KCAL/MOL
REMARK 922        TOTAL FREE ENERGY PREDICTED BY IDOCK:   -0.83 KCAL/MOL
REMARK 923 INTER-LIGAND FREE ENERGY PREDICTED BY IDOCK:   -1.36 KCAL/MOL
REMARK 924 INTRA-LIGAND FREE ENERGY PREDICTED BY IDOCK:    0.52 KCAL/MOL
REMARK 927      BINDING AFFINITY PREDICTED BY RF-SCORE:    0.00 PKD
ROOT
HETATM    1  C   UNL     1     -10.959  18.170  71.578  1.00  0.00     3.027 C  
HETATM    2  O   UNL     1     -10.296  17.480  70.513  1.00  0.00     0.884 OA 
ENDROOT
BRANCH   2   3
HETATM    3  C   UNL     1     -11.029  17.443  69.371  1.00  0.00     0.453 C  
HETATM    4  O   UNL     1     -11.449  18.427  68.780  1.00  0.00     1.504 OA 
BRANCH   3   5
HETATM    5  C   UNL     1     -11.303  16.046  68.950  1.00  0.00    -0.370 C  
HETATM    6  C   UNL     1     -12.070  15.238  69.720  1.00  0.00    -0.328 C  
HETATM    7  C   UNL     1     -12.808  15.631  70.978  1.00  0.00    -0.521 C  
HETATM    8  N   UNL     1     -12.212  13.903  69.382  1.00  0.00    -0.335 NA 
HETATM    9  C   UNL     1     -11.484  13.253  68.403  1.00  0.00    -0.314 C  
HETATM   10  C   UNL     1     -10.681  13.965  67.577  1.00  0.00    -0.271 C  
HETATM   11  C   UNL     1     -11.689  11.757  68.334  1.00  0.00    -0.389 C  
HETATM   12  C   UNL     1     -10.605  15.500  67.692  1.00  0.00    -0.291 C  
BRANCH  10  13
HETATM   13  C   UNL     1      -9.950  13.271  66.479  1.00  0.00    -0.280 C  
HETATM   14  O   UNL     1      -9.653  13.764  65.401  1.00  0.00    -0.092 OA 
BRANCH  13  15
HETATM   15  O   UNL     1      -9.479  12.084  66.933  1.00  0.00    -0.193 OA 
BRANCH  15  16
HETATM   16  C   UNL     1      -8.967  11.235  65.892  1.00  0.00    -0.197 C  
BRANCH  16  17
HETATM   17  C   UNL     1      -9.857   9.982  65.899  1.00  0.00    -0.264 C  
BRANCH  17  18
HETATM   18  N   UNL     1      -9.180   8.679  65.897  1.00  0.00    -0.211 NA 
HETATM   19  C   UNL     1      -8.125   8.647  64.880  1.00  0.00    -0.146 C  
BRANCH  18  20
HETATM   20  C   UNL     1      -8.589   8.421  67.233  1.00  0.00    -0.123 C  
BRANCH  20  21
HETATM   21  C   UNL     1      -9.113   7.155  67.885  1.00  0.00    -0.128 A  
HETATM   22  C   UNL     1      -9.441   6.039  67.100  1.00  0.00    -0.125 A  
HETATM   23  C   UNL     1     -10.010   4.905  67.679  1.00  0.00    -0.192 A  
HETATM   24  C   UNL     1     -10.249   4.868  69.051  1.00  0.00    -0.164 A  
HETATM   25  C   UNL     1      -9.910   5.961  69.847  1.00  0.00    -0.223 A  
HETATM   26  C   UNL     1      -9.341   7.099  69.270  1.00  0.00    -0.146 A  
ENDBRANCH  20  21
ENDBRANCH  18  20
ENDBRANCH  17  18
ENDBRANCH  16  17
ENDBRANCH  15  16
ENDBRANCH  13  15
ENDBRANCH  10  13
BRANCH  12  27
HETATM   27  C   UNL     1      -9.163  16.005  67.585  1.00  0.00    -0.205 A  
HETATM   28  C   UNL     1      -6.794  15.733  68.041  1.00  0.00    -0.141 A  
HETATM   29  O   UNL     1      -8.246  19.634  65.778  1.00  0.00    -0.408 OA 
HETATM   30  C   UNL     1      -8.892  17.253  66.989  1.00  0.00    -0.243 A  
HETATM   31  O   UNL     1      -6.116  19.397  66.242  1.00  0.00    -0.163 OA 
HETATM   32  C   UNL     1      -7.577  17.723  66.915  1.00  0.00    -0.210 A  
HETATM   33  C   UNL     1      -8.100  15.248  68.095  1.00  0.00    -0.136 A  
HETATM   34  C   UNL     1      -6.527  16.973  67.456  1.00  0.00    -0.167 A  
HETATM   35  N   UNL     1      -7.293  19.009  66.265  1.00  0.00    -0.249 N  
ENDBRANCH  12  27
ENDBRANCH   3   5
ENDBRANCH   2   3
TORSDOF 10
ENDMDL
MODEL      302
REMARK 921   NORMALIZED FREE ENERGY PREDICTED BY IDOCK:    0.50 KCAL/MOL
REMARK 922        TOTAL FREE ENERGY PREDICTED BY IDOCK:   -0.72 KCAL/MOL
REMARK 923 INTER-LIGAND FREE ENERGY PREDICTED BY IDOCK:   -3.58 KCAL/MOL
REMARK 924 INTRA-LIGAND FREE ENERGY PREDICTED BY IDOCK:    2.85 KCAL/MOL
REMARK 927      BINDING AFFINITY PREDICTED BY RF-SCORE:    0.00 PKD
ROOT
HETATM    1  C   UNL     1      -7.915  15.653  66.600  1.00  0.00    -0.150 C  
HETATM    2  O   UNL     1      -7.536  14.743  67.637  1.00  0.00    -0.150 OA 
ENDROOT
BRANCH   2   3
HETATM    3  C   UNL     1      -8.600  14.119  68.206  1.00  0.00    -0.175 C  
HETATM    4  O   UNL     1      -9.171  14.497  69.218  1.00  0.00    -0.049 OA 
BRANCH   3   5
HETATM    5  C   UNL     1      -8.958  12.882  67.466  1.00  0.00    -0.193 C  
HETATM    6  C   UNL     1     -10.220  12.699  67.010  1.00  0.00    -0.226 C  
HETATM    7  C   UNL     1     -11.352  13.696  67.075  1.00  0.00    -0.344 C  
HETATM    8  N   UNL     1     -10.571  11.490  66.436  1.00  0.00    -0.250 NA 
HETATM    9  C   UNL     1      -9.785  10.354  66.441  1.00  0.00    -0.201 C  
HETATM   10  C   UNL     1      -8.505  10.422  66.879  1.00  0.00    -0.124 C  
HETATM   11  C   UNL     1     -10.451   9.106  65.908  1.00  0.00     0.484 C  
HETATM   12  C   UNL     1      -7.906  11.767  67.333  1.00  0.00    -0.155 C  
BRANCH  10  13
HETATM   13  C   UNL     1      -7.638   9.211  66.820  1.00  0.00    -0.087 C  
HETATM   14  O   UNL     1      -7.715   8.245  67.565  1.00  0.00    -0.096 OA 
BRANCH  13  15
HETATM   15  O   UNL     1      -6.894   9.247  65.687  1.00  0.00    -0.072 OA 
BRANCH  15  16
HETATM   16  C   UNL     1      -6.507   7.946  65.215  1.00  0.00    -0.044 C  
BRANCH  16  17
HETATM   17  C   UNL     1      -5.868   7.236  66.418  1.00  0.00    -0.035 C  
BRANCH  17  18
HETATM   18  N   UNL     1      -6.147   5.804  66.578  1.00  0.00    -0.025 NA 
HETATM   19  C   UNL     1      -6.194   5.443  67.998  1.00  0.00    -0.034 C  
BRANCH  18  20
HETATM   20  C   UNL     1      -7.445   5.474  65.940  1.00  0.00    -0.082 C  
BRANCH  20  21
HETATM   21  C   UNL     1      -8.602   5.436  66.922  1.00  0.00    -0.109 A  
HETATM   22  C   UNL     1      -9.806   6.089  66.622  1.00  0.00    -0.202 A  
HETATM   23  C   UNL     1     -10.840   6.139  67.555  1.00  0.00    -0.422 A  
HETATM   24  C   UNL     1     -10.687   5.528  68.799  1.00  0.00    -0.195 A  
HETATM   25  C   UNL     1      -9.503   4.857  69.104  1.00  0.00    -0.205 A  
HETATM   26  C   UNL     1      -8.465   4.807  68.170  1.00  0.00    -0.102 A  
ENDBRANCH  20  21
ENDBRANCH  18  20
ENDBRANCH  17  18
ENDBRANCH  16  17
ENDBRANCH  15  16
ENDBRANCH  13  15
ENDBRANCH  10  13
BRANCH  12  27
HETATM   27  C   UNL     1      -7.082  11.615  68.616  1.00  0.00    -0.099 A  
HETATM   28  C   UNL     1      -5.156  12.208  69.968  1.00  0.00    -0.082 A  
HETATM   29  O   UNL     1      -8.171   8.943  71.608  1.00  0.00    -0.286 OA 
HETATM   30  C   UNL     1      -7.468  10.680  69.598  1.00  0.00    -0.121 A  
HETATM   31  O   UNL     1      -6.399   9.454  72.794  1.00  0.00    -0.295 OA 
HETATM   32  C   UNL     1      -6.700  10.526  70.757  1.00  0.00     0.311 A  
HETATM   33  C   UNL     1      -5.929  12.385  68.822  1.00  0.00    -0.066 A  
HETATM   34  C   UNL     1      -5.534  11.277  70.937  1.00  0.00    -0.103 A  
HETATM   35  N   UNL     1      -7.120   9.574  71.793  1.00  0.00     0.407 N  
ENDBRANCH  12  27
ENDBRANCH   3   5
ENDBRANCH   2   3
TORSDOF 10
ENDMDL
MODEL      303
REMARK 921   NORMALIZED FREE ENERGY PREDICTED BY IDOCK:    0.65 KCAL/MOL
REMARK 922        TOTAL FREE ENERGY PREDICTED BY IDOCK:   -0.49 KCAL/MOL
REMARK 923 INTER-LIGAND FREE ENERGY PREDICTED BY IDOCK:   -1.02 KCAL/MOL
REMARK 924 INTRA-LIGAND FREE ENERGY PREDICTED BY IDOCK:    0.53 KCAL/MOL
REMARK 927      BINDING AFFINITY PREDICTED BY RF-SCORE:    0.00 PKD
ROOT
HETATM    1  C   UNL     1      -9.140  14.631  70.769  1.00  0.00     2.536 C  
HETATM    2  O   UNL     1      -9.608  15.849  70.180  1.00  0.00     0.045 OA 
ENDROOT
BRANCH   2   3
HETATM    3  C   UNL     1     -10.960  15.968  70.222  1.00  0.00    -0.354 C  
HETATM    4  O   UNL     1     -11.586  16.499  71.128  1.00  0.00    -0.330 OA 
BRANCH   3   5
HETATM    5  C   UNL     1     -11.595  15.325  69.043  1.00  0.00    -0.360 C  
HETATM    6  C   UNL     1     -12.358  14.217  69.198  1.00  0.00    -0.138 C  
HETATM    7  C   UNL     1     -12.750  13.571  70.506  1.00  0.00    -0.227 C  
HETATM    8  N   UNL     1     -12.838  13.555  68.081  1.00  0.00     1.092 NA 
HETATM    9  C   UNL     1     -12.459  13.822  66.780  1.00  0.00    -0.209 C  
HETATM   10  C   UNL     1     -11.692  14.906  66.511  1.00  0.00    -0.204 C  
HETATM   11  C   UNL     1     -12.983  12.854  65.744  1.00  0.00     0.537 C  
HETATM   12  C   UNL     1     -11.275  15.867  67.639  1.00  0.00    -0.219 C  
BRANCH  10  13
HETATM   13  C   UNL     1     -11.340  15.230  65.098  1.00  0.00    -0.321 C  
HETATM   14  O   UNL     1     -11.831  16.130  64.433  1.00  0.00    -0.401 OA 
BRANCH  13  15
HETATM   15  O   UNL     1     -10.249  14.514  64.732  1.00  0.00    -0.390 OA 
BRANCH  15  16
HETATM   16  C   UNL     1     -10.565  13.341  63.965  1.00  0.00    -0.192 C  
BRANCH  16  17
HETATM   17  C   UNL     1      -9.280  12.498  63.941  1.00  0.00     1.030 C  
BRANCH  17  18
HETATM   18  N   UNL     1      -9.141  11.458  64.969  1.00  0.00    -0.086 NA 
HETATM   19  C   UNL     1      -7.750  11.005  65.059  1.00  0.00     0.400 C  
BRANCH  18  20
HETATM   20  C   UNL     1      -9.574  11.994  66.283  1.00  0.00    -0.231 C  
BRANCH  20  21
HETATM   21  C   UNL     1      -9.534  10.959  67.393  1.00  0.00    -0.170 A  
HETATM   22  C   UNL     1     -10.712  10.323  67.811  1.00  0.00    -0.324 A  
HETATM   23  C   UNL     1     -10.700   9.441  68.890  1.00  0.00    -0.203 A  
HETATM   24  C   UNL     1      -9.507   9.176  69.560  1.00  0.00    -0.170 A  
HETATM   25  C   UNL     1      -8.324   9.785  69.144  1.00  0.00    -0.137 A  
HETATM   26  C   UNL     1      -8.334  10.671  68.064  1.00  0.00    -0.118 A  
ENDBRANCH  20  21
ENDBRANCH  18  20
ENDBRANCH  17  18
ENDBRANCH  16  17
ENDBRANCH  15  16
ENDBRANCH  13  15
ENDBRANCH  10  13
BRANCH  12  27
HETATM   27  C   UNL     1      -9.804  16.278  67.518  1.00  0.00    -0.238 A  
HETATM   28  C   UNL     1      -8.112  17.985  67.177  1.00  0.00    -0.225 A  
HETATM   29  O   UNL     1      -6.731  13.487  67.727  1.00  0.00    -0.138 OA 
HETATM   30  C   UNL     1      -8.790  15.301  67.568  1.00  0.00    -0.188 A  
HETATM   31  O   UNL     1      -5.219  15.034  67.368  1.00  0.00    -0.336 OA 
HETATM   32  C   UNL     1      -7.449  15.676  67.432  1.00  0.00    -0.205 A  
HETATM   33  C   UNL     1      -9.448  17.622  67.337  1.00  0.00    -0.256 A  
HETATM   34  C   UNL     1      -7.108  17.016  67.220  1.00  0.00    -0.193 A  
HETATM   35  N   UNL     1      -6.392  14.660  67.515  1.00  0.00    -0.100 N  
ENDBRANCH  12  27
ENDBRANCH   3   5
ENDBRANCH   2   3
TORSDOF 10
ENDMDL
MODEL      304
REMARK 921   NORMALIZED FREE ENERGY PREDICTED BY IDOCK:    0.67 KCAL/MOL
REMARK 922        TOTAL FREE ENERGY PREDICTED BY IDOCK:   -0.46 KCAL/MOL
REMARK 923 INTER-LIGAND FREE ENERGY PREDICTED BY IDOCK:   -2.91 KCAL/MOL
REMARK 924 INTRA-LIGAND FREE ENERGY PREDICTED BY IDOCK:    2.45 KCAL/MOL
REMARK 927      BINDING AFFINITY PREDICTED BY RF-SCORE:    0.00 PKD
ROOT
HETATM    1  C   UNL     1      -9.519  19.372  68.252  1.00  0.00    -0.365 C  
HETATM    2  O   UNL     1      -8.269  19.237  67.567  1.00  0.00    -0.279 OA 
ENDROOT
BRANCH   2   3
HETATM    3  C   UNL     1      -8.410  18.765  66.301  1.00  0.00    -0.246 C  
HETATM    4  O   UNL     1      -7.962  19.306  65.301  1.00  0.00    -0.145 OA 
BRANCH   3   5
HETATM    5  C   UNL     1      -9.226  17.525  66.276  1.00  0.00    -0.228 C  
HETATM    6  C   UNL     1     -10.579  17.597  66.254  1.00  0.00    -0.215 C  
HETATM    7  C   UNL     1     -11.410  18.853  66.146  1.00  0.00     0.864 C  
HETATM    8  N   UNL     1     -11.327  16.437  66.360  1.00  0.00     0.365 NA 
HETATM    9  C   UNL     1     -10.817  15.192  66.670  1.00  0.00    -0.318 C  
HETATM   10  C   UNL     1      -9.476  15.007  66.722  1.00  0.00    -0.263 C  
HETATM   11  C   UNL     1     -11.849  14.111  66.901  1.00  0.00    -0.458 C  
HETATM   12  C   UNL     1      -8.515  16.166  66.395  1.00  0.00    -0.369 C  
BRANCH  10  13
HETATM   13  C   UNL     1      -8.927  13.647  66.990  1.00  0.00    -0.236 C  
HETATM   14  O   UNL     1      -8.341  12.945  66.179  1.00  0.00     0.463 OA 
BRANCH  13  15
HETATM   15  O   UNL     1      -8.989  13.392  68.319  1.00  0.00    -0.184 OA 
BRANCH  15  16
HETATM   16  C   UNL     1      -8.798  12.005  68.646  1.00  0.00    -0.021 C  
BRANCH  16  17
HETATM   17  C   UNL     1     -10.168  11.337  68.453  1.00  0.00    -0.195 C  
BRANCH  17  18
HETATM   18  N   UNL     1     -10.468  10.167  69.288  1.00  0.00    -0.210 NA 
HETATM   19  C   UNL     1     -11.099  10.580  70.545  1.00  0.00    -0.187 C  
BRANCH  18  20
HETATM   20  C   UNL     1     -11.374   9.249  68.556  1.00  0.00     0.414 C  
BRANCH  20  21
HETATM   21  C   UNL     1     -10.648   8.087  67.904  1.00  0.00    -0.210 A  
HETATM   22  C   UNL     1     -10.494   6.873  68.590  1.00  0.00    -0.217 A  
HETATM   23  C   UNL     1      -9.750   5.833  68.038  1.00  0.00    -0.142 A  
HETATM   24  C   UNL     1      -9.156   5.988  66.786  1.00  0.00    -0.134 A  
HETATM   25  C   UNL     1      -9.316   7.181  66.083  1.00  0.00    -0.097 A  
HETATM   26  C   UNL     1     -10.061   8.226  66.635  1.00  0.00    -0.351 A  
ENDBRANCH  20  21
ENDBRANCH  18  20
ENDBRANCH  17  18
ENDBRANCH  16  17
ENDBRANCH  15  16
ENDBRANCH  13  15
ENDBRANCH  10  13
BRANCH  12  27
HETATM   27  C   UNL     1      -7.347  16.228  67.385  1.00  0.00    -0.193 A  
HETATM   28  C   UNL     1      -5.147  17.048  68.002  1.00  0.00    -0.117 A  
HETATM   29  O   UNL     1      -7.366  14.053  70.927  1.00  0.00     1.210 OA 
HETATM   30  C   UNL     1      -7.377  15.457  68.564  1.00  0.00    -0.116 A  
HETATM   31  O   UNL     1      -5.357  14.764  71.445  1.00  0.00    -0.137 OA 
HETATM   32  C   UNL     1      -6.297  15.496  69.454  1.00  0.00    -0.138 A  
HETATM   33  C   UNL     1      -6.229  17.032  67.123  1.00  0.00    -0.209 A  
HETATM   34  C   UNL     1      -5.174  16.278  69.167  1.00  0.00    -0.111 A  
HETATM   35  N   UNL     1      -6.344  14.716  70.697  1.00  0.00    -0.133 N  
ENDBRANCH  12  27
ENDBRANCH   3   5
ENDBRANCH   2   3
TORSDOF 10
ENDMDL
MODEL      305
REMARK 921   NORMALIZED FREE ENERGY PREDICTED BY IDOCK:    0.76 KCAL/MOL
REMARK 922        TOTAL FREE ENERGY PREDICTED BY IDOCK:   -0.31 KCAL/MOL
REMARK 923 INTER-LIGAND FREE ENERGY PREDICTED BY IDOCK:   -3.56 KCAL/MOL
REMARK 924 INTRA-LIGAND FREE ENERGY PREDICTED BY IDOCK:    3.25 KCAL/MOL
REMARK 927      BINDING AFFINITY PREDICTED BY RF-SCORE:    0.00 PKD
ROOT
HETATM    1  C   UNL     1     -11.658  11.533  66.880  1.00  0.00    -0.085 C  
HETATM    2  O   UNL     1     -10.623  11.321  67.845  1.00  0.00    -0.180 OA 
ENDROOT
BRANCH   2   3
HETATM    3  C   UNL     1     -10.508  10.020  68.217  1.00  0.00    -0.213 C  
HETATM    4  O   UNL     1      -9.835   9.184  67.633  1.00  0.00    -0.156 OA 
BRANCH   3   5
HETATM    5  C   UNL     1     -11.349   9.722  69.405  1.00  0.00    -0.090 C  
HETATM    6  C   UNL     1     -12.308  10.594  69.799  1.00  0.00    -0.194 C  
HETATM    7  C   UNL     1     -12.723  11.857  69.084  1.00  0.00     0.873 C  
HETATM    8  N   UNL     1     -12.996  10.366  70.979  1.00  0.00    -0.388 NA 
HETATM    9  C   UNL     1     -12.669   9.401  71.912  1.00  0.00    -0.401 C  
HETATM   10  C   UNL     1     -11.720   8.479  71.622  1.00  0.00    -0.369 C  
HETATM   11  C   UNL     1     -13.457   9.456  73.200  1.00  0.00     0.751 C  
HETATM   12  C   UNL     1     -11.031   8.472  70.244  1.00  0.00    -0.245 C  
BRANCH  10  13
HETATM   13  C   UNL     1     -11.418   7.397  72.603  1.00  0.00    -0.291 C  
HETATM   14  O   UNL     1     -11.145   7.564  73.783  1.00  0.00    -0.183 OA 
BRANCH  13  15
HETATM   15  O   UNL     1     -11.696   6.194  72.044  1.00  0.00    -0.312 OA 
BRANCH  15  16
HETATM   16  C   UNL     1     -11.704   5.111  72.989  1.00  0.00    -0.150 C  
BRANCH  16  17
HETATM   17  C   UNL     1     -10.409   5.257  73.804  1.00  0.00    -0.245 C  
BRANCH  17  18
HETATM   18  N   UNL     1      -9.154   4.877  73.143  1.00  0.00    -0.117 NA 
HETATM   19  C   UNL     1      -8.001   5.300  73.943  1.00  0.00    -0.105 C  
BRANCH  18  20
HETATM   20  C   UNL     1      -9.115   3.406  72.954  1.00  0.00    -0.088 C  
BRANCH  20  21
HETATM   21  C   UNL     1      -8.663   2.993  71.565  1.00  0.00    -0.116 A  
HETATM   22  C   UNL     1      -7.311   3.088  71.203  1.00  0.00    -0.033 A  
HETATM   23  C   UNL     1      -6.901   2.800  69.902  1.00  0.00    -0.034 A  
HETATM   24  C   UNL     1      -7.837   2.404  68.948  1.00  0.00    -0.055 A  
HETATM   25  C   UNL     1      -9.181   2.285  69.298  1.00  0.00    -0.190 A  
HETATM   26  C   UNL     1      -9.595   2.575  70.601  1.00  0.00    -0.160 A  
ENDBRANCH  20  21
ENDBRANCH  18  20
ENDBRANCH  17  18
ENDBRANCH  16  17
ENDBRANCH  15  16
ENDBRANCH  13  15
ENDBRANCH  10  13
BRANCH  12  27
HETATM   27  C   UNL     1      -9.521   8.247  70.367  1.00  0.00    -0.172 A  
HETATM   28  C   UNL     1      -7.620   6.748  70.548  1.00  0.00    -0.091 A  
HETATM   29  O   UNL     1      -6.853  11.422  70.644  1.00  0.00     0.153 OA 
HETATM   30  C   UNL     1      -8.649   9.347  70.485  1.00  0.00    -0.265 A  
HETATM   31  O   UNL     1      -5.152  10.055  70.856  1.00  0.00    -0.042 OA 
HETATM   32  C   UNL     1      -7.272   9.138  70.623  1.00  0.00    -0.105 A  
HETATM   33  C   UNL     1      -8.990   6.950  70.386  1.00  0.00    -0.152 A  
HETATM   34  C   UNL     1      -6.756   7.839  70.671  1.00  0.00    -0.038 A  
HETATM   35  N   UNL     1      -6.362  10.287  70.714  1.00  0.00    -0.075 N  
ENDBRANCH  12  27
ENDBRANCH   3   5
ENDBRANCH   2   3
TORSDOF 10
ENDMDL
MODEL      306
REMARK 921   NORMALIZED FREE ENERGY PREDICTED BY IDOCK:    0.77 KCAL/MOL
REMARK 922        TOTAL FREE ENERGY PREDICTED BY IDOCK:   -0.29 KCAL/MOL
REMARK 923 INTER-LIGAND FREE ENERGY PREDICTED BY IDOCK:   -6.93 KCAL/MOL
REMARK 924 INTRA-LIGAND FREE ENERGY PREDICTED BY IDOCK:    6.64 KCAL/MOL
REMARK 927      BINDING AFFINITY PREDICTED BY RF-SCORE:    0.00 PKD
ROOT
HETATM    1  C   UNL     1      -9.253  18.483  67.635  1.00  0.00    -0.281 C  
HETATM    2  O   UNL     1      -8.291  18.103  68.624  1.00  0.00    -0.308 OA 
ENDROOT
BRANCH   2   3
HETATM    3  C   UNL     1      -8.262  16.763  68.843  1.00  0.00    -0.224 C  
HETATM    4  O   UNL     1      -7.731  16.225  69.803  1.00  0.00     0.053 OA 
BRANCH   3   5
HETATM    5  C   UNL     1      -8.918  16.021  67.737  1.00  0.00    -0.188 C  
HETATM    6  C   UNL     1      -8.730  16.404  66.451  1.00  0.00    -0.319 C  
HETATM    7  C   UNL     1      -7.805  17.494  65.964  1.00  0.00    -0.213 C  
HETATM    8  N   UNL     1      -9.447  15.786  65.441  1.00  0.00    -0.302 NA 
HETATM    9  C   UNL     1     -10.495  14.908  65.639  1.00  0.00    -0.349 C  
HETATM   10  C   UNL     1     -10.774  14.461  66.887  1.00  0.00    -0.292 C  
HETATM   11  C   UNL     1     -11.237  14.497  64.387  1.00  0.00    -0.208 C  
HETATM   12  C   UNL     1      -9.903  14.891  68.083  1.00  0.00    -0.218 C  
BRANCH  10  13
HETATM   13  C   UNL     1     -11.862  13.462  67.088  1.00  0.00    -0.382 C  
HETATM   14  O   UNL     1     -12.896  13.654  67.710  1.00  0.00     0.635 OA 
BRANCH  13  15
HETATM   15  O   UNL     1     -11.629  12.381  66.304  1.00  0.00    -0.357 OA 
BRANCH  15  16
HETATM   16  C   UNL     1     -11.688  11.133  67.016  1.00  0.00     0.318 C  
BRANCH  16  17
HETATM   17  C   UNL     1     -10.253  10.849  67.485  1.00  0.00    -0.190 C  
BRANCH  17  18
HETATM   18  N   UNL     1     -10.053  10.594  68.917  1.00  0.00    -0.193 NA 
HETATM   19  C   UNL     1     -11.284  10.084  69.526  1.00  0.00    -0.208 C  
BRANCH  18  20
HETATM   20  C   UNL     1      -8.962   9.605  69.100  1.00  0.00    -0.154 C  
BRANCH  20  21
HETATM   21  C   UNL     1      -9.054   8.851  70.414  1.00  0.00    -0.217 A  
HETATM   22  C   UNL     1     -10.191   8.979  71.226  1.00  0.00    -0.384 A  
HETATM   23  C   UNL     1     -10.245   8.364  72.475  1.00  0.00    -0.369 A  
HETATM   24  C   UNL     1      -9.167   7.605  72.926  1.00  0.00    -0.242 A  
HETATM   25  C   UNL     1      -8.039   7.451  72.123  1.00  0.00    -0.107 A  
HETATM   26  C   UNL     1      -7.981   8.067  70.870  1.00  0.00    -0.094 A  
ENDBRANCH  20  21
ENDBRANCH  18  20
ENDBRANCH  17  18
ENDBRANCH  16  17
ENDBRANCH  15  16
ENDBRANCH  13  15
ENDBRANCH  10  13
BRANCH  12  27
HETATM   27  C   UNL     1     -10.755  15.244  69.306  1.00  0.00    -0.252 A  
HETATM   28  C   UNL     1     -11.627  16.886  70.866  1.00  0.00     0.803 A  
HETATM   29  O   UNL     1     -12.752  12.327  71.493  1.00  0.00    -0.326 OA 
HETATM   30  C   UNL     1     -11.397  14.225  70.038  1.00  0.00    -0.224 A  
HETATM   31  O   UNL     1     -13.491  13.817  72.922  1.00  0.00    -0.652 OA 
HETATM   32  C   UNL     1     -12.155  14.547  71.170  1.00  0.00    -0.344 A  
HETATM   33  C   UNL     1     -10.892  16.574  69.724  1.00  0.00    -0.302 A  
HETATM   34  C   UNL     1     -12.258  15.876  71.596  1.00  0.00    -0.544 A  
HETATM   35  N   UNL     1     -12.849  13.488  71.914  1.00  0.00    -0.300 N  
ENDBRANCH  12  27
ENDBRANCH   3   5
ENDBRANCH   2   3
TORSDOF 10
ENDMDL
MODEL      307
REMARK 921   NORMALIZED FREE ENERGY PREDICTED BY IDOCK:    0.82 KCAL/MOL
REMARK 922        TOTAL FREE ENERGY PREDICTED BY IDOCK:   -0.21 KCAL/MOL
REMARK 923 INTER-LIGAND FREE ENERGY PREDICTED BY IDOCK:   -3.18 KCAL/MOL
REMARK 924 INTRA-LIGAND FREE ENERGY PREDICTED BY IDOCK:    2.96 KCAL/MOL
REMARK 927      BINDING AFFINITY PREDICTED BY RF-SCORE:    0.00 PKD
ROOT
HETATM    1  C   UNL     1     -10.777  16.579  69.491  1.00  0.00    -0.321 C  
HETATM    2  O   UNL     1      -9.460  16.347  68.982  1.00  0.00    -0.248 OA 
ENDROOT
BRANCH   2   3
HETATM    3  C   UNL     1      -9.452  16.050  67.657  1.00  0.00    -0.216 C  
HETATM    4  O   UNL     1      -9.022  16.785  66.780  1.00  0.00    -0.215 OA 
BRANCH   3   5
HETATM    5  C   UNL     1     -10.080  14.730  67.396  1.00  0.00    -0.231 C  
HETATM    6  C   UNL     1     -11.419  14.573  67.526  1.00  0.00    -0.356 C  
HETATM    7  C   UNL     1     -12.427  15.657  67.823  1.00  0.00     1.228 C  
HETATM    8  N   UNL     1     -11.974  13.311  67.404  1.00  0.00    -0.358 NA 
HETATM    9  C   UNL     1     -11.255  12.133  67.335  1.00  0.00    -0.302 C  
HETATM   10  C   UNL     1      -9.907  12.174  67.207  1.00  0.00    -0.202 C  
HETATM   11  C   UNL     1     -12.082  10.869  67.382  1.00  0.00     1.189 C  
HETATM   12  C   UNL     1      -9.174  13.524  67.094  1.00  0.00    -0.236 C  
BRANCH  10  13
HETATM   13  C   UNL     1      -9.140  10.903  67.063  1.00  0.00    -0.149 C  
HETATM   14  O   UNL     1      -8.384  10.630  66.143  1.00  0.00    -0.146 OA 
BRANCH  13  15
HETATM   15  O   UNL     1      -9.243  10.186  68.208  1.00  0.00    -0.127 OA 
BRANCH  15  16
HETATM   16  C   UNL     1      -8.836   8.815  68.064  1.00  0.00    -0.141 C  
BRANCH  16  17
HETATM   17  C   UNL     1     -10.125   8.021  67.802  1.00  0.00    -0.195 C  
BRANCH  17  18
HETATM   18  N   UNL     1     -10.283   6.744  68.510  1.00  0.00    -0.166 NA 
HETATM   19  C   UNL     1     -11.472   6.773  69.367  1.00  0.00    -0.147 C  
BRANCH  18  20
HETATM   20  C   UNL     1     -10.405   5.640  67.528  1.00  0.00    -0.222 C  
BRANCH  20  21
HETATM   21  C   UNL     1      -9.213   4.700  67.533  1.00  0.00    -0.148 A  
HETATM   22  C   UNL     1      -7.914   5.206  67.685  1.00  0.00    -0.099 A  
HETATM   23  C   UNL     1      -6.807   4.363  67.598  1.00  0.00    -0.055 A  
HETATM   24  C   UNL     1      -6.986   3.001  67.367  1.00  0.00    -0.049 A  
HETATM   25  C   UNL     1      -8.271   2.479  67.233  1.00  0.00    -0.079 A  
HETATM   26  C   UNL     1      -9.382   3.322  67.319  1.00  0.00    -0.229 A  
ENDBRANCH  20  21
ENDBRANCH  18  20
ENDBRANCH  17  18
ENDBRANCH  16  17
ENDBRANCH  15  16
ENDBRANCH  13  15
ENDBRANCH  10  13
BRANCH  12  27
HETATM   27  C   UNL     1      -7.902  13.549  67.947  1.00  0.00    -0.159 A  
HETATM   28  C   UNL     1      -5.803  14.595  68.573  1.00  0.00    -0.098 A  
HETATM   29  O   UNL     1      -7.046  10.541  70.685  1.00  0.00    -0.250 OA 
HETATM   30  C   UNL     1      -7.632  12.498  68.847  1.00  0.00     0.047 A  
HETATM   31  O   UNL     1      -5.130  11.472  71.203  1.00  0.00    -0.113 OA 
HETATM   32  C   UNL     1      -6.457  12.511  69.607  1.00  0.00    -0.057 A  
HETATM   33  C   UNL     1      -6.983  14.601  67.832  1.00  0.00    -0.172 A  
HETATM   34  C   UNL     1      -5.532  13.550  69.460  1.00  0.00    -0.088 A  
HETATM   35  N   UNL     1      -6.193  11.431  70.566  1.00  0.00    -0.065 N  
ENDBRANCH  12  27
ENDBRANCH   3   5
ENDBRANCH   2   3
TORSDOF 10
ENDMDL
MODEL      308
REMARK 921   NORMALIZED FREE ENERGY PREDICTED BY IDOCK:    0.92 KCAL/MOL
REMARK 922        TOTAL FREE ENERGY PREDICTED BY IDOCK:   -0.06 KCAL/MOL
REMARK 923 INTER-LIGAND FREE ENERGY PREDICTED BY IDOCK:   -5.74 KCAL/MOL
REMARK 924 INTRA-LIGAND FREE ENERGY PREDICTED BY IDOCK:    5.68 KCAL/MOL
REMARK 927      BINDING AFFINITY PREDICTED BY RF-SCORE:    0.00 PKD
ROOT
HETATM    1  C   UNL     1      -9.149  18.763  68.600  1.00  0.00    -0.330 C  
HETATM    2  O   UNL     1      -7.933  18.700  67.847  1.00  0.00    -0.250 OA 
ENDROOT
BRANCH   2   3
HETATM    3  C   UNL     1      -8.139  18.403  66.538  1.00  0.00    -0.269 C  
HETATM    4  O   UNL     1      -7.599  18.972  65.601  1.00  0.00    -0.474 OA 
BRANCH   3   5
HETATM    5  C   UNL     1      -9.147  17.324  66.382  1.00  0.00    -0.281 C  
HETATM    6  C   UNL     1     -10.468  17.623  66.346  1.00  0.00    -0.286 C  
HETATM    7  C   UNL     1     -11.077  19.005  66.345  1.00  0.00     0.113 C  
HETATM    8  N   UNL     1     -11.401  16.601  66.329  1.00  0.00     0.495 NA 
HETATM    9  C   UNL     1     -11.113  15.264  66.527  1.00  0.00    -0.271 C  
HETATM   10  C   UNL     1      -9.823  14.854  66.582  1.00  0.00    -0.272 C  
HETATM   11  C   UNL     1     -12.315  14.355  66.637  1.00  0.00    -0.245 C  
HETATM   12  C   UNL     1      -8.674  15.860  66.382  1.00  0.00    -0.362 C  
BRANCH  10  13
HETATM   13  C   UNL     1      -9.515  13.402  66.727  1.00  0.00    -0.261 C  
HETATM   14  O   UNL     1      -9.344  12.617  65.806  1.00  0.00    -0.107 OA 
BRANCH  13  15
HETATM   15  O   UNL     1      -9.245  13.129  68.027  1.00  0.00    -0.197 OA 
BRANCH  15  16
HETATM   16  C   UNL     1      -8.600  11.859  68.223  1.00  0.00    -0.162 C  
BRANCH  16  17
HETATM   17  C   UNL     1      -9.721  10.809  68.181  1.00  0.00    -0.159 C  
BRANCH  17  18
HETATM   18  N   UNL     1      -9.355   9.424  68.504  1.00  0.00    -0.137 NA 
HETATM   19  C   UNL     1      -8.522   9.379  69.709  1.00  0.00    -0.165 C  
BRANCH  18  20
HETATM   20  C   UNL     1     -10.583   8.620  68.719  1.00  0.00    -0.140 C  
BRANCH  20  21
HETATM   21  C   UNL     1     -10.588   7.879  70.043  1.00  0.00    -0.242 A  
HETATM   22  C   UNL     1      -9.706   6.810  70.259  1.00  0.00    -0.179 A  
HETATM   23  C   UNL     1      -9.765   6.065  71.435  1.00  0.00    -0.189 A  
HETATM   24  C   UNL     1     -10.703   6.384  72.416  1.00  0.00    -0.255 A  
HETATM   25  C   UNL     1     -11.574   7.455  72.225  1.00  0.00    -0.333 A  
HETATM   26  C   UNL     1     -11.516   8.204  71.046  1.00  0.00    -0.301 A  
ENDBRANCH  20  21
ENDBRANCH  18  20
ENDBRANCH  17  18
ENDBRANCH  16  17
ENDBRANCH  15  16
ENDBRANCH  13  15
ENDBRANCH  10  13
BRANCH  12  27
HETATM   27  C   UNL     1      -7.543  15.636  67.391  1.00  0.00    -0.227 A  
HETATM   28  C   UNL     1      -5.739  14.269  68.267  1.00  0.00    -0.117 A  
HETATM   29  O   UNL     1      -6.744  18.366  70.421  1.00  0.00     0.465 OA 
HETATM   30  C   UNL     1      -7.318  16.571  68.421  1.00  0.00    -0.179 A  
HETATM   31  O   UNL     1      -5.151  17.096  71.230  1.00  0.00    -0.382 OA 
HETATM   32  C   UNL     1      -6.301  16.351  69.356  1.00  0.00    -0.200 A  
HETATM   33  C   UNL     1      -6.734  14.494  67.318  1.00  0.00     0.171 A  
HETATM   34  C   UNL     1      -5.520  15.192  69.292  1.00  0.00    -0.095 A  
HETATM   35  N   UNL     1      -6.048  17.342  70.410  1.00  0.00     0.087 N  
ENDBRANCH  12  27
ENDBRANCH   3   5
ENDBRANCH   2   3
TORSDOF 10
ENDMDL
MODEL      309
REMARK 921   NORMALIZED FREE ENERGY PREDICTED BY IDOCK:    0.98 KCAL/MOL
REMARK 922        TOTAL FREE ENERGY PREDICTED BY IDOCK:    0.03 KCAL/MOL
REMARK 923 INTER-LIGAND FREE ENERGY PREDICTED BY IDOCK:   -2.11 KCAL/MOL
REMARK 924 INTRA-LIGAND FREE ENERGY PREDICTED BY IDOCK:    2.14 KCAL/MOL
REMARK 927      BINDING AFFINITY PREDICTED BY RF-SCORE:    0.00 PKD
ROOT
HETATM    1  C   UNL     1      -9.266  18.708  68.549  1.00  0.00    -0.347 C  
HETATM    2  O   UNL     1      -8.014  18.798  67.862  1.00  0.00    -0.251 OA 
ENDROOT
BRANCH   2   3
HETATM    3  C   UNL     1      -8.151  18.779  66.511  1.00  0.00    -0.289 C  
HETATM    4  O   UNL     1      -7.588  19.544  65.742  1.00  0.00    -0.347 OA 
BRANCH   3   5
HETATM    5  C   UNL     1      -9.117  17.736  66.081  1.00  0.00    -0.128 C  
HETATM    6  C   UNL     1     -10.434  18.030  65.964  1.00  0.00    -0.313 C  
HETATM    7  C   UNL     1     -11.068  19.391  66.127  1.00  0.00    -0.060 C  
HETATM    8  N   UNL     1     -11.338  17.020  65.687  1.00  0.00     0.489 NA 
HETATM    9  C   UNL     1     -11.043  15.671  65.692  1.00  0.00    -0.194 C  
HETATM   10  C   UNL     1      -9.756  15.263  65.808  1.00  0.00    -0.385 C  
HETATM   11  C   UNL     1     -12.232  14.750  65.533  1.00  0.00    -0.101 C  
HETATM   12  C   UNL     1      -8.615  16.294  65.890  1.00  0.00    -0.064 C  
BRANCH  10  13
HETATM   13  C   UNL     1      -9.434  13.809  65.744  1.00  0.00     0.030 C  
HETATM   14  O   UNL     1      -9.427  13.127  64.730  1.00  0.00     0.237 OA 
BRANCH  13  15
HETATM   15  O   UNL     1      -8.945  13.405  66.942  1.00  0.00    -0.229 OA 
BRANCH  15  16
HETATM   16  C   UNL     1      -8.187  12.186  66.870  1.00  0.00    -0.134 C  
BRANCH  16  17
HETATM   17  C   UNL     1      -9.220  11.058  66.727  1.00  0.00    -0.161 C  
BRANCH  17  18
HETATM   18  N   UNL     1      -9.326  10.101  67.835  1.00  0.00    -0.141 NA 
HETATM   19  C   UNL     1      -9.031  10.756  69.112  1.00  0.00    -0.087 C  
BRANCH  18  20
HETATM   20  C   UNL     1     -10.696   9.532  67.874  1.00  0.00    -0.228 C  
BRANCH  20  21
HETATM   21  C   UNL     1     -11.373   9.697  69.222  1.00  0.00    -0.003 A  
HETATM   22  C   UNL     1     -12.045  10.888  69.536  1.00  0.00    -0.380 A  
HETATM   23  C   UNL     1     -12.590  11.085  70.803  1.00  0.00    -0.463 A  
HETATM   24  C   UNL     1     -12.478  10.089  71.773  1.00  0.00    -0.475 A  
HETATM   25  C   UNL     1     -11.831   8.892  71.470  1.00  0.00    -0.402 A  
HETATM   26  C   UNL     1     -11.283   8.693  70.201  1.00  0.00    -0.152 A  
ENDBRANCH  20  21
ENDBRANCH  18  20
ENDBRANCH  17  18
ENDBRANCH  16  17
ENDBRANCH  15  16
ENDBRANCH  13  15
ENDBRANCH  10  13
BRANCH  12  27
HETATM   27  C   UNL     1      -7.583  15.912  66.956  1.00  0.00    -0.264 A  
HETATM   28  C   UNL     1      -5.281  15.530  67.621  1.00  0.00    -0.058 A  
HETATM   29  O   UNL     1      -8.719  14.817  70.802  1.00  0.00     1.529 OA 
HETATM   30  C   UNL     1      -8.007  15.521  68.242  1.00  0.00    -0.132 A  
HETATM   31  O   UNL     1      -6.637  14.428  71.372  1.00  0.00     0.276 OA 
HETATM   32  C   UNL     1      -7.064  15.149  69.207  1.00  0.00    -0.172 A  
HETATM   33  C   UNL     1      -6.213  15.926  66.664  1.00  0.00     0.801 A  
HETATM   34  C   UNL     1      -5.700  15.136  68.894  1.00  0.00    -0.094 A  
HETATM   35  N   UNL     1      -7.505  14.772  70.556  1.00  0.00     0.580 N  
ENDBRANCH  12  27
ENDBRANCH   3   5
ENDBRANCH   2   3
TORSDOF 10
ENDMDL
MODEL      310
REMARK 921   NORMALIZED FREE ENERGY PREDICTED BY IDOCK:    1.94 KCAL/MOL
REMARK 922        TOTAL FREE ENERGY PREDICTED BY IDOCK:    1.55 KCAL/MOL
REMARK 923 INTER-LIGAND FREE ENERGY PREDICTED BY IDOCK:   -2.73 KCAL/MOL
REMARK 924 INTRA-LIGAND FREE ENERGY PREDICTED BY IDOCK:    4.28 KCAL/MOL
REMARK 927      BINDING AFFINITY PREDICTED BY RF-SCORE:    0.00 PKD
ROOT
HETATM    1  C   UNL     1      -7.662   8.608  72.308  1.00  0.00     0.003 C  
HETATM    2  O   UNL     1      -6.778   7.759  71.569  1.00  0.00    -0.044 OA 
ENDROOT
BRANCH   2   3
HETATM    3  C   UNL     1      -6.192   8.392  70.520  1.00  0.00    -0.035 C  
HETATM    4  O   UNL     1      -5.898   7.861  69.460  1.00  0.00    -0.026 OA 
BRANCH   3   5
HETATM    5  C   UNL     1      -5.904   9.813  70.842  1.00  0.00    -0.084 C  
HETATM    6  C   UNL     1      -5.596  10.178  72.109  1.00  0.00     0.269 C  
HETATM    7  C   UNL     1      -5.399   9.255  73.288  1.00  0.00    -0.085 C  
HETATM    8  N   UNL     1      -5.455  11.520  72.420  1.00  0.00     0.074 NA 
HETATM    9  C   UNL     1      -5.780  12.565  71.577  1.00  0.00     0.443 C  
HETATM   10  C   UNL     1      -6.107  12.313  70.287  1.00  0.00    -0.075 C  
HETATM   11  C   UNL     1      -5.706  13.941  72.198  1.00  0.00    -0.066 C  
HETATM   12  C   UNL     1      -6.078  10.873  69.740  1.00  0.00    -0.087 C  
BRANCH  10  13
HETATM   13  C   UNL     1      -6.390  13.448  69.361  1.00  0.00    -0.111 C  
HETATM   14  O   UNL     1      -5.563  14.027  68.673  1.00  0.00    -0.079 OA 
BRANCH  13  15
HETATM   15  O   UNL     1      -7.731  13.601  69.238  1.00  0.00     0.099 OA 
BRANCH  15  16
HETATM   16  C   UNL     1      -8.130  14.157  67.973  1.00  0.00    -0.149 C  
BRANCH  16  17
HETATM   17  C   UNL     1      -9.602  13.761  67.787  1.00  0.00    -0.219 C  
BRANCH  17  18
HETATM   18  N   UNL     1     -10.506  14.778  67.233  1.00  0.00    -0.262 NA 
HETATM   19  C   UNL     1     -10.733  15.850  68.206  1.00  0.00    -0.291 C  
BRANCH  18  20
HETATM   20  C   UNL     1      -9.919  15.346  65.995  1.00  0.00    -0.324 C  
BRANCH  20  21
HETATM   21  C   UNL     1      -9.106  16.604  66.242  1.00  0.00    -0.333 A  
HETATM   22  C   UNL     1      -7.830  16.520  66.819  1.00  0.00    -0.296 A  
HETATM   23  C   UNL     1      -7.115  17.674  67.135  1.00  0.00    -0.199 A  
HETATM   24  C   UNL     1      -7.663  18.928  66.869  1.00  0.00    -0.250 A  
HETATM   25  C   UNL     1      -8.921  19.028  66.278  1.00  0.00    -0.289 A  
HETATM   26  C   UNL     1      -9.640  17.872  65.962  1.00  0.00    -0.100 A  
ENDBRANCH  20  21
ENDBRANCH  18  20
ENDBRANCH  17  18
ENDBRANCH  16  17
ENDBRANCH  15  16
ENDBRANCH  13  15
ENDBRANCH  10  13
BRANCH  12  27
HETATM   27  C   UNL     1      -7.298  10.576  68.862  1.00  0.00    -0.098 A  
HETATM   28  C   UNL     1      -8.372  10.542  66.686  1.00  0.00    -0.131 A  
HETATM   29  O   UNL     1     -10.862   9.174  70.478  1.00  0.00    -0.227 OA 
HETATM   30  C   UNL     1      -8.498  10.126  69.448  1.00  0.00    -0.179 A  
HETATM   31  O   UNL     1     -11.833   9.197  68.512  1.00  0.00     1.066 OA 
HETATM   32  C   UNL     1      -9.619   9.880  68.648  1.00  0.00    -0.156 A  
HETATM   33  C   UNL     1      -7.245  10.766  67.475  1.00  0.00    -0.090 A  
HETATM   34  C   UNL     1      -9.564  10.103  67.268  1.00  0.00    -0.189 A  
HETATM   35  N   UNL     1     -10.859   9.382  69.256  1.00  0.00    -0.208 N  
ENDBRANCH  12  27
ENDBRANCH   3   5
ENDBRANCH   2   3
TORSDOF 10
ENDMDL
MODEL      311
REMARK 921   NORMALIZED FREE ENERGY PREDICTED BY IDOCK:    1.95 KCAL/MOL
REMARK 922        TOTAL FREE ENERGY PREDICTED BY IDOCK:    1.56 KCAL/MOL
REMARK 923 INTER-LIGAND FREE ENERGY PREDICTED BY IDOCK:   -4.18 KCAL/MOL
REMARK 924 INTRA-LIGAND FREE ENERGY PREDICTED BY IDOCK:    5.74 KCAL/MOL
REMARK 927      BINDING AFFINITY PREDICTED BY RF-SCORE:    0.00 PKD
ROOT
HETATM    1  C   UNL     1     -10.203   4.336  72.704  1.00  0.00    -0.171 C  
HETATM    2  O   UNL     1     -10.805   4.896  71.532  1.00  0.00    -0.057 OA 
ENDROOT
BRANCH   2   3
HETATM    3  C   UNL     1     -11.369   6.111  71.759  1.00  0.00    -0.291 C  
HETATM    4  O   UNL     1     -12.509   6.286  72.162  1.00  0.00    -0.291 OA 
BRANCH   3   5
HETATM    5  C   UNL     1     -10.437   7.212  71.407  1.00  0.00    -0.220 C  
HETATM    6  C   UNL     1     -10.856   8.499  71.441  1.00  0.00    -0.260 C  
HETATM    7  C   UNL     1     -12.202   8.994  71.915  1.00  0.00    -0.451 C  
HETATM    8  N   UNL     1     -10.019   9.504  70.989  1.00  0.00    -0.256 NA 
HETATM    9  C   UNL     1      -8.826   9.300  70.322  1.00  0.00    -0.224 C  
HETATM   10  C   UNL     1      -8.314   8.049  70.226  1.00  0.00    -0.125 C  
HETATM   11  C   UNL     1      -8.172  10.547  69.772  1.00  0.00     0.050 C  
HETATM   12  C   UNL     1      -9.031   6.858  70.890  1.00  0.00    -0.149 C  
BRANCH  10  13
HETATM   13  C   UNL     1      -6.994   7.840  69.566  1.00  0.00    -0.058 C  
HETATM   14  O   UNL     1      -6.439   6.762  69.413  1.00  0.00    -0.040 OA 
BRANCH  13  15
HETATM   15  O   UNL     1      -6.600   8.994  68.975  1.00  0.00    -0.047 OA 
BRANCH  15  16
HETATM   16  C   UNL     1      -5.317   8.900  68.332  1.00  0.00    -0.038 C  
BRANCH  16  17
HETATM   17  C   UNL     1      -5.575   8.214  66.982  1.00  0.00    -0.037 C  
BRANCH  17  18
HETATM   18  N   UNL     1      -6.962   8.181  66.500  1.00  0.00    -0.067 NA 
HETATM   19  C   UNL     1      -7.510   9.537  66.412  1.00  0.00    -0.097 C  
BRANCH  18  20
HETATM   20  C   UNL     1      -7.011   7.538  65.164  1.00  0.00    -0.058 C  
BRANCH  20  21
HETATM   21  C   UNL     1      -7.404   6.073  65.220  1.00  0.00    -0.076 A  
HETATM   22  C   UNL     1      -8.530   5.615  64.520  1.00  0.00    -0.070 A  
HETATM   23  C   UNL     1      -8.952   4.292  64.639  1.00  0.00    -0.146 A  
HETATM   24  C   UNL     1      -8.249   3.406  65.453  1.00  0.00    -0.097 A  
HETATM   25  C   UNL     1      -7.116   3.841  66.140  1.00  0.00    -0.063 A  
HETATM   26  C   UNL     1      -6.692   5.167  66.023  1.00  0.00    -0.053 A  
ENDBRANCH  20  21
ENDBRANCH  18  20
ENDBRANCH  17  18
ENDBRANCH  16  17
ENDBRANCH  15  16
ENDBRANCH  13  15
ENDBRANCH  10  13
BRANCH  12  27
HETATM   27  C   UNL     1      -9.062   5.632  69.972  1.00  0.00    -0.157 A  
HETATM   28  C   UNL     1     -10.152   4.315  68.249  1.00  0.00     0.079 A  
HETATM   29  O   UNL     1      -6.094   2.726  70.106  1.00  0.00    -0.022 OA 
HETATM   30  C   UNL     1      -8.052   4.654  70.063  1.00  0.00    -0.068 A  
HETATM   31  O   UNL     1      -7.116   1.523  68.584  1.00  0.00    -0.036 OA 
HETATM   32  C   UNL     1      -8.096   3.523  69.241  1.00  0.00    -0.053 A  
HETATM   33  C   UNL     1     -10.100   5.456  69.047  1.00  0.00    -0.283 A  
HETATM   34  C   UNL     1      -9.154   3.342  68.344  1.00  0.00    -0.206 A  
HETATM   35  N   UNL     1      -7.026   2.520  69.316  1.00  0.00    -0.036 N  
ENDBRANCH  12  27
ENDBRANCH   3   5
ENDBRANCH   2   3
TORSDOF 10
ENDMDL
MODEL      312
REMARK 921   NORMALIZED FREE ENERGY PREDICTED BY IDOCK:    2.14 KCAL/MOL
REMARK 922        TOTAL FREE ENERGY PREDICTED BY IDOCK:    1.88 KCAL/MOL
REMARK 923 INTER-LIGAND FREE ENERGY PREDICTED BY IDOCK:   -1.99 KCAL/MOL
REMARK 924 INTRA-LIGAND FREE ENERGY PREDICTED BY IDOCK:    3.86 KCAL/MOL
REMARK 927      BINDING AFFINITY PREDICTED BY RF-SCORE:    0.00 PKD
ROOT
HETATM    1  C   UNL     1      -8.753  15.197  70.434  1.00  0.00     1.115 C  
HETATM    2  O   UNL     1      -8.949  16.479  69.828  1.00  0.00     0.245 OA 
ENDROOT
BRANCH   2   3
HETATM    3  C   UNL     1     -10.254  16.851  69.793  1.00  0.00     0.054 C  
HETATM    4  O   UNL     1     -10.764  17.679  70.534  1.00  0.00     0.757 OA 
BRANCH   3   5
HETATM    5  C   UNL     1     -11.006  16.086  68.767  1.00  0.00    -0.320 C  
HETATM    6  C   UNL     1     -12.159  15.453  69.093  1.00  0.00    -0.242 C  
HETATM    7  C   UNL     1     -12.871  15.514  70.424  1.00  0.00    -0.327 C  
HETATM    8  N   UNL     1     -12.781  14.640  68.162  1.00  0.00     0.609 NA 
HETATM    9  C   UNL     1     -12.232  14.260  66.952  1.00  0.00    -0.331 C  
HETATM   10  C   UNL     1     -11.078  14.827  66.528  1.00  0.00    -0.334 C  
HETATM   11  C   UNL     1     -13.023  13.228  66.181  1.00  0.00     0.455 C  
HETATM   12  C   UNL     1     -10.393  15.926  67.364  1.00  0.00    -0.288 C  
BRANCH  10  13
HETATM   13  C   UNL     1     -10.524  14.465  65.192  1.00  0.00    -0.415 C  
HETATM   14  O   UNL     1     -10.422  15.221  64.237  1.00  0.00     0.153 OA 
BRANCH  13  15
HETATM   15  O   UNL     1      -9.957  13.236  65.259  1.00  0.00    -0.258 OA 
BRANCH  15  16
HETATM   16  C   UNL     1     -10.905  12.161  65.150  1.00  0.00    -0.300 C  
BRANCH  16  17
HETATM   17  C   UNL     1     -10.072  10.870  65.119  1.00  0.00    -0.292 C  
BRANCH  17  18
HETATM   18  N   UNL     1      -9.651  10.312  66.411  1.00  0.00    -0.177 NA 
HETATM   19  C   UNL     1     -10.818   9.948  67.219  1.00  0.00    -0.199 C  
BRANCH  18  20
HETATM   20  C   UNL     1      -8.809   9.112  66.186  1.00  0.00    -0.158 C  
BRANCH  20  21
HETATM   21  C   UNL     1      -7.881   8.807  67.347  1.00  0.00    -0.098 A  
HETATM   22  C   UNL     1      -6.491   8.791  67.159  1.00  0.00    -0.061 A  
HETATM   23  C   UNL     1      -5.637   8.422  68.196  1.00  0.00    -0.035 A  
HETATM   24  C   UNL     1      -6.160   8.071  69.439  1.00  0.00    -0.034 A  
HETATM   25  C   UNL     1      -7.538   8.101  69.649  1.00  0.00    -0.099 A  
HETATM   26  C   UNL     1      -8.397   8.470  68.610  1.00  0.00    -0.123 A  
ENDBRANCH  20  21
ENDBRANCH  18  20
ENDBRANCH  17  18
ENDBRANCH  16  17
ENDBRANCH  15  16
ENDBRANCH  13  15
ENDBRANCH  10  13
BRANCH  12  27
HETATM   27  C   UNL     1      -8.877  15.722  67.433  1.00  0.00    -0.199 A  
HETATM   28  C   UNL     1      -6.620  16.578  67.178  1.00  0.00    -0.229 A  
HETATM   29  O   UNL     1      -7.209  12.049  68.438  1.00  0.00    -0.079 OA 
HETATM   30  C   UNL     1      -8.347  14.456  67.752  1.00  0.00    -0.172 A  
HETATM   31  O   UNL     1      -5.178  12.825  68.154  1.00  0.00    -0.063 OA 
HETATM   32  C   UNL     1      -6.961  14.266  67.791  1.00  0.00    -0.177 A  
HETATM   33  C   UNL     1      -7.999  16.780  67.162  1.00  0.00    -0.210 A  
HETATM   34  C   UNL     1      -6.095  15.321  67.487  1.00  0.00    -0.070 A  
HETATM   35  N   UNL     1      -6.411  12.954  68.153  1.00  0.00    -0.084 N  
ENDBRANCH  12  27
ENDBRANCH   3   5
ENDBRANCH   2   3
TORSDOF 10
ENDMDL
MODEL      313
REMARK 921   NORMALIZED FREE ENERGY PREDICTED BY IDOCK:    2.19 KCAL/MOL
REMARK 922        TOTAL FREE ENERGY PREDICTED BY IDOCK:    1.96 KCAL/MOL
REMARK 923 INTER-LIGAND FREE ENERGY PREDICTED BY IDOCK:   -0.48 KCAL/MOL
REMARK 924 INTRA-LIGAND FREE ENERGY PREDICTED BY IDOCK:    2.44 KCAL/MOL
REMARK 927      BINDING AFFINITY PREDICTED BY RF-SCORE:    0.00 PKD
ROOT
HETATM    1  C   UNL     1     -10.280  18.579  68.860  1.00  0.00    -0.230 C  
HETATM    2  O   UNL     1      -9.006  18.571  68.208  1.00  0.00    -0.293 OA 
ENDROOT
BRANCH   2   3
HETATM    3  C   UNL     1      -9.075  18.141  66.922  1.00  0.00    -0.274 C  
HETATM    4  O   UNL     1      -8.717  18.789  65.949  1.00  0.00    -0.471 OA 
BRANCH   3   5
HETATM    5  C   UNL     1      -9.691  16.793  66.836  1.00  0.00    -0.263 C  
HETATM    6  C   UNL     1     -11.037  16.652  66.886  1.00  0.00     0.187 C  
HETATM    7  C   UNL     1     -12.057  17.765  66.919  1.00  0.00     3.570 C  
HETATM    8  N   UNL     1     -11.591  15.384  66.934  1.00  0.00    -0.081 NA 
HETATM    9  C   UNL     1     -10.877  14.215  67.118  1.00  0.00    -0.290 C  
HETATM   10  C   UNL     1      -9.523  14.242  67.089  1.00  0.00    -0.229 C  
HETATM   11  C   UNL     1     -11.715  12.972  67.311  1.00  0.00    -0.429 C  
HETATM   12  C   UNL     1      -8.773  15.558  66.811  1.00  0.00    -0.302 C  
BRANCH  10  13
HETATM   13  C   UNL     1      -8.757  12.970  67.220  1.00  0.00    -0.209 C  
HETATM   14  O   UNL     1      -8.100  12.442  66.334  1.00  0.00     0.122 OA 
BRANCH  13  15
HETATM   15  O   UNL     1      -8.724  12.597  68.522  1.00  0.00    -0.147 OA 
BRANCH  15  16
HETATM   16  C   UNL     1      -8.621  11.176  68.709  1.00  0.00    -0.132 C  
BRANCH  16  17
HETATM   17  C   UNL     1      -9.975  10.728  69.280  1.00  0.00    -0.159 C  
BRANCH  17  18
HETATM   18  N   UNL     1      -9.982   9.537  70.138  1.00  0.00    -0.225 NA 
HETATM   19  C   UNL     1     -11.213   8.767  69.941  1.00  0.00    -0.051 C  
BRANCH  18  20
HETATM   20  C   UNL     1      -8.809   8.686  69.819  1.00  0.00    -0.137 C  
BRANCH  20  21
HETATM   21  C   UNL     1      -8.349   7.840  70.992  1.00  0.00    -0.114 A  
HETATM   22  C   UNL     1      -8.260   8.397  72.276  1.00  0.00    -0.202 A  
HETATM   23  C   UNL     1      -7.751   7.655  73.340  1.00  0.00    -0.142 A  
HETATM   24  C   UNL     1      -7.331   6.342  73.137  1.00  0.00    -0.091 A  
HETATM   25  C   UNL     1      -7.431   5.767  71.871  1.00  0.00    -0.095 A  
HETATM   26  C   UNL     1      -7.940   6.509  70.802  1.00  0.00    -0.115 A  
ENDBRANCH  20  21
ENDBRANCH  18  20
ENDBRANCH  17  18
ENDBRANCH  16  17
ENDBRANCH  15  16
ENDBRANCH  13  15
ENDBRANCH  10  13
BRANCH  12  27
HETATM   27  C   UNL     1      -7.571  15.733  67.744  1.00  0.00    -0.157 A  
HETATM   28  C   UNL     1      -5.493  16.846  68.321  1.00  0.00    -0.119 A  
HETATM   29  O   UNL     1      -7.033  13.323  71.088  1.00  0.00     1.472 OA 
HETATM   30  C   UNL     1      -7.407  14.880  68.855  1.00  0.00    -0.136 A  
HETATM   31  O   UNL     1      -5.132  14.307  71.567  1.00  0.00    -0.122 OA 
HETATM   32  C   UNL     1      -6.295  15.025  69.691  1.00  0.00    -0.142 A  
HETATM   33  C   UNL     1      -6.611  16.723  67.497  1.00  0.00    -0.172 A  
HETATM   34  C   UNL     1      -5.327  15.997  69.417  1.00  0.00    -0.114 A  
HETATM   35  N   UNL     1      -6.143  14.157  70.865  1.00  0.00    -0.190 N  
ENDBRANCH  12  27
ENDBRANCH   3   5
ENDBRANCH   2   3
TORSDOF 10
ENDMDL
MODEL      314
REMARK 921   NORMALIZED FREE ENERGY PREDICTED BY IDOCK:    2.26 KCAL/MOL
REMARK 922        TOTAL FREE ENERGY PREDICTED BY IDOCK:    2.06 KCAL/MOL
REMARK 923 INTER-LIGAND FREE ENERGY PREDICTED BY IDOCK:   -2.74 KCAL/MOL
REMARK 924 INTRA-LIGAND FREE ENERGY PREDICTED BY IDOCK:    4.80 KCAL/MOL
REMARK 927      BINDING AFFINITY PREDICTED BY RF-SCORE:    0.00 PKD
ROOT
HETATM    1  C   UNL     1      -7.986  13.323  69.558  1.00  0.00     0.968 C  
HETATM    2  O   UNL     1      -8.404  12.206  68.767  1.00  0.00    -0.062 OA 
ENDROOT
BRANCH   2   3
HETATM    3  C   UNL     1      -7.360  11.489  68.276  1.00  0.00    -0.091 C  
HETATM    4  O   UNL     1      -6.662  11.830  67.332  1.00  0.00    -0.095 OA 
BRANCH   3   5
HETATM    5  C   UNL     1      -7.200  10.204  69.002  1.00  0.00    -0.076 C  
HETATM    6  C   UNL     1      -6.165  10.026  69.857  1.00  0.00    -0.060 C  
HETATM    7  C   UNL     1      -5.149  11.066  70.267  1.00  0.00    -0.064 C  
HETATM    8  N   UNL     1      -5.955   8.783  70.428  1.00  0.00    -0.030 NA 
HETATM    9  C   UNL     1      -6.613   7.624  70.066  1.00  0.00    -0.038 C  
HETATM   10  C   UNL     1      -7.663   7.686  69.212  1.00  0.00    -0.104 C  
HETATM   11  C   UNL     1      -6.092   6.359  70.707  1.00  0.00    -0.031 C  
HETATM   12  C   UNL     1      -8.156   9.043  68.675  1.00  0.00    -0.107 C  
BRANCH  10  13
HETATM   13  C   UNL     1      -8.415   6.443  68.875  1.00  0.00    -0.121 C  
HETATM   14  O   UNL     1      -9.271   6.344  68.009  1.00  0.00    -0.114 OA 
BRANCH  13  15
HETATM   15  O   UNL     1      -7.859   5.392  69.525  1.00  0.00    -0.082 OA 
BRANCH  15  16
HETATM   16  C   UNL     1      -8.543   5.044  70.741  1.00  0.00    -0.123 C  
BRANCH  16  17
HETATM   17  C   UNL     1      -9.993   4.743  70.333  1.00  0.00    -0.245 C  
BRANCH  17  18
HETATM   18  N   UNL     1     -10.830   4.029  71.307  1.00  0.00     0.828 NA 
HETATM   19  C   UNL     1     -10.119   2.864  71.840  1.00  0.00    -0.084 C  
BRANCH  18  20
HETATM   20  C   UNL     1     -11.190   4.942  72.419  1.00  0.00     0.019 C  
BRANCH  20  21
HETATM   21  C   UNL     1     -10.705   6.364  72.206  1.00  0.00    -0.253 A  
HETATM   22  C   UNL     1     -11.035   7.057  71.032  1.00  0.00    -0.279 A  
HETATM   23  C   UNL     1     -10.518   8.327  70.786  1.00  0.00    -0.223 A  
HETATM   24  C   UNL     1      -9.671   8.927  71.716  1.00  0.00    -0.365 A  
HETATM   25  C   UNL     1      -9.349   8.261  72.897  1.00  0.00    -0.324 A  
HETATM   26  C   UNL     1      -9.865   6.986  73.145  1.00  0.00    -0.229 A  
ENDBRANCH  20  21
ENDBRANCH  18  20
ENDBRANCH  17  18
ENDBRANCH  16  17
ENDBRANCH  15  16
ENDBRANCH  13  15
ENDBRANCH  10  13
BRANCH  12  27
HETATM   27  C   UNL     1      -8.471   8.979  67.178  1.00  0.00    -0.113 A  
HETATM   28  C   UNL     1      -8.100   8.010  64.984  1.00  0.00    -0.145 A  
HETATM   29  O   UNL     1     -11.195  11.571  65.406  1.00  0.00    -0.245 OA 
HETATM   30  C   UNL     1      -9.381   9.891  66.607  1.00  0.00    -0.196 A  
HETATM   31  O   UNL     1     -10.811  10.717  63.423  1.00  0.00    -0.031 OA 
HETATM   32  C   UNL     1      -9.649   9.847  65.234  1.00  0.00    -0.295 A  
HETATM   33  C   UNL     1      -7.848   8.032  66.354  1.00  0.00    -0.097 A  
HETATM   34  C   UNL     1      -8.996   8.918  64.417  1.00  0.00     0.048 A  
HETATM   35  N   UNL     1     -10.621  10.778  64.646  1.00  0.00    -0.283 N  
ENDBRANCH  12  27
ENDBRANCH   3   5
ENDBRANCH   2   3
TORSDOF 10
ENDMDL
MODEL      315
REMARK 921   NORMALIZED FREE ENERGY PREDICTED BY IDOCK:    2.30 KCAL/MOL
REMARK 922        TOTAL FREE ENERGY PREDICTED BY IDOCK:    2.13 KCAL/MOL
REMARK 923 INTER-LIGAND FREE ENERGY PREDICTED BY IDOCK:    0.91 KCAL/MOL
REMARK 924 INTRA-LIGAND FREE ENERGY PREDICTED BY IDOCK:    1.22 KCAL/MOL
REMARK 927      BINDING AFFINITY PREDICTED BY RF-SCORE:    0.00 PKD
ROOT
HETATM    1  C   UNL     1      -5.141   4.306  70.346  1.00  0.00     0.000 C  
HETATM    2  O   UNL     1      -6.180   3.842  69.478  1.00  0.00    -0.026 OA 
ENDROOT
BRANCH   2   3
HETATM    3  C   UNL     1      -7.218   4.712  69.385  1.00  0.00    -0.052 C  
HETATM    4  O   UNL     1      -8.353   4.411  69.048  1.00  0.00    -0.078 OA 
BRANCH   3   5
HETATM    5  C   UNL     1      -6.789   6.099  69.699  1.00  0.00    -0.065 C  
HETATM    6  C   UNL     1      -6.782   6.539  70.980  1.00  0.00    -0.055 C  
HETATM    7  C   UNL     1      -7.079   5.719  72.213  1.00  0.00    -0.084 C  
HETATM    8  N   UNL     1      -6.503   7.868  71.245  1.00  0.00    -0.037 NA 
HETATM    9  C   UNL     1      -6.399   8.861  70.290  1.00  0.00    -0.039 C  
HETATM   10  C   UNL     1      -6.398   8.532  68.976  1.00  0.00    -0.044 C  
HETATM   11  C   UNL     1      -6.262  10.265  70.831  1.00  0.00    -0.002 C  
HETATM   12  C   UNL     1      -6.469   7.057  68.538  1.00  0.00    -0.036 C  
BRANCH  10  13
HETATM   13  C   UNL     1      -6.217   9.598  67.949  1.00  0.00    -0.052 C  
HETATM   14  O   UNL     1      -5.148   9.949  67.470  1.00  0.00    -0.035 OA 
BRANCH  13  15
HETATM   15  O   UNL     1      -7.429   9.972  67.472  1.00  0.00    -0.090 OA 
BRANCH  15  16
HETATM   16  C   UNL     1      -7.394  11.191  66.711  1.00  0.00    -0.146 C  
BRANCH  16  17
HETATM   17  C   UNL     1      -7.796  12.307  67.688  1.00  0.00    -0.156 C  
BRANCH  17  18
HETATM   18  N   UNL     1      -6.723  13.165  68.206  1.00  0.00    -0.089 NA 
HETATM   19  C   UNL     1      -5.627  13.260  67.237  1.00  0.00     0.265 C  
BRANCH  18  20
HETATM   20  C   UNL     1      -7.257  14.520  68.486  1.00  0.00    -0.120 C  
BRANCH  20  21
HETATM   21  C   UNL     1      -8.645  14.744  67.914  1.00  0.00    -0.166 A  
HETATM   22  C   UNL     1      -8.866  14.648  66.532  1.00  0.00    -0.190 A  
HETATM   23  C   UNL     1     -10.115  14.942  65.989  1.00  0.00    -0.331 A  
HETATM   24  C   UNL     1     -11.164  15.329  66.821  1.00  0.00    -0.241 A  
HETATM   25  C   UNL     1     -10.966  15.410  68.199  1.00  0.00    -0.297 A  
HETATM   26  C   UNL     1      -9.714  15.116  68.746  1.00  0.00    -0.221 A  
ENDBRANCH  20  21
ENDBRANCH  18  20
ENDBRANCH  17  18
ENDBRANCH  16  17
ENDBRANCH  15  16
ENDBRANCH  13  15
ENDBRANCH  10  13
BRANCH  12  27
HETATM   27  C   UNL     1      -7.433   6.860  67.365  1.00  0.00    -0.097 A  
HETATM   28  C   UNL     1      -7.829   6.508  64.996  1.00  0.00    -0.113 A  
HETATM   29  O   UNL     1     -11.556   6.951  67.886  1.00  0.00     0.187 OA 
HETATM   30  C   UNL     1      -8.825   6.923  67.575  1.00  0.00    -0.118 A  
HETATM   31  O   UNL     1     -11.896   6.682  65.737  1.00  0.00     3.335 OA 
HETATM   32  C   UNL     1      -9.704   6.768  66.497  1.00  0.00    -0.125 A  
HETATM   33  C   UNL     1      -6.948   6.637  66.069  1.00  0.00    -0.061 A  
HETATM   34  C   UNL     1      -9.208   6.577  65.203  1.00  0.00     0.545 A  
HETATM   35  N   UNL     1     -11.155   6.803  66.723  1.00  0.00    -0.252 N  
ENDBRANCH  12  27
ENDBRANCH   3   5
ENDBRANCH   2   3
TORSDOF 10
ENDMDL
MODEL      316
REMARK 921   NORMALIZED FREE ENERGY PREDICTED BY IDOCK:    2.65 KCAL/MOL
REMARK 922        TOTAL FREE ENERGY PREDICTED BY IDOCK:    2.68 KCAL/MOL
REMARK 923 INTER-LIGAND FREE ENERGY PREDICTED BY IDOCK:   -3.67 KCAL/MOL
REMARK 924 INTRA-LIGAND FREE ENERGY PREDICTED BY IDOCK:    6.35 KCAL/MOL
REMARK 927      BINDING AFFINITY PREDICTED BY RF-SCORE:    0.00 PKD
ROOT
HETATM    1  C   UNL     1     -11.931  10.267  68.894  1.00  0.00     0.264 C  
HETATM    2  O   UNL     1     -12.222  11.663  68.760  1.00  0.00    -0.416 OA 
ENDROOT
BRANCH   2   3
HETATM    3  C   UNL     1     -11.678  12.209  67.643  1.00  0.00    -0.316 C  
HETATM    4  O   UNL     1     -12.101  12.046  66.508  1.00  0.00    -0.617 OA 
BRANCH   3   5
HETATM    5  C   UNL     1     -10.462  12.999  67.966  1.00  0.00    -0.234 C  
HETATM    6  C   UNL     1     -10.566  14.307  68.303  1.00  0.00    -0.245 C  
HETATM    7  C   UNL     1     -11.846  15.085  68.499  1.00  0.00    -0.319 C  
HETATM    8  N   UNL     1      -9.420  15.062  68.477  1.00  0.00    -0.197 NA 
HETATM    9  C   UNL     1      -8.141  14.644  68.160  1.00  0.00    -0.137 C  
HETATM   10  C   UNL     1      -7.923  13.354  67.807  1.00  0.00    -0.167 C  
HETATM   11  C   UNL     1      -7.069  15.704  68.273  1.00  0.00    -0.116 C  
HETATM   12  C   UNL     1      -9.082  12.340  67.797  1.00  0.00    -0.191 C  
BRANCH  10  13
HETATM   13  C   UNL     1      -6.533  12.889  67.533  1.00  0.00    -0.160 C  
HETATM   14  O   UNL     1      -5.513  13.511  67.788  1.00  0.00    -0.181 OA 
BRANCH  13  15
HETATM   15  O   UNL     1      -6.562  11.588  67.153  1.00  0.00    -0.099 OA 
BRANCH  15  16
HETATM   16  C   UNL     1      -7.201  10.727  68.110  1.00  0.00    -0.083 C  
BRANCH  16  17
HETATM   17  C   UNL     1      -6.092  10.272  69.071  1.00  0.00    -0.037 C  
BRANCH  17  18
HETATM   18  N   UNL     1      -6.315  10.491  70.506  1.00  0.00    -0.251 NA 
HETATM   19  C   UNL     1      -7.644  10.015  70.899  1.00  0.00     0.654 C  
BRANCH  18  20
HETATM   20  C   UNL     1      -5.279   9.772  71.288  1.00  0.00    -0.065 C  
BRANCH  20  21
HETATM   21  C   UNL     1      -5.818   8.556  72.017  1.00  0.00    -0.053 A  
HETATM   22  C   UNL     1      -5.317   8.208  73.280  1.00  0.00    -0.047 A  
HETATM   23  C   UNL     1      -5.739   7.042  73.916  1.00  0.00    -0.054 A  
HETATM   24  C   UNL     1      -6.674   6.212  73.302  1.00  0.00    -0.075 A  
HETATM   25  C   UNL     1      -7.197   6.553  72.055  1.00  0.00    -0.086 A  
HETATM   26  C   UNL     1      -6.775   7.721  71.415  1.00  0.00    -0.045 A  
ENDBRANCH  20  21
ENDBRANCH  18  20
ENDBRANCH  17  18
ENDBRANCH  16  17
ENDBRANCH  15  16
ENDBRANCH  13  15
ENDBRANCH  10  13
BRANCH  12  27
HETATM   27  C   UNL     1      -9.037  11.442  66.556  1.00  0.00    -0.193 A  
HETATM   28  C   UNL     1      -9.055  11.175  64.144  1.00  0.00    -0.051 A  
HETATM   29  O   UNL     1      -8.872   7.300  66.863  1.00  0.00    -0.124 OA 
HETATM   30  C   UNL     1      -9.008  10.040  66.699  1.00  0.00    -0.156 A  
HETATM   31  O   UNL     1      -8.939   7.074  64.683  1.00  0.00     0.460 OA 
HETATM   32  C   UNL     1      -8.992   9.221  65.564  1.00  0.00    -0.205 A  
HETATM   33  C   UNL     1      -9.046  11.997  65.270  1.00  0.00     0.266 A  
HETATM   34  C   UNL     1      -9.032   9.785  64.285  1.00  0.00    -0.276 A  
HETATM   35  N   UNL     1      -8.930   7.762  65.715  1.00  0.00    -0.116 N  
ENDBRANCH  12  27
ENDBRANCH   3   5
ENDBRANCH   2   3
TORSDOF 10
ENDMDL
MODEL      317
REMARK 921   NORMALIZED FREE ENERGY PREDICTED BY IDOCK:    3.15 KCAL/MOL
REMARK 922        TOTAL FREE ENERGY PREDICTED BY IDOCK:    3.47 KCAL/MOL
REMARK 923 INTER-LIGAND FREE ENERGY PREDICTED BY IDOCK:    0.11 KCAL/MOL
REMARK 924 INTRA-LIGAND FREE ENERGY PREDICTED BY IDOCK:    3.36 KCAL/MOL
REMARK 927      BINDING AFFINITY PREDICTED BY RF-SCORE:    0.00 PKD
ROOT
HETATM    1  C   UNL     1     -14.121  12.810  72.736  1.00  0.00     0.676 C  
HETATM    2  O   UNL     1     -13.559  13.716  71.781  1.00  0.00    -0.375 OA 
ENDROOT
BRANCH   2   3
HETATM    3  C   UNL     1     -12.274  13.415  71.461  1.00  0.00     0.134 C  
HETATM    4  O   UNL     1     -11.426  13.043  72.258  1.00  0.00     3.173 OA 
BRANCH   3   5
HETATM    5  C   UNL     1     -12.010  13.643  70.018  1.00  0.00    -0.413 C  
HETATM    6  C   UNL     1     -12.782  14.500  69.308  1.00  0.00     0.327 C  
HETATM    7  C   UNL     1     -13.881  15.381  69.854  1.00  0.00     1.657 C  
HETATM    8  N   UNL     1     -12.607  14.607  67.940  1.00  0.00     0.355 NA 
HETATM    9  C   UNL     1     -11.815  13.771  67.176  1.00  0.00    -0.406 C  
HETATM   10  C   UNL     1     -11.004  12.871  67.784  1.00  0.00    -0.269 C  
HETATM   11  C   UNL     1     -11.917  13.972  65.682  1.00  0.00    -0.408 C  
HETATM   12  C   UNL     1     -10.926  12.802  69.321  1.00  0.00    -0.126 C  
BRANCH  10  13
HETATM   13  C   UNL     1     -10.101  12.017  66.960  1.00  0.00    -0.203 C  
HETATM   14  O   UNL     1      -9.019  11.575  67.319  1.00  0.00    -0.156 OA 
BRANCH  13  15
HETATM   15  O   UNL     1     -10.751  11.631  65.836  1.00  0.00    -0.263 OA 
BRANCH  15  16
HETATM   16  C   UNL     1      -9.868  11.244  64.769  1.00  0.00    -0.266 C  
BRANCH  16  17
HETATM   17  C   UNL     1      -8.779  10.377  65.419  1.00  0.00    -0.180 C  
BRANCH  17  18
HETATM   18  N   UNL     1      -8.798   8.939  65.121  1.00  0.00    -0.190 NA 
HETATM   19  C   UNL     1      -7.920   8.636  63.987  1.00  0.00    -0.158 C  
BRANCH  18  20
HETATM   20  C   UNL     1      -8.352   8.176  66.312  1.00  0.00    -0.119 C  
BRANCH  20  21
HETATM   21  C   UNL     1      -8.799   6.726  66.294  1.00  0.00    -0.158 A  
HETATM   22  C   UNL     1     -10.152   6.399  66.463  1.00  0.00    -0.155 A  
HETATM   23  C   UNL     1     -10.559   5.068  66.540  1.00  0.00    -0.289 A  
HETATM   24  C   UNL     1      -9.618   4.045  66.440  1.00  0.00    -0.217 A  
HETATM   25  C   UNL     1      -8.271   4.352  66.251  1.00  0.00    -0.102 A  
HETATM   26  C   UNL     1      -7.861   5.686  66.175  1.00  0.00    -0.100 A  
ENDBRANCH  20  21
ENDBRANCH  18  20
ENDBRANCH  17  18
ENDBRANCH  16  17
ENDBRANCH  15  16
ENDBRANCH  13  15
ENDBRANCH  10  13
BRANCH  12  27
HETATM   27  C   UNL     1     -10.927  11.355  69.823  1.00  0.00    -0.118 A  
HETATM   28  C   UNL     1      -9.764   9.266  70.236  1.00  0.00    -0.274 A  
HETATM   29  O   UNL     1     -14.386   9.537  71.240  1.00  0.00     0.018 OA 
HETATM   30  C   UNL     1     -12.124  10.764  70.273  1.00  0.00    -0.433 A  
HETATM   31  O   UNL     1     -13.331   7.641  71.560  1.00  0.00    -0.346 OA 
HETATM   32  C   UNL     1     -12.128   9.434  70.708  1.00  0.00    -0.203 A  
HETATM   33  C   UNL     1      -9.748  10.597  69.825  1.00  0.00     0.104 A  
HETATM   34  C   UNL     1     -10.952   8.677  70.675  1.00  0.00    -0.274 A  
HETATM   35  N   UNL     1     -13.370   8.828  71.205  1.00  0.00    -0.130 N  
ENDBRANCH  12  27
ENDBRANCH   3   5
ENDBRANCH   2   3
TORSDOF 10
ENDMDL
MODEL      318
REMARK 921   NORMALIZED FREE ENERGY PREDICTED BY IDOCK:    3.19 KCAL/MOL
REMARK 922        TOTAL FREE ENERGY PREDICTED BY IDOCK:    3.54 KCAL/MOL
REMARK 923 INTER-LIGAND FREE ENERGY PREDICTED BY IDOCK:   -0.09 KCAL/MOL
REMARK 924 INTRA-LIGAND FREE ENERGY PREDICTED BY IDOCK:    3.63 KCAL/MOL
REMARK 927      BINDING AFFINITY PREDICTED BY RF-SCORE:    0.00 PKD
ROOT
HETATM    1  C   UNL     1      -5.147   4.237  70.326  1.00  0.00     0.000 C  
HETATM    2  O   UNL     1      -6.102   3.802  69.353  1.00  0.00    -0.025 OA 
ENDROOT
BRANCH   2   3
HETATM    3  C   UNL     1      -7.136   4.670  69.205  1.00  0.00    -0.052 C  
HETATM    4  O   UNL     1      -8.265   4.357  68.858  1.00  0.00    -0.079 OA 
BRANCH   3   5
HETATM    5  C   UNL     1      -6.710   6.067  69.472  1.00  0.00    -0.056 C  
HETATM    6  C   UNL     1      -6.646   6.531  70.743  1.00  0.00    -0.053 C  
HETATM    7  C   UNL     1      -6.871   5.732  72.004  1.00  0.00    -0.076 C  
HETATM    8  N   UNL     1      -6.372   7.869  70.969  1.00  0.00    -0.037 NA 
HETATM    9  C   UNL     1      -6.328   8.844  69.992  1.00  0.00    -0.037 C  
HETATM   10  C   UNL     1      -6.387   8.491  68.685  1.00  0.00    -0.053 C  
HETATM   11  C   UNL     1      -6.183  10.260  70.500  1.00  0.00    -0.116 C  
HETATM   12  C   UNL     1      -6.460   7.007  68.279  1.00  0.00    -0.044 C  
BRANCH  10  13
HETATM   13  C   UNL     1      -6.270   9.539  67.631  1.00  0.00    -0.053 C  
HETATM   14  O   UNL     1      -5.296  10.253  67.444  1.00  0.00    -0.041 OA 
BRANCH  13  15
HETATM   15  O   UNL     1      -7.319   9.437  66.779  1.00  0.00    -0.085 OA 
BRANCH  15  16
HETATM   16  C   UNL     1      -7.793  10.706  66.300  1.00  0.00    -0.150 C  
BRANCH  16  17
HETATM   17  C   UNL     1      -9.010  11.055  67.172  1.00  0.00    -0.143 C  
BRANCH  17  18
HETATM   18  N   UNL     1      -9.518  12.431  67.094  1.00  0.00    -0.193 NA 
HETATM   19  C   UNL     1      -9.859  12.777  65.712  1.00  0.00    -0.214 C  
BRANCH  18  20
HETATM   20  C   UNL     1     -10.721  12.567  67.951  1.00  0.00    -0.217 C  
BRANCH  20  21
HETATM   21  C   UNL     1     -10.987  11.342  68.807  1.00  0.00    -0.272 A  
HETATM   22  C   UNL     1     -11.049  10.069  68.222  1.00  0.00    -0.247 A  
HETATM   23  C   UNL     1     -11.384   8.952  68.984  1.00  0.00     0.421 A  
HETATM   24  C   UNL     1     -11.653   9.090  70.344  1.00  0.00    -0.145 A  
HETATM   25  C   UNL     1     -11.575  10.345  70.946  1.00  0.00    -0.428 A  
HETATM   26  C   UNL     1     -11.241  11.468  70.183  1.00  0.00    -0.006 A  
ENDBRANCH  20  21
ENDBRANCH  18  20
ENDBRANCH  17  18
ENDBRANCH  16  17
ENDBRANCH  15  16
ENDBRANCH  13  15
ENDBRANCH  10  13
BRANCH  12  27
HETATM   27  C   UNL     1      -7.478   6.776  67.159  1.00  0.00    -0.091 A  
HETATM   28  C   UNL     1      -8.020   6.638  64.797  1.00  0.00    -0.118 A  
HETATM   29  O   UNL     1     -11.489   6.046  67.968  1.00  0.00     0.054 OA 
HETATM   30  C   UNL     1      -8.835   6.557  67.470  1.00  0.00    -0.112 A  
HETATM   31  O   UNL     1     -11.971   5.975  65.830  1.00  0.00     2.267 OA 
HETATM   32  C   UNL     1      -9.768   6.371  66.444  1.00  0.00    -0.089 A  
HETATM   33  C   UNL     1      -7.082   6.799  65.815  1.00  0.00    -0.072 A  
HETATM   34  C   UNL     1      -9.366   6.428  65.105  1.00  0.00     0.647 A  
HETATM   35  N   UNL     1     -11.176   6.112  66.771  1.00  0.00    -0.178 N  
ENDBRANCH  12  27
ENDBRANCH   3   5
ENDBRANCH   2   3
TORSDOF 10
ENDMDL
MODEL      319
REMARK 921   NORMALIZED FREE ENERGY PREDICTED BY IDOCK:    3.68 KCAL/MOL
REMARK 922        TOTAL FREE ENERGY PREDICTED BY IDOCK:    4.32 KCAL/MOL
REMARK 923 INTER-LIGAND FREE ENERGY PREDICTED BY IDOCK:    2.07 KCAL/MOL
REMARK 924 INTRA-LIGAND FREE ENERGY PREDICTED BY IDOCK:    2.25 KCAL/MOL
REMARK 927      BINDING AFFINITY PREDICTED BY RF-SCORE:    0.00 PKD
ROOT
HETATM    1  C   UNL     1      -7.235  16.352  67.134  1.00  0.00    -0.198 C  
HETATM    2  O   UNL     1      -7.727  15.216  67.853  1.00  0.00    -0.117 OA 
ENDROOT
BRANCH   2   3
HETATM    3  C   UNL     1      -8.457  14.376  67.076  1.00  0.00    -0.181 C  
HETATM    4  O   UNL     1      -8.556  14.458  65.861  1.00  0.00     0.567 OA 
BRANCH   3   5
HETATM    5  C   UNL     1      -9.169  13.363  67.897  1.00  0.00    -0.216 C  
HETATM    6  C   UNL     1      -9.019  13.346  69.243  1.00  0.00     0.817 C  
HETATM    7  C   UNL     1      -8.252  14.347  70.074  1.00  0.00     0.921 C  
HETATM    8  N   UNL     1      -9.584  12.322  69.981  1.00  0.00     2.602 NA 
HETATM    9  C   UNL     1     -10.158  11.184  69.447  1.00  0.00     0.040 C  
HETATM   10  C   UNL     1     -10.353  11.093  68.109  1.00  0.00    -0.207 C  
HETATM   11  C   UNL     1     -10.551  10.126  70.452  1.00  0.00    -0.287 C  
HETATM   12  C   UNL     1      -9.980  12.267  67.183  1.00  0.00    -0.213 C  
BRANCH  10  13
HETATM   13  C   UNL     1     -11.034   9.894  67.542  1.00  0.00    -0.173 C  
HETATM   14  O   UNL     1     -11.890   9.910  66.670  1.00  0.00     1.504 OA 
BRANCH  13  15
HETATM   15  O   UNL     1     -10.413   8.774  67.985  1.00  0.00    -0.223 OA 
BRANCH  15  16
HETATM   16  C   UNL     1     -10.332   7.735  66.995  1.00  0.00    -0.334 C  
BRANCH  16  17
HETATM   17  C   UNL     1     -10.541   6.416  67.755  1.00  0.00    -0.266 C  
BRANCH  17  18
HETATM   18  N   UNL     1     -10.516   6.476  69.222  1.00  0.00    -0.201 NA 
HETATM   19  C   UNL     1     -10.784   5.154  69.797  1.00  0.00     0.039 C  
BRANCH  18  20
HETATM   20  C   UNL     1      -9.188   6.955  69.679  1.00  0.00    -0.146 C  
BRANCH  20  21
HETATM   21  C   UNL     1      -9.063   7.015  71.191  1.00  0.00    -0.153 A  
HETATM   22  C   UNL     1      -9.785   7.968  71.924  1.00  0.00    -0.250 A  
HETATM   23  C   UNL     1      -9.606   8.091  73.301  1.00  0.00    -0.322 A  
HETATM   24  C   UNL     1      -8.708   7.256  73.965  1.00  0.00    -0.246 A  
HETATM   25  C   UNL     1      -7.998   6.291  73.253  1.00  0.00    -0.105 A  
HETATM   26  C   UNL     1      -8.174   6.166  71.873  1.00  0.00    -0.114 A  
ENDBRANCH  20  21
ENDBRANCH  18  20
ENDBRANCH  17  18
ENDBRANCH  16  17
ENDBRANCH  15  16
ENDBRANCH  13  15
ENDBRANCH  10  13
BRANCH  12  27
HETATM   27  C   UNL     1      -9.275  11.784  65.913  1.00  0.00    -0.178 A  
HETATM   28  C   UNL     1      -9.258  11.442  63.510  1.00  0.00    -0.106 A  
HETATM   29  O   UNL     1      -5.514  10.018  66.038  1.00  0.00    -0.048 OA 
HETATM   30  C   UNL     1      -8.010  11.166  65.996  1.00  0.00    -0.041 A  
HETATM   31  O   UNL     1      -5.536   9.672  63.873  1.00  0.00    -0.070 OA 
HETATM   32  C   UNL     1      -7.379  10.702  64.837  1.00  0.00     0.118 A  
HETATM   33  C   UNL     1      -9.881  11.929  64.658  1.00  0.00    -0.207 A  
HETATM   34  C   UNL     1      -8.008  10.825  63.593  1.00  0.00     0.171 A  
HETATM   35  N   UNL     1      -6.049  10.087  64.922  1.00  0.00    -0.107 N  
ENDBRANCH  12  27
ENDBRANCH   3   5
ENDBRANCH   2   3
TORSDOF 10
ENDMDL
MODEL      320
REMARK 921   NORMALIZED FREE ENERGY PREDICTED BY IDOCK:    4.12 KCAL/MOL
REMARK 922        TOTAL FREE ENERGY PREDICTED BY IDOCK:    5.02 KCAL/MOL
REMARK 923 INTER-LIGAND FREE ENERGY PREDICTED BY IDOCK:   -0.38 KCAL/MOL
REMARK 924 INTRA-LIGAND FREE ENERGY PREDICTED BY IDOCK:    5.40 KCAL/MOL
REMARK 927      BINDING AFFINITY PREDICTED BY RF-SCORE:    0.00 PKD
ROOT
HETATM    1  C   UNL     1     -12.434  15.683  67.535  1.00  0.00     1.439 C  
HETATM    2  O   UNL     1     -11.175  16.161  67.052  1.00  0.00    -0.103 OA 
ENDROOT
BRANCH   2   3
HETATM    3  C   UNL     1     -10.369  16.619  68.045  1.00  0.00    -0.303 C  
HETATM    4  O   UNL     1     -10.619  17.579  68.758  1.00  0.00    -0.330 OA 
BRANCH   3   5
HETATM    5  C   UNL     1      -9.112  15.832  68.126  1.00  0.00    -0.185 C  
HETATM    6  C   UNL     1      -7.970  16.412  68.566  1.00  0.00    -0.203 C  
HETATM    7  C   UNL     1      -7.825  17.814  69.109  1.00  0.00     0.011 C  
HETATM    8  N   UNL     1      -6.781  15.705  68.516  1.00  0.00    -0.111 NA 
HETATM    9  C   UNL     1      -6.609  14.491  67.880  1.00  0.00    -0.166 C  
HETATM   10  C   UNL     1      -7.685  13.824  67.399  1.00  0.00    -0.158 C  
HETATM   11  C   UNL     1      -5.182  13.996  67.810  1.00  0.00    -0.004 C  
HETATM   12  C   UNL     1      -9.105  14.389  67.593  1.00  0.00    -0.194 C  
BRANCH  10  13
HETATM   13  C   UNL     1      -7.504  12.482  66.775  1.00  0.00     0.244 C  
HETATM   14  O   UNL     1      -7.761  12.198  65.614  1.00  0.00     1.131 OA 
BRANCH  13  15
HETATM   15  O   UNL     1      -6.816  11.681  67.624  1.00  0.00    -0.080 OA 
BRANCH  15  16
HETATM   16  C   UNL     1      -6.259  10.518  66.990  1.00  0.00    -0.066 C  
BRANCH  16  17
HETATM   17  C   UNL     1      -6.628   9.331  67.893  1.00  0.00    -0.063 C  
BRANCH  17  18
HETATM   18  N   UNL     1      -5.612   8.876  68.852  1.00  0.00    -0.040 NA 
HETATM   19  C   UNL     1      -5.220   9.971  69.744  1.00  0.00    -0.037 C  
BRANCH  18  20
HETATM   20  C   UNL     1      -6.150   7.750  69.653  1.00  0.00    -0.030 C  
BRANCH  20  21
HETATM   21  C   UNL     1      -7.570   7.986  70.137  1.00  0.00    -0.081 A  
HETATM   22  C   UNL     1      -8.588   7.077  69.814  1.00  0.00    -0.141 A  
HETATM   23  C   UNL     1      -9.910   7.332  70.174  1.00  0.00    -0.179 A  
HETATM   24  C   UNL     1     -10.231   8.496  70.870  1.00  0.00    -0.246 A  
HETATM   25  C   UNL     1      -9.228   9.400  71.215  1.00  0.00    -0.010 A  
HETATM   26  C   UNL     1      -7.902   9.148  70.854  1.00  0.00    -0.163 A  
ENDBRANCH  20  21
ENDBRANCH  18  20
ENDBRANCH  17  18
ENDBRANCH  16  17
ENDBRANCH  15  16
ENDBRANCH  13  15
ENDBRANCH  10  13
BRANCH  12  27
HETATM   27  C   UNL     1      -9.946  14.257  66.319  1.00  0.00    -0.319 A  
HETATM   28  C   UNL     1     -10.826  15.205  64.265  1.00  0.00     0.308 A  
HETATM   29  O   UNL     1     -12.065  10.788  65.450  1.00  0.00     1.347 OA 
HETATM   30  C   UNL     1     -10.672  13.075  66.070  1.00  0.00    -0.290 A  
HETATM   31  O   UNL     1     -12.891  11.677  63.623  1.00  0.00    -0.407 OA 
HETATM   32  C   UNL     1     -11.459  12.966  64.918  1.00  0.00    -0.315 A  
HETATM   33  C   UNL     1     -10.021  15.310  65.398  1.00  0.00    -0.364 A  
HETATM   34  C   UNL     1     -11.551  14.036  64.022  1.00  0.00    -0.204 A  
HETATM   35  N   UNL     1     -12.190  11.722  64.645  1.00  0.00    -0.068 N  
ENDBRANCH  12  27
ENDBRANCH   3   5
ENDBRANCH   2   3
TORSDOF 10
ENDMDL
MODEL      321
REMARK 921   NORMALIZED FREE ENERGY PREDICTED BY IDOCK:    4.48 KCAL/MOL
REMARK 922        TOTAL FREE ENERGY PREDICTED BY IDOCK:    5.58 KCAL/MOL
REMARK 923 INTER-LIGAND FREE ENERGY PREDICTED BY IDOCK:   -2.78 KCAL/MOL
REMARK 924 INTRA-LIGAND FREE ENERGY PREDICTED BY IDOCK:    8.36 KCAL/MOL
REMARK 927      BINDING AFFINITY PREDICTED BY RF-SCORE:    0.00 PKD
ROOT
HETATM    1  C   UNL     1     -10.280   4.270  72.664  1.00  0.00    -0.171 C  
HETATM    2  O   UNL     1     -11.130   4.711  71.600  1.00  0.00     0.226 OA 
ENDROOT
BRANCH   2   3
HETATM    3  C   UNL     1     -11.931   5.747  71.959  1.00  0.00     0.044 C  
HETATM    4  O   UNL     1     -13.065   5.632  72.398  1.00  0.00     0.363 OA 
BRANCH   3   5
HETATM    5  C   UNL     1     -11.270   7.053  71.706  1.00  0.00    -0.278 C  
HETATM    6  C   UNL     1     -11.965   8.208  71.838  1.00  0.00    -0.320 C  
HETATM    7  C   UNL     1     -13.384   8.351  72.335  1.00  0.00    -0.246 C  
HETATM    8  N   UNL     1     -11.375   9.407  71.476  1.00  0.00    -0.379 NA 
HETATM    9  C   UNL     1     -10.171   9.526  70.808  1.00  0.00    -0.293 C  
HETATM   10  C   UNL     1      -9.395   8.432  70.618  1.00  0.00    -0.182 C  
HETATM   11  C   UNL     1      -9.816  10.927  70.366  1.00  0.00     1.492 C  
HETATM   12  C   UNL     1      -9.824   7.063  71.178  1.00  0.00    -0.180 C  
BRANCH  10  13
HETATM   13  C   UNL     1      -8.066   8.576  69.959  1.00  0.00    -0.111 C  
HETATM   14  O   UNL     1      -7.297   7.660  69.703  1.00  0.00    -0.084 OA 
BRANCH  13  15
HETATM   15  O   UNL     1      -7.929   9.842  69.495  1.00  0.00    -0.107 OA 
BRANCH  15  16
HETATM   16  C   UNL     1      -6.780  10.021  68.651  1.00  0.00    -0.053 C  
BRANCH  16  17
HETATM   17  C   UNL     1      -7.144   9.377  67.304  1.00  0.00    -0.086 C  
BRANCH  17  18
HETATM   18  N   UNL     1      -8.572   9.219  67.001  1.00  0.00    -0.123 NA 
HETATM   19  C   UNL     1      -9.231  10.526  66.928  1.00  0.00    -0.155 C  
BRANCH  18  20
HETATM   20  C   UNL     1      -8.732   8.510  65.707  1.00  0.00    -0.179 C  
BRANCH  20  21
HETATM   21  C   UNL     1      -8.803   9.448  64.516  1.00  0.00    -0.235 A  
HETATM   22  C   UNL     1      -7.902   9.307  63.450  1.00  0.00    -0.131 A  
HETATM   23  C   UNL     1      -7.899  10.220  62.396  1.00  0.00    -0.165 A  
HETATM   24  C   UNL     1      -8.802  11.281  62.391  1.00  0.00    -0.254 A  
HETATM   25  C   UNL     1      -9.716  11.424  63.433  1.00  0.00    -0.385 A  
HETATM   26  C   UNL     1      -9.721  10.511  64.491  1.00  0.00    -0.375 A  
ENDBRANCH  20  21
ENDBRANCH  18  20
ENDBRANCH  17  18
ENDBRANCH  16  17
ENDBRANCH  15  16
ENDBRANCH  13  15
ENDBRANCH  10  13
BRANCH  12  27
HETATM   27  C   UNL     1      -9.588   5.938  70.165  1.00  0.00    -0.198 A  
HETATM   28  C   UNL     1     -10.438   4.372  68.517  1.00  0.00     0.564 A  
HETATM   29  O   UNL     1      -5.818   4.295  69.564  1.00  0.00    -0.016 OA 
HETATM   30  C   UNL     1      -8.301   5.388  70.007  1.00  0.00    -0.107 A  
HETATM   31  O   UNL     1      -6.610   2.853  68.114  1.00  0.00    -0.035 OA 
HETATM   32  C   UNL     1      -8.092   4.343  69.099  1.00  0.00    -0.068 A  
HETATM   33  C   UNL     1     -10.647   5.429  69.401  1.00  0.00    -0.295 A  
HETATM   34  C   UNL     1      -9.163   3.822  68.364  1.00  0.00    -0.213 A  
HETATM   35  N   UNL     1      -6.744   3.792  68.913  1.00  0.00    -0.044 N  
ENDBRANCH  12  27
ENDBRANCH   3   5
ENDBRANCH   2   3
TORSDOF 10
ENDMDL
MODEL      322
REMARK 921   NORMALIZED FREE ENERGY PREDICTED BY IDOCK:    5.24 KCAL/MOL
REMARK 922        TOTAL FREE ENERGY PREDICTED BY IDOCK:    6.79 KCAL/MOL
REMARK 923 INTER-LIGAND FREE ENERGY PREDICTED BY IDOCK:    0.69 KCAL/MOL
REMARK 924 INTRA-LIGAND FREE ENERGY PREDICTED BY IDOCK:    6.09 KCAL/MOL
REMARK 927      BINDING AFFINITY PREDICTED BY RF-SCORE:    0.00 PKD
ROOT
HETATM    1  C   UNL     1      -7.179   9.492  72.869  1.00  0.00     1.564 C  
HETATM    2  O   UNL     1      -6.252   8.772  72.050  1.00  0.00    -0.072 OA 
ENDROOT
BRANCH   2   3
HETATM    3  C   UNL     1      -5.661   9.555  71.111  1.00  0.00    -0.064 C  
HETATM    4  O   UNL     1      -5.288   9.167  70.013  1.00  0.00    -0.028 OA 
BRANCH   3   5
HETATM    5  C   UNL     1      -5.476  10.943  71.604  1.00  0.00     0.195 C  
HETATM    6  C   UNL     1      -5.308  11.182  72.926  1.00  0.00     0.767 C  
HETATM    7  C   UNL     1      -5.178  10.146  74.017  1.00  0.00     0.084 C  
HETATM    8  N   UNL     1      -5.265  12.487  73.386  1.00  0.00    -0.210 NA 
HETATM    9  C   UNL     1      -5.561  13.603  72.627  1.00  0.00     0.115 C  
HETATM   10  C   UNL     1      -5.751  13.478  71.292  1.00  0.00    -0.148 C  
HETATM   11  C   UNL     1      -5.616  14.907  73.391  1.00  0.00     0.265 C  
HETATM   12  C   UNL     1      -5.598  12.108  70.605  1.00  0.00    -0.157 C  
BRANCH  10  13
HETATM   13  C   UNL     1      -6.002  14.693  70.465  1.00  0.00    -0.172 C  
HETATM   14  O   UNL     1      -5.143  15.438  70.016  1.00  0.00    -0.100 OA 
BRANCH  13  15
HETATM   15  O   UNL     1      -7.309  14.731  70.108  1.00  0.00    -0.031 OA 
BRANCH  15  16
HETATM   16  C   UNL     1      -7.537  15.353  68.832  1.00  0.00    -0.164 C  
BRANCH  16  17
HETATM   17  C   UNL     1      -8.882  14.802  68.332  1.00  0.00    -0.181 C  
BRANCH  17  18
HETATM   18  N   UNL     1      -9.800  15.753  67.692  1.00  0.00    -0.231 NA 
HETATM   19  C   UNL     1     -10.363  16.673  68.684  1.00  0.00    -0.304 C  
BRANCH  18  20
HETATM   20  C   UNL     1      -9.074  16.526  66.654  1.00  0.00    -0.255 C  
BRANCH  20  21
HETATM   21  C   UNL     1      -8.409  17.778  67.197  1.00  0.00    -0.236 A  
HETATM   22  C   UNL     1      -7.253  17.680  67.985  1.00  0.00    -0.216 A  
HETATM   23  C   UNL     1      -6.688  18.815  68.564  1.00  0.00    -0.278 A  
HETATM   24  C   UNL     1      -7.268  20.066  68.356  1.00  0.00    -0.297 A  
HETATM   25  C   UNL     1      -8.406  20.182  67.560  1.00  0.00    -0.383 A  
HETATM   26  C   UNL     1      -8.975  19.045  66.979  1.00  0.00    -0.314 A  
ENDBRANCH  20  21
ENDBRANCH  18  20
ENDBRANCH  17  18
ENDBRANCH  16  17
ENDBRANCH  15  16
ENDBRANCH  13  15
ENDBRANCH  10  13
BRANCH  12  27
HETATM   27  C   UNL     1      -6.713  11.858  69.585  1.00  0.00    -0.009 A  
HETATM   28  C   UNL     1      -9.071  11.702  69.034  1.00  0.00     0.181 A  
HETATM   29  O   UNL     1      -5.878  10.821  65.647  1.00  0.00    -0.131 OA 
HETATM   30  C   UNL     1      -6.393  11.483  68.265  1.00  0.00    -0.046 A  
HETATM   31  O   UNL     1      -8.013  10.635  65.179  1.00  0.00    -0.130 OA 
HETATM   32  C   UNL     1      -7.413  11.231  67.341  1.00  0.00    -0.116 A  
HETATM   33  C   UNL     1      -8.060  11.979  69.952  1.00  0.00     2.035 A  
HETATM   34  C   UNL     1      -8.754  11.324  67.727  1.00  0.00    -0.134 A  
HETATM   35  N   UNL     1      -7.077  10.870  65.958  1.00  0.00    -0.107 N  
ENDBRANCH  12  27
ENDBRANCH   3   5
ENDBRANCH   2   3
TORSDOF 10
ENDMDL
MODEL      323
REMARK 921   NORMALIZED FREE ENERGY PREDICTED BY IDOCK:    5.37 KCAL/MOL
REMARK 922        TOTAL FREE ENERGY PREDICTED BY IDOCK:    6.99 KCAL/MOL
REMARK 923 INTER-LIGAND FREE ENERGY PREDICTED BY IDOCK:    3.65 KCAL/MOL
REMARK 924 INTRA-LIGAND FREE ENERGY PREDICTED BY IDOCK:    3.34 KCAL/MOL
REMARK 927      BINDING AFFINITY PREDICTED BY RF-SCORE:    0.00 PKD
ROOT
HETATM    1  C   UNL     1      -5.232   4.280  70.269  1.00  0.00    -0.004 C  
HETATM    2  O   UNL     1      -6.234   3.981  69.292  1.00  0.00    -0.026 OA 
ENDROOT
BRANCH   2   3
HETATM    3  C   UNL     1      -7.171   4.957  69.182  1.00  0.00    -0.053 C  
HETATM    4  O   UNL     1      -8.316   4.876  69.603  1.00  0.00    -0.082 OA 
BRANCH   3   5
HETATM    5  C   UNL     1      -6.645   6.129  68.438  1.00  0.00    -0.058 C  
HETATM    6  C   UNL     1      -5.760   6.971  69.025  1.00  0.00    -0.018 C  
HETATM    7  C   UNL     1      -5.128   6.803  70.386  1.00  0.00    -0.015 C  
HETATM    8  N   UNL     1      -5.377   8.127  68.368  1.00  0.00    -0.032 NA 
HETATM    9  C   UNL     1      -5.958   8.610  67.211  1.00  0.00    -0.051 C  
HETATM   10  C   UNL     1      -6.860   7.851  66.544  1.00  0.00    -0.070 C  
HETATM   11  C   UNL     1      -5.489   9.979  66.776  1.00  0.00    -0.045 C  
HETATM   12  C   UNL     1      -7.210   6.435  67.040  1.00  0.00    -0.074 C  
BRANCH  10  13
HETATM   13  C   UNL     1      -7.435   8.346  65.260  1.00  0.00    -0.086 C  
HETATM   14  O   UNL     1      -6.794   8.650  64.265  1.00  0.00    -0.074 OA 
BRANCH  13  15
HETATM   15  O   UNL     1      -8.783   8.206  65.289  1.00  0.00    -0.147 OA 
BRANCH  15  16
HETATM   16  C   UNL     1      -9.473   9.144  64.446  1.00  0.00     0.483 C  
BRANCH  16  17
HETATM   17  C   UNL     1     -10.030  10.223  65.389  1.00  0.00    -0.302 C  
BRANCH  17  18
HETATM   18  N   UNL     1      -9.517  11.588  65.223  1.00  0.00    -0.215 NA 
HETATM   19  C   UNL     1      -9.632  12.016  63.826  1.00  0.00    -0.071 C  
BRANCH  18  20
HETATM   20  C   UNL     1     -10.280  12.518  66.091  1.00  0.00    -0.252 C  
BRANCH  20  21
HETATM   21  C   UNL     1     -10.732  11.883  67.394  1.00  0.00    -0.271 A  
HETATM   22  C   UNL     1      -9.915  11.943  68.532  1.00  0.00    -0.196 A  
HETATM   23  C   UNL     1     -10.279  11.284  69.705  1.00  0.00     0.262 A  
HETATM   24  C   UNL     1     -11.471  10.564  69.758  1.00  0.00    -0.365 A  
HETATM   25  C   UNL     1     -12.304  10.512  68.642  1.00  0.00     0.777 A  
HETATM   26  C   UNL     1     -11.941  11.170  67.464  1.00  0.00     0.297 A  
ENDBRANCH  20  21
ENDBRANCH  18  20
ENDBRANCH  17  18
ENDBRANCH  16  17
ENDBRANCH  15  16
ENDBRANCH  13  15
ENDBRANCH  10  13
BRANCH  12  27
HETATM   27  C   UNL     1      -8.717   6.169  66.973  1.00  0.00    -0.107 A  
HETATM   28  C   UNL     1     -10.654   5.294  65.800  1.00  0.00     0.013 A  
HETATM   29  O   UNL     1     -11.291   7.401  69.995  1.00  0.00    -0.227 OA 
HETATM   30  C   UNL     1      -9.563   6.624  68.004  1.00  0.00    -0.123 A  
HETATM   31  O   UNL     1     -13.036   6.650  68.900  1.00  0.00     4.166 OA 
HETATM   32  C   UNL     1     -10.942   6.402  67.928  1.00  0.00    -0.325 A  
HETATM   33  C   UNL     1      -9.277   5.491  65.881  1.00  0.00    -0.158 A  
HETATM   34  C   UNL     1     -11.493   5.751  66.819  1.00  0.00     0.693 A  
HETATM   35  N   UNL     1     -11.818   6.849  69.019  1.00  0.00     0.406 N  
ENDBRANCH  12  27
ENDBRANCH   3   5
ENDBRANCH   2   3
TORSDOF 10
ENDMDL
MODEL      324
REMARK 921   NORMALIZED FREE ENERGY PREDICTED BY IDOCK:    5.46 KCAL/MOL
REMARK 922        TOTAL FREE ENERGY PREDICTED BY IDOCK:    7.13 KCAL/MOL
REMARK 923 INTER-LIGAND FREE ENERGY PREDICTED BY IDOCK:    0.35 KCAL/MOL
REMARK 924 INTRA-LIGAND FREE ENERGY PREDICTED BY IDOCK:    6.78 KCAL/MOL
REMARK 927      BINDING AFFINITY PREDICTED BY RF-SCORE:    0.00 PKD
ROOT
HETATM    1  C   UNL     1      -8.614  20.121  67.161  1.00  0.00    -0.343 C  
HETATM    2  O   UNL     1      -7.493  19.996  68.042  1.00  0.00    -0.296 OA 
ENDROOT
BRANCH   2   3
HETATM    3  C   UNL     1      -7.269  18.715  68.432  1.00  0.00    -0.280 C  
HETATM    4  O   UNL     1      -6.619  18.388  69.413  1.00  0.00    -0.262 OA 
BRANCH   3   5
HETATM    5  C   UNL     1      -7.875  17.748  67.481  1.00  0.00    -0.214 C  
HETATM    6  C   UNL     1      -7.677  17.884  66.148  1.00  0.00    -0.237 C  
HETATM    7  C   UNL     1      -6.782  18.895  65.472  1.00  0.00    -0.292 C  
HETATM    8  N   UNL     1      -8.350  17.054  65.269  1.00  0.00     0.998 NA 
HETATM    9  C   UNL     1      -9.369  16.190  65.619  1.00  0.00    -0.046 C  
HETATM   10  C   UNL     1      -9.655  15.981  66.926  1.00  0.00    -0.239 C  
HETATM   11  C   UNL     1     -10.070  15.516  64.461  1.00  0.00     0.980 C  
HETATM   12  C   UNL     1      -8.825  16.667  68.028  1.00  0.00    -0.206 C  
BRANCH  10  13
HETATM   13  C   UNL     1     -10.710  14.997  67.304  1.00  0.00    -0.298 C  
HETATM   14  O   UNL     1     -11.285  14.950  68.381  1.00  0.00    -0.266 OA 
BRANCH  13  15
HETATM   15  O   UNL     1     -11.084  14.297  66.205  1.00  0.00    -0.312 OA 
BRANCH  15  16
HETATM   16  C   UNL     1     -11.764  13.068  66.513  1.00  0.00    -0.382 C  
BRANCH  16  17
HETATM   17  C   UNL     1     -10.661  12.046  66.828  1.00  0.00    -0.243 C  
BRANCH  17  18
HETATM   18  N   UNL     1     -10.550  11.586  68.218  1.00  0.00    -0.191 NA 
HETATM   19  C   UNL     1     -11.594  12.196  69.047  1.00  0.00    -0.319 C  
BRANCH  18  20
HETATM   20  C   UNL     1     -10.677  10.109  68.267  1.00  0.00    -0.238 C  
BRANCH  20  21
HETATM   21  C   UNL     1     -10.691   9.558  69.681  1.00  0.00    -0.257 A  
HETATM   22  C   UNL     1      -9.494   9.172  70.302  1.00  0.00    -0.253 A  
HETATM   23  C   UNL     1      -9.506   8.579  71.564  1.00  0.00    -0.290 A  
HETATM   24  C   UNL     1     -10.715   8.371  72.225  1.00  0.00    -0.417 A  
HETATM   25  C   UNL     1     -11.911   8.768  71.630  1.00  0.00    -0.399 A  
HETATM   26  C   UNL     1     -11.902   9.361  70.365  1.00  0.00    -0.140 A  
ENDBRANCH  20  21
ENDBRANCH  18  20
ENDBRANCH  17  18
ENDBRANCH  16  17
ENDBRANCH  15  16
ENDBRANCH  13  15
ENDBRANCH  10  13
BRANCH  12  27
HETATM   27  C   UNL     1      -9.714  17.215  69.149  1.00  0.00    -0.150 A  
HETATM   28  C   UNL     1     -10.704  19.090  70.329  1.00  0.00     2.077 A  
HETATM   29  O   UNL     1     -11.560  14.703  71.897  1.00  0.00    -0.240 OA 
HETATM   30  C   UNL     1     -10.303  16.335  70.078  1.00  0.00    -0.095 A  
HETATM   31  O   UNL     1     -12.407  16.410  72.982  1.00  0.00    -0.476 OA 
HETATM   32  C   UNL     1     -11.094  16.839  71.116  1.00  0.00     0.526 A  
HETATM   33  C   UNL     1      -9.936  18.592  69.278  1.00  0.00    -0.113 A  
HETATM   34  C   UNL     1     -11.283  18.218  71.254  1.00  0.00     3.732 A  
HETATM   35  N   UNL     1     -11.732  15.918  72.065  1.00  0.00    -0.464 N  
ENDBRANCH  12  27
ENDBRANCH   3   5
ENDBRANCH   2   3
TORSDOF 10
ENDMDL
MODEL      325
REMARK 921   NORMALIZED FREE ENERGY PREDICTED BY IDOCK:    6.09 KCAL/MOL
REMARK 922        TOTAL FREE ENERGY PREDICTED BY IDOCK:    8.13 KCAL/MOL
REMARK 923 INTER-LIGAND FREE ENERGY PREDICTED BY IDOCK:    6.46 KCAL/MOL
REMARK 924 INTRA-LIGAND FREE ENERGY PREDICTED BY IDOCK:    1.67 KCAL/MOL
REMARK 927      BINDING AFFINITY PREDICTED BY RF-SCORE:    0.00 PKD
ROOT
HETATM    1  C   UNL     1     -11.423   7.591  65.453  1.00  0.00     8.179 C  
HETATM    2  O   UNL     1     -10.372   8.517  65.160  1.00  0.00     1.786 OA 
ENDROOT
BRANCH   2   3
HETATM    3  C   UNL     1     -10.448   9.652  65.902  1.00  0.00     0.103 C  
HETATM    4  O   UNL     1     -11.462  10.063  66.447  1.00  0.00     0.548 OA 
BRANCH   3   5
HETATM    5  C   UNL     1      -9.147  10.367  65.930  1.00  0.00    -0.192 C  
HETATM    6  C   UNL     1      -8.025   9.762  65.472  1.00  0.00    -0.123 C  
HETATM    7  C   UNL     1      -7.941   8.409  64.806  1.00  0.00    -0.138 C  
HETATM    8  N   UNL     1      -6.800  10.389  65.622  1.00  0.00    -0.132 NA 
HETATM    9  C   UNL     1      -6.580  11.528  66.371  1.00  0.00     0.042 C  
HETATM   10  C   UNL     1      -7.633  12.212  66.881  1.00  0.00    -0.029 C  
HETATM   11  C   UNL     1      -5.131  11.928  66.529  1.00  0.00     0.088 C  
HETATM   12  C   UNL     1      -9.076  11.753  66.595  1.00  0.00    -0.194 C  
BRANCH  10  13
HETATM   13  C   UNL     1      -7.398  13.479  67.632  1.00  0.00    -0.174 C  
HETATM   14  O   UNL     1      -6.697  13.595  68.626  1.00  0.00    -0.087 OA 
BRANCH  13  15
HETATM   15  O   UNL     1      -7.905  14.519  66.926  1.00  0.00    -0.076 OA 
BRANCH  15  16
HETATM   16  C   UNL     1      -7.371  15.794  67.322  1.00  0.00    -0.222 C  
BRANCH  16  17
HETATM   17  C   UNL     1      -8.068  16.834  66.432  1.00  0.00    -0.320 C  
BRANCH  17  18
HETATM   18  N   UNL     1      -8.462  18.100  67.063  1.00  0.00    -0.239 NA 
HETATM   19  C   UNL     1      -9.253  17.850  68.271  1.00  0.00    -0.282 C  
BRANCH  18  20
HETATM   20  C   UNL     1      -7.251  18.882  67.415  1.00  0.00    -0.213 C  
BRANCH  20  21
HETATM   21  C   UNL     1      -6.635  19.597  66.227  1.00  0.00    -0.206 A  
HETATM   22  C   UNL     1      -6.814  19.096  64.929  1.00  0.00     0.232 A  
HETATM   23  C   UNL     1      -6.176  19.692  63.842  1.00  0.00     0.057 A  
HETATM   24  C   UNL     1      -5.357  20.803  64.038  1.00  0.00    -0.240 A  
HETATM   25  C   UNL     1      -5.186  21.325  65.319  1.00  0.00    -0.183 A  
HETATM   26  C   UNL     1      -5.823  20.728  66.410  1.00  0.00    -0.252 A  
ENDBRANCH  20  21
ENDBRANCH  18  20
ENDBRANCH  17  18
ENDBRANCH  16  17
ENDBRANCH  15  16
ENDBRANCH  13  15
ENDBRANCH  10  13
BRANCH  12  27
HETATM   27  C   UNL     1      -9.950  11.819  67.851  1.00  0.00    -0.187 A  
HETATM   28  C   UNL     1     -11.594  12.969  69.218  1.00  0.00    -0.367 A  
HETATM   29  O   UNL     1      -9.809   8.865  70.771  1.00  0.00    -0.189 OA 
HETATM   30  C   UNL     1      -9.857  10.812  68.832  1.00  0.00    -0.209 A  
HETATM   31  O   UNL     1     -11.257   9.941  72.017  1.00  0.00     0.217 OA 
HETATM   32  C   UNL     1     -10.638  10.888  69.990  1.00  0.00     0.116 A  
HETATM   33  C   UNL     1     -10.836  12.887  68.051  1.00  0.00    -0.261 A  
HETATM   34  C   UNL     1     -11.496  11.974  70.193  1.00  0.00    -0.102 A  
HETATM   35  N   UNL     1     -10.562   9.822  70.997  1.00  0.00    -0.294 N  
ENDBRANCH  12  27
ENDBRANCH   3   5
ENDBRANCH   2   3
TORSDOF 10
ENDMDL
MODEL      326
REMARK 921   NORMALIZED FREE ENERGY PREDICTED BY IDOCK:    6.43 KCAL/MOL
REMARK 922        TOTAL FREE ENERGY PREDICTED BY IDOCK:    8.68 KCAL/MOL
REMARK 923 INTER-LIGAND FREE ENERGY PREDICTED BY IDOCK:    4.97 KCAL/MOL
REMARK 924 INTRA-LIGAND FREE ENERGY PREDICTED BY IDOCK:    3.71 KCAL/MOL
REMARK 927      BINDING AFFINITY PREDICTED BY RF-SCORE:    0.00 PKD
ROOT
HETATM    1  C   UNL     1      -7.995  20.220  66.763  1.00  0.00    -0.283 C  
HETATM    2  O   UNL     1      -6.609  20.033  67.069  1.00  0.00    -0.201 OA 
ENDROOT
BRANCH   2   3
HETATM    3  C   UNL     1      -6.259  18.724  67.149  1.00  0.00    -0.178 C  
HETATM    4  O   UNL     1      -5.129  18.316  67.368  1.00  0.00    -0.137 OA 
BRANCH   3   5
HETATM    5  C   UNL     1      -7.422  17.838  66.886  1.00  0.00    -0.230 C  
HETATM    6  C   UNL     1      -7.826  17.599  65.616  1.00  0.00     0.369 C  
HETATM    7  C   UNL     1      -7.143  18.067  64.353  1.00  0.00     4.325 C  
HETATM    8  N   UNL     1      -8.985  16.877  65.391  1.00  0.00     0.163 NA 
HETATM    9  C   UNL     1      -9.893  16.514  66.367  1.00  0.00    -0.293 C  
HETATM   10  C   UNL     1      -9.592  16.710  67.674  1.00  0.00    -0.239 C  
HETATM   11  C   UNL     1     -11.169  15.882  65.859  1.00  0.00     0.065 C  
HETATM   12  C   UNL     1      -8.227  17.297  68.081  1.00  0.00    -0.231 C  
BRANCH  10  13
HETATM   13  C   UNL     1     -10.544  16.255  68.728  1.00  0.00    -0.298 C  
HETATM   14  O   UNL     1     -10.418  16.446  69.928  1.00  0.00    -0.277 OA 
BRANCH  13  15
HETATM   15  O   UNL     1     -11.671  15.785  68.141  1.00  0.00    -0.316 OA 
BRANCH  15  16
HETATM   16  C   UNL     1     -12.435  14.911  68.988  1.00  0.00     0.092 C  
BRANCH  16  17
HETATM   17  C   UNL     1     -11.830  13.511  68.800  1.00  0.00    -0.355 C  
BRANCH  17  18
HETATM   18  N   UNL     1     -11.850  12.610  69.960  1.00  0.00    -0.319 NA 
HETATM   19  C   UNL     1     -12.796  13.092  70.970  1.00  0.00    -0.198 C  
BRANCH  18  20
HETATM   20  C   UNL     1     -12.239  11.246  69.526  1.00  0.00    -0.256 C  
BRANCH  20  21
HETATM   21  C   UNL     1     -11.166  10.206  69.792  1.00  0.00    -0.325 A  
HETATM   22  C   UNL     1     -11.043   9.624  71.062  1.00  0.00    -0.438 A  
HETATM   23  C   UNL     1     -10.004   8.738  71.342  1.00  0.00    -0.354 A  
HETATM   24  C   UNL     1      -9.078   8.415  70.351  1.00  0.00    -0.155 A  
HETATM   25  C   UNL     1      -9.198   8.969  69.078  1.00  0.00    -0.140 A  
HETATM   26  C   UNL     1     -10.238   9.859  68.796  1.00  0.00    -0.205 A  
ENDBRANCH  20  21
ENDBRANCH  18  20
ENDBRANCH  17  18
ENDBRANCH  16  17
ENDBRANCH  15  16
ENDBRANCH  13  15
ENDBRANCH  10  13
BRANCH  12  27
HETATM   27  C   UNL     1      -8.370  18.349  69.185  1.00  0.00     0.051 A  
HETATM   28  C   UNL     1      -9.700  20.003  70.363  1.00  0.00     0.967 A  
HETATM   29  O   UNL     1      -5.198  19.342  71.681  1.00  0.00    -0.338 OA 
HETATM   30  C   UNL     1      -7.265  18.678  69.996  1.00  0.00     0.699 A  
HETATM   31  O   UNL     1      -6.398  20.867  72.702  1.00  0.00     0.824 OA 
HETATM   32  C   UNL     1      -7.391  19.658  70.987  1.00  0.00     1.390 A  
HETATM   33  C   UNL     1      -9.588  19.010  69.391  1.00  0.00    -0.035 A  
HETATM   34  C   UNL     1      -8.604  20.334  71.162  1.00  0.00     2.017 A  
HETATM   35  N   UNL     1      -6.248  19.978  71.851  1.00  0.00    -0.190 N  
ENDBRANCH  12  27
ENDBRANCH   3   5
ENDBRANCH   2   3
TORSDOF 10
ENDMDL
MODEL      327
REMARK 921   NORMALIZED FREE ENERGY PREDICTED BY IDOCK:    6.91 KCAL/MOL
REMARK 922        TOTAL FREE ENERGY PREDICTED BY IDOCK:    9.42 KCAL/MOL
REMARK 923 INTER-LIGAND FREE ENERGY PREDICTED BY IDOCK:    6.05 KCAL/MOL
REMARK 924 INTRA-LIGAND FREE ENERGY PREDICTED BY IDOCK:    3.38 KCAL/MOL
REMARK 927      BINDING AFFINITY PREDICTED BY RF-SCORE:    0.00 PKD
ROOT
HETATM    1  C   UNL     1      -8.275  20.049  66.741  1.00  0.00    -0.318 C  
HETATM    2  O   UNL     1      -6.870  20.031  67.014  1.00  0.00    -0.209 OA 
ENDROOT
BRANCH   2   3
HETATM    3  C   UNL     1      -6.351  18.777  67.025  1.00  0.00    -0.179 C  
HETATM    4  O   UNL     1      -5.159  18.515  67.087  1.00  0.00    -0.132 OA 
BRANCH   3   5
HETATM    5  C   UNL     1      -7.418  17.751  66.900  1.00  0.00    -0.230 C  
HETATM    6  C   UNL     1      -7.883  17.393  65.679  1.00  0.00     0.490 C  
HETATM    7  C   UNL     1      -7.354  17.860  64.344  1.00  0.00     5.513 C  
HETATM    8  N   UNL     1      -8.962  16.532  65.584  1.00  0.00    -0.391 NA 
HETATM    9  C   UNL     1      -9.748  16.127  66.646  1.00  0.00    -0.244 C  
HETATM   10  C   UNL     1      -9.377  16.433  67.912  1.00  0.00    -0.214 C  
HETATM   11  C   UNL     1     -10.974  15.326  66.273  1.00  0.00    -0.300 C  
HETATM   12  C   UNL     1      -8.064  17.193  68.180  1.00  0.00    -0.219 C  
BRANCH  10  13
HETATM   13  C   UNL     1     -10.189  15.936  69.060  1.00  0.00    -0.227 C  
HETATM   14  O   UNL     1     -10.180  16.401  70.190  1.00  0.00    -0.044 OA 
BRANCH  13  15
HETATM   15  O   UNL     1     -11.092  15.031  68.612  1.00  0.00    -0.243 OA 
BRANCH  15  16
HETATM   16  C   UNL     1     -11.284  13.923  69.507  1.00  0.00    -0.184 C  
BRANCH  16  17
HETATM   17  C   UNL     1     -10.476  12.759  68.913  1.00  0.00    -0.078 C  
BRANCH  17  18
HETATM   18  N   UNL     1     -11.062  11.416  69.010  1.00  0.00    -0.225 NA 
HETATM   19  C   UNL     1     -12.065  11.368  70.078  1.00  0.00    -0.340 C  
BRANCH  18  20
HETATM   20  C   UNL     1     -11.696  11.053  67.718  1.00  0.00    -0.088 C  
BRANCH  20  21
HETATM   21  C   UNL     1     -10.689  10.787  66.614  1.00  0.00    -0.268 A  
HETATM   22  C   UNL     1     -10.480  11.736  65.603  1.00  0.00    -0.308 A  
HETATM   23  C   UNL     1      -9.627  11.462  64.535  1.00  0.00    -0.221 A  
HETATM   24  C   UNL     1      -8.965  10.237  64.468  1.00  0.00    -0.247 A  
HETATM   25  C   UNL     1      -9.147   9.291  65.475  1.00  0.00    -0.275 A  
HETATM   26  C   UNL     1     -10.003   9.563  66.546  1.00  0.00    -0.329 A  
ENDBRANCH  20  21
ENDBRANCH  18  20
ENDBRANCH  17  18
ENDBRANCH  16  17
ENDBRANCH  15  16
ENDBRANCH  13  15
ENDBRANCH  10  13
BRANCH  12  27
HETATM   27  C   UNL     1      -8.249  18.286  69.238  1.00  0.00     0.213 A  
HETATM   28  C   UNL     1      -9.629  19.967  70.315  1.00  0.00     0.865 A  
HETATM   29  O   UNL     1      -5.157  19.416  71.775  1.00  0.00    -0.357 OA 
HETATM   30  C   UNL     1      -7.170  18.661  70.064  1.00  0.00     0.699 A  
HETATM   31  O   UNL     1      -6.402  20.964  72.703  1.00  0.00     0.824 OA 
HETATM   32  C   UNL     1      -7.334  19.677  71.012  1.00  0.00     1.390 A  
HETATM   33  C   UNL     1      -9.480  18.939  69.385  1.00  0.00     0.060 A  
HETATM   34  C   UNL     1      -8.558  20.344  71.128  1.00  0.00     2.057 A  
HETATM   35  N   UNL     1      -6.218  20.045  71.892  1.00  0.00    -0.190 N  
ENDBRANCH  12  27
ENDBRANCH   3   5
ENDBRANCH   2   3
TORSDOF 10
ENDMDL
MODEL      328
REMARK 921   NORMALIZED FREE ENERGY PREDICTED BY IDOCK:    6.94 KCAL/MOL
REMARK 922        TOTAL FREE ENERGY PREDICTED BY IDOCK:    9.48 KCAL/MOL
REMARK 923 INTER-LIGAND FREE ENERGY PREDICTED BY IDOCK:    5.82 KCAL/MOL
REMARK 924 INTRA-LIGAND FREE ENERGY PREDICTED BY IDOCK:    3.66 KCAL/MOL
REMARK 927      BINDING AFFINITY PREDICTED BY RF-SCORE:    0.00 PKD
ROOT
HETATM    1  C   UNL     1      -8.232  20.385  66.622  1.00  0.00    -0.173 C  
HETATM    2  O   UNL     1      -6.948  20.641  67.202  1.00  0.00    -0.277 OA 
ENDROOT
BRANCH   2   3
HETATM    3  C   UNL     1      -6.256  19.504  67.472  1.00  0.00    -0.194 C  
HETATM    4  O   UNL     1      -5.135  19.469  67.959  1.00  0.00    -0.170 OA 
BRANCH   3   5
HETATM    5  C   UNL     1      -7.015  18.298  67.055  1.00  0.00    -0.210 C  
HETATM    6  C   UNL     1      -7.021  17.908  65.758  1.00  0.00    -0.199 C  
HETATM    7  C   UNL     1      -6.225  18.524  64.632  1.00  0.00     0.191 C  
HETATM    8  N   UNL     1      -7.833  16.860  65.362  1.00  0.00     0.764 NA 
HETATM    9  C   UNL     1      -8.800  16.267  66.150  1.00  0.00    -0.327 C  
HETATM   10  C   UNL     1      -8.887  16.586  67.464  1.00  0.00    -0.198 C  
HETATM   11  C   UNL     1      -9.680  15.261  65.445  1.00  0.00    -0.243 C  
HETATM   12  C   UNL     1      -7.887  17.573  68.096  1.00  0.00    -0.244 C  
BRANCH  10  13
HETATM   13  C   UNL     1      -9.886  15.894  68.328  1.00  0.00    -0.217 C  
HETATM   14  O   UNL     1     -10.331  16.324  69.382  1.00  0.00    -0.245 OA 
BRANCH  13  15
HETATM   15  O   UNL     1     -10.383  14.820  67.668  1.00  0.00    -0.236 OA 
BRANCH  15  16
HETATM   16  C   UNL     1     -10.282  13.594  68.411  1.00  0.00    -0.245 C  
BRANCH  16  17
HETATM   17  C   UNL     1      -9.430  12.650  67.549  1.00  0.00    -0.186 C  
BRANCH  17  18
HETATM   18  N   UNL     1      -9.734  11.216  67.623  1.00  0.00    -0.168 NA 
HETATM   19  C   UNL     1     -10.326  10.750  66.366  1.00  0.00    -0.248 C  
BRANCH  18  20
HETATM   20  C   UNL     1      -8.491  10.455  67.898  1.00  0.00    -0.114 C  
BRANCH  20  21
HETATM   21  C   UNL     1      -8.571   9.614  69.159  1.00  0.00    -0.146 A  
HETATM   22  C   UNL     1      -7.592   8.647  69.429  1.00  0.00    -0.092 A  
HETATM   23  C   UNL     1      -7.707   7.808  70.536  1.00  0.00    -0.088 A  
HETATM   24  C   UNL     1      -8.799   7.931  71.394  1.00  0.00    -0.158 A  
HETATM   25  C   UNL     1      -9.770   8.901  71.150  1.00  0.00    -0.344 A  
HETATM   26  C   UNL     1      -9.658   9.742  70.040  1.00  0.00    -0.282 A  
ENDBRANCH  20  21
ENDBRANCH  18  20
ENDBRANCH  17  18
ENDBRANCH  16  17
ENDBRANCH  15  16
ENDBRANCH  13  15
ENDBRANCH  10  13
BRANCH  12  27
HETATM   27  C   UNL     1      -8.585  18.565  69.032  1.00  0.00    -0.078 A  
HETATM   28  C   UNL     1     -10.505  19.938  69.596  1.00  0.00     0.324 A  
HETATM   29  O   UNL     1      -6.710  20.055  72.429  1.00  0.00     0.319 OA 
HETATM   30  C   UNL     1      -7.909  19.069  70.161  1.00  0.00     1.225 A  
HETATM   31  O   UNL     1      -8.433  21.328  72.897  1.00  0.00     3.066 OA 
HETATM   32  C   UNL     1      -8.539  19.993  71.001  1.00  0.00     2.125 A  
HETATM   33  C   UNL     1      -9.892  18.998  68.770  1.00  0.00    -0.485 A  
HETATM   34  C   UNL     1      -9.832  20.443  70.711  1.00  0.00     1.592 A  
HETATM   35  N   UNL     1      -7.844  20.494  72.193  1.00  0.00     1.788 N  
ENDBRANCH  12  27
ENDBRANCH   3   5
ENDBRANCH   2   3
TORSDOF 10
ENDMDL
MODEL      329
REMARK 921   NORMALIZED FREE ENERGY PREDICTED BY IDOCK:    7.43 KCAL/MOL
REMARK 922        TOTAL FREE ENERGY PREDICTED BY IDOCK:   10.26 KCAL/MOL
REMARK 923 INTER-LIGAND FREE ENERGY PREDICTED BY IDOCK:   -3.55 KCAL/MOL
REMARK 924 INTRA-LIGAND FREE ENERGY PREDICTED BY IDOCK:   13.81 KCAL/MOL
REMARK 927      BINDING AFFINITY PREDICTED BY RF-SCORE:    0.00 PKD
ROOT
HETATM    1  C   UNL     1      -7.063   7.145  69.466  1.00  0.00    -0.071 C  
HETATM    2  O   UNL     1      -7.952   7.872  70.319  1.00  0.00    -0.098 OA 
ENDROOT
BRANCH   2   3
HETATM    3  C   UNL     1      -9.257   7.712  69.980  1.00  0.00    -0.151 C  
HETATM    4  O   UNL     1      -9.949   6.757  70.300  1.00  0.00    -0.178 OA 
BRANCH   3   5
HETATM    5  C   UNL     1      -9.732   8.827  69.122  1.00  0.00    -0.175 C  
HETATM    6  C   UNL     1     -10.720   9.648  69.552  1.00  0.00    -0.232 C  
HETATM    7  C   UNL     1     -11.370   9.634  70.916  1.00  0.00    -0.431 C  
HETATM    8  N   UNL     1     -11.240  10.601  68.694  1.00  0.00    -0.262 NA 
HETATM    9  C   UNL     1     -10.964  10.684  67.343  1.00  0.00    -0.298 C  
HETATM   10  C   UNL     1      -9.994   9.905  66.805  1.00  0.00    -0.272 C  
HETATM   11  C   UNL     1     -11.783  11.698  66.578  1.00  0.00    -0.034 C  
HETATM   12  C   UNL     1      -9.169   8.958  67.696  1.00  0.00    -0.151 C  
BRANCH  10  13
HETATM   13  C   UNL     1      -9.651  10.046  65.361  1.00  0.00    -0.279 C  
HETATM   14  O   UNL     1      -9.299   9.138  64.623  1.00  0.00    -0.083 OA 
BRANCH  13  15
HETATM   15  O   UNL     1      -9.989  11.289  64.938  1.00  0.00    -0.243 OA 
BRANCH  15  16
HETATM   16  C   UNL     1     -10.544  12.115  65.975  1.00  0.00    -0.257 C  
BRANCH  16  17
HETATM   17  C   UNL     1     -10.761  13.496  65.338  1.00  0.00    -0.304 C  
BRANCH  17  18
HETATM   18  N   UNL     1      -9.570  14.325  65.112  1.00  0.00     0.070 NA 
HETATM   19  C   UNL     1      -9.869  15.737  65.369  1.00  0.00    -0.177 C  
BRANCH  18  20
HETATM   20  C   UNL     1      -8.474  13.879  66.007  1.00  0.00     1.248 C  
BRANCH  20  21
HETATM   21  C   UNL     1      -7.986  14.970  66.943  1.00  0.00    -0.109 A  
HETATM   22  C   UNL     1      -6.740  15.579  66.731  1.00  0.00     0.614 A  
HETATM   23  C   UNL     1      -6.242  16.515  67.636  1.00  0.00    -0.167 A  
HETATM   24  C   UNL     1      -6.989  16.861  68.761  1.00  0.00    -0.204 A  
HETATM   25  C   UNL     1      -8.237  16.280  68.975  1.00  0.00    -0.238 A  
HETATM   26  C   UNL     1      -8.738  15.341  68.070  1.00  0.00    -0.160 A  
ENDBRANCH  20  21
ENDBRANCH  18  20
ENDBRANCH  17  18
ENDBRANCH  16  17
ENDBRANCH  15  16
ENDBRANCH  13  15
ENDBRANCH  10  13
BRANCH  12  27
HETATM   27  C   UNL     1      -8.978   7.587  67.039  1.00  0.00    -0.143 A  
HETATM   28  C   UNL     1      -9.375   5.193  67.002  1.00  0.00    -0.127 A  
HETATM   29  O   UNL     1      -6.654   7.103  63.627  1.00  0.00    -0.043 OA 
HETATM   30  C   UNL     1      -8.162   7.457  65.898  1.00  0.00    -0.134 A  
HETATM   31  O   UNL     1      -6.982   4.935  63.637  1.00  0.00    -0.045 OA 
HETATM   32  C   UNL     1      -7.968   6.199  65.315  1.00  0.00    -0.115 A  
HETATM   33  C   UNL     1      -9.592   6.446  67.573  1.00  0.00    -0.129 A  
HETATM   34  C   UNL     1      -8.561   5.063  65.875  1.00  0.00    -0.124 A  
HETATM   35  N   UNL     1      -7.143   6.070  64.107  1.00  0.00    -0.051 N  
ENDBRANCH  12  27
ENDBRANCH   3   5
ENDBRANCH   2   3
TORSDOF 10
ENDMDL
MODEL      330
REMARK 921   NORMALIZED FREE ENERGY PREDICTED BY IDOCK:    7.63 KCAL/MOL
REMARK 922        TOTAL FREE ENERGY PREDICTED BY IDOCK:   10.58 KCAL/MOL
REMARK 923 INTER-LIGAND FREE ENERGY PREDICTED BY IDOCK:    1.93 KCAL/MOL
REMARK 924 INTRA-LIGAND FREE ENERGY PREDICTED BY IDOCK:    8.65 KCAL/MOL
REMARK 927      BINDING AFFINITY PREDICTED BY RF-SCORE:    0.00 PKD
ROOT
HETATM    1  C   UNL     1      -7.106   7.293  69.020  1.00  0.00    -0.080 C  
HETATM    2  O   UNL     1      -7.390   7.944  67.777  1.00  0.00    -0.091 OA 
ENDROOT
BRANCH   2   3
HETATM    3  C   UNL     1      -8.720   8.115  67.562  1.00  0.00    -0.129 C  
HETATM    4  O   UNL     1      -9.257   8.096  66.465  1.00  0.00    -0.165 OA 
BRANCH   3   5
HETATM    5  C   UNL     1      -9.441   8.379  68.833  1.00  0.00    -0.147 C  
HETATM    6  C   UNL     1      -9.730   7.362  69.680  1.00  0.00    -0.163 C  
HETATM    7  C   UNL     1      -9.299   5.922  69.534  1.00  0.00    -0.156 C  
HETATM    8  N   UNL     1     -10.513   7.602  70.796  1.00  0.00    -0.208 NA 
HETATM    9  C   UNL     1     -11.194   8.777  71.046  1.00  0.00    -0.273 C  
HETATM   10  C   UNL     1     -10.983   9.859  70.258  1.00  0.00    -0.366 C  
HETATM   11  C   UNL     1     -12.122   8.744  72.239  1.00  0.00    -0.423 C  
HETATM   12  C   UNL     1      -9.956   9.802  69.112  1.00  0.00    -0.195 C  
BRANCH  10  13
HETATM   13  C   UNL     1     -11.668  11.146  70.572  1.00  0.00    -0.293 C  
HETATM   14  O   UNL     1     -11.727  11.669  71.675  1.00  0.00     0.976 OA 
BRANCH  13  15
HETATM   15  O   UNL     1     -12.033  11.753  69.416  1.00  0.00    -0.306 OA 
BRANCH  15  16
HETATM   16  C   UNL     1     -12.521  13.092  69.602  1.00  0.00     0.073 C  
BRANCH  16  17
HETATM   17  C   UNL     1     -11.283  14.001  69.543  1.00  0.00    -0.199 C  
BRANCH  17  18
HETATM   18  N   UNL     1     -11.422  15.277  68.830  1.00  0.00    -0.312 NA 
HETATM   19  C   UNL     1     -12.769  15.411  68.270  1.00  0.00     1.291 C  
BRANCH  18  20
HETATM   20  C   UNL     1     -11.156  16.401  69.761  1.00  0.00    -0.305 C  
BRANCH  20  21
HETATM   21  C   UNL     1     -11.489  16.071  71.205  1.00  0.00    -0.470 A  
HETATM   22  C   UNL     1     -11.072  14.857  71.769  1.00  0.00     0.155 A  
HETATM   23  C   UNL     1     -11.451  14.505  73.063  1.00  0.00     0.707 A  
HETATM   24  C   UNL     1     -12.247  15.368  73.815  1.00  0.00    -0.714 A  
HETATM   25  C   UNL     1     -12.653  16.588  73.276  1.00  0.00    -0.291 A  
HETATM   26  C   UNL     1     -12.275  16.942  71.978  1.00  0.00     1.085 A  
ENDBRANCH  20  21
ENDBRANCH  18  20
ENDBRANCH  17  18
ENDBRANCH  16  17
ENDBRANCH  15  16
ENDBRANCH  13  15
ENDBRANCH  10  13
BRANCH  12  27
HETATM   27  C   UNL     1     -10.492  10.465  67.839  1.00  0.00    -0.248 A  
HETATM   28  C   UNL     1     -12.352  11.265  66.501  1.00  0.00     2.408 A  
HETATM   29  O   UNL     1      -7.966  11.617  64.745  1.00  0.00     1.005 OA 
HETATM   30  C   UNL     1      -9.608  10.819  66.799  1.00  0.00    -0.201 A  
HETATM   31  O   UNL     1      -9.662  12.290  63.529  1.00  0.00    -0.301 OA 
HETATM   32  C   UNL     1     -10.103  11.401  65.627  1.00  0.00    -0.248 A  
HETATM   33  C   UNL     1     -11.863  10.708  67.681  1.00  0.00     0.546 A  
HETATM   34  C   UNL     1     -11.477  11.610  65.468  1.00  0.00    -0.168 A  
HETATM   35  N   UNL     1      -9.178  11.797  64.558  1.00  0.00     0.134 N  
ENDBRANCH  12  27
ENDBRANCH   3   5
ENDBRANCH   2   3
TORSDOF 10
ENDMDL
MODEL      331
REMARK 921   NORMALIZED FREE ENERGY PREDICTED BY IDOCK:    9.11 KCAL/MOL
REMARK 922        TOTAL FREE ENERGY PREDICTED BY IDOCK:   12.92 KCAL/MOL
REMARK 923 INTER-LIGAND FREE ENERGY PREDICTED BY IDOCK:    9.29 KCAL/MOL
REMARK 924 INTRA-LIGAND FREE ENERGY PREDICTED BY IDOCK:    3.63 KCAL/MOL
REMARK 927      BINDING AFFINITY PREDICTED BY RF-SCORE:    0.00 PKD
ROOT
HETATM    1  C   UNL     1      -8.739   7.796  71.641  1.00  0.00    -0.118 C  
HETATM    2  O   UNL     1      -8.435   9.053  71.027  1.00  0.00    -0.185 OA 
ENDROOT
BRANCH   2   3
HETATM    3  C   UNL     1      -7.536   9.782  71.737  1.00  0.00     1.518 C  
HETATM    4  O   UNL     1      -7.315   9.646  72.931  1.00  0.00     0.850 OA 
BRANCH   3   5
HETATM    5  C   UNL     1      -6.882  10.808  70.885  1.00  0.00     0.990 C  
HETATM    6  C   UNL     1      -5.845  11.535  71.365  1.00  0.00     0.558 C  
HETATM    7  C   UNL     1      -5.164  11.355  72.701  1.00  0.00     0.545 C  
HETATM    8  N   UNL     1      -5.329  12.573  70.609  1.00  0.00    -0.142 NA 
HETATM    9  C   UNL     1      -5.899  13.069  69.453  1.00  0.00    -0.096 C  
HETATM   10  C   UNL     1      -6.946  12.421  68.887  1.00  0.00    -0.091 C  
HETATM   11  C   UNL     1      -5.252  14.318  68.898  1.00  0.00    -0.087 C  
HETATM   12  C   UNL     1      -7.478  11.112  69.499  1.00  0.00     0.018 C  
BRANCH  10  13
HETATM   13  C   UNL     1      -7.515  12.919  67.602  1.00  0.00    -0.148 C  
HETATM   14  O   UNL     1      -7.498  12.319  66.537  1.00  0.00     0.147 OA 
BRANCH  13  15
HETATM   15  O   UNL     1      -8.239  14.040  67.837  1.00  0.00    -0.134 OA 
BRANCH  15  16
HETATM   16  C   UNL     1      -7.465  15.249  67.758  1.00  0.00    -0.160 C  
BRANCH  16  17
HETATM   17  C   UNL     1      -7.375  15.592  66.263  1.00  0.00     1.220 C  
BRANCH  17  18
HETATM   18  N   UNL     1      -7.880  16.906  65.845  1.00  0.00    -0.333 NA 
HETATM   19  C   UNL     1      -9.311  16.833  65.535  1.00  0.00     0.426 C  
BRANCH  18  20
HETATM   20  C   UNL     1      -7.657  17.895  66.928  1.00  0.00    -0.210 C  
BRANCH  20  21
HETATM   21  C   UNL     1      -8.945  18.385  67.564  1.00  0.00    -0.271 A  
HETATM   22  C   UNL     1      -9.978  18.900  66.767  1.00  0.00    -0.403 A  
HETATM   23  C   UNL     1     -11.125  19.437  67.349  1.00  0.00    -0.278 A  
HETATM   24  C   UNL     1     -11.259  19.457  68.736  1.00  0.00     1.654 A  
HETATM   25  C   UNL     1     -10.250  18.931  69.541  1.00  0.00     0.304 A  
HETATM   26  C   UNL     1      -9.099  18.393  68.961  1.00  0.00    -0.082 A  
ENDBRANCH  20  21
ENDBRANCH  18  20
ENDBRANCH  17  18
ENDBRANCH  16  17
ENDBRANCH  15  16
ENDBRANCH  13  15
ENDBRANCH  10  13
BRANCH  12  27
HETATM   27  C   UNL     1      -9.010  11.082  69.528  1.00  0.00     0.355 A  
HETATM   28  C   UNL     1     -11.110  10.023  68.928  1.00  0.00    -0.219 A  
HETATM   29  O   UNL     1     -11.221  14.104  71.332  1.00  0.00     0.547 OA 
HETATM   30  C   UNL     1      -9.727  12.137  70.126  1.00  0.00     3.244 A  
HETATM   31  O   UNL     1     -13.110  13.160  70.739  1.00  0.00    -0.066 OA 
HETATM   32  C   UNL     1     -11.126  12.120  70.129  1.00  0.00     0.586 A  
HETATM   33  C   UNL     1      -9.716  10.022  68.944  1.00  0.00    -0.181 A  
HETATM   34  C   UNL     1     -11.821  11.072  69.516  1.00  0.00    -0.404 A  
HETATM   35  N   UNL     1     -11.871  13.205  70.780  1.00  0.00    -0.065 N  
ENDBRANCH  12  27
ENDBRANCH   3   5
ENDBRANCH   2   3
TORSDOF 10
ENDMDL
MODEL      332
REMARK 921   NORMALIZED FREE ENERGY PREDICTED BY IDOCK:   10.06 KCAL/MOL
REMARK 922        TOTAL FREE ENERGY PREDICTED BY IDOCK:   14.42 KCAL/MOL
REMARK 923 INTER-LIGAND FREE ENERGY PREDICTED BY IDOCK:    8.36 KCAL/MOL
REMARK 924 INTRA-LIGAND FREE ENERGY PREDICTED BY IDOCK:    6.06 KCAL/MOL
REMARK 927      BINDING AFFINITY PREDICTED BY RF-SCORE:    0.00 PKD
ROOT
HETATM    1  C   UNL     1      -9.433   9.804  68.183  1.00  0.00    -0.135 C  
HETATM    2  O   UNL     1      -8.508   8.713  68.160  1.00  0.00    -0.128 OA 
ENDROOT
BRANCH   2   3
HETATM    3  C   UNL     1      -7.461   8.891  69.006  1.00  0.00    -0.074 C  
HETATM    4  O   UNL     1      -6.548   9.685  68.829  1.00  0.00    -0.047 OA 
BRANCH   3   5
HETATM    5  C   UNL     1      -7.535   7.960  70.160  1.00  0.00    -0.078 C  
HETATM    6  C   UNL     1      -6.704   8.116  71.219  1.00  0.00    -0.046 C  
HETATM    7  C   UNL     1      -5.721   9.243  71.431  1.00  0.00    -0.067 C  
HETATM    8  N   UNL     1      -6.696   7.169  72.228  1.00  0.00    -0.056 NA 
HETATM    9  C   UNL     1      -7.347   5.951  72.175  1.00  0.00    -0.094 C  
HETATM   10  C   UNL     1      -8.201   5.688  71.157  1.00  0.00    -0.121 C  
HETATM   11  C   UNL     1      -7.051   5.011  73.321  1.00  0.00    -0.081 C  
HETATM   12  C   UNL     1      -8.485   6.752  70.079  1.00  0.00    -0.140 C  
BRANCH  10  13
HETATM   13  C   UNL     1      -8.954   4.401  71.138  1.00  0.00    -0.121 C  
HETATM   14  O   UNL     1      -8.566   3.359  70.633  1.00  0.00    -0.066 OA 
BRANCH  13  15
HETATM   15  O   UNL     1     -10.037   4.504  71.947  1.00  0.00    -0.183 OA 
BRANCH  15  16
HETATM   16  C   UNL     1     -11.282   4.255  71.272  1.00  0.00     1.827 C  
BRANCH  16  17
HETATM   17  C   UNL     1     -11.811   5.634  70.849  1.00  0.00     0.846 C  
BRANCH  17  18
HETATM   18  N   UNL     1     -11.415   6.128  69.524  1.00  0.00    -0.381 NA 
HETATM   19  C   UNL     1     -12.512   5.968  68.565  1.00  0.00     5.926 C  
BRANCH  18  20
HETATM   20  C   UNL     1     -11.041   7.561  69.616  1.00  0.00    -0.085 C  
BRANCH  20  21
HETATM   21  C   UNL     1     -11.588   8.242  70.857  1.00  0.00    -0.282 A  
HETATM   22  C   UNL     1     -10.776   8.412  71.988  1.00  0.00    -0.387 A  
HETATM   23  C   UNL     1     -11.296   8.953  73.163  1.00  0.00     1.593 A  
HETATM   24  C   UNL     1     -12.634   9.338  73.220  1.00  0.00     1.881 A  
HETATM   25  C   UNL     1     -13.449   9.194  72.099  1.00  0.00    -0.530 A  
HETATM   26  C   UNL     1     -12.931   8.651  70.920  1.00  0.00     0.165 A  
ENDBRANCH  20  21
ENDBRANCH  18  20
ENDBRANCH  17  18
ENDBRANCH  16  17
ENDBRANCH  15  16
ENDBRANCH  13  15
ENDBRANCH  10  13
BRANCH  12  27
HETATM   27  C   UNL     1      -8.501   6.144  68.674  1.00  0.00    -0.114 A  
HETATM   28  C   UNL     1      -9.579   5.838  66.521  1.00  0.00    -0.175 A  
HETATM   29  O   UNL     1      -5.486   3.605  67.356  1.00  0.00    -0.018 OA 
HETATM   30  C   UNL     1      -7.475   5.267  68.270  1.00  0.00    -0.076 A  
HETATM   31  O   UNL     1      -6.498   3.300  65.434  1.00  0.00    -0.031 OA 
HETATM   32  C   UNL     1      -7.505   4.692  66.994  1.00  0.00    -0.086 A  
HETATM   33  C   UNL     1      -9.542   6.433  67.781  1.00  0.00    -0.123 A  
HETATM   34  C   UNL     1      -8.566   4.964  66.123  1.00  0.00    -0.116 A  
HETATM   35  N   UNL     1      -6.419   3.803  66.565  1.00  0.00    -0.036 N  
ENDBRANCH  12  27
ENDBRANCH   3   5
ENDBRANCH   2   3
TORSDOF 10
ENDMDL
MODEL      333
REMARK 921   NORMALIZED FREE ENERGY PREDICTED BY IDOCK:   11.72 KCAL/MOL
REMARK 922        TOTAL FREE ENERGY PREDICTED BY IDOCK:   17.05 KCAL/MOL
REMARK 923 INTER-LIGAND FREE ENERGY PREDICTED BY IDOCK:   -0.46 KCAL/MOL
REMARK 924 INTRA-LIGAND FREE ENERGY PREDICTED BY IDOCK:   17.52 KCAL/MOL
REMARK 927      BINDING AFFINITY PREDICTED BY RF-SCORE:    0.00 PKD
ROOT
HETATM    1  C   UNL     1     -12.332  12.628  69.553  1.00  0.00     0.055 C  
HETATM    2  O   UNL     1     -11.330  12.247  68.604  1.00  0.00    -0.244 OA 
ENDROOT
BRANCH   2   3
HETATM    3  C   UNL     1     -10.135  11.966  69.184  1.00  0.00     0.174 C  
HETATM    4  O   UNL     1      -9.772  12.385  70.273  1.00  0.00     3.093 OA 
BRANCH   3   5
HETATM    5  C   UNL     1      -9.293  11.119  68.301  1.00  0.00    -0.176 C  
HETATM    6  C   UNL     1      -9.090  11.469  67.009  1.00  0.00    -0.175 C  
HETATM    7  C   UNL     1      -9.557  12.739  66.338  1.00  0.00    -0.254 C  
HETATM    8  N   UNL     1      -8.411  10.607  66.165  1.00  0.00    -0.153 NA 
HETATM    9  C   UNL     1      -8.062   9.307  66.476  1.00  0.00    -0.104 C  
HETATM   10  C   UNL     1      -8.226   8.850  67.741  1.00  0.00    -0.110 C  
HETATM   11  C   UNL     1      -7.482   8.504  65.334  1.00  0.00    -0.086 C  
HETATM   12  C   UNL     1      -8.759   9.782  68.845  1.00  0.00    -0.136 C  
BRANCH  10  13
HETATM   13  C   UNL     1      -7.785   7.469  68.090  1.00  0.00    -0.120 C  
HETATM   14  O   UNL     1      -6.628   7.074  68.098  1.00  0.00    -0.051 OA 
BRANCH  13  15
HETATM   15  O   UNL     1      -8.833   6.779  68.601  1.00  0.00    -0.125 OA 
BRANCH  15  16
HETATM   16  C   UNL     1     -10.111   7.272  68.163  1.00  0.00    -0.173 C  
BRANCH  16  17
HETATM   17  C   UNL     1     -10.297   6.741  66.733  1.00  0.00    -0.215 C  
BRANCH  17  18
HETATM   18  N   UNL     1      -9.662   5.458  66.406  1.00  0.00    -0.157 NA 
HETATM   19  C   UNL     1     -10.235   4.897  65.179  1.00  0.00     0.160 C  
BRANCH  18  20
HETATM   20  C   UNL     1      -8.202   5.655  66.226  1.00  0.00    -0.108 C  
BRANCH  20  21
HETATM   21  C   UNL     1      -7.405   4.371  66.366  1.00  0.00    -0.081 A  
HETATM   22  C   UNL     1      -6.962   3.684  65.226  1.00  0.00    -0.061 A  
HETATM   23  C   UNL     1      -6.310   2.458  65.342  1.00  0.00    -0.024 A  
HETATM   24  C   UNL     1      -6.084   1.905  66.601  1.00  0.00    -0.023 A  
HETATM   25  C   UNL     1      -6.499   2.585  67.745  1.00  0.00    -0.032 A  
HETATM   26  C   UNL     1      -7.155   3.814  67.631  1.00  0.00    -0.055 A  
ENDBRANCH  20  21
ENDBRANCH  18  20
ENDBRANCH  17  18
ENDBRANCH  16  17
ENDBRANCH  15  16
ENDBRANCH  13  15
ENDBRANCH  10  13
BRANCH  12  27
HETATM   27  C   UNL     1      -9.796   9.080  69.727  1.00  0.00    -0.188 A  
HETATM   28  C   UNL     1     -10.921   7.056  70.455  1.00  0.00    -0.301 A  
HETATM   29  O   UNL     1     -12.257  11.201  72.319  1.00  0.00     0.739 OA 
HETATM   30  C   UNL     1     -10.631   9.834  70.575  1.00  0.00    -0.376 A  
HETATM   31  O   UNL     1     -13.298   9.370  72.928  1.00  0.00    -0.218 OA 
HETATM   32  C   UNL     1     -11.595   9.192  71.361  1.00  0.00    -0.341 A  
HETATM   33  C   UNL     1      -9.943   7.687  69.688  1.00  0.00    -0.185 A  
HETATM   34  C   UNL     1     -11.753   7.804  71.290  1.00  0.00    -0.311 A  
HETATM   35  N   UNL     1     -12.443   9.977  72.267  1.00  0.00    -0.102 N  
ENDBRANCH  12  27
ENDBRANCH   3   5
ENDBRANCH   2   3
TORSDOF 10
ENDMDL
MODEL      334
REMARK 921   NORMALIZED FREE ENERGY PREDICTED BY IDOCK:   15.16 KCAL/MOL
REMARK 922        TOTAL FREE ENERGY PREDICTED BY IDOCK:   22.50 KCAL/MOL
REMARK 923 INTER-LIGAND FREE ENERGY PREDICTED BY IDOCK:   10.76 KCAL/MOL
REMARK 924 INTRA-LIGAND FREE ENERGY PREDICTED BY IDOCK:   11.74 KCAL/MOL
REMARK 927      BINDING AFFINITY PREDICTED BY RF-SCORE:    0.00 PKD
ROOT
HETATM    1  C   UNL     1     -12.471  11.061  71.636  1.00  0.00    -0.205 C  
HETATM    2  O   UNL     1     -11.859  11.203  70.350  1.00  0.00    -0.329 OA 
ENDROOT
BRANCH   2   3
HETATM    3  C   UNL     1     -10.514  11.373  70.423  1.00  0.00     1.664 C  
HETATM    4  O   UNL     1      -9.695  10.466  70.422  1.00  0.00     0.191 OA 
BRANCH   3   5
HETATM    5  C   UNL     1     -10.157  12.809  70.555  1.00  0.00     4.533 C  
HETATM    6  C   UNL     1     -11.104  13.721  70.882  1.00  0.00     1.368 C  
HETATM    7  C   UNL     1     -12.541  13.433  71.248  1.00  0.00    -0.411 C  
HETATM    8  N   UNL     1     -10.787  15.068  70.876  1.00  0.00    -0.131 NA 
HETATM    9  C   UNL     1      -9.611  15.602  70.386  1.00  0.00     0.671 C  
HETATM   10  C   UNL     1      -8.597  14.779  70.026  1.00  0.00     0.630 C  
HETATM   11  C   UNL     1      -9.563  17.111  70.326  1.00  0.00     1.942 C  
HETATM   12  C   UNL     1      -8.728  13.254  70.199  1.00  0.00     3.653 C  
BRANCH  10  13
HETATM   13  C   UNL     1      -7.304  15.360  69.561  1.00  0.00    -0.209 C  
HETATM   14  O   UNL     1      -6.193  14.993  69.915  1.00  0.00    -0.134 OA 
BRANCH  13  15
HETATM   15  O   UNL     1      -7.538  16.209  68.531  1.00  0.00    -0.154 OA 
BRANCH  15  16
HETATM   16  C   UNL     1      -6.926  15.796  67.298  1.00  0.00    -0.197 C  
BRANCH  16  17
HETATM   17  C   UNL     1      -7.830  16.339  66.180  1.00  0.00     0.080 C  
BRANCH  17  18
HETATM   18  N   UNL     1      -9.269  16.423  66.462  1.00  0.00    -0.255 NA 
HETATM   19  C   UNL     1      -9.844  15.084  66.612  1.00  0.00    -0.254 C  
BRANCH  18  20
HETATM   20  C   UNL     1      -9.489  17.201  67.706  1.00  0.00    -0.253 C  
BRANCH  20  21
HETATM   21  C   UNL     1      -8.492  18.330  67.889  1.00  0.00    -0.263 A  
HETATM   22  C   UNL     1      -8.346  18.950  69.139  1.00  0.00    -0.061 A  
HETATM   23  C   UNL     1      -7.501  20.048  69.294  1.00  0.00    -0.049 A  
HETATM   24  C   UNL     1      -6.783  20.535  68.203  1.00  0.00    -0.310 A  
HETATM   25  C   UNL     1      -6.901  19.916  66.960  1.00  0.00    -0.236 A  
HETATM   26  C   UNL     1      -7.749  18.817  66.801  1.00  0.00    -0.252 A  
ENDBRANCH  20  21
ENDBRANCH  18  20
ENDBRANCH  17  18
ENDBRANCH  16  17
ENDBRANCH  15  16
ENDBRANCH  13  15
ENDBRANCH  10  13
BRANCH  12  27
HETATM   27  C   UNL     1      -8.191  12.497  68.980  1.00  0.00     0.367 A  
HETATM   28  C   UNL     1      -8.236  12.034  66.598  1.00  0.00    -0.056 A  
HETATM   29  O   UNL     1      -5.210   9.622  69.331  1.00  0.00    -0.035 OA 
HETATM   30  C   UNL     1      -7.198  11.511  69.141  1.00  0.00    -0.084 A  
HETATM   31  O   UNL     1      -5.299   9.180  67.185  1.00  0.00    -0.039 OA 
HETATM   32  C   UNL     1      -6.727  10.803  68.029  1.00  0.00    -0.064 A  
HETATM   33  C   UNL     1      -8.692  12.759  67.697  1.00  0.00    -0.180 A  
HETATM   34  C   UNL     1      -7.257  11.051  66.758  1.00  0.00    -0.139 A  
HETATM   35  N   UNL     1      -5.670   9.797  68.194  1.00  0.00    -0.040 N  
ENDBRANCH  12  27
ENDBRANCH   3   5
ENDBRANCH   2   3
TORSDOF 10
ENDMDL
MODEL      335
REMARK 921   NORMALIZED FREE ENERGY PREDICTED BY IDOCK:   16.15 KCAL/MOL
REMARK 922        TOTAL FREE ENERGY PREDICTED BY IDOCK:   24.07 KCAL/MOL
REMARK 923 INTER-LIGAND FREE ENERGY PREDICTED BY IDOCK:   11.77 KCAL/MOL
REMARK 924 INTRA-LIGAND FREE ENERGY PREDICTED BY IDOCK:   12.30 KCAL/MOL
REMARK 927      BINDING AFFINITY PREDICTED BY RF-SCORE:    0.00 PKD
ROOT
HETATM    1  C   UNL     1     -12.455  13.480  72.913  1.00  0.00     0.663 C  
HETATM    2  O   UNL     1     -12.534  13.514  71.485  1.00  0.00    -0.299 OA 
ENDROOT
BRANCH   2   3
HETATM    3  C   UNL     1     -12.476  12.279  70.924  1.00  0.00    -0.276 C  
HETATM    4  O   UNL     1     -13.376  11.453  70.960  1.00  0.00    -0.004 OA 
BRANCH   3   5
HETATM    5  C   UNL     1     -11.152  12.033  70.297  1.00  0.00     0.675 C  
HETATM    6  C   UNL     1     -10.481  10.883  70.545  1.00  0.00     1.018 C  
HETATM    7  C   UNL     1     -10.982   9.706  71.347  1.00  0.00    -0.354 C  
HETATM    8  N   UNL     1      -9.195  10.723  70.058  1.00  0.00     0.621 NA 
HETATM    9  C   UNL     1      -8.440  11.721  69.473  1.00  0.00     1.048 C  
HETATM   10  C   UNL     1      -9.011  12.915  69.183  1.00  0.00     0.713 C  
HETATM   11  C   UNL     1      -7.004  11.354  69.178  1.00  0.00    -0.118 C  
HETATM   12  C   UNL     1     -10.508  13.153  69.461  1.00  0.00     0.464 C  
BRANCH  10  13
HETATM   13  C   UNL     1      -8.213  13.966  68.490  1.00  0.00    -0.131 C  
HETATM   14  O   UNL     1      -7.206  14.500  68.931  1.00  0.00    -0.112 OA 
BRANCH  13  15
HETATM   15  O   UNL     1      -8.648  14.090  67.212  1.00  0.00    -0.197 OA 
BRANCH  15  16
HETATM   16  C   UNL     1     -10.078  14.021  67.084  1.00  0.00    -0.259 C  
BRANCH  16  17
HETATM   17  C   UNL     1     -10.474  15.189  66.168  1.00  0.00    -0.312 C  
BRANCH  17  18
HETATM   18  N   UNL     1     -11.446  16.155  66.695  1.00  0.00     0.345 NA 
HETATM   19  C   UNL     1     -12.694  15.481  67.066  1.00  0.00     2.149 C  
BRANCH  18  20
HETATM   20  C   UNL     1     -10.878  16.837  67.883  1.00  0.00    -0.311 C  
BRANCH  20  21
HETATM   21  C   UNL     1     -10.438  18.262  67.601  1.00  0.00    -0.431 A  
HETATM   22  C   UNL     1      -9.170  18.516  67.056  1.00  0.00    -0.284 A  
HETATM   23  C   UNL     1      -8.721  19.824  66.879  1.00  0.00    -0.389 A  
HETATM   24  C   UNL     1      -9.538  20.896  67.237  1.00  0.00    -0.386 A  
HETATM   25  C   UNL     1     -10.807  20.660  67.761  1.00  0.00     0.728 A  
HETATM   26  C   UNL     1     -11.259  19.350  67.940  1.00  0.00     0.246 A  
ENDBRANCH  20  21
ENDBRANCH  18  20
ENDBRANCH  17  18
ENDBRANCH  16  17
ENDBRANCH  15  16
ENDBRANCH  13  15
ENDBRANCH  10  13
BRANCH  12  27
HETATM   27  C   UNL     1     -10.755  14.531  70.083  1.00  0.00     0.110 A  
HETATM   28  C   UNL     1      -9.981  16.763  70.640  1.00  0.00     1.949 A  
HETATM   29  O   UNL     1     -14.341  15.468  71.964  1.00  0.00    -0.529 OA 
HETATM   30  C   UNL     1     -11.974  14.805  70.735  1.00  0.00    -0.371 A  
HETATM   31  O   UNL     1     -13.608  17.463  72.503  1.00  0.00     4.548 OA 
HETATM   32  C   UNL     1     -12.188  16.056  71.324  1.00  0.00    -0.350 A  
HETATM   33  C   UNL     1      -9.771  15.528  70.030  1.00  0.00    -0.050 A  
HETATM   34  C   UNL     1     -11.186  17.032  71.293  1.00  0.00     0.839 A  
HETATM   35  N   UNL     1     -13.470  16.349  71.976  1.00  0.00     0.815 N  
ENDBRANCH  12  27
ENDBRANCH   3   5
ENDBRANCH   2   3
TORSDOF 10
ENDMDL
MODEL      336
REMARK 921   NORMALIZED FREE ENERGY PREDICTED BY IDOCK:   16.18 KCAL/MOL
REMARK 922        TOTAL FREE ENERGY PREDICTED BY IDOCK:   24.12 KCAL/MOL
REMARK 923 INTER-LIGAND FREE ENERGY PREDICTED BY IDOCK:   13.37 KCAL/MOL
REMARK 924 INTRA-LIGAND FREE ENERGY PREDICTED BY IDOCK:   10.75 KCAL/MOL
REMARK 927      BINDING AFFINITY PREDICTED BY RF-SCORE:    0.00 PKD
ROOT
HETATM    1  C   UNL     1     -12.040  11.053  72.226  1.00  0.00     1.821 C  
HETATM    2  O   UNL     1     -11.920  11.111  70.800  1.00  0.00    -0.339 OA 
ENDROOT
BRANCH   2   3
HETATM    3  C   UNL     1     -10.647  11.339  70.388  1.00  0.00     1.203 C  
HETATM    4  O   UNL     1      -9.858  12.089  70.942  1.00  0.00     5.304 OA 
BRANCH   3   5
HETATM    5  C   UNL     1     -10.343  10.593  69.140  1.00  0.00    -0.242 C  
HETATM    6  C   UNL     1     -11.250  10.543  68.135  1.00  0.00    -0.293 C  
HETATM    7  C   UNL     1     -12.570  11.275  68.079  1.00  0.00     1.842 C  
HETATM    8  N   UNL     1     -11.007   9.742  67.033  1.00  0.00    -0.094 NA 
HETATM    9  C   UNL     1      -9.979   8.824  66.934  1.00  0.00    -0.257 C  
HETATM   10  C   UNL     1      -9.016   8.785  67.886  1.00  0.00    -0.142 C  
HETATM   11  C   UNL     1     -10.019   7.941  65.707  1.00  0.00     0.681 C  
HETATM   12  C   UNL     1      -9.036   9.785  69.058  1.00  0.00    -0.154 C  
BRANCH  10  13
HETATM   13  C   UNL     1      -7.872   7.841  67.741  1.00  0.00    -0.123 C  
HETATM   14  O   UNL     1      -6.710   8.082  68.036  1.00  0.00    -0.061 OA 
BRANCH  13  15
HETATM   15  O   UNL     1      -8.343   6.608  67.434  1.00  0.00    -0.120 OA 
BRANCH  15  16
HETATM   16  C   UNL     1      -7.962   5.597  68.382  1.00  0.00    -0.100 C  
BRANCH  16  17
HETATM   17  C   UNL     1      -9.274   4.954  68.859  1.00  0.00    -0.119 C  
BRANCH  17  18
HETATM   18  N   UNL     1     -10.513   5.706  68.625  1.00  0.00    -0.211 NA 
HETATM   19  C   UNL     1     -10.464   7.005  69.303  1.00  0.00    -0.210 C  
BRANCH  18  20
HETATM   20  C   UNL     1     -10.703   5.914  67.169  1.00  0.00    -0.306 C  
BRANCH  20  21
HETATM   21  C   UNL     1     -10.480   4.655  66.351  1.00  0.00    -0.207 A  
HETATM   22  C   UNL     1     -10.468   4.714  64.950  1.00  0.00     0.072 A  
HETATM   23  C   UNL     1     -10.356   3.550  64.190  1.00  0.00    -0.220 A  
HETATM   24  C   UNL     1     -10.246   2.313  64.822  1.00  0.00     0.516 A  
HETATM   25  C   UNL     1     -10.236   2.240  66.214  1.00  0.00     1.865 A  
HETATM   26  C   UNL     1     -10.350   3.405  66.978  1.00  0.00     1.513 A  
ENDBRANCH  20  21
ENDBRANCH  18  20
ENDBRANCH  17  18
ENDBRANCH  16  17
ENDBRANCH  15  16
ENDBRANCH  13  15
ENDBRANCH  10  13
BRANCH  12  27
HETATM   27  C   UNL     1      -8.714   9.101  70.391  1.00  0.00    -0.245 A  
HETATM   28  C   UNL     1      -9.067   7.296  71.974  1.00  0.00    -0.144 A  
HETATM   29  O   UNL     1      -6.009  10.739  73.089  1.00  0.00     0.804 OA 
HETATM   30  C   UNL     1      -7.810   9.699  71.292  1.00  0.00     0.560 A  
HETATM   31  O   UNL     1      -6.377   9.127  74.530  1.00  0.00    -0.306 OA 
HETATM   32  C   UNL     1      -7.537   9.086  72.520  1.00  0.00     0.491 A  
HETATM   33  C   UNL     1      -9.324   7.889  70.740  1.00  0.00    -0.161 A  
HETATM   34  C   UNL     1      -8.177   7.892  72.871  1.00  0.00    -0.195 A  
HETATM   35  N   UNL     1      -6.572   9.694  73.445  1.00  0.00     0.949 N  
ENDBRANCH  12  27
ENDBRANCH   3   5
ENDBRANCH   2   3
TORSDOF 10
ENDMDL
MODEL      337
REMARK 921   NORMALIZED FREE ENERGY PREDICTED BY IDOCK:   16.47 KCAL/MOL
REMARK 922        TOTAL FREE ENERGY PREDICTED BY IDOCK:   24.58 KCAL/MOL
REMARK 923 INTER-LIGAND FREE ENERGY PREDICTED BY IDOCK:   14.10 KCAL/MOL
REMARK 924 INTRA-LIGAND FREE ENERGY PREDICTED BY IDOCK:   10.49 KCAL/MOL
REMARK 927      BINDING AFFINITY PREDICTED BY RF-SCORE:    0.00 PKD
ROOT
HETATM    1  C   UNL     1     -12.052  11.089  72.260  1.00  0.00     1.821 C  
HETATM    2  O   UNL     1     -11.968  11.186  70.834  1.00  0.00    -0.331 OA 
ENDROOT
BRANCH   2   3
HETATM    3  C   UNL     1     -10.711  11.455  70.398  1.00  0.00     1.169 C  
HETATM    4  O   UNL     1      -9.935  12.228  70.940  1.00  0.00     5.392 OA 
BRANCH   3   5
HETATM    5  C   UNL     1     -10.409  10.726  69.140  1.00  0.00    -0.238 C  
HETATM    6  C   UNL     1     -11.336  10.646  68.156  1.00  0.00    -0.284 C  
HETATM    7  C   UNL     1     -12.682  11.330  68.133  1.00  0.00     2.264 C  
HETATM    8  N   UNL     1     -11.090   9.857  67.046  1.00  0.00    -0.029 NA 
HETATM    9  C   UNL     1     -10.032   8.978  66.919  1.00  0.00    -0.246 C  
HETATM   10  C   UNL     1      -9.048   8.970  67.850  1.00  0.00    -0.141 C  
HETATM   11  C   UNL     1     -10.069   8.098  65.691  1.00  0.00     1.069 C  
HETATM   12  C   UNL     1      -9.076   9.965  69.026  1.00  0.00    -0.164 C  
BRANCH  10  13
HETATM   13  C   UNL     1      -7.873   8.068  67.675  1.00  0.00    -0.122 C  
HETATM   14  O   UNL     1      -6.709   8.369  67.891  1.00  0.00    -0.063 OA 
BRANCH  13  15
HETATM   15  O   UNL     1      -8.308   6.805  67.445  1.00  0.00    -0.120 OA 
BRANCH  15  16
HETATM   16  C   UNL     1      -9.155   6.693  66.289  1.00  0.00    -0.145 C  
BRANCH  16  17
HETATM   17  C   UNL     1      -8.388   5.812  65.291  1.00  0.00    -0.146 C  
BRANCH  17  18
HETATM   18  N   UNL     1      -6.927   5.753  65.433  1.00  0.00    -0.062 NA 
HETATM   19  C   UNL     1      -6.339   7.085  65.266  1.00  0.00    -0.037 C  
BRANCH  18  20
HETATM   20  C   UNL     1      -6.577   5.221  66.772  1.00  0.00    -0.052 C  
BRANCH  20  21
HETATM   21  C   UNL     1      -7.345   3.963  67.135  1.00  0.00    -0.068 A  
HETATM   22  C   UNL     1      -8.606   3.717  66.572  1.00  0.00    -0.115 A  
HETATM   23  C   UNL     1      -9.359   2.613  66.968  1.00  0.00    -0.083 A  
HETATM   24  C   UNL     1      -8.858   1.735  67.928  1.00  0.00    -0.149 A  
HETATM   25  C   UNL     1      -7.598   1.955  68.482  1.00  0.00    -0.046 A  
HETATM   26  C   UNL     1      -6.841   3.062  68.087  1.00  0.00    -0.048 A  
ENDBRANCH  20  21
ENDBRANCH  18  20
ENDBRANCH  17  18
ENDBRANCH  16  17
ENDBRANCH  15  16
ENDBRANCH  13  15
ENDBRANCH  10  13
BRANCH  12  27
HETATM   27  C   UNL     1      -8.700   9.289  70.348  1.00  0.00    -0.263 A  
HETATM   28  C   UNL     1      -8.890   7.428  71.894  1.00  0.00    -0.128 A  
HETATM   29  O   UNL     1      -6.180  11.122  73.099  1.00  0.00     2.005 OA 
HETATM   30  C   UNL     1      -7.863   9.952  71.268  1.00  0.00     1.154 A  
HETATM   31  O   UNL     1      -6.403   9.455  74.506  1.00  0.00    -0.357 OA 
HETATM   32  C   UNL     1      -7.541   9.343  72.486  1.00  0.00     1.311 A  
HETATM   33  C   UNL     1      -9.195   8.018  70.669  1.00  0.00    -0.156 A  
HETATM   34  C   UNL     1      -8.067   8.088  72.809  1.00  0.00    -0.205 A  
HETATM   35  N   UNL     1      -6.644  10.022  73.430  1.00  0.00     1.711 N  
ENDBRANCH  12  27
ENDBRANCH   3   5
ENDBRANCH   2   3
TORSDOF 10
ENDMDL
MODEL      338
REMARK 921   NORMALIZED FREE ENERGY PREDICTED BY IDOCK:   17.22 KCAL/MOL
REMARK 922        TOTAL FREE ENERGY PREDICTED BY IDOCK:   25.77 KCAL/MOL
REMARK 923 INTER-LIGAND FREE ENERGY PREDICTED BY IDOCK:    2.85 KCAL/MOL
REMARK 924 INTRA-LIGAND FREE ENERGY PREDICTED BY IDOCK:   22.92 KCAL/MOL
REMARK 927      BINDING AFFINITY PREDICTED BY RF-SCORE:    0.00 PKD
ROOT
HETATM    1  C   UNL     1      -6.878  14.546  71.575  1.00  0.00     1.471 C  
HETATM    2  O   UNL     1      -6.718  13.164  71.240  1.00  0.00     1.065 OA 
ENDROOT
BRANCH   2   3
HETATM    3  C   UNL     1      -6.478  12.966  69.918  1.00  0.00     0.046 C  
HETATM    4  O   UNL     1      -5.489  12.411  69.464  1.00  0.00    -0.071 OA 
BRANCH   3   5
HETATM    5  C   UNL     1      -7.553  13.557  69.081  1.00  0.00     0.177 C  
HETATM    6  C   UNL     1      -7.873  13.002  67.887  1.00  0.00    -0.149 C  
HETATM    7  C   UNL     1      -7.310  11.725  67.311  1.00  0.00    -0.141 C  
HETATM    8  N   UNL     1      -8.785  13.635  67.061  1.00  0.00    -0.215 NA 
HETATM    9  C   UNL     1      -9.286  14.907  67.263  1.00  0.00    -0.204 C  
HETATM   10  C   UNL     1      -9.025  15.557  68.422  1.00  0.00    -0.189 C  
HETATM   11  C   UNL     1     -10.133  15.453  66.136  1.00  0.00    -0.325 C  
HETATM   12  C   UNL     1      -8.209  14.873  69.535  1.00  0.00    -0.033 C  
BRANCH  10  13
HETATM   13  C   UNL     1      -9.623  16.901  68.666  1.00  0.00    -0.265 C  
HETATM   14  O   UNL     1     -10.469  17.159  69.509  1.00  0.00    -0.286 OA 
BRANCH  13  15
HETATM   15  O   UNL     1      -8.938  17.832  67.959  1.00  0.00    -0.250 OA 
BRANCH  15  16
HETATM   16  C   UNL     1      -7.545  17.518  67.798  1.00  0.00    -0.193 C  
BRANCH  16  17
HETATM   17  C   UNL     1      -6.812  18.868  67.763  1.00  0.00    -0.207 C  
BRANCH  17  18
HETATM   18  N   UNL     1      -5.433  18.871  67.257  1.00  0.00    -0.157 NA 
HETATM   19  C   UNL     1      -5.214  17.738  66.353  1.00  0.00    -0.174 C  
BRANCH  18  20
HETATM   20  C   UNL     1      -5.169  20.139  66.535  1.00  0.00    -0.163 C  
BRANCH  20  21
HETATM   21  C   UNL     1      -5.675  20.130  65.105  1.00  0.00    -0.217 A  
HETATM   22  C   UNL     1      -5.523  18.986  64.307  1.00  0.00    -0.297 A  
HETATM   23  C   UNL     1      -5.901  18.998  62.966  1.00  0.00     0.556 A  
HETATM   24  C   UNL     1      -6.445  20.153  62.406  1.00  0.00     0.680 A  
HETATM   25  C   UNL     1      -6.622  21.292  63.190  1.00  0.00    -0.180 A  
HETATM   26  C   UNL     1      -6.242  21.282  64.535  1.00  0.00    -0.073 A  
ENDBRANCH  20  21
ENDBRANCH  18  20
ENDBRANCH  17  18
ENDBRANCH  16  17
ENDBRANCH  15  16
ENDBRANCH  13  15
ENDBRANCH  10  13
BRANCH  12  27
HETATM   27  C   UNL     1      -7.183  15.828  70.154  1.00  0.00     0.406 A  
HETATM   28  C   UNL     1      -5.155  16.204  71.432  1.00  0.00    -0.058 A  
HETATM   29  O   UNL     1      -7.606  19.955  69.894  1.00  0.00     0.039 OA 
HETATM   30  C   UNL     1      -7.373  17.222  70.068  1.00  0.00     1.226 A  
HETATM   31  O   UNL     1      -5.798  20.277  71.093  1.00  0.00    -0.414 OA 
HETATM   32  C   UNL     1      -6.448  18.092  70.656  1.00  0.00     1.152 A  
HETATM   33  C   UNL     1      -6.059  15.333  70.828  1.00  0.00     0.128 A  
HETATM   34  C   UNL     1      -5.346  17.585  71.353  1.00  0.00     0.122 A  
HETATM   35  N   UNL     1      -6.631  19.544  70.539  1.00  0.00     0.038 N  
ENDBRANCH  12  27
ENDBRANCH   3   5
ENDBRANCH   2   3
TORSDOF 10
ENDMDL
MODEL      339
REMARK 921   NORMALIZED FREE ENERGY PREDICTED BY IDOCK:   18.89 KCAL/MOL
REMARK 922        TOTAL FREE ENERGY PREDICTED BY IDOCK:   28.41 KCAL/MOL
REMARK 923 INTER-LIGAND FREE ENERGY PREDICTED BY IDOCK:   21.30 KCAL/MOL
REMARK 924 INTRA-LIGAND FREE ENERGY PREDICTED BY IDOCK:    7.11 KCAL/MOL
REMARK 927      BINDING AFFINITY PREDICTED BY RF-SCORE:    0.00 PKD
ROOT
HETATM    1  C   UNL     1      -7.056   7.217  68.997  1.00  0.00    -0.084 C  
HETATM    2  O   UNL     1      -7.677   7.821  67.858  1.00  0.00    -0.116 OA 
ENDROOT
BRANCH   2   3
HETATM    3  C   UNL     1      -9.013   8.002  68.021  1.00  0.00    -0.130 C  
HETATM    4  O   UNL     1      -9.853   7.820  67.152  1.00  0.00    -0.169 OA 
BRANCH   3   5
HETATM    5  C   UNL     1      -9.328   8.500  69.384  1.00  0.00    -0.154 C  
HETATM    6  C   UNL     1      -9.364   7.645  70.433  1.00  0.00    -0.160 C  
HETATM    7  C   UNL     1      -9.007   6.177  70.409  1.00  0.00    -0.151 C  
HETATM    8  N   UNL     1      -9.783   8.098  71.672  1.00  0.00    -0.167 NA 
HETATM    9  C   UNL     1     -10.351   9.334  71.911  1.00  0.00    -0.014 C  
HETATM   10  C   UNL     1     -10.371  10.268  70.930  1.00  0.00     0.532 C  
HETATM   11  C   UNL     1     -10.888   9.538  73.310  1.00  0.00     4.855 C  
HETATM   12  C   UNL     1      -9.727   9.976  69.561  1.00  0.00    -0.253 C  
BRANCH  10  13
HETATM   13  C   UNL     1     -10.923  11.624  71.211  1.00  0.00     3.598 C  
HETATM   14  O   UNL     1     -10.737  12.269  72.232  1.00  0.00     8.502 OA 
BRANCH  13  15
HETATM   15  O   UNL     1     -11.486  12.122  70.083  1.00  0.00    -0.170 OA 
BRANCH  15  16
HETATM   16  C   UNL     1     -11.656  13.549  70.109  1.00  0.00    -0.120 C  
BRANCH  16  17
HETATM   17  C   UNL     1     -10.277  14.141  69.778  1.00  0.00     0.501 C  
BRANCH  17  18
HETATM   18  N   UNL     1     -10.232  15.222  68.785  1.00  0.00    -0.220 NA 
HETATM   19  C   UNL     1      -9.631  16.427  69.363  1.00  0.00    -0.137 C  
BRANCH  18  20
HETATM   20  C   UNL     1      -9.441  14.788  67.608  1.00  0.00    -0.204 C  
BRANCH  20  21
HETATM   21  C   UNL     1      -8.281  13.878  67.971  1.00  0.00    -0.161 A  
HETATM   22  C   UNL     1      -8.452  12.856  68.916  1.00  0.00     0.294 A  
HETATM   23  C   UNL     1      -7.371  12.076  69.324  1.00  0.00     0.126 A  
HETATM   24  C   UNL     1      -6.106  12.302  68.785  1.00  0.00    -0.068 A  
HETATM   25  C   UNL     1      -5.923  13.301  67.830  1.00  0.00    -0.145 A  
HETATM   26  C   UNL     1      -7.005  14.085  67.421  1.00  0.00    -0.067 A  
ENDBRANCH  20  21
ENDBRANCH  18  20
ENDBRANCH  17  18
ENDBRANCH  16  17
ENDBRANCH  15  16
ENDBRANCH  13  15
ENDBRANCH  10  13
BRANCH  12  27
HETATM   27  C   UNL     1     -10.607  10.463  68.406  1.00  0.00    -0.238 A  
HETATM   28  C   UNL     1     -12.790  11.038  67.515  1.00  0.00     5.026 A  
HETATM   29  O   UNL     1      -9.022  11.308  64.657  1.00  0.00    -0.077 OA 
HETATM   30  C   UNL     1     -10.038  10.715  67.141  1.00  0.00    -0.248 A  
HETATM   31  O   UNL     1     -11.008  11.776  63.855  1.00  0.00    -0.343 OA 
HETATM   32  C   UNL     1     -10.849  11.135  66.080  1.00  0.00    -0.185 A  
HETATM   33  C   UNL     1     -11.985  10.643  68.582  1.00  0.00    -0.014 A  
HETATM   34  C   UNL     1     -12.228  11.281  66.260  1.00  0.00     1.931 A  
HETATM   35  N   UNL     1     -10.250  11.427  64.772  1.00  0.00    -0.267 N  
ENDBRANCH  12  27
ENDBRANCH   3   5
ENDBRANCH   2   3
TORSDOF 10
ENDMDL
MODEL      340
REMARK 921   NORMALIZED FREE ENERGY PREDICTED BY IDOCK:   19.41 KCAL/MOL
REMARK 922        TOTAL FREE ENERGY PREDICTED BY IDOCK:   29.23 KCAL/MOL
REMARK 923 INTER-LIGAND FREE ENERGY PREDICTED BY IDOCK:   22.81 KCAL/MOL
REMARK 924 INTRA-LIGAND FREE ENERGY PREDICTED BY IDOCK:    6.42 KCAL/MOL
REMARK 927      BINDING AFFINITY PREDICTED BY RF-SCORE:    0.00 PKD
ROOT
HETATM    1  C   UNL     1      -7.220   9.519  72.905  1.00  0.00     1.564 C  
HETATM    2  O   UNL     1      -6.256   8.976  71.998  1.00  0.00    -0.119 OA 
ENDROOT
BRANCH   2   3
HETATM    3  C   UNL     1      -5.749   9.907  71.148  1.00  0.00    -0.071 C  
HETATM    4  O   UNL     1      -5.343   9.673  70.020  1.00  0.00    -0.032 OA 
BRANCH   3   5
HETATM    5  C   UNL     1      -5.704  11.248  71.783  1.00  0.00     0.671 C  
HETATM    6  C   UNL     1      -5.567  11.366  73.125  1.00  0.00     1.465 C  
HETATM    7  C   UNL     1      -5.341  10.240  74.107  1.00  0.00     0.213 C  
HETATM    8  N   UNL     1      -5.655  12.614  73.715  1.00  0.00     0.238 NA 
HETATM    9  C   UNL     1      -6.055  13.768  73.070  1.00  0.00     0.997 C  
HETATM   10  C   UNL     1      -6.225  13.763  71.726  1.00  0.00     0.737 C  
HETATM   11  C   UNL     1      -6.241  14.975  73.961  1.00  0.00     1.929 C  
HETATM   12  C   UNL     1      -5.935  12.492  70.906  1.00  0.00     0.246 C  
BRANCH  10  13
HETATM   13  C   UNL     1      -6.591  15.027  71.023  1.00  0.00     0.561 C  
HETATM   14  O   UNL     1      -5.811  15.910  70.699  1.00  0.00    -0.079 OA 
BRANCH  13  15
HETATM   15  O   UNL     1      -7.879  14.954  70.609  1.00  0.00     0.778 OA 
BRANCH  15  16
HETATM   16  C   UNL     1      -8.054  15.275  69.219  1.00  0.00    -0.236 C  
BRANCH  16  17
HETATM   17  C   UNL     1      -9.345  14.566  68.784  1.00  0.00    -0.177 C  
BRANCH  17  18
HETATM   18  N   UNL     1     -10.523  15.407  68.538  1.00  0.00    -0.230 NA 
HETATM   19  C   UNL     1     -11.117  15.846  69.804  1.00  0.00    -0.324 C  
BRANCH  18  20
HETATM   20  C   UNL     1     -10.131  16.593  67.737  1.00  0.00    -0.275 C  
BRANCH  20  21
HETATM   21  C   UNL     1     -10.571  16.506  66.287  1.00  0.00    -0.223 A  
HETATM   22  C   UNL     1      -9.757  17.022  65.268  1.00  0.00     0.774 A  
HETATM   23  C   UNL     1     -10.193  17.030  63.944  1.00  0.00     6.115 A  
HETATM   24  C   UNL     1     -11.446  16.514  63.620  1.00  0.00     2.159 A  
HETATM   25  C   UNL     1     -12.259  15.980  64.618  1.00  0.00     0.487 A  
HETATM   26  C   UNL     1     -11.825  15.972  65.946  1.00  0.00     0.991 A  
ENDBRANCH  20  21
ENDBRANCH  18  20
ENDBRANCH  17  18
ENDBRANCH  16  17
ENDBRANCH  15  16
ENDBRANCH  13  15
ENDBRANCH  10  13
BRANCH  12  27
HETATM   27  C   UNL     1      -7.015  12.241  69.849  1.00  0.00     0.483 A  
HETATM   28  C   UNL     1      -9.348  11.949  69.245  1.00  0.00     0.621 A  
HETATM   29  O   UNL     1      -6.056  11.597  65.856  1.00  0.00     0.045 OA 
HETATM   30  C   UNL     1      -6.651  12.001  68.509  1.00  0.00    -0.062 A  
HETATM   31  O   UNL     1      -8.164  11.286  65.336  1.00  0.00     0.062 OA 
HETATM   32  C   UNL     1      -7.638  11.747  67.549  1.00  0.00    -0.135 A  
HETATM   33  C   UNL     1      -8.371  12.227  70.200  1.00  0.00     3.668 A  
HETATM   34  C   UNL     1      -8.986  11.704  67.918  1.00  0.00    -0.170 A  
HETATM   35  N   UNL     1      -7.259  11.528  66.148  1.00  0.00     0.137 N  
ENDBRANCH  12  27
ENDBRANCH   3   5
ENDBRANCH   2   3
TORSDOF 10
ENDMDL
MODEL      341
REMARK 921   NORMALIZED FREE ENERGY PREDICTED BY IDOCK:   20.55 KCAL/MOL
REMARK 922        TOTAL FREE ENERGY PREDICTED BY IDOCK:   31.04 KCAL/MOL
REMARK 923 INTER-LIGAND FREE ENERGY PREDICTED BY IDOCK:   19.84 KCAL/MOL
REMARK 924 INTRA-LIGAND FREE ENERGY PREDICTED BY IDOCK:   11.20 KCAL/MOL
REMARK 927      BINDING AFFINITY PREDICTED BY RF-SCORE:    0.00 PKD
ROOT
HETATM    1  C   UNL     1     -13.468   6.114  69.141  1.00  0.00    10.932 C  
HETATM    2  O   UNL     1     -13.242   7.480  68.777  1.00  0.00     6.437 OA 
ENDROOT
BRANCH   2   3
HETATM    3  C   UNL     1     -12.472   8.145  69.677  1.00  0.00     2.174 C  
HETATM    4  O   UNL     1     -12.689   9.278  70.077  1.00  0.00     0.649 OA 
BRANCH   3   5
HETATM    5  C   UNL     1     -11.295   7.335  70.081  1.00  0.00    -0.236 C  
HETATM    6  C   UNL     1     -10.924   7.270  71.382  1.00  0.00    -0.232 C  
HETATM    7  C   UNL     1     -11.658   7.872  72.557  1.00  0.00    -0.443 C  
HETATM    8  N   UNL     1      -9.754   6.618  71.728  1.00  0.00    -0.162 NA 
HETATM    9  C   UNL     1      -8.806   6.163  70.831  1.00  0.00    -0.136 C  
HETATM   10  C   UNL     1      -9.072   6.185  69.503  1.00  0.00    -0.140 C  
HETATM   11  C   UNL     1      -7.530   5.640  71.450  1.00  0.00    -0.095 C  
HETATM   12  C   UNL     1     -10.439   6.673  68.987  1.00  0.00    -0.243 C  
BRANCH  10  13
HETATM   13  C   UNL     1      -8.076   5.630  68.542  1.00  0.00    -0.103 C  
HETATM   14  O   UNL     1      -7.774   4.451  68.434  1.00  0.00    -0.074 OA 
BRANCH  13  15
HETATM   15  O   UNL     1      -7.712   6.597  67.665  1.00  0.00    -0.103 OA 
BRANCH  15  16
HETATM   16  C   UNL     1      -7.354   7.838  68.296  1.00  0.00    -0.102 C  
BRANCH  16  17
HETATM   17  C   UNL     1      -5.826   7.799  68.458  1.00  0.00    -0.031 C  
BRANCH  17  18
HETATM   18  N   UNL     1      -5.157   9.058  68.812  1.00  0.00    -0.033 NA 
HETATM   19  C   UNL     1      -5.342  10.055  67.753  1.00  0.00    -0.038 C  
BRANCH  18  20
HETATM   20  C   UNL     1      -5.711   9.577  70.086  1.00  0.00    -0.037 C  
BRANCH  20  21
HETATM   21  C   UNL     1      -7.158  10.021  69.971  1.00  0.00    -0.146 A  
HETATM   22  C   UNL     1      -7.510  11.074  69.114  1.00  0.00    -0.121 A  
HETATM   23  C   UNL     1      -8.819  11.550  69.071  1.00  0.00     0.139 A  
HETATM   24  C   UNL     1      -9.798  10.972  69.878  1.00  0.00     0.652 A  
HETATM   25  C   UNL     1      -9.469   9.910  70.720  1.00  0.00     0.239 A  
HETATM   26  C   UNL     1      -8.156   9.433  70.766  1.00  0.00    -0.157 A  
ENDBRANCH  20  21
ENDBRANCH  18  20
ENDBRANCH  17  18
ENDBRANCH  16  17
ENDBRANCH  15  16
ENDBRANCH  13  15
ENDBRANCH  10  13
BRANCH  12  27
HETATM   27  C   UNL     1     -10.290   7.582  67.763  1.00  0.00    -0.278 A  
HETATM   28  C   UNL     1     -11.145   9.342  66.327  1.00  0.00     1.187 A  
HETATM   29  O   UNL     1      -7.024   7.289  65.209  1.00  0.00    -0.053 OA 
HETATM   30  C   UNL     1      -9.182   7.436  66.905  1.00  0.00    -0.183 A  
HETATM   31  O   UNL     1      -7.834   8.846  63.894  1.00  0.00    -0.123 OA 
HETATM   32  C   UNL     1      -9.061   8.251  65.773  1.00  0.00    -0.114 A  
HETATM   33  C   UNL     1     -11.258   8.551  67.469  1.00  0.00     0.649 A  
HETATM   34  C   UNL     1     -10.050   9.194  65.473  1.00  0.00     0.286 A  
HETATM   35  N   UNL     1      -7.890   8.119  64.897  1.00  0.00    -0.120 N  
ENDBRANCH  12  27
ENDBRANCH   3   5
ENDBRANCH   2   3
TORSDOF 10
ENDMDL
MODEL      342
REMARK 921   NORMALIZED FREE ENERGY PREDICTED BY IDOCK:   24.25 KCAL/MOL
REMARK 922        TOTAL FREE ENERGY PREDICTED BY IDOCK:   36.91 KCAL/MOL
REMARK 923 INTER-LIGAND FREE ENERGY PREDICTED BY IDOCK:   31.12 KCAL/MOL
REMARK 924 INTRA-LIGAND FREE ENERGY PREDICTED BY IDOCK:    5.79 KCAL/MOL
REMARK 927      BINDING AFFINITY PREDICTED BY RF-SCORE:    0.00 PKD
ROOT
HETATM    1  C   UNL     1      -9.230  16.528  72.773  1.00  0.00    13.247 C  
HETATM    2  O   UNL     1      -9.762  15.366  72.127  1.00  0.00     2.817 OA 
ENDROOT
BRANCH   2   3
HETATM    3  C   UNL     1      -9.452  15.310  70.806  1.00  0.00     1.445 C  
HETATM    4  O   UNL     1      -9.863  16.090  69.959  1.00  0.00    -0.115 OA 
BRANCH   3   5
HETATM    5  C   UNL     1      -8.583  14.144  70.505  1.00  0.00     2.958 C  
HETATM    6  C   UNL     1      -7.258  14.317  70.288  1.00  0.00     0.475 C  
HETATM    7  C   UNL     1      -6.487  15.609  70.418  1.00  0.00     0.172 C  
HETATM    8  N   UNL     1      -6.485  13.243  69.883  1.00  0.00    -0.045 NA 
HETATM    9  C   UNL     1      -6.980  12.012  69.498  1.00  0.00     0.085 C  
HETATM   10  C   UNL     1      -8.295  11.732  69.668  1.00  0.00     1.253 C  
HETATM   11  C   UNL     1      -5.958  11.054  68.931  1.00  0.00    -0.040 C  
HETATM   12  C   UNL     1      -9.234  12.761  70.327  1.00  0.00     4.853 C  
BRANCH  10  13
HETATM   13  C   UNL     1      -8.814  10.380  69.316  1.00  0.00    -0.154 C  
HETATM   14  O   UNL     1      -9.712   9.790  69.898  1.00  0.00    -0.212 OA 
BRANCH  13  15
HETATM   15  O   UNL     1      -8.288   9.993  68.129  1.00  0.00    -0.112 OA 
BRANCH  15  16
HETATM   16  C   UNL     1      -7.781  11.085  67.343  1.00  0.00    -0.114 C  
BRANCH  16  17
HETATM   17  C   UNL     1      -6.577  10.523  66.571  1.00  0.00    -0.100 C  
BRANCH  17  18
HETATM   18  N   UNL     1      -6.085  11.308  65.432  1.00  0.00     0.187 NA 
HETATM   19  C   UNL     1      -5.311  12.462  65.897  1.00  0.00     2.483 C  
BRANCH  18  20
HETATM   20  C   UNL     1      -5.233  10.454  64.568  1.00  0.00    -0.139 C  
BRANCH  20  21
HETATM   21  C   UNL     1      -5.350   8.975  64.889  1.00  0.00    -0.042 A  
HETATM   22  C   UNL     1      -5.277   8.531  66.217  1.00  0.00    -0.031 A  
HETATM   23  C   UNL     1      -5.290   7.169  66.513  1.00  0.00    -0.023 A  
HETATM   24  C   UNL     1      -5.385   6.233  65.485  1.00  0.00    -0.014 A  
HETATM   25  C   UNL     1      -5.479   6.659  64.161  1.00  0.00    -0.027 A  
HETATM   26  C   UNL     1      -5.465   8.024  63.861  1.00  0.00    -0.048 A  
ENDBRANCH  20  21
ENDBRANCH  18  20
ENDBRANCH  17  18
ENDBRANCH  16  17
ENDBRANCH  15  16
ENDBRANCH  13  15
ENDBRANCH  10  13
BRANCH  12  27
HETATM   27  C   UNL     1     -10.572  12.860  69.588  1.00  0.00     0.564 A  
HETATM   28  C   UNL     1     -12.931  12.315  69.415  1.00  0.00     1.409 A  
HETATM   29  O   UNL     1     -10.931  14.894  65.981  1.00  0.00    -0.323 OA 
HETATM   30  C   UNL     1     -10.650  13.536  68.354  1.00  0.00    -0.258 A  
HETATM   31  O   UNL     1     -13.049  14.351  65.816  1.00  0.00    -0.363 OA 
HETATM   32  C   UNL     1     -11.869  13.604  67.669  1.00  0.00    -0.369 A  
HETATM   33  C   UNL     1     -11.726  12.266  70.115  1.00  0.00    -0.280 A  
HETATM   34  C   UNL     1     -13.007  12.980  68.189  1.00  0.00     2.400 A  
HETATM   35  N   UNL     1     -11.955  14.335  66.399  1.00  0.00    -0.418 N  
ENDBRANCH  12  27
ENDBRANCH   3   5
ENDBRANCH   2   3
TORSDOF 10
ENDMDL
MODEL      343
REMARK 921   NORMALIZED FREE ENERGY PREDICTED BY IDOCK:   40.37 KCAL/MOL
REMARK 922        TOTAL FREE ENERGY PREDICTED BY IDOCK:   62.45 KCAL/MOL
REMARK 923 INTER-LIGAND FREE ENERGY PREDICTED BY IDOCK:    9.84 KCAL/MOL
REMARK 924 INTRA-LIGAND FREE ENERGY PREDICTED BY IDOCK:   52.61 KCAL/MOL
REMARK 927      BINDING AFFINITY PREDICTED BY RF-SCORE:    0.00 PKD
ROOT
HETATM    1  C   UNL     1     -10.501   4.162  72.775  1.00  0.00    -0.167 C  
HETATM    2  O   UNL     1     -11.509   4.937  72.116  1.00  0.00     0.128 OA 
ENDROOT
BRANCH   2   3
HETATM    3  C   UNL     1     -11.626   6.191  72.625  1.00  0.00    -0.197 C  
HETATM    4  O   UNL     1     -12.607   6.614  73.218  1.00  0.00     1.446 OA 
BRANCH   3   5
HETATM    5  C   UNL     1     -10.423   7.008  72.325  1.00  0.00    -0.234 C  
HETATM    6  C   UNL     1     -10.486   8.360  72.375  1.00  0.00    -0.332 C  
HETATM    7  C   UNL     1     -11.668   9.189  72.820  1.00  0.00     0.717 C  
HETATM    8  N   UNL     1      -9.396   9.111  71.970  1.00  0.00    -0.264 NA 
HETATM    9  C   UNL     1      -8.278   8.605  71.336  1.00  0.00    -0.160 C  
HETATM   10  C   UNL     1      -8.115   7.265  71.227  1.00  0.00    -0.102 C  
HETATM   11  C   UNL     1      -7.297   9.640  70.833  1.00  0.00     0.016 C  
HETATM   12  C   UNL     1      -9.145   6.299  71.843  1.00  0.00    -0.143 C  
BRANCH  10  13
HETATM   13  C   UNL     1      -6.875   6.720  70.603  1.00  0.00    -0.058 C  
HETATM   14  O   UNL     1      -6.665   5.542  70.351  1.00  0.00    -0.044 OA 
BRANCH  13  15
HETATM   15  O   UNL     1      -6.105   7.745  70.165  1.00  0.00    -0.029 OA 
BRANCH  15  16
HETATM   16  C   UNL     1      -5.183   7.367  69.129  1.00  0.00    -0.015 C  
BRANCH  16  17
HETATM   17  C   UNL     1      -6.014   6.605  68.086  1.00  0.00    -0.024 C  
BRANCH  17  18
HETATM   18  N   UNL     1      -7.153   5.819  68.580  1.00  0.00    -0.075 NA 
HETATM   19  C   UNL     1      -8.066   6.665  69.353  1.00  0.00    -0.119 C  
BRANCH  18  20
HETATM   20  C   UNL     1      -7.881   5.221  67.434  1.00  0.00    -0.100 C  
BRANCH  20  21
HETATM   21  C   UNL     1      -8.984   6.114  66.895  1.00  0.00    -0.118 A  
HETATM   22  C   UNL     1      -9.049   6.411  65.526  1.00  0.00     0.111 A  
HETATM   23  C   UNL     1     -10.002   7.303  65.036  1.00  0.00     2.798 A  
HETATM   24  C   UNL     1     -10.908   7.904  65.909  1.00  0.00     2.714 A  
HETATM   25  C   UNL     1     -10.869   7.603  67.269  1.00  0.00    -0.263 A  
HETATM   26  C   UNL     1      -9.914   6.710  67.763  1.00  0.00    -0.158 A  
ENDBRANCH  20  21
ENDBRANCH  18  20
ENDBRANCH  17  18
ENDBRANCH  16  17
ENDBRANCH  15  16
ENDBRANCH  13  15
ENDBRANCH  10  13
BRANCH  12  27
HETATM   27  C   UNL     1      -9.469   5.138  70.898  1.00  0.00    -0.223 A  
HETATM   28  C   UNL     1     -10.974   3.389  70.144  1.00  0.00     4.148 A  
HETATM   29  O   UNL     1      -6.761   3.840  68.024  1.00  0.00    -0.045 OA 
HETATM   30  C   UNL     1      -8.516   4.709  69.953  1.00  0.00    -0.089 A  
HETATM   31  O   UNL     1      -8.112   2.234  67.389  1.00  0.00    -0.065 OA 
HETATM   32  C   UNL     1      -8.804   3.632  69.107  1.00  0.00    -0.102 A  
HETATM   33  C   UNL     1     -10.702   4.477  70.972  1.00  0.00     0.370 A  
HETATM   34  C   UNL     1     -10.027   2.959  69.212  1.00  0.00     0.573 A  
HETATM   35  N   UNL     1      -7.823   3.205  68.102  1.00  0.00    -0.059 N  
ENDBRANCH  12  27
ENDBRANCH   3   5
ENDBRANCH   2   3
TORSDOF 10
ENDMDL
MODEL      344
REMARK 921   NORMALIZED FREE ENERGY PREDICTED BY IDOCK:   46.69 KCAL/MOL
REMARK 922        TOTAL FREE ENERGY PREDICTED BY IDOCK:   72.46 KCAL/MOL
REMARK 923 INTER-LIGAND FREE ENERGY PREDICTED BY IDOCK:   56.88 KCAL/MOL
REMARK 924 INTRA-LIGAND FREE ENERGY PREDICTED BY IDOCK:   15.58 KCAL/MOL
REMARK 927      BINDING AFFINITY PREDICTED BY RF-SCORE:    0.00 PKD
ROOT
HETATM    1  C   UNL     1     -10.347   9.557  68.601  1.00  0.00    -0.205 C  
HETATM    2  O   UNL     1     -11.179  10.705  68.398  1.00  0.00    -0.254 OA 
ENDROOT
BRANCH   2   3
HETATM    3  C   UNL     1     -11.424  10.953  67.086  1.00  0.00     0.055 C  
HETATM    4  O   UNL     1     -12.373  10.509  66.457  1.00  0.00     2.591 OA 
BRANCH   3   5
HETATM    5  C   UNL     1     -10.359  11.798  66.489  1.00  0.00    -0.258 C  
HETATM    6  C   UNL     1     -10.449  13.149  66.540  1.00  0.00    -0.279 C  
HETATM    7  C   UNL     1     -11.509  13.952  67.255  1.00  0.00    -0.369 C  
HETATM    8  N   UNL     1      -9.518  13.922  65.870  1.00  0.00    -0.131 NA 
HETATM    9  C   UNL     1      -8.576  13.437  64.983  1.00  0.00     3.275 C  
HETATM   10  C   UNL     1      -8.403  12.100  64.851  1.00  0.00     1.891 C  
HETATM   11  C   UNL     1      -7.783  14.489  64.243  1.00  0.00    15.685 C  
HETATM   12  C   UNL     1      -9.218  11.117  65.713  1.00  0.00    -0.234 C  
BRANCH  10  13
HETATM   13  C   UNL     1      -7.340  11.579  63.944  1.00  0.00     2.159 C  
HETATM   14  O   UNL     1      -6.293  12.149  63.677  1.00  0.00     3.753 OA 
BRANCH  13  15
HETATM   15  O   UNL     1      -7.612  10.289  63.628  1.00  0.00    -0.150 OA 
BRANCH  15  16
HETATM   16  C   UNL     1      -8.091   9.515  64.741  1.00  0.00    -0.130 C  
BRANCH  16  17
HETATM   17  C   UNL     1      -6.841   8.914  65.401  1.00  0.00    -0.072 C  
BRANCH  17  18
HETATM   18  N   UNL     1      -6.587   9.268  66.804  1.00  0.00    -0.067 NA 
HETATM   19  C   UNL     1      -7.560   8.614  67.684  1.00  0.00    -0.098 C  
BRANCH  18  20
HETATM   20  C   UNL     1      -5.215   8.851  67.184  1.00  0.00    -0.036 C  
BRANCH  20  21
HETATM   21  C   UNL     1      -5.192   7.675  68.143  1.00  0.00    -0.026 A  
HETATM   22  C   UNL     1      -5.197   6.361  67.653  1.00  0.00    -0.005 A  
HETATM   23  C   UNL     1      -5.270   5.276  68.526  1.00  0.00     0.000 A  
HETATM   24  C   UNL     1      -5.330   5.491  69.902  1.00  0.00    -0.004 A  
HETATM   25  C   UNL     1      -5.306   6.791  70.405  1.00  0.00    -0.019 A  
HETATM   26  C   UNL     1      -5.234   7.880  69.533  1.00  0.00    -0.023 A  
ENDBRANCH  20  21
ENDBRANCH  18  20
ENDBRANCH  17  18
ENDBRANCH  16  17
ENDBRANCH  15  16
ENDBRANCH  13  15
ENDBRANCH  10  13
BRANCH  12  27
HETATM   27  C   UNL     1      -9.730   9.931  64.889  1.00  0.00    -0.332 A  
HETATM   28  C   UNL     1     -10.415   8.979  62.764  1.00  0.00     5.312 A  
HETATM   29  O   UNL     1     -10.642   6.278  66.649  1.00  0.00    -0.235 OA 
HETATM   30  C   UNL     1     -10.053   8.715  65.524  1.00  0.00     0.864 A  
HETATM   31  O   UNL     1     -11.304   5.449  64.730  1.00  0.00     1.649 OA 
HETATM   32  C   UNL     1     -10.544   7.642  64.772  1.00  0.00     7.151 A  
HETATM   33  C   UNL     1      -9.902  10.044  63.502  1.00  0.00     0.179 A  
HETATM   34  C   UNL     1     -10.742   7.776  63.394  1.00  0.00    12.602 A  
HETATM   35  N   UNL     1     -10.852   6.366  65.431  1.00  0.00     2.643 N  
ENDBRANCH  12  27
ENDBRANCH   3   5
ENDBRANCH   2   3
TORSDOF 10
ENDMDL
MODEL      345
REMARK 921   NORMALIZED FREE ENERGY PREDICTED BY IDOCK:   62.61 KCAL/MOL
REMARK 922        TOTAL FREE ENERGY PREDICTED BY IDOCK:   97.69 KCAL/MOL
REMARK 923 INTER-LIGAND FREE ENERGY PREDICTED BY IDOCK:   85.52 KCAL/MOL
REMARK 924 INTRA-LIGAND FREE ENERGY PREDICTED BY IDOCK:   12.17 KCAL/MOL
REMARK 927      BINDING AFFINITY PREDICTED BY RF-SCORE:    0.00 PKD
ROOT
HETATM    1  C   UNL     1     -12.834   5.436  70.120  1.00  0.00     7.582 C  
HETATM    2  O   UNL     1     -12.894   6.847  69.890  1.00  0.00     0.763 OA 
ENDROOT
BRANCH   2   3
HETATM    3  C   UNL     1     -12.432   7.572  70.942  1.00  0.00    -0.131 C  
HETATM    4  O   UNL     1     -13.000   8.540  71.425  1.00  0.00    -0.308 OA 
BRANCH   3   5
HETATM    5  C   UNL     1     -11.114   7.069  71.405  1.00  0.00    -0.274 C  
HETATM    6  C   UNL     1     -10.909   6.798  72.717  1.00  0.00    -0.262 C  
HETATM    7  C   UNL     1     -11.941   6.851  73.818  1.00  0.00     2.582 C  
HETATM    8  N   UNL     1      -9.642   6.453  73.153  1.00  0.00    -0.149 NA 
HETATM    9  C   UNL     1      -8.493   6.530  72.389  1.00  0.00    -0.118 C  
HETATM   10  C   UNL     1      -8.582   6.798  71.065  1.00  0.00    -0.136 C  
HETATM   11  C   UNL     1      -7.204   6.268  73.134  1.00  0.00    -0.087 C  
HETATM   12  C   UNL     1      -9.958   6.976  70.394  1.00  0.00    -0.187 C  
BRANCH  10  13
HETATM   13  C   UNL     1      -7.348   6.813  70.229  1.00  0.00    -0.085 C  
HETATM   14  O   UNL     1      -6.696   5.831  69.908  1.00  0.00    -0.047 OA 
BRANCH  13  15
HETATM   15  O   UNL     1      -7.175   8.051  69.705  1.00  0.00    -0.062 OA 
BRANCH  15  16
HETATM   16  C   UNL     1      -7.187   9.097  70.691  1.00  0.00    -0.105 C  
BRANCH  16  17
HETATM   17  C   UNL     1      -5.712   9.400  70.998  1.00  0.00    -0.060 C  
BRANCH  17  18
HETATM   18  N   UNL     1      -5.425  10.603  71.790  1.00  0.00    -0.314 NA 
HETATM   19  C   UNL     1      -5.976  11.794  71.136  1.00  0.00     0.542 C  
BRANCH  18  20
HETATM   20  C   UNL     1      -6.015  10.462  73.144  1.00  0.00     1.422 C  
BRANCH  20  21
HETATM   21  C   UNL     1      -7.530  10.560  73.149  1.00  0.00     7.108 A  
HETATM   22  C   UNL     1      -8.164  11.744  72.743  1.00  0.00    20.342 A  
HETATM   23  C   UNL     1      -9.549  11.875  72.832  1.00  0.00    23.197 A  
HETATM   24  C   UNL     1     -10.319  10.821  73.319  1.00  0.00    14.501 A  
HETATM   25  C   UNL     1      -9.706   9.631  73.708  1.00  0.00     7.541 A  
HETATM   26  C   UNL     1      -8.318   9.497  73.621  1.00  0.00     3.223 A  
ENDBRANCH  20  21
ENDBRANCH  18  20
ENDBRANCH  17  18
ENDBRANCH  16  17
ENDBRANCH  15  16
ENDBRANCH  13  15
ENDBRANCH  10  13
BRANCH  12  27
HETATM   27  C   UNL     1      -9.965   8.160  69.422  1.00  0.00    -0.188 A  
HETATM   28  C   UNL     1     -10.831   9.252  67.435  1.00  0.00    -0.165 A  
HETATM   29  O   UNL     1      -7.363  11.370  69.870  1.00  0.00     0.145 OA 
HETATM   30  C   UNL     1      -9.051   9.219  69.591  1.00  0.00    -0.173 A  
HETATM   31  O   UNL     1      -8.122  12.320  68.045  1.00  0.00    -0.137 OA 
HETATM   32  C   UNL     1      -9.042  10.287  68.687  1.00  0.00    -0.152 A  
HETATM   33  C   UNL     1     -10.862   8.197  68.346  1.00  0.00     0.036 A  
HETATM   34  C   UNL     1      -9.921  10.299  67.598  1.00  0.00    -0.212 A  
HETATM   35  N   UNL     1      -8.110  11.405  68.882  1.00  0.00    -0.111 N  
ENDBRANCH  12  27
ENDBRANCH   3   5
ENDBRANCH   2   3
TORSDOF 10
ENDMDL
