MODEL        1
REMARK 921   NORMALIZED FREE ENERGY PREDICTED BY IDOCK:   -7.85 KCAL/MOL
REMARK 922        TOTAL FREE ENERGY PREDICTED BY IDOCK:  -10.58 KCAL/MOL
REMARK 923 INTER-LIGAND FREE ENERGY PREDICTED BY IDOCK:  -10.14 KCAL/MOL
REMARK 924 INTRA-LIGAND FREE ENERGY PREDICTED BY IDOCK:   -0.43 KCAL/MOL
REMARK 927      BINDING AFFINITY PREDICTED BY RF-SCORE:    0.00 PKD
ROOT
HETATM    1  C   UNL     1      -9.262  15.165  66.991  1.00  0.00    -0.223 C  
HETATM    2  C   UNL     1      -7.771  15.465  67.093  1.00  0.00    -0.246 C  
HETATM    3  C   UNL     1      -7.618  16.822  66.670  1.00  0.00    -0.311 A  
HETATM    4  C   UNL     1      -6.602  17.422  66.003  1.00  0.00    -0.141 A  
HETATM    5  N   UNL     1      -7.052  18.676  65.698  1.00  0.00    -0.487 NA 
HETATM    6  C   UNL     1      -6.275  19.546  64.846  1.00  0.00    -0.279 C  
HETATM    7  C   UNL     1      -8.319  18.872  66.218  1.00  0.00    -0.260 A  
HETATM    8  C   UNL     1      -9.212  19.952  66.240  1.00  0.00    -0.457 A  
HETATM    9  C   UNL     1     -10.473  19.722  66.823  1.00  0.00    -0.610 A  
HETATM   10  C   UNL     1     -10.899  18.454  67.320  1.00  0.00    -0.296 A  
HETATM   11  C   UNL     1     -10.051  17.339  67.323  1.00  0.00    -0.300 A  
HETATM   12  C   UNL     1     -10.314  15.836  67.887  1.00  0.00    -0.261 C  
HETATM   13  C   UNL     1      -8.739  17.654  66.793  1.00  0.00    -0.277 A  
HETATM   14  C   UNL     1     -11.338  14.343  67.725  1.00  0.00    -0.331 C  
HETATM   15  C   UNL     1     -11.071  15.784  65.189  1.00  0.00    -0.324 C  
HETATM   16  C   UNL     1     -10.641  13.074  66.777  1.00  0.00    -0.269 C  
HETATM   17  N   UNL     1      -9.840  15.002  65.562  1.00  0.00    -0.342 NA 
HETATM   18  C   UNL     1     -10.185  13.612  65.421  1.00  0.00    -0.313 C  
ENDROOT
BRANCH  12  19
HETATM   19  O   UNL     1      -9.978  15.884  69.297  1.00  0.00    -0.222 OA 
HETATM   20  C   UNL     1     -11.099  16.184  70.135  1.00  0.00    -0.371 C  
ENDBRANCH  12  19
BRANCH  16  21
HETATM   21  C   UNL     1     -10.974  11.604  66.519  1.00  0.00    -0.299 C  
BRANCH  21  22
HETATM   22  O   UNL     1     -11.780  10.958  67.463  1.00  0.00    -0.543 OA 
BRANCH  22  23
HETATM   23  C   UNL     1     -11.009  10.471  68.468  1.00  0.00    -0.252 C  
HETATM   24  O   UNL     1      -9.930   9.935  68.353  1.00  0.00    -0.151 OA 
BRANCH  23  25
HETATM   25  C   UNL     1     -11.695  10.622  69.733  1.00  0.00    -0.385 A  
HETATM   26  C   UNL     1     -11.860   9.458  70.466  1.00  0.00    -0.151 A  
HETATM   27  N   UNL     1     -12.467   9.416  71.676  1.00  0.00    -0.352 NA 
HETATM   28  C   UNL     1     -12.938  10.589  72.150  1.00  0.00    -0.263 A  
HETATM   29  C   UNL     1     -12.860  11.807  71.463  1.00  0.00    -0.345 A  
HETATM   30  C   UNL     1     -12.228  11.821  70.226  1.00  0.00    -0.381 A  
HETATM   31 BR   UNL     1     -13.571  13.373  72.214  1.00  0.00    -0.701 Br 
ENDBRANCH  23  25
ENDBRANCH  22  23
ENDBRANCH  21  22
ENDBRANCH  16  21
TORSDOF 5
ENDMDL
MODEL        2
REMARK 921   NORMALIZED FREE ENERGY PREDICTED BY IDOCK:   -7.58 KCAL/MOL
REMARK 922        TOTAL FREE ENERGY PREDICTED BY IDOCK:  -10.22 KCAL/MOL
REMARK 923 INTER-LIGAND FREE ENERGY PREDICTED BY IDOCK:   -9.85 KCAL/MOL
REMARK 924 INTRA-LIGAND FREE ENERGY PREDICTED BY IDOCK:   -0.37 KCAL/MOL
REMARK 927      BINDING AFFINITY PREDICTED BY RF-SCORE:    0.00 PKD
ROOT
HETATM    1  C   UNL     1      -9.337  15.335  66.752  1.00  0.00    -0.243 C  
HETATM    2  C   UNL     1      -7.838  15.595  66.848  1.00  0.00    -0.258 C  
HETATM    3  C   UNL     1      -7.661  16.974  66.520  1.00  0.00    -0.327 A  
HETATM    4  C   UNL     1      -6.643  17.598  65.879  1.00  0.00    -0.204 A  
HETATM    5  N   UNL     1      -7.068  18.880  65.671  1.00  0.00    -0.447 NA 
HETATM    6  C   UNL     1      -6.285  19.791  64.869  1.00  0.00    -0.276 C  
HETATM    7  C   UNL     1      -8.321  19.067  66.226  1.00  0.00    -0.283 A  
HETATM    8  C   UNL     1      -9.189  20.162  66.341  1.00  0.00    -0.409 A  
HETATM    9  C   UNL     1     -10.444  19.918  66.930  1.00  0.00    -0.577 A  
HETATM   10  C   UNL     1     -10.892  18.628  67.343  1.00  0.00    -0.381 A  
HETATM   11  C   UNL     1     -10.070  17.497  67.252  1.00  0.00    -0.327 A  
HETATM   12  C   UNL     1     -10.359  15.964  67.713  1.00  0.00    -0.278 C  
HETATM   13  C   UNL     1      -8.759  17.820  66.722  1.00  0.00    -0.273 A  
HETATM   14  C   UNL     1     -11.419  14.509  67.465  1.00  0.00    -0.375 C  
HETATM   15  C   UNL     1     -11.161  16.121  65.032  1.00  0.00    -0.294 C  
HETATM   16  C   UNL     1     -10.767  13.295  66.417  1.00  0.00    -0.291 C  
HETATM   17  N   UNL     1      -9.943  15.287  65.326  1.00  0.00    -0.322 NA 
HETATM   18  C   UNL     1     -10.322  13.919  65.094  1.00  0.00    -0.383 C  
ENDROOT
BRANCH  12  19
HETATM   19  O   UNL     1      -9.997  15.905  69.117  1.00  0.00    -0.215 OA 
HETATM   20  C   UNL     1     -11.035  16.372  69.987  1.00  0.00    -0.318 C  
ENDBRANCH  12  19
BRANCH  16  21
HETATM   21  C   UNL     1     -11.139  11.856  66.062  1.00  0.00    -0.322 C  
BRANCH  21  22
HETATM   22  O   UNL     1     -11.834  11.119  67.028  1.00  0.00    -0.411 OA 
BRANCH  22  23
HETATM   23  C   UNL     1     -10.956  10.427  67.795  1.00  0.00    -0.309 C  
HETATM   24  O   UNL     1      -9.947   9.874  67.416  1.00  0.00    -0.171 OA 
BRANCH  23  25
HETATM   25  C   UNL     1     -11.429  10.375  69.162  1.00  0.00    -0.261 A  
HETATM   26  C   UNL     1     -12.192  11.456  69.571  1.00  0.00    -0.235 A  
HETATM   27  N   UNL     1     -12.725  11.568  70.811  1.00  0.00    -0.271 NA 
HETATM   28  C   UNL     1     -12.462  10.560  71.669  1.00  0.00    -0.340 A  
HETATM   29  C   UNL     1     -11.664   9.450  71.362  1.00  0.00    -0.378 A  
HETATM   30  C   UNL     1     -11.134   9.359  70.082  1.00  0.00    -0.277 A  
HETATM   31 BR   UNL     1     -11.348   8.118  72.646  1.00  0.00    -0.395 Br 
ENDBRANCH  23  25
ENDBRANCH  22  23
ENDBRANCH  21  22
ENDBRANCH  16  21
TORSDOF 5
ENDMDL
MODEL        3
REMARK 921   NORMALIZED FREE ENERGY PREDICTED BY IDOCK:   -7.38 KCAL/MOL
REMARK 922        TOTAL FREE ENERGY PREDICTED BY IDOCK:   -9.97 KCAL/MOL
REMARK 923 INTER-LIGAND FREE ENERGY PREDICTED BY IDOCK:   -9.27 KCAL/MOL
REMARK 924 INTRA-LIGAND FREE ENERGY PREDICTED BY IDOCK:   -0.70 KCAL/MOL
REMARK 927      BINDING AFFINITY PREDICTED BY RF-SCORE:    0.00 PKD
ROOT
HETATM    1  C   UNL     1      -9.726  10.030  68.496  1.00  0.00    -0.155 C  
HETATM    2  C   UNL     1     -10.718  11.020  69.097  1.00  0.00    -0.274 C  
HETATM    3  C   UNL     1     -11.265  10.372  70.247  1.00  0.00    -0.395 A  
HETATM    4  C   UNL     1     -12.507  10.445  70.785  1.00  0.00    -0.368 A  
HETATM    5  N   UNL     1     -12.542   9.489  71.761  1.00  0.00    -0.378 NA 
HETATM    6  C   UNL     1     -13.778   9.183  72.443  1.00  0.00    -0.480 C  
HETATM    7  C   UNL     1     -11.312   8.862  71.865  1.00  0.00    -0.376 A  
HETATM    8  C   UNL     1     -10.788   7.865  72.699  1.00  0.00    -0.428 A  
HETATM    9  C   UNL     1      -9.475   7.437  72.429  1.00  0.00    -0.189 A  
HETATM   10  C   UNL     1      -8.694   7.909  71.332  1.00  0.00    -0.148 A  
HETATM   11  C   UNL     1      -9.165   8.903  70.464  1.00  0.00    -0.239 A  
HETATM   12  C   UNL     1      -8.426   9.616  69.203  1.00  0.00    -0.143 C  
HETATM   13  C   UNL     1     -10.486   9.370  70.840  1.00  0.00    -0.381 A  
HETATM   14  C   UNL     1      -7.678   9.345  67.568  1.00  0.00    -0.091 C  
HETATM   15  C   UNL     1      -9.820   7.429  68.138  1.00  0.00    -0.156 C  
HETATM   16  C   UNL     1      -8.707   9.698  66.222  1.00  0.00    -0.156 C  
HETATM   17  N   UNL     1     -10.327   8.798  67.772  1.00  0.00    -0.228 NA 
HETATM   18  C   UNL     1     -10.046   8.974  66.373  1.00  0.00    -0.281 C  
ENDROOT
BRANCH  12  19
HETATM   19  O   UNL     1      -7.659  10.709  69.767  1.00  0.00    -0.139 OA 
HETATM   20  C   UNL     1      -6.466  10.278  70.432  1.00  0.00    -0.131 C  
ENDBRANCH  12  19
BRANCH  16  21
HETATM   21  C   UNL     1      -8.509   9.838  64.713  1.00  0.00    -0.164 C  
BRANCH  21  22
HETATM   22  O   UNL     1      -9.659   9.980  63.929  1.00  0.00    -0.283 OA 
BRANCH  22  23
HETATM   23  C   UNL     1      -9.725  11.242  63.435  1.00  0.00    -0.360 C  
HETATM   24  O   UNL     1      -9.038  11.706  62.552  1.00  0.00    -0.311 OA 
BRANCH  23  25
HETATM   25  C   UNL     1     -10.709  12.009  64.169  1.00  0.00    -0.405 A  
HETATM   26  C   UNL     1     -11.993  11.981  63.652  1.00  0.00    -0.515 A  
HETATM   27  N   UNL     1     -13.040  12.630  64.216  1.00  0.00    -0.687 NA 
HETATM   28  C   UNL     1     -12.772  13.345  65.329  1.00  0.00    -0.422 A  
HETATM   29  C   UNL     1     -11.498  13.470  65.898  1.00  0.00    -0.320 A  
HETATM   30  C   UNL     1     -10.444  12.790  65.302  1.00  0.00    -0.312 A  
HETATM   31 BR   UNL     1     -11.240  14.512  67.439  1.00  0.00    -0.354 Br 
ENDBRANCH  23  25
ENDBRANCH  22  23
ENDBRANCH  21  22
ENDBRANCH  16  21
TORSDOF 5
ENDMDL
MODEL        4
REMARK 921   NORMALIZED FREE ENERGY PREDICTED BY IDOCK:   -7.20 KCAL/MOL
REMARK 922        TOTAL FREE ENERGY PREDICTED BY IDOCK:   -9.74 KCAL/MOL
REMARK 923 INTER-LIGAND FREE ENERGY PREDICTED BY IDOCK:   -9.70 KCAL/MOL
REMARK 924 INTRA-LIGAND FREE ENERGY PREDICTED BY IDOCK:   -0.04 KCAL/MOL
REMARK 927      BINDING AFFINITY PREDICTED BY RF-SCORE:    0.00 PKD
ROOT
HETATM    1  C   UNL     1     -11.136   7.596  69.984  1.00  0.00    -0.191 C  
HETATM    2  C   UNL     1     -11.072   6.459  68.970  1.00  0.00    -0.424 C  
HETATM    3  C   UNL     1     -10.496   5.351  69.663  1.00  0.00    -0.361 A  
HETATM    4  C   UNL     1      -9.681   4.366  69.214  1.00  0.00    -0.182 A  
HETATM    5  N   UNL     1      -9.285   3.679  70.328  1.00  0.00    -0.135 NA 
HETATM    6  C   UNL     1      -8.279   2.646  70.233  1.00  0.00    -0.041 C  
HETATM    7  C   UNL     1      -9.892   4.202  71.456  1.00  0.00    -0.184 A  
HETATM    8  C   UNL     1      -9.878   3.871  72.818  1.00  0.00    -0.199 A  
HETATM    9  C   UNL     1     -10.593   4.720  73.684  1.00  0.00    -0.321 A  
HETATM   10  C   UNL     1     -11.258   5.909  73.263  1.00  0.00    -0.144 A  
HETATM   11  C   UNL     1     -11.304   6.291  71.916  1.00  0.00    -0.348 A  
HETATM   12  C   UNL     1     -12.047   7.562  71.222  1.00  0.00    -0.323 C  
HETATM   13  C   UNL     1     -10.629   5.337  71.058  1.00  0.00    -0.240 A  
HETATM   14  C   UNL     1     -12.137   9.375  71.148  1.00  0.00    -0.406 C  
HETATM   15  C   UNL     1      -9.447   8.426  71.817  1.00  0.00    -0.233 C  
HETATM   16  C   UNL     1     -11.271  10.101  69.837  1.00  0.00    -0.343 C  
HETATM   17  N   UNL     1      -9.790   8.266  70.360  1.00  0.00    -0.185 NA 
HETATM   18  C   UNL     1      -9.829   9.592  69.805  1.00  0.00    -0.215 C  
ENDROOT
BRANCH  12  19
HETATM   19  O   UNL     1     -13.408   7.128  70.970  1.00  0.00    -0.270 OA 
HETATM   20  C   UNL     1     -14.316   7.485  72.018  1.00  0.00    -0.302 C  
ENDBRANCH  12  19
BRANCH  16  21
HETATM   21  C   UNL     1     -11.202  11.500  69.225  1.00  0.00    -0.272 C  
BRANCH  21  22
HETATM   22  O   UNL     1     -12.082  11.782  68.174  1.00  0.00    -0.556 OA 
BRANCH  22  23
HETATM   23  C   UNL     1     -11.722  12.945  67.574  1.00  0.00    -0.367 C  
HETATM   24  O   UNL     1     -11.527  14.007  68.122  1.00  0.00    -0.274 OA 
BRANCH  23  25
HETATM   25  C   UNL     1     -11.664  12.763  66.140  1.00  0.00    -0.458 A  
HETATM   26  C   UNL     1     -12.664  13.393  65.418  1.00  0.00    -0.426 A  
HETATM   27  N   UNL     1     -12.757  13.341  64.067  1.00  0.00    -0.667 NA 
HETATM   28  C   UNL     1     -11.817  12.612  63.431  1.00  0.00    -0.514 A  
HETATM   29  C   UNL     1     -10.796  11.903  64.077  1.00  0.00    -0.379 A  
HETATM   30  C   UNL     1     -10.722  11.978  65.462  1.00  0.00    -0.318 A  
HETATM   31 BR   UNL     1      -9.555  10.902  63.087  1.00  0.00    -0.417 Br 
ENDBRANCH  23  25
ENDBRANCH  22  23
ENDBRANCH  21  22
ENDBRANCH  16  21
TORSDOF 5
ENDMDL
MODEL        5
REMARK 921   NORMALIZED FREE ENERGY PREDICTED BY IDOCK:   -7.19 KCAL/MOL
REMARK 922        TOTAL FREE ENERGY PREDICTED BY IDOCK:   -9.73 KCAL/MOL
REMARK 923 INTER-LIGAND FREE ENERGY PREDICTED BY IDOCK:   -8.95 KCAL/MOL
REMARK 924 INTRA-LIGAND FREE ENERGY PREDICTED BY IDOCK:   -0.77 KCAL/MOL
REMARK 927      BINDING AFFINITY PREDICTED BY RF-SCORE:    0.00 PKD
ROOT
HETATM    1  C   UNL     1     -10.953  11.513  67.946  1.00  0.00    -0.233 C  
HETATM    2  C   UNL     1     -12.027  11.648  69.020  1.00  0.00    -0.368 C  
HETATM    3  C   UNL     1     -11.988  13.013  69.440  1.00  0.00    -0.338 A  
HETATM    4  C   UNL     1     -12.217  13.560  70.659  1.00  0.00    -0.358 A  
HETATM    5  N   UNL     1     -11.866  14.876  70.543  1.00  0.00    -0.284 NA 
HETATM    6  C   UNL     1     -11.838  15.732  71.706  1.00  0.00    -0.467 C  
HETATM    7  C   UNL     1     -11.472  15.157  69.247  1.00  0.00    -0.311 A  
HETATM    8  C   UNL     1     -11.060  16.317  68.578  1.00  0.00    -0.368 A  
HETATM    9  C   UNL     1     -10.661  16.168  67.236  1.00  0.00    -0.305 A  
HETATM   10  C   UNL     1     -10.592  14.913  66.561  1.00  0.00    -0.306 A  
HETATM   11  C   UNL     1     -10.989  13.720  67.179  1.00  0.00    -0.299 A  
HETATM   12  C   UNL     1     -11.045  12.209  66.579  1.00  0.00    -0.307 C  
HETATM   13  C   UNL     1     -11.474  13.943  68.527  1.00  0.00    -0.346 A  
HETATM   14  C   UNL     1     -10.066  10.850  65.874  1.00  0.00    -0.307 C  
HETATM   15  C   UNL     1      -8.515  12.473  67.757  1.00  0.00    -0.171 C  
HETATM   16  C   UNL     1      -9.627   9.603  66.992  1.00  0.00    -0.221 C  
HETATM   17  N   UNL     1      -9.481  11.537  68.432  1.00  0.00    -0.192 NA 
HETATM   18  C   UNL     1      -8.967  10.209  68.231  1.00  0.00    -0.120 C  
ENDROOT
BRANCH  12  19
HETATM   19  O   UNL     1     -12.332  12.098  65.920  1.00  0.00    -0.561 OA 
HETATM   20  C   UNL     1     -12.571  13.142  64.969  1.00  0.00    -0.438 C  
ENDBRANCH  12  19
BRANCH  16  21
HETATM   21  C   UNL     1      -9.022   8.205  66.874  1.00  0.00    -0.140 C  
BRANCH  21  22
HETATM   22  O   UNL     1      -9.105   7.376  67.999  1.00  0.00    -0.131 OA 
BRANCH  22  23
HETATM   23  C   UNL     1     -10.343   6.825  68.071  1.00  0.00    -0.189 C  
HETATM   24  O   UNL     1     -10.981   6.365  67.150  1.00  0.00    -0.354 OA 
BRANCH  23  25
HETATM   25  C   UNL     1     -10.847   6.919  69.424  1.00  0.00    -0.283 A  
HETATM   26  C   UNL     1     -10.656   5.796  70.211  1.00  0.00    -0.299 A  
HETATM   27  N   UNL     1     -11.053   5.712  71.504  1.00  0.00    -0.213 NA 
HETATM   28  C   UNL     1     -11.680   6.797  72.008  1.00  0.00    -0.306 A  
HETATM   29  C   UNL     1     -11.958   7.959  71.277  1.00  0.00    -0.298 A  
HETATM   30  C   UNL     1     -11.535   8.018  69.956  1.00  0.00     0.065 A  
HETATM   31 BR   UNL     1     -12.856   9.398  72.080  1.00  0.00    -0.506 Br 
ENDBRANCH  23  25
ENDBRANCH  22  23
ENDBRANCH  21  22
ENDBRANCH  16  21
TORSDOF 5
ENDMDL
MODEL        6
REMARK 921   NORMALIZED FREE ENERGY PREDICTED BY IDOCK:   -7.16 KCAL/MOL
REMARK 922        TOTAL FREE ENERGY PREDICTED BY IDOCK:   -9.68 KCAL/MOL
REMARK 923 INTER-LIGAND FREE ENERGY PREDICTED BY IDOCK:   -9.20 KCAL/MOL
REMARK 924 INTRA-LIGAND FREE ENERGY PREDICTED BY IDOCK:   -0.48 KCAL/MOL
REMARK 927      BINDING AFFINITY PREDICTED BY RF-SCORE:    0.00 PKD
ROOT
HETATM    1  C   UNL     1     -10.945  11.694  68.034  1.00  0.00    -0.224 C  
HETATM    2  C   UNL     1     -12.008  11.884  69.111  1.00  0.00    -0.336 C  
HETATM    3  C   UNL     1     -11.960  13.267  69.465  1.00  0.00    -0.366 A  
HETATM    4  C   UNL     1     -12.175  13.873  70.658  1.00  0.00    -0.373 A  
HETATM    5  N   UNL     1     -11.822  15.181  70.476  1.00  0.00    -0.292 NA 
HETATM    6  C   UNL     1     -11.779  16.092  71.596  1.00  0.00    -0.506 C  
HETATM    7  C   UNL     1     -11.440  15.397  69.163  1.00  0.00    -0.333 A  
HETATM    8  C   UNL     1     -11.032  16.523  68.435  1.00  0.00    -0.348 A  
HETATM    9  C   UNL     1     -10.647  16.309  67.098  1.00  0.00    -0.291 A  
HETATM   10  C   UNL     1     -10.589  15.023  66.483  1.00  0.00    -0.305 A  
HETATM   11  C   UNL     1     -10.983  13.862  67.162  1.00  0.00    -0.298 A  
HETATM   12  C   UNL     1     -11.049  12.324  66.636  1.00  0.00    -0.297 C  
HETATM   13  C   UNL     1     -11.453  14.151  68.503  1.00  0.00    -0.333 A  
HETATM   14  C   UNL     1     -10.081  10.929  65.987  1.00  0.00    -0.303 C  
HETATM   15  C   UNL     1      -8.506  12.635  67.774  1.00  0.00    -0.172 C  
HETATM   16  C   UNL     1      -9.635   9.736  67.159  1.00  0.00    -0.211 C  
HETATM   17  N   UNL     1      -9.468  11.737  68.503  1.00  0.00    -0.190 NA 
HETATM   18  C   UNL     1      -8.960  10.399  68.361  1.00  0.00    -0.137 C  
ENDROOT
BRANCH  12  19
HETATM   19  O   UNL     1     -12.343  12.186  65.996  1.00  0.00    -0.550 OA 
HETATM   20  C   UNL     1     -12.455  12.937  64.782  1.00  0.00    -0.455 C  
ENDBRANCH  12  19
BRANCH  16  21
HETATM   21  C   UNL     1      -9.034   8.332  67.102  1.00  0.00    -0.138 C  
BRANCH  21  22
HETATM   22  O   UNL     1      -9.102   7.561  68.268  1.00  0.00    -0.133 OA 
BRANCH  22  23
HETATM   23  C   UNL     1     -10.355   7.061  68.414  1.00  0.00    -0.193 C  
HETATM   24  O   UNL     1     -11.081   6.667  67.529  1.00  0.00    -0.321 OA 
BRANCH  23  25
HETATM   25  C   UNL     1     -10.752   7.122  69.805  1.00  0.00    -0.257 A  
HETATM   26  C   UNL     1     -11.153   8.368  70.258  1.00  0.00    -0.213 A  
HETATM   27  N   UNL     1     -11.567   8.605  71.525  1.00  0.00    -0.282 NA 
HETATM   28  C   UNL     1     -11.558   7.548  72.365  1.00  0.00    -0.309 A  
HETATM   29  C   UNL     1     -11.126   6.263  72.012  1.00  0.00    -0.268 A  
HETATM   30  C   UNL     1     -10.711   6.048  70.704  1.00  0.00    -0.341 A  
HETATM   31 BR   UNL     1     -11.137   4.873  73.274  1.00  0.00    -0.427 Br 
ENDBRANCH  23  25
ENDBRANCH  22  23
ENDBRANCH  21  22
ENDBRANCH  16  21
TORSDOF 5
ENDMDL
MODEL        7
REMARK 921   NORMALIZED FREE ENERGY PREDICTED BY IDOCK:   -7.14 KCAL/MOL
REMARK 922        TOTAL FREE ENERGY PREDICTED BY IDOCK:   -9.66 KCAL/MOL
REMARK 923 INTER-LIGAND FREE ENERGY PREDICTED BY IDOCK:   -9.95 KCAL/MOL
REMARK 924 INTRA-LIGAND FREE ENERGY PREDICTED BY IDOCK:    0.29 KCAL/MOL
REMARK 927      BINDING AFFINITY PREDICTED BY RF-SCORE:    0.00 PKD
ROOT
HETATM    1  C   UNL     1      -9.667  15.467  68.218  1.00  0.00    -0.201 C  
HETATM    2  C   UNL     1      -8.437  15.619  69.105  1.00  0.00    -0.253 C  
HETATM    3  C   UNL     1      -7.886  16.899  68.790  1.00  0.00    -0.250 A  
HETATM    4  C   UNL     1      -6.597  17.316  68.765  1.00  0.00    -0.197 A  
HETATM    5  N   UNL     1      -6.625  18.571  68.225  1.00  0.00    -0.213 NA 
HETATM    6  C   UNL     1      -5.396  19.259  67.906  1.00  0.00    -0.174 C  
HETATM    7  C   UNL     1      -7.929  18.953  67.965  1.00  0.00    -0.286 A  
HETATM    8  C   UNL     1      -8.527  20.117  67.463  1.00  0.00    -0.394 A  
HETATM    9  C   UNL     1      -9.922  20.083  67.273  1.00  0.00    -0.574 A  
HETATM   10  C   UNL     1     -10.727  18.927  67.498  1.00  0.00    -0.509 A  
HETATM   11  C   UNL     1     -10.185  17.735  67.998  1.00  0.00    -0.377 A  
HETATM   12  C   UNL     1     -10.925  16.336  68.375  1.00  0.00    -0.351 C  
HETATM   13  C   UNL     1      -8.764  17.853  68.258  1.00  0.00    -0.277 A  
HETATM   14  C   UNL     1     -11.907  14.950  67.730  1.00  0.00    -0.277 C  
HETATM   15  C   UNL     1     -10.119  16.079  65.703  1.00  0.00    -0.354 C  
HETATM   16  C   UNL     1     -11.005  13.522  67.355  1.00  0.00    -0.286 C  
HETATM   17  N   UNL     1      -9.408  15.216  66.710  1.00  0.00    -0.232 NA 
HETATM   18  C   UNL     1      -9.822  13.864  66.448  1.00  0.00    -0.295 C  
ENDROOT
BRANCH  12  19
HETATM   19  O   UNL     1     -11.391  16.498  69.739  1.00  0.00    -0.239 OA 
HETATM   20  C   UNL     1     -11.140  15.353  70.561  1.00  0.00    -0.335 C  
ENDBRANCH  12  19
BRANCH  16  21
HETATM   21  C   UNL     1     -11.358  12.077  67.004  1.00  0.00    -0.336 C  
BRANCH  21  22
HETATM   22  O   UNL     1     -11.912  11.290  68.021  1.00  0.00    -0.621 OA 
BRANCH  22  23
HETATM   23  C   UNL     1     -10.922  10.684  68.722  1.00  0.00    -0.246 C  
HETATM   24  O   UNL     1      -9.773  10.538  68.368  1.00  0.00    -0.149 OA 
BRANCH  23  25
HETATM   25  C   UNL     1     -11.447  10.159  69.964  1.00  0.00    -0.344 A  
HETATM   26  C   UNL     1     -12.621  10.743  70.410  1.00  0.00    -0.314 A  
HETATM   27  N   UNL     1     -13.259  10.368  71.545  1.00  0.00    -0.396 NA 
HETATM   28  C   UNL     1     -12.677   9.381  72.260  1.00  0.00    -0.341 A  
HETATM   29  C   UNL     1     -11.468   8.763  71.914  1.00  0.00    -0.358 A  
HETATM   30  C   UNL     1     -10.840   9.164  70.743  1.00  0.00    -0.331 A  
HETATM   31 BR   UNL     1     -10.742   7.414  72.999  1.00  0.00    -0.441 Br 
ENDBRANCH  23  25
ENDBRANCH  22  23
ENDBRANCH  21  22
ENDBRANCH  16  21
TORSDOF 5
ENDMDL
MODEL        8
REMARK 921   NORMALIZED FREE ENERGY PREDICTED BY IDOCK:   -7.10 KCAL/MOL
REMARK 922        TOTAL FREE ENERGY PREDICTED BY IDOCK:   -9.60 KCAL/MOL
REMARK 923 INTER-LIGAND FREE ENERGY PREDICTED BY IDOCK:   -9.21 KCAL/MOL
REMARK 924 INTRA-LIGAND FREE ENERGY PREDICTED BY IDOCK:   -0.39 KCAL/MOL
REMARK 927      BINDING AFFINITY PREDICTED BY RF-SCORE:    0.00 PKD
ROOT
HETATM    1  C   UNL     1     -11.040   7.891  69.781  1.00  0.00    -0.075 C  
HETATM    2  C   UNL     1     -11.269   6.452  69.333  1.00  0.00    -0.459 C  
HETATM    3  C   UNL     1     -10.649   5.633  70.325  1.00  0.00    -0.370 A  
HETATM    4  C   UNL     1     -10.018   4.439  70.206  1.00  0.00    -0.177 A  
HETATM    5  N   UNL     1      -9.457   4.194  71.428  1.00  0.00    -0.149 NA 
HETATM    6  C   UNL     1      -8.572   3.069  71.616  1.00  0.00    -0.069 C  
HETATM    7  C   UNL     1      -9.780   5.205  72.316  1.00  0.00    -0.163 A  
HETATM    8  C   UNL     1      -9.515   5.439  73.672  1.00  0.00    -0.137 A  
HETATM    9  C   UNL     1      -9.973   6.658  74.208  1.00  0.00    -0.372 A  
HETATM   10  C   UNL     1     -10.619   7.672  73.439  1.00  0.00    -0.353 A  
HETATM   11  C   UNL     1     -10.909   7.495  72.080  1.00  0.00    -0.273 A  
HETATM   12  C   UNL     1     -11.680   8.486  71.045  1.00  0.00    -0.275 C  
HETATM   13  C   UNL     1     -10.496   6.189  71.602  1.00  0.00    -0.267 A  
HETATM   14  C   UNL     1     -11.646  10.115  70.240  1.00  0.00    -0.379 C  
HETATM   15  C   UNL     1      -8.956   9.109  70.818  1.00  0.00    -0.242 C  
HETATM   16  C   UNL     1     -11.014  10.125  68.629  1.00  0.00    -0.273 C  
HETATM   17  N   UNL     1      -9.599   8.443  69.631  1.00  0.00    -0.163 NA 
HETATM   18  C   UNL     1      -9.651   9.433  68.589  1.00  0.00    -0.147 C  
ENDROOT
BRANCH  12  19
HETATM   19  O   UNL     1     -13.092   8.200  71.211  1.00  0.00    -0.255 OA 
HETATM   20  C   UNL     1     -13.672   8.859  72.342  1.00  0.00    -0.454 C  
ENDBRANCH  12  19
BRANCH  16  21
HETATM   21  C   UNL     1     -10.965  11.143  67.489  1.00  0.00    -0.275 C  
BRANCH  21  22
HETATM   22  O   UNL     1     -11.982  12.103  67.448  1.00  0.00    -0.563 OA 
BRANCH  22  23
HETATM   23  C   UNL     1     -11.438  13.344  67.383  1.00  0.00    -0.333 C  
HETATM   24  O   UNL     1     -10.791  13.800  66.466  1.00  0.00    -0.286 OA 
BRANCH  23  25
HETATM   25  C   UNL     1     -11.684  14.056  68.619  1.00  0.00    -0.389 A  
HETATM   26  C   UNL     1     -11.146  15.331  68.690  1.00  0.00    -0.279 A  
HETATM   27  N   UNL     1     -11.287  16.143  69.765  1.00  0.00    -0.335 NA 
HETATM   28  C   UNL     1     -11.981  15.639  70.808  1.00  0.00    -0.398 A  
HETATM   29  C   UNL     1     -12.523  14.348  70.846  1.00  0.00    -0.354 A  
HETATM   30  C   UNL     1     -12.366  13.539  69.728  1.00  0.00    -0.249 A  
HETATM   31 BR   UNL     1     -13.452  13.748  72.362  1.00  0.00    -0.697 Br 
ENDBRANCH  23  25
ENDBRANCH  22  23
ENDBRANCH  21  22
ENDBRANCH  16  21
TORSDOF 5
ENDMDL
MODEL        9
REMARK 921   NORMALIZED FREE ENERGY PREDICTED BY IDOCK:   -7.00 KCAL/MOL
REMARK 922        TOTAL FREE ENERGY PREDICTED BY IDOCK:   -9.47 KCAL/MOL
REMARK 923 INTER-LIGAND FREE ENERGY PREDICTED BY IDOCK:   -9.39 KCAL/MOL
REMARK 924 INTRA-LIGAND FREE ENERGY PREDICTED BY IDOCK:   -0.08 KCAL/MOL
REMARK 927      BINDING AFFINITY PREDICTED BY RF-SCORE:    0.00 PKD
ROOT
HETATM    1  C   UNL     1     -10.988   7.940  69.707  1.00  0.00    -0.148 C  
HETATM    2  C   UNL     1     -11.177   6.505  69.228  1.00  0.00    -0.390 C  
HETATM    3  C   UNL     1     -10.546   5.681  70.209  1.00  0.00    -0.370 A  
HETATM    4  C   UNL     1      -9.886   4.505  70.071  1.00  0.00    -0.226 A  
HETATM    5  N   UNL     1      -9.330   4.249  71.293  1.00  0.00    -0.138 NA 
HETATM    6  C   UNL     1      -8.420   3.141  71.467  1.00  0.00    -0.065 C  
HETATM    7  C   UNL     1      -9.687   5.232  72.199  1.00  0.00    -0.164 A  
HETATM    8  C   UNL     1      -9.440   5.444  73.562  1.00  0.00    -0.138 A  
HETATM    9  C   UNL     1      -9.932   6.641  74.118  1.00  0.00    -0.361 A  
HETATM   10  C   UNL     1     -10.595   7.654  73.364  1.00  0.00    -0.353 A  
HETATM   11  C   UNL     1     -10.868   7.499  71.999  1.00  0.00    -0.273 A  
HETATM   12  C   UNL     1     -11.653   8.492  70.977  1.00  0.00    -0.279 C  
HETATM   13  C   UNL     1     -10.419   6.214  71.498  1.00  0.00    -0.268 A  
HETATM   14  C   UNL     1     -11.652  10.138  70.206  1.00  0.00    -0.379 C  
HETATM   15  C   UNL     1      -8.943   9.186  70.789  1.00  0.00    -0.242 C  
HETATM   16  C   UNL     1     -11.005  10.197  68.602  1.00  0.00    -0.273 C  
HETATM   17  N   UNL     1      -9.559   8.529  69.583  1.00  0.00    -0.169 NA 
HETATM   18  C   UNL     1      -9.625   9.539  68.561  1.00  0.00    -0.142 C  
ENDROOT
BRANCH  12  19
HETATM   19  O   UNL     1     -13.059   8.169  71.123  1.00  0.00    -0.187 OA 
HETATM   20  C   UNL     1     -13.660   8.770  72.276  1.00  0.00    -0.430 C  
ENDBRANCH  12  19
BRANCH  16  21
HETATM   21  C   UNL     1     -10.971  11.239  67.484  1.00  0.00    -0.265 C  
BRANCH  21  22
HETATM   22  O   UNL     1     -12.000  12.188  67.464  1.00  0.00    -0.544 OA 
BRANCH  22  23
HETATM   23  C   UNL     1     -12.072  12.760  66.236  1.00  0.00    -0.332 C  
HETATM   24  O   UNL     1     -12.498  12.246  65.226  1.00  0.00    -0.585 OA 
BRANCH  23  25
HETATM   25  C   UNL     1     -11.495  14.087  66.275  1.00  0.00    -0.358 A  
HETATM   26  C   UNL     1     -11.183  14.638  65.043  1.00  0.00    -0.386 A  
HETATM   27  N   UNL     1     -10.648  15.873  64.891  1.00  0.00    -0.580 NA 
HETATM   28  C   UNL     1     -10.405  16.564  66.025  1.00  0.00    -0.345 A  
HETATM   29  C   UNL     1     -10.643  16.072  67.315  1.00  0.00    -0.313 A  
HETATM   30  C   UNL     1     -11.196  14.805  67.440  1.00  0.00    -0.346 A  
HETATM   31 BR   UNL     1     -10.244  17.117  68.822  1.00  0.00    -0.346 Br 
ENDBRANCH  23  25
ENDBRANCH  22  23
ENDBRANCH  21  22
ENDBRANCH  16  21
TORSDOF 5
ENDMDL
MODEL       10
REMARK 921   NORMALIZED FREE ENERGY PREDICTED BY IDOCK:   -6.97 KCAL/MOL
REMARK 922        TOTAL FREE ENERGY PREDICTED BY IDOCK:   -9.44 KCAL/MOL
REMARK 923 INTER-LIGAND FREE ENERGY PREDICTED BY IDOCK:   -9.28 KCAL/MOL
REMARK 924 INTRA-LIGAND FREE ENERGY PREDICTED BY IDOCK:   -0.15 KCAL/MOL
REMARK 927      BINDING AFFINITY PREDICTED BY RF-SCORE:    0.00 PKD
ROOT
HETATM    1  C   UNL     1      -9.456  15.248  66.683  1.00  0.00    -0.259 C  
HETATM    2  C   UNL     1      -7.955  15.484  66.813  1.00  0.00    -0.214 C  
HETATM    3  C   UNL     1      -7.755  16.872  66.544  1.00  0.00    -0.326 A  
HETATM    4  C   UNL     1      -6.718  17.507  65.945  1.00  0.00    -0.154 A  
HETATM    5  N   UNL     1      -7.123  18.803  65.783  1.00  0.00    -0.406 NA 
HETATM    6  C   UNL     1      -6.316  19.735  65.030  1.00  0.00    -0.279 C  
HETATM    7  C   UNL     1      -8.383  18.984  66.325  1.00  0.00    -0.283 A  
HETATM    8  C   UNL     1      -9.238  20.085  66.471  1.00  0.00    -0.471 A  
HETATM    9  C   UNL     1     -10.506  19.835  67.029  1.00  0.00    -0.595 A  
HETATM   10  C   UNL     1     -10.977  18.535  67.383  1.00  0.00    -0.202 A  
HETATM   11  C   UNL     1     -10.168  17.398  67.258  1.00  0.00    -0.324 A  
HETATM   12  C   UNL     1     -10.484  15.851  67.652  1.00  0.00    -0.289 C  
HETATM   13  C   UNL     1      -8.846  17.725  66.763  1.00  0.00    -0.275 A  
HETATM   14  C   UNL     1     -11.559  14.422  67.328  1.00  0.00    -0.401 C  
HETATM   15  C   UNL     1     -11.241  16.127  64.967  1.00  0.00    -0.220 C  
HETATM   16  C   UNL     1     -10.906  13.243  66.242  1.00  0.00    -0.293 C  
HETATM   17  N   UNL     1     -10.039  15.266  65.246  1.00  0.00    -0.347 NA 
HETATM   18  C   UNL     1     -10.432  13.914  64.953  1.00  0.00    -0.426 C  
ENDROOT
BRANCH  12  19
HETATM   19  O   UNL     1     -10.147  15.730  69.058  1.00  0.00    -0.202 OA 
HETATM   20  C   UNL     1     -11.213  16.121  69.930  1.00  0.00    -0.349 C  
ENDBRANCH  12  19
BRANCH  16  21
HETATM   21  C   UNL     1     -11.291  11.824  65.823  1.00  0.00    -0.250 C  
BRANCH  21  22
HETATM   22  O   UNL     1     -11.394  10.865  66.837  1.00  0.00    -0.329 OA 
BRANCH  22  23
HETATM   23  C   UNL     1     -10.388   9.963  66.719  1.00  0.00    -0.217 C  
HETATM   24  O   UNL     1      -9.534   9.944  65.860  1.00  0.00    -0.182 OA 
BRANCH  23  25
HETATM   25  C   UNL     1     -10.508   8.952  67.748  1.00  0.00    -0.300 A  
HETATM   26  C   UNL     1     -10.652   7.652  67.293  1.00  0.00    -0.318 A  
HETATM   27  N   UNL     1     -10.765   6.581  68.115  1.00  0.00    -0.253 NA 
HETATM   28  C   UNL     1     -10.750   6.839  69.440  1.00  0.00    -0.255 A  
HETATM   29  C   UNL     1     -10.654   8.123  69.993  1.00  0.00    -0.239 A  
HETATM   30  C   UNL     1     -10.534   9.201  69.126  1.00  0.00    -0.230 A  
HETATM   31 BR   UNL     1     -10.664   8.363  71.854  1.00  0.00    -0.399 Br 
ENDBRANCH  23  25
ENDBRANCH  22  23
ENDBRANCH  21  22
ENDBRANCH  16  21
TORSDOF 5
ENDMDL
MODEL       11
REMARK 921   NORMALIZED FREE ENERGY PREDICTED BY IDOCK:   -6.94 KCAL/MOL
REMARK 922        TOTAL FREE ENERGY PREDICTED BY IDOCK:   -9.39 KCAL/MOL
REMARK 923 INTER-LIGAND FREE ENERGY PREDICTED BY IDOCK:   -8.65 KCAL/MOL
REMARK 924 INTRA-LIGAND FREE ENERGY PREDICTED BY IDOCK:   -0.75 KCAL/MOL
REMARK 927      BINDING AFFINITY PREDICTED BY RF-SCORE:    0.00 PKD
ROOT
HETATM    1  C   UNL     1     -10.455  11.353  68.093  1.00  0.00    -0.187 C  
HETATM    2  C   UNL     1     -11.281  12.086  69.145  1.00  0.00    -0.305 C  
HETATM    3  C   UNL     1     -11.559  11.121  70.161  1.00  0.00    -0.410 A  
HETATM    4  C   UNL     1     -12.648  10.976  70.956  1.00  0.00    -0.411 A  
HETATM    5  N   UNL     1     -12.469   9.791  71.613  1.00  0.00    -0.384 NA 
HETATM    6  C   UNL     1     -13.522   9.243  72.436  1.00  0.00    -0.459 C  
HETATM    7  C   UNL     1     -11.252   9.230  71.269  1.00  0.00    -0.355 A  
HETATM    8  C   UNL     1     -10.560   8.075  71.661  1.00  0.00    -0.280 A  
HETATM    9  C   UNL     1      -9.343   7.811  71.004  1.00  0.00    -0.160 A  
HETATM   10  C   UNL     1      -8.826   8.605  69.938  1.00  0.00    -0.144 A  
HETATM   11  C   UNL     1      -9.474   9.769  69.503  1.00  0.00    -0.226 A  
HETATM   12  C   UNL     1      -9.032  10.836  68.358  1.00  0.00    -0.153 C  
HETATM   13  C   UNL     1     -10.673  10.041  70.271  1.00  0.00    -0.367 A  
HETATM   14  C   UNL     1      -8.673  11.060  66.591  1.00  0.00    -0.160 C  
HETATM   15  C   UNL     1     -10.644   8.945  67.060  1.00  0.00    -0.209 C  
HETATM   16  C   UNL     1      -9.975  11.706  65.652  1.00  0.00    -0.274 C  
HETATM   17  N   UNL     1     -11.212  10.331  67.206  1.00  0.00    -0.254 NA 
HETATM   18  C   UNL     1     -11.250  10.894  65.883  1.00  0.00     0.233 C  
ENDROOT
BRANCH  12  19
HETATM   19  O   UNL     1      -8.152  11.778  69.022  1.00  0.00    -0.024 OA 
HETATM   20  C   UNL     1      -6.908  11.196  69.429  1.00  0.00    -0.125 C  
ENDBRANCH  12  19
BRANCH  16  21
HETATM   21  C   UNL     1     -10.120  12.260  64.234  1.00  0.00    -0.284 C  
BRANCH  21  22
HETATM   22  O   UNL     1     -10.138  13.652  64.092  1.00  0.00    -0.240 OA 
BRANCH  22  23
HETATM   23  C   UNL     1     -11.302  14.148  64.581  1.00  0.00    -0.371 C  
HETATM   24  O   UNL     1     -12.420  13.820  64.251  1.00  0.00    -0.629 OA 
BRANCH  23  25
HETATM   25  C   UNL     1     -11.028  15.200  65.536  1.00  0.00    -0.370 A  
HETATM   26  C   UNL     1     -10.693  16.429  64.990  1.00  0.00    -0.259 A  
HETATM   27  N   UNL     1     -10.417  17.527  65.733  1.00  0.00    -0.565 NA 
HETATM   28  C   UNL     1     -10.464  17.369  67.073  1.00  0.00    -0.284 A  
HETATM   29  C   UNL     1     -10.747  16.158  67.716  1.00  0.00    -0.325 A  
HETATM   30  C   UNL     1     -11.031  15.050  66.929  1.00  0.00    -0.324 A  
HETATM   31 BR   UNL     1     -10.763  16.053  69.591  1.00  0.00    -0.341 Br 
ENDBRANCH  23  25
ENDBRANCH  22  23
ENDBRANCH  21  22
ENDBRANCH  16  21
TORSDOF 5
ENDMDL
MODEL       12
REMARK 921   NORMALIZED FREE ENERGY PREDICTED BY IDOCK:   -6.93 KCAL/MOL
REMARK 922        TOTAL FREE ENERGY PREDICTED BY IDOCK:   -9.38 KCAL/MOL
REMARK 923 INTER-LIGAND FREE ENERGY PREDICTED BY IDOCK:   -9.31 KCAL/MOL
REMARK 924 INTRA-LIGAND FREE ENERGY PREDICTED BY IDOCK:   -0.07 KCAL/MOL
REMARK 927      BINDING AFFINITY PREDICTED BY RF-SCORE:    0.00 PKD
ROOT
HETATM    1  C   UNL     1      -9.335  15.422  66.691  1.00  0.00    -0.263 C  
HETATM    2  C   UNL     1      -7.833  15.666  66.795  1.00  0.00    -0.211 C  
HETATM    3  C   UNL     1      -7.646  17.055  66.521  1.00  0.00    -0.326 A  
HETATM    4  C   UNL     1      -6.622  17.695  65.903  1.00  0.00    -0.204 A  
HETATM    5  N   UNL     1      -7.037  18.988  65.746  1.00  0.00    -0.365 NA 
HETATM    6  C   UNL     1      -6.248  19.923  64.979  1.00  0.00    -0.268 C  
HETATM    7  C   UNL     1      -8.289  19.163  66.310  1.00  0.00    -0.299 A  
HETATM    8  C   UNL     1      -9.147  20.259  66.468  1.00  0.00    -0.354 A  
HETATM    9  C   UNL     1     -10.404  20.003  67.048  1.00  0.00    -0.555 A  
HETATM   10  C   UNL     1     -10.862  18.702  67.412  1.00  0.00    -0.381 A  
HETATM   11  C   UNL     1     -10.049  17.569  67.275  1.00  0.00    -0.327 A  
HETATM   12  C   UNL     1     -10.350  16.021  67.677  1.00  0.00    -0.284 C  
HETATM   13  C   UNL     1      -8.737  17.902  66.757  1.00  0.00    -0.269 A  
HETATM   14  C   UNL     1     -11.422  14.586  67.373  1.00  0.00    -0.385 C  
HETATM   15  C   UNL     1     -11.153  16.289  65.005  1.00  0.00    -0.254 C  
HETATM   16  C   UNL     1     -10.781  13.408  66.278  1.00  0.00    -0.290 C  
HETATM   17  N   UNL     1      -9.942  15.434  65.265  1.00  0.00    -0.312 NA 
HETATM   18  C   UNL     1     -10.332  14.080  64.980  1.00  0.00    -0.409 C  
ENDROOT
BRANCH  12  19
HETATM   19  O   UNL     1      -9.988  15.904  69.077  1.00  0.00    -0.207 OA 
HETATM   20  C   UNL     1     -11.029  16.323  69.966  1.00  0.00    -0.355 C  
ENDBRANCH  12  19
BRANCH  16  21
HETATM   21  C   UNL     1     -11.165  11.987  65.868  1.00  0.00    -0.337 C  
BRANCH  21  22
HETATM   22  O   UNL     1     -10.444  10.938  66.450  1.00  0.00    -0.248 OA 
BRANCH  22  23
HETATM   23  C   UNL     1     -11.146  10.419  67.488  1.00  0.00    -0.267 C  
HETATM   24  O   UNL     1     -12.031  10.969  68.105  1.00  0.00    -0.610 OA 
BRANCH  23  25
HETATM   25  C   UNL     1     -10.642   9.103  67.816  1.00  0.00    -0.289 A  
HETATM   26  C   UNL     1     -10.010   8.995  69.044  1.00  0.00    -0.185 A  
HETATM   27  N   UNL     1      -9.490   7.838  69.518  1.00  0.00    -0.160 NA 
HETATM   28  C   UNL     1      -9.598   6.759  68.713  1.00  0.00    -0.132 A  
HETATM   29  C   UNL     1     -10.178   6.781  67.438  1.00  0.00    -0.197 A  
HETATM   30  C   UNL     1     -10.708   7.980  66.980  1.00  0.00    -0.263 A  
HETATM   31 BR   UNL     1     -10.253   5.220  66.398  1.00  0.00    -0.303 Br 
ENDBRANCH  23  25
ENDBRANCH  22  23
ENDBRANCH  21  22
ENDBRANCH  16  21
TORSDOF 5
ENDMDL
MODEL       13
REMARK 921   NORMALIZED FREE ENERGY PREDICTED BY IDOCK:   -6.91 KCAL/MOL
REMARK 922        TOTAL FREE ENERGY PREDICTED BY IDOCK:   -9.36 KCAL/MOL
REMARK 923 INTER-LIGAND FREE ENERGY PREDICTED BY IDOCK:   -9.11 KCAL/MOL
REMARK 924 INTRA-LIGAND FREE ENERGY PREDICTED BY IDOCK:   -0.25 KCAL/MOL
REMARK 927      BINDING AFFINITY PREDICTED BY RF-SCORE:    0.00 PKD
ROOT
HETATM    1  C   UNL     1     -10.693  12.032  68.261  1.00  0.00    -0.224 C  
HETATM    2  C   UNL     1     -11.410  12.546  69.504  1.00  0.00    -0.240 C  
HETATM    3  C   UNL     1     -11.631  11.400  70.328  1.00  0.00    -0.334 A  
HETATM    4  C   UNL     1     -12.655  11.109  71.167  1.00  0.00    -0.409 A  
HETATM    5  N   UNL     1     -12.455   9.814  71.557  1.00  0.00    -0.374 NA 
HETATM    6  C   UNL     1     -13.452   9.122  72.340  1.00  0.00    -0.476 C  
HETATM    7  C   UNL     1     -11.286   9.321  71.005  1.00  0.00    -0.321 A  
HETATM    8  C   UNL     1     -10.596   8.104  71.098  1.00  0.00    -0.242 A  
HETATM    9  C   UNL     1      -9.444   7.965  70.300  1.00  0.00    -0.163 A  
HETATM   10  C   UNL     1      -8.994   8.952  69.373  1.00  0.00    -0.145 A  
HETATM   11  C   UNL     1      -9.644  10.186  69.237  1.00  0.00    -0.239 A  
HETATM   12  C   UNL     1      -9.268  11.458  68.294  1.00  0.00    -0.183 C  
HETATM   13  C   UNL     1     -10.769  10.311  70.143  1.00  0.00    -0.334 A  
HETATM   14  C   UNL     1      -9.048  12.030  66.583  1.00  0.00    -0.205 C  
HETATM   15  C   UNL     1     -11.031   9.884  66.787  1.00  0.00     0.080 C  
HETATM   16  C   UNL     1     -10.405  12.865  65.907  1.00  0.00    -0.297 C  
HETATM   17  N   UNL     1     -11.547  11.218  67.255  1.00  0.00    -0.543 NA 
HETATM   18  C   UNL     1     -11.678  12.036  66.080  1.00  0.00    -0.241 C  
ENDROOT
BRANCH  12  19
HETATM   19  O   UNL     1      -8.311  12.238  69.055  1.00  0.00     0.144 OA 
HETATM   20  C   UNL     1      -7.002  11.656  69.080  1.00  0.00    -0.105 C  
ENDBRANCH  12  19
BRANCH  16  21
HETATM   21  C   UNL     1     -10.650  13.694  64.647  1.00  0.00    -0.430 C  
BRANCH  21  22
HETATM   22  O   UNL     1     -10.079  14.971  64.602  1.00  0.00    -0.148 OA 
BRANCH  22  23
HETATM   23  C   UNL     1     -11.043  15.910  64.778  1.00  0.00    -0.384 C  
HETATM   24  O   UNL     1     -11.981  16.126  64.043  1.00  0.00    -0.897 OA 
BRANCH  23  25
HETATM   25  C   UNL     1     -10.761  16.691  65.964  1.00  0.00    -0.153 A  
HETATM   26  C   UNL     1     -10.911  16.023  67.168  1.00  0.00    -0.239 A  
HETATM   27  N   UNL     1     -10.678  16.594  68.374  1.00  0.00    -0.337 NA 
HETATM   28  C   UNL     1     -10.298  17.890  68.359  1.00  0.00    -0.374 A  
HETATM   29  C   UNL     1     -10.164  18.659  67.196  1.00  0.00    -0.379 A  
HETATM   30  C   UNL     1     -10.405  18.046  65.973  1.00  0.00    -0.333 A  
HETATM   31 BR   UNL     1      -9.649  20.462  67.299  1.00  0.00    -0.583 Br 
ENDBRANCH  23  25
ENDBRANCH  22  23
ENDBRANCH  21  22
ENDBRANCH  16  21
TORSDOF 5
ENDMDL
MODEL       14
REMARK 921   NORMALIZED FREE ENERGY PREDICTED BY IDOCK:   -6.88 KCAL/MOL
REMARK 922        TOTAL FREE ENERGY PREDICTED BY IDOCK:   -9.32 KCAL/MOL
REMARK 923 INTER-LIGAND FREE ENERGY PREDICTED BY IDOCK:   -8.55 KCAL/MOL
REMARK 924 INTRA-LIGAND FREE ENERGY PREDICTED BY IDOCK:   -0.77 KCAL/MOL
REMARK 927      BINDING AFFINITY PREDICTED BY RF-SCORE:    0.00 PKD
ROOT
HETATM    1  C   UNL     1     -10.186  10.721  67.934  1.00  0.00    -0.176 C  
HETATM    2  C   UNL     1     -11.295  10.952  68.954  1.00  0.00    -0.354 C  
HETATM    3  C   UNL     1     -10.951  10.156  70.089  1.00  0.00    -0.376 A  
HETATM    4  C   UNL     1     -11.744   9.499  70.971  1.00  0.00    -0.343 A  
HETATM    5  N   UNL     1     -10.897   8.753  71.743  1.00  0.00    -0.320 NA 
HETATM    6  C   UNL     1     -11.421   7.802  72.695  1.00  0.00    -0.375 C  
HETATM    7  C   UNL     1      -9.583   8.985  71.377  1.00  0.00    -0.285 A  
HETATM    8  C   UNL     1      -8.342   8.532  71.844  1.00  0.00    -0.218 A  
HETATM    9  C   UNL     1      -7.203   8.957  71.135  1.00  0.00    -0.111 A  
HETATM   10  C   UNL     1      -7.253   9.753  69.952  1.00  0.00    -0.116 A  
HETATM   11  C   UNL     1      -8.465  10.234  69.437  1.00  0.00    -0.170 A  
HETATM   12  C   UNL     1      -8.739  11.191  68.151  1.00  0.00    -0.144 C  
HETATM   13  C   UNL     1      -9.596   9.840  70.255  1.00  0.00    -0.264 A  
HETATM   14  C   UNL     1      -8.569  11.348  66.349  1.00  0.00    -0.174 C  
HETATM   15  C   UNL     1      -8.887   8.561  67.193  1.00  0.00    -0.129 C  
HETATM   16  C   UNL     1      -9.990  10.962  65.440  1.00  0.00    -0.319 C  
HETATM   17  N   UNL     1     -10.173   9.343  67.224  1.00  0.00    -0.228 NA 
HETATM   18  C   UNL     1     -10.529   9.592  65.852  1.00  0.00     0.193 C  
ENDROOT
BRANCH  12  19
HETATM   19  O   UNL     1      -8.602  12.550  68.640  1.00  0.00    -0.087 OA 
HETATM   20  C   UNL     1      -7.239  12.959  68.796  1.00  0.00    -0.081 C  
ENDBRANCH  12  19
BRANCH  16  21
HETATM   21  C   UNL     1     -10.425  11.128  63.984  1.00  0.00    -0.383 C  
BRANCH  21  22
HETATM   22  O   UNL     1     -10.926  12.378  63.605  1.00  0.00    -0.410 OA 
BRANCH  22  23
HETATM   23  C   UNL     1     -11.972  12.713  64.402  1.00  0.00    -0.400 C  
HETATM   24  O   UNL     1     -13.095  12.264  64.344  1.00  0.00    -0.780 OA 
BRANCH  23  25
HETATM   25  C   UNL     1     -11.577  13.760  65.321  1.00  0.00    -0.330 A  
HETATM   26  C   UNL     1     -10.762  14.745  64.788  1.00  0.00    -0.358 A  
HETATM   27  N   UNL     1     -10.309  15.805  65.499  1.00  0.00    -0.381 NA 
HETATM   28  C   UNL     1     -10.678  15.857  66.797  1.00  0.00    -0.281 A  
HETATM   29  C   UNL     1     -11.460  14.885  67.434  1.00  0.00    -0.343 A  
HETATM   30  C   UNL     1     -11.915  13.813  66.679  1.00  0.00    -0.469 A  
HETATM   31 BR   UNL     1     -11.893  15.053  69.253  1.00  0.00    -0.338 Br 
ENDBRANCH  23  25
ENDBRANCH  22  23
ENDBRANCH  21  22
ENDBRANCH  16  21
TORSDOF 5
ENDMDL
MODEL       15
REMARK 921   NORMALIZED FREE ENERGY PREDICTED BY IDOCK:   -6.82 KCAL/MOL
REMARK 922        TOTAL FREE ENERGY PREDICTED BY IDOCK:   -9.24 KCAL/MOL
REMARK 923 INTER-LIGAND FREE ENERGY PREDICTED BY IDOCK:   -8.95 KCAL/MOL
REMARK 924 INTRA-LIGAND FREE ENERGY PREDICTED BY IDOCK:   -0.29 KCAL/MOL
REMARK 927      BINDING AFFINITY PREDICTED BY RF-SCORE:    0.00 PKD
ROOT
HETATM    1  C   UNL     1      -8.307  16.955  67.400  1.00  0.00    -0.186 C  
HETATM    2  C   UNL     1      -7.540  16.905  66.084  1.00  0.00    -0.230 C  
HETATM    3  C   UNL     1      -6.759  18.101  66.044  1.00  0.00    -0.312 A  
HETATM    4  C   UNL     1      -6.393  18.873  64.991  1.00  0.00    -0.232 A  
HETATM    5  N   UNL     1      -5.813  19.985  65.534  1.00  0.00    -0.172 NA 
HETATM    6  C   UNL     1      -5.441  21.101  64.696  1.00  0.00    -0.193 C  
HETATM    7  C   UNL     1      -5.771  19.881  66.913  1.00  0.00    -0.171 A  
HETATM    8  C   UNL     1      -5.264  20.687  67.941  1.00  0.00    -0.249 A  
HETATM    9  C   UNL     1      -5.491  20.252  69.261  1.00  0.00    -0.294 A  
HETATM   10  C   UNL     1      -6.252  19.092  69.595  1.00  0.00    -0.295 A  
HETATM   11  C   UNL     1      -6.784  18.249  68.611  1.00  0.00    -0.251 A  
HETATM   12  C   UNL     1      -7.622  16.863  68.773  1.00  0.00    -0.243 C  
HETATM   13  C   UNL     1      -6.446  18.695  67.273  1.00  0.00    -0.200 A  
HETATM   14  C   UNL     1      -9.139  16.110  69.429  1.00  0.00    -0.147 C  
HETATM   15  C   UNL     1      -9.536  18.908  68.657  1.00  0.00    -0.391 C  
HETATM   16  C   UNL     1     -10.407  15.883  68.272  1.00  0.00    -0.242 C  
HETATM   17  N   UNL     1      -9.478  17.968  67.482  1.00  0.00    -0.260 NA 
HETATM   18  C   UNL     1     -10.685  17.188  67.527  1.00  0.00    -0.276 C  
ENDROOT
BRANCH  12  19
HETATM   19  O   UNL     1      -6.625  15.817  68.892  1.00  0.00    -0.110 OA 
HETATM   20  C   UNL     1      -5.872  15.890  70.107  1.00  0.00    -0.157 C  
ENDBRANCH  12  19
BRANCH  16  21
HETATM   21  C   UNL     1     -11.740  15.135  68.257  1.00  0.00    -0.314 C  
BRANCH  21  22
HETATM   22  O   UNL     1     -12.113  14.520  67.056  1.00  0.00    -0.398 OA 
BRANCH  22  23
HETATM   23  C   UNL     1     -11.902  13.183  67.140  1.00  0.00    -0.369 C  
HETATM   24  O   UNL     1     -11.810  12.531  68.156  1.00  0.00    -0.334 OA 
BRANCH  23  25
HETATM   25  C   UNL     1     -11.731  12.625  65.816  1.00  0.00    -0.466 A  
HETATM   26  C   UNL     1     -12.731  12.928  64.907  1.00  0.00    -0.403 A  
HETATM   27  N   UNL     1     -12.727  12.501  63.621  1.00  0.00    -0.761 NA 
HETATM   28  C   UNL     1     -11.685  11.728  63.250  1.00  0.00    -0.240 A  
HETATM   29  C   UNL     1     -10.652  11.332  64.109  1.00  0.00    -0.373 A  
HETATM   30  C   UNL     1     -10.679  11.788  65.421  1.00  0.00    -0.333 A  
HETATM   31 BR   UNL     1      -9.262  10.234  63.487  1.00  0.00    -0.347 Br 
ENDBRANCH  23  25
ENDBRANCH  22  23
ENDBRANCH  21  22
ENDBRANCH  16  21
TORSDOF 5
ENDMDL
MODEL       16
REMARK 921   NORMALIZED FREE ENERGY PREDICTED BY IDOCK:   -6.76 KCAL/MOL
REMARK 922        TOTAL FREE ENERGY PREDICTED BY IDOCK:   -9.17 KCAL/MOL
REMARK 923 INTER-LIGAND FREE ENERGY PREDICTED BY IDOCK:   -8.65 KCAL/MOL
REMARK 924 INTRA-LIGAND FREE ENERGY PREDICTED BY IDOCK:   -0.52 KCAL/MOL
REMARK 927      BINDING AFFINITY PREDICTED BY RF-SCORE:    0.00 PKD
ROOT
HETATM    1  C   UNL     1      -9.479  15.474  66.578  1.00  0.00    -0.273 C  
HETATM    2  C   UNL     1      -7.967  15.607  66.720  1.00  0.00    -0.246 C  
HETATM    3  C   UNL     1      -7.683  16.998  66.557  1.00  0.00    -0.327 A  
HETATM    4  C   UNL     1      -6.609  17.613  66.004  1.00  0.00    -0.245 A  
HETATM    5  N   UNL     1      -6.935  18.939  65.942  1.00  0.00    -0.260 NA 
HETATM    6  C   UNL     1      -6.071  19.874  65.260  1.00  0.00    -0.224 C  
HETATM    7  C   UNL     1      -8.182  19.154  66.501  1.00  0.00    -0.306 A  
HETATM    8  C   UNL     1      -8.969  20.290  66.733  1.00  0.00    -0.394 A  
HETATM    9  C   UNL     1     -10.250  20.076  67.275  1.00  0.00    -0.565 A  
HETATM   10  C   UNL     1     -10.800  18.784  67.531  1.00  0.00    -0.396 A  
HETATM   11  C   UNL     1     -10.061  17.613  67.318  1.00  0.00    -0.331 A  
HETATM   12  C   UNL     1     -10.471  16.062  67.594  1.00  0.00    -0.292 C  
HETATM   13  C   UNL     1      -8.720  17.895  66.844  1.00  0.00    -0.258 A  
HETATM   14  C   UNL     1     -11.630  14.730  67.166  1.00  0.00    -0.373 C  
HETATM   15  C   UNL     1     -11.206  16.587  64.940  1.00  0.00    -0.133 C  
HETATM   16  C   UNL     1     -11.048  13.599  65.991  1.00  0.00    -0.297 C  
HETATM   17  N   UNL     1     -10.058  15.636  65.149  1.00  0.00    -0.408 NA 
HETATM   18  C   UNL     1     -10.532  14.336  64.755  1.00  0.00    -0.395 C  
ENDROOT
BRANCH  12  19
HETATM   19  O   UNL     1     -10.143  15.815  68.985  1.00  0.00    -0.202 OA 
HETATM   20  C   UNL     1     -11.192  16.185  69.887  1.00  0.00    -0.349 C  
ENDBRANCH  12  19
BRANCH  16  21
HETATM   21  C   UNL     1     -11.517  12.242  65.467  1.00  0.00    -0.361 C  
BRANCH  21  22
HETATM   22  O   UNL     1     -10.825  11.111  65.914  1.00  0.00    -0.240 OA 
BRANCH  22  23
HETATM   23  C   UNL     1     -11.010  10.959  67.249  1.00  0.00    -0.294 C  
HETATM   24  O   UNL     1     -12.044  11.123  67.856  1.00  0.00    -0.627 OA 
BRANCH  23  25
HETATM   25  C   UNL     1      -9.754  10.626  67.887  1.00  0.00    -0.177 A  
HETATM   26  C   UNL     1      -9.479   9.273  67.994  1.00  0.00    -0.137 A  
HETATM   27  N   UNL     1      -8.346   8.782  68.551  1.00  0.00    -0.128 NA 
HETATM   28  C   UNL     1      -7.472   9.692  69.030  1.00  0.00    -0.075 A  
HETATM   29  C   UNL     1      -7.683  11.077  69.008  1.00  0.00    -0.132 A  
HETATM   30  C   UNL     1      -8.851  11.552  68.427  1.00  0.00    -0.163 A  
HETATM   31 BR   UNL     1      -6.404  12.248  69.726  1.00  0.00    -0.040 Br 
ENDBRANCH  23  25
ENDBRANCH  22  23
ENDBRANCH  21  22
ENDBRANCH  16  21
TORSDOF 5
ENDMDL
MODEL       17
REMARK 921   NORMALIZED FREE ENERGY PREDICTED BY IDOCK:   -6.62 KCAL/MOL
REMARK 922        TOTAL FREE ENERGY PREDICTED BY IDOCK:   -8.98 KCAL/MOL
REMARK 923 INTER-LIGAND FREE ENERGY PREDICTED BY IDOCK:   -8.99 KCAL/MOL
REMARK 924 INTRA-LIGAND FREE ENERGY PREDICTED BY IDOCK:    0.01 KCAL/MOL
REMARK 927      BINDING AFFINITY PREDICTED BY RF-SCORE:    0.00 PKD
ROOT
HETATM    1  C   UNL     1     -10.992   7.678  69.873  1.00  0.00    -0.200 C  
HETATM    2  C   UNL     1     -11.133   6.249  69.362  1.00  0.00    -0.477 C  
HETATM    3  C   UNL     1     -10.525   5.420  70.354  1.00  0.00    -0.345 A  
HETATM    4  C   UNL     1      -9.836   4.260  70.222  1.00  0.00    -0.193 A  
HETATM    5  N   UNL     1      -9.324   3.993  71.461  1.00  0.00    -0.132 NA 
HETATM    6  C   UNL     1      -8.399   2.900  71.652  1.00  0.00    -0.064 C  
HETATM    7  C   UNL     1      -9.736   4.953  72.368  1.00  0.00    -0.157 A  
HETATM    8  C   UNL     1      -9.547   5.146  73.744  1.00  0.00    -0.136 A  
HETATM    9  C   UNL     1     -10.085   6.322  74.300  1.00  0.00    -0.349 A  
HETATM   10  C   UNL     1     -10.738   7.336  73.537  1.00  0.00    -0.367 A  
HETATM   11  C   UNL     1     -10.954   7.199  72.160  1.00  0.00    -0.274 A  
HETATM   12  C   UNL     1     -11.718   8.195  71.124  1.00  0.00    -0.283 C  
HETATM   13  C   UNL     1     -10.460   5.932  71.656  1.00  0.00    -0.285 A  
HETATM   14  C   UNL     1     -11.720   9.854  70.382  1.00  0.00    -0.333 C  
HETATM   15  C   UNL     1      -9.018   8.944  71.057  1.00  0.00    -0.241 C  
HETATM   16  C   UNL     1     -11.011   9.954  68.806  1.00  0.00    -0.217 C  
HETATM   17  N   UNL     1      -9.571   8.297  69.816  1.00  0.00    -0.170 NA 
HETATM   18  C   UNL     1      -9.618   9.323  68.810  1.00  0.00    -0.154 C  
ENDROOT
BRANCH  12  19
HETATM   19  O   UNL     1     -13.122   7.842  71.208  1.00  0.00    -0.279 OA 
HETATM   20  C   UNL     1     -13.803   8.488  72.290  1.00  0.00    -0.347 C  
ENDBRANCH  12  19
BRANCH  16  21
HETATM   21  C   UNL     1     -10.953  11.016  67.708  1.00  0.00    -0.269 C  
BRANCH  21  22
HETATM   22  O   UNL     1     -12.074  11.841  67.559  1.00  0.00    -0.599 OA 
BRANCH  22  23
HETATM   23  C   UNL     1     -11.745  12.934  66.826  1.00  0.00    -0.383 C  
HETATM   24  O   UNL     1     -11.533  12.964  65.634  1.00  0.00    -0.308 OA 
BRANCH  23  25
HETATM   25  C   UNL     1     -11.610  14.086  67.691  1.00  0.00    -0.385 A  
HETATM   26  C   UNL     1     -12.052  13.911  68.992  1.00  0.00    -0.329 A  
HETATM   27  N   UNL     1     -11.990  14.877  69.939  1.00  0.00    -0.311 NA 
HETATM   28  C   UNL     1     -11.482  16.066  69.549  1.00  0.00    -0.326 A  
HETATM   29  C   UNL     1     -11.053  16.351  68.246  1.00  0.00    -0.337 A  
HETATM   30  C   UNL     1     -11.123  15.340  67.297  1.00  0.00    -0.325 A  
HETATM   31 BR   UNL     1     -10.382  18.050  67.814  1.00  0.00    -0.418 Br 
ENDBRANCH  23  25
ENDBRANCH  22  23
ENDBRANCH  21  22
ENDBRANCH  16  21
TORSDOF 5
ENDMDL
MODEL       18
REMARK 921   NORMALIZED FREE ENERGY PREDICTED BY IDOCK:   -6.54 KCAL/MOL
REMARK 922        TOTAL FREE ENERGY PREDICTED BY IDOCK:   -8.88 KCAL/MOL
REMARK 923 INTER-LIGAND FREE ENERGY PREDICTED BY IDOCK:   -8.87 KCAL/MOL
REMARK 924 INTRA-LIGAND FREE ENERGY PREDICTED BY IDOCK:   -0.01 KCAL/MOL
REMARK 927      BINDING AFFINITY PREDICTED BY RF-SCORE:    0.00 PKD
ROOT
HETATM    1  C   UNL     1     -10.987   7.520  72.437  1.00  0.00    -0.286 C  
HETATM    2  C   UNL     1     -10.658   6.809  73.744  1.00  0.00    -0.323 C  
HETATM    3  C   UNL     1     -10.388   5.451  73.391  1.00  0.00    -0.244 A  
HETATM    4  C   UNL     1     -10.629   4.304  74.073  1.00  0.00    -0.259 A  
HETATM    5  N   UNL     1     -10.342   3.291  73.202  1.00  0.00    -0.150 NA 
HETATM    6  C   UNL     1     -10.636   1.920  73.550  1.00  0.00    -0.124 C  
HETATM    7  C   UNL     1      -9.875   3.804  72.004  1.00  0.00    -0.173 A  
HETATM    8  C   UNL     1      -9.410   3.236  70.810  1.00  0.00    -0.223 A  
HETATM    9  C   UNL     1      -9.086   4.125  69.768  1.00  0.00    -0.176 A  
HETATM   10  C   UNL     1      -9.268   5.538  69.843  1.00  0.00    -0.170 A  
HETATM   11  C   UNL     1      -9.730   6.162  71.009  1.00  0.00    -0.202 A  
HETATM   12  C   UNL     1      -9.952   7.743  71.323  1.00  0.00    -0.175 C  
HETATM   13  C   UNL     1      -9.964   5.210  72.078  1.00  0.00    -0.240 A  
HETATM   14  C   UNL     1     -10.859   9.243  70.844  1.00  0.00    -0.365 C  
HETATM   15  C   UNL     1     -12.406   6.805  70.344  1.00  0.00    -0.006 C  
HETATM   16  C   UNL     1     -12.242   9.608  71.818  1.00  0.00    -0.464 C  
HETATM   17  N   UNL     1     -12.361   7.195  71.797  1.00  0.00    -0.336 NA 
HETATM   18  C   UNL     1     -13.157   8.387  71.921  1.00  0.00    -0.358 C  
ENDROOT
BRANCH  12  19
HETATM   19  O   UNL     1      -8.664   8.235  71.772  1.00  0.00    -0.132 OA 
HETATM   20  C   UNL     1      -7.863   8.770  70.712  1.00  0.00    -0.109 C  
ENDBRANCH  12  19
BRANCH  16  21
HETATM   21  C   UNL     1     -13.177  10.808  71.968  1.00  0.00    -0.361 C  
BRANCH  21  22
HETATM   22  O   UNL     1     -12.982  11.882  71.092  1.00  0.00    -0.299 OA 
BRANCH  22  23
HETATM   23  C   UNL     1     -13.270  13.047  71.725  1.00  0.00    -0.392 C  
HETATM   24  O   UNL     1     -14.053  13.197  72.636  1.00  0.00    -0.701 OA 
BRANCH  23  25
HETATM   25  C   UNL     1     -12.543  14.136  71.108  1.00  0.00    -0.439 A  
HETATM   26  C   UNL     1     -12.298  15.228  71.925  1.00  0.00    -0.354 A  
HETATM   27  N   UNL     1     -11.622  16.329  71.518  1.00  0.00    -0.437 NA 
HETATM   28  C   UNL     1     -11.198  16.331  70.236  1.00  0.00    -0.333 A  
HETATM   29  C   UNL     1     -11.438  15.295  69.324  1.00  0.00    -0.320 A  
HETATM   30  C   UNL     1     -12.129  14.176  69.770  1.00  0.00    -0.409 A  
HETATM   31 BR   UNL     1     -10.816  15.418  67.557  1.00  0.00    -0.309 Br 
ENDBRANCH  23  25
ENDBRANCH  22  23
ENDBRANCH  21  22
ENDBRANCH  16  21
TORSDOF 5
ENDMDL
MODEL       19
REMARK 921   NORMALIZED FREE ENERGY PREDICTED BY IDOCK:   -6.53 KCAL/MOL
REMARK 922        TOTAL FREE ENERGY PREDICTED BY IDOCK:   -8.87 KCAL/MOL
REMARK 923 INTER-LIGAND FREE ENERGY PREDICTED BY IDOCK:   -8.51 KCAL/MOL
REMARK 924 INTRA-LIGAND FREE ENERGY PREDICTED BY IDOCK:   -0.36 KCAL/MOL
REMARK 927      BINDING AFFINITY PREDICTED BY RF-SCORE:    0.00 PKD
ROOT
HETATM    1  C   UNL     1      -9.715  10.349  67.888  1.00  0.00    -0.149 C  
HETATM    2  C   UNL     1     -11.056  11.056  68.044  1.00  0.00    -0.343 C  
HETATM    3  C   UNL     1     -11.283  11.736  66.809  1.00  0.00    -0.388 A  
HETATM    4  C   UNL     1     -11.905  12.915  66.560  1.00  0.00    -0.407 A  
HETATM    5  N   UNL     1     -11.678  13.179  65.238  1.00  0.00    -0.329 NA 
HETATM    6  C   UNL     1     -12.071  14.445  64.666  1.00  0.00    -0.471 C  
HETATM    7  C   UNL     1     -10.966  12.145  64.657  1.00  0.00    -0.312 A  
HETATM    8  C   UNL     1     -10.508  11.879  63.359  1.00  0.00    -0.487 A  
HETATM    9  C   UNL     1      -9.733  10.717  63.184  1.00  0.00    -0.375 A  
HETATM   10  C   UNL     1      -9.342   9.854  64.251  1.00  0.00    -0.313 A  
HETATM   11  C   UNL     1      -9.768  10.069  65.568  1.00  0.00    -0.355 A  
HETATM   12  C   UNL     1      -9.490   9.187  66.907  1.00  0.00    -0.171 C  
HETATM   13  C   UNL     1     -10.635  11.227  65.676  1.00  0.00    -0.303 A  
HETATM   14  C   UNL     1      -8.212   8.547  68.029  1.00  0.00    -0.120 C  
HETATM   15  C   UNL     1      -7.439  11.095  66.808  1.00  0.00    -0.146 C  
HETATM   16  C   UNL     1      -7.977   9.468  69.476  1.00  0.00    -0.110 C  
HETATM   17  N   UNL     1      -8.451  11.246  67.911  1.00  0.00    -0.128 NA 
HETATM   18  C   UNL     1      -7.762  10.943  69.137  1.00  0.00    -0.127 C  
ENDROOT
BRANCH  12  19
HETATM   19  O   UNL     1     -10.519   8.165  66.921  1.00  0.00    -0.328 OA 
HETATM   20  C   UNL     1     -10.039   6.875  66.528  1.00  0.00    -0.070 C  
ENDBRANCH  12  19
BRANCH  16  21
HETATM   21  C   UNL     1      -7.216   9.255  70.785  1.00  0.00    -0.121 C  
BRANCH  21  22
HETATM   22  O   UNL     1      -7.979   9.038  71.938  1.00  0.00    -0.348 OA 
BRANCH  22  23
HETATM   23  C   UNL     1      -8.532   7.799  71.895  1.00  0.00    -0.114 C  
HETATM   24  O   UNL     1      -7.936   6.746  71.849  1.00  0.00    -0.100 OA 
BRANCH  23  25
HETATM   25  C   UNL     1      -9.974   7.904  71.844  1.00  0.00    -0.234 A  
HETATM   26  C   UNL     1     -10.661   6.702  71.885  1.00  0.00    -0.223 A  
HETATM   27  N   UNL     1     -12.013   6.612  71.859  1.00  0.00    -0.331 NA 
HETATM   28  C   UNL     1     -12.688   7.777  71.770  1.00  0.00    -0.329 A  
HETATM   29  C   UNL     1     -12.081   9.036  71.677  1.00  0.00    -0.352 A  
HETATM   30  C   UNL     1     -10.694   9.098  71.711  1.00  0.00    -0.405 A  
HETATM   31 BR   UNL     1     -13.124  10.590  71.536  1.00  0.00    -0.522 Br 
ENDBRANCH  23  25
ENDBRANCH  22  23
ENDBRANCH  21  22
ENDBRANCH  16  21
TORSDOF 5
ENDMDL
MODEL       20
REMARK 921   NORMALIZED FREE ENERGY PREDICTED BY IDOCK:   -6.53 KCAL/MOL
REMARK 922        TOTAL FREE ENERGY PREDICTED BY IDOCK:   -8.87 KCAL/MOL
REMARK 923 INTER-LIGAND FREE ENERGY PREDICTED BY IDOCK:   -8.40 KCAL/MOL
REMARK 924 INTRA-LIGAND FREE ENERGY PREDICTED BY IDOCK:   -0.47 KCAL/MOL
REMARK 927      BINDING AFFINITY PREDICTED BY RF-SCORE:    0.00 PKD
ROOT
HETATM    1  C   UNL     1     -10.890  13.527  68.133  1.00  0.00    -0.254 C  
HETATM    2  C   UNL     1     -11.458  13.614  69.545  1.00  0.00    -0.324 C  
HETATM    3  C   UNL     1     -11.694  12.265  69.953  1.00  0.00    -0.346 A  
HETATM    4  C   UNL     1     -12.662  11.748  70.748  1.00  0.00    -0.167 A  
HETATM    5  N   UNL     1     -12.529  10.391  70.656  1.00  0.00    -0.334 NA 
HETATM    6  C   UNL     1     -13.505   9.515  71.262  1.00  0.00    -0.283 C  
HETATM    7  C   UNL     1     -11.451  10.067  69.851  1.00  0.00    -0.215 A  
HETATM    8  C   UNL     1     -10.850   8.865  69.455  1.00  0.00    -0.163 A  
HETATM    9  C   UNL     1      -9.784   8.958  68.540  1.00  0.00    -0.172 A  
HETATM   10  C   UNL     1      -9.341  10.183  67.958  1.00  0.00    -0.149 A  
HETATM   11  C   UNL     1      -9.904  11.416  68.314  1.00  0.00    -0.202 A  
HETATM   12  C   UNL     1      -9.515  12.916  67.821  1.00  0.00    -0.202 C  
HETATM   13  C   UNL     1     -10.935  11.270  69.323  1.00  0.00    -0.297 A  
HETATM   14  C   UNL     1      -9.398  14.029  66.389  1.00  0.00    -0.242 C  
HETATM   15  C   UNL     1     -11.513  12.029  66.067  1.00  0.00    -0.338 C  
HETATM   16  C   UNL     1     -10.740  15.102  66.180  1.00  0.00    -0.327 C  
HETATM   17  N   UNL     1     -11.885  13.143  67.008  1.00  0.00    -0.379 NA 
HETATM   18  C   UNL     1     -12.053  14.319  66.198  1.00  0.00    -0.406 C  
ENDROOT
BRANCH  12  19
HETATM   19  O   UNL     1      -8.440  13.347  68.694  1.00  0.00    -0.113 OA 
HETATM   20  C   UNL     1      -7.221  12.624  68.488  1.00  0.00    -0.113 C  
ENDBRANCH  12  19
BRANCH  16  21
HETATM   21  C   UNL     1     -11.027  16.322  65.306  1.00  0.00    -0.236 C  
BRANCH  21  22
HETATM   22  O   UNL     1     -10.097  17.367  65.343  1.00  0.00    -0.562 OA 
BRANCH  22  23
HETATM   23  C   UNL     1     -10.057  17.901  66.590  1.00  0.00    -0.362 C  
HETATM   24  O   UNL     1     -11.007  18.238  67.260  1.00  0.00    -0.312 OA 
BRANCH  23  25
HETATM   25  C   UNL     1      -8.682  18.082  67.004  1.00  0.00    -0.253 A  
HETATM   26  C   UNL     1      -7.734  17.436  66.228  1.00  0.00    -0.305 A  
HETATM   27  N   UNL     1      -6.402  17.505  66.463  1.00  0.00    -0.203 NA 
HETATM   28  C   UNL     1      -6.020  18.238  67.530  1.00  0.00    -0.162 A  
HETATM   29  C   UNL     1      -6.906  18.889  68.399  1.00  0.00    -0.252 A  
HETATM   30  C   UNL     1      -8.266  18.805  68.130  1.00  0.00    -0.332 A  
HETATM   31 BR   UNL     1      -6.259  19.865  69.866  1.00  0.00    -0.391 Br 
ENDBRANCH  23  25
ENDBRANCH  22  23
ENDBRANCH  21  22
ENDBRANCH  16  21
TORSDOF 5
ENDMDL
MODEL       21
REMARK 921   NORMALIZED FREE ENERGY PREDICTED BY IDOCK:   -6.52 KCAL/MOL
REMARK 922        TOTAL FREE ENERGY PREDICTED BY IDOCK:   -8.86 KCAL/MOL
REMARK 923 INTER-LIGAND FREE ENERGY PREDICTED BY IDOCK:   -8.48 KCAL/MOL
REMARK 924 INTRA-LIGAND FREE ENERGY PREDICTED BY IDOCK:   -0.38 KCAL/MOL
REMARK 927      BINDING AFFINITY PREDICTED BY RF-SCORE:    0.00 PKD
ROOT
HETATM    1  C   UNL     1     -10.729  12.167  68.273  1.00  0.00    -0.223 C  
HETATM    2  C   UNL     1     -11.459  12.424  69.587  1.00  0.00    -0.264 C  
HETATM    3  C   UNL     1     -11.638  11.141  70.190  1.00  0.00    -0.410 A  
HETATM    4  C   UNL     1     -12.649  10.669  70.960  1.00  0.00    -0.416 A  
HETATM    5  N   UNL     1     -12.403   9.333  71.111  1.00  0.00    -0.307 NA 
HETATM    6  C   UNL     1     -13.374   8.478  71.754  1.00  0.00    -0.367 C  
HETATM    7  C   UNL     1     -11.220   8.988  70.483  1.00  0.00    -0.260 A  
HETATM    8  C   UNL     1     -10.488   7.798  70.358  1.00  0.00    -0.221 A  
HETATM    9  C   UNL     1      -9.335   7.844  69.551  1.00  0.00    -0.156 A  
HETATM   10  C   UNL     1      -8.923   8.997  68.818  1.00  0.00    -0.137 A  
HETATM   11  C   UNL     1      -9.614  10.213  68.904  1.00  0.00    -0.186 A  
HETATM   12  C   UNL     1      -9.285  11.645  68.207  1.00  0.00    -0.187 C  
HETATM   13  C   UNL     1     -10.740  10.134  69.815  1.00  0.00    -0.317 A  
HETATM   14  C   UNL     1      -9.090  12.522  66.627  1.00  0.00    -0.203 C  
HETATM   15  C   UNL     1     -10.999  10.308  66.436  1.00  0.00     0.147 C  
HETATM   16  C   UNL     1     -10.477  13.419  66.108  1.00  0.00    -0.295 C  
HETATM   17  N   UNL     1     -11.558  11.518  67.135  1.00  0.00    -0.557 NA 
HETATM   18  C   UNL     1     -11.721  12.529  66.126  1.00  0.00    -0.409 C  
ENDROOT
BRANCH  12  19
HETATM   19  O   UNL     1      -8.353  12.307  69.098  1.00  0.00     0.270 OA 
HETATM   20  C   UNL     1      -7.106  11.614  69.227  1.00  0.00    -0.055 C  
ENDBRANCH  12  19
BRANCH  16  21
HETATM   21  C   UNL     1     -10.754  14.452  65.017  1.00  0.00    -0.423 C  
BRANCH  21  22
HETATM   22  O   UNL     1      -9.863  15.526  64.913  1.00  0.00    -0.249 OA 
BRANCH  22  23
HETATM   23  C   UNL     1     -10.546  16.696  64.972  1.00  0.00    -0.091 C  
HETATM   24  O   UNL     1     -11.460  17.034  64.253  1.00  0.00    -1.124 OA 
BRANCH  23  25
HETATM   25  C   UNL     1      -9.982  17.547  65.999  1.00  0.00    -0.231 A  
HETATM   26  C   UNL     1     -10.497  18.831  66.059  1.00  0.00    -0.432 A  
HETATM   27  N   UNL     1     -10.095  19.756  66.963  1.00  0.00    -0.395 NA 
HETATM   28  C   UNL     1      -9.127  19.371  67.822  1.00  0.00    -0.315 A  
HETATM   29  C   UNL     1      -8.514  18.111  67.809  1.00  0.00    -0.248 A  
HETATM   30  C   UNL     1      -8.950  17.182  66.874  1.00  0.00    -0.253 A  
HETATM   31 BR   UNL     1      -7.161  17.695  69.041  1.00  0.00    -0.164 Br 
ENDBRANCH  23  25
ENDBRANCH  22  23
ENDBRANCH  21  22
ENDBRANCH  16  21
TORSDOF 5
ENDMDL
MODEL       22
REMARK 921   NORMALIZED FREE ENERGY PREDICTED BY IDOCK:   -6.52 KCAL/MOL
REMARK 922        TOTAL FREE ENERGY PREDICTED BY IDOCK:   -8.86 KCAL/MOL
REMARK 923 INTER-LIGAND FREE ENERGY PREDICTED BY IDOCK:   -8.68 KCAL/MOL
REMARK 924 INTRA-LIGAND FREE ENERGY PREDICTED BY IDOCK:   -0.18 KCAL/MOL
REMARK 927      BINDING AFFINITY PREDICTED BY RF-SCORE:    0.00 PKD
ROOT
HETATM    1  C   UNL     1     -11.127   7.273  70.574  1.00  0.00    -0.267 C  
HETATM    2  C   UNL     1     -11.451   6.357  69.399  1.00  0.00    -0.374 C  
HETATM    3  C   UNL     1     -10.215   5.737  69.038  1.00  0.00    -0.282 A  
HETATM    4  C   UNL     1      -9.751   5.353  67.823  1.00  0.00    -0.135 A  
HETATM    5  N   UNL     1      -8.449   4.988  68.025  1.00  0.00    -0.103 NA 
HETATM    6  C   UNL     1      -7.595   4.668  66.905  1.00  0.00    -0.087 C  
HETATM    7  C   UNL     1      -8.122   5.095  69.366  1.00  0.00    -0.087 A  
HETATM    8  C   UNL     1      -6.973   4.820  70.119  1.00  0.00    -0.048 A  
HETATM    9  C   UNL     1      -7.019   5.142  71.489  1.00  0.00    -0.057 A  
HETATM   10  C   UNL     1      -8.128   5.781  72.119  1.00  0.00    -0.108 A  
HETATM   11  C   UNL     1      -9.303   6.081  71.417  1.00  0.00    -0.159 A  
HETATM   12  C   UNL     1     -10.689   6.747  71.949  1.00  0.00    -0.223 C  
HETATM   13  C   UNL     1      -9.235   5.649  70.034  1.00  0.00    -0.172 A  
HETATM   14  C   UNL     1     -11.439   8.221  72.701  1.00  0.00    -0.423 C  
HETATM   15  C   UNL     1      -9.107   8.882  71.056  1.00  0.00    -0.243 C  
HETATM   16  C   UNL     1     -12.204   9.305  71.589  1.00  0.00    -0.445 C  
HETATM   17  N   UNL     1     -10.336   8.566  70.247  1.00  0.00    -0.200 NA 
HETATM   18  C   UNL     1     -11.247   9.660  70.450  1.00  0.00    -0.283 C  
ENDROOT
BRANCH  12  19
HETATM   19  O   UNL     1     -11.478   5.645  72.464  1.00  0.00    -0.294 OA 
HETATM   20  C   UNL     1     -10.933   5.069  73.656  1.00  0.00    -0.314 C  
ENDBRANCH  12  19
BRANCH  16  21
HETATM   21  C   UNL     1     -13.124  10.519  71.717  1.00  0.00    -0.464 C  
BRANCH  21  22
HETATM   22  O   UNL     1     -12.795  11.650  70.960  1.00  0.00    -0.328 OA 
BRANCH  22  23
HETATM   23  C   UNL     1     -13.132  12.772  71.644  1.00  0.00    -0.331 C  
HETATM   24  O   UNL     1     -13.911  12.846  72.569  1.00  0.00    -0.579 OA 
BRANCH  23  25
HETATM   25  C   UNL     1     -12.467  13.920  71.067  1.00  0.00    -0.452 A  
HETATM   26  C   UNL     1     -12.197  14.958  71.944  1.00  0.00    -0.352 A  
HETATM   27  N   UNL     1     -11.571  16.102  71.579  1.00  0.00    -0.461 NA 
HETATM   28  C   UNL     1     -11.223  16.205  70.278  1.00  0.00    -0.381 A  
HETATM   29  C   UNL     1     -11.494  15.230  69.309  1.00  0.00    -0.320 A  
HETATM   30  C   UNL     1     -12.133  14.065  69.714  1.00  0.00    -0.405 A  
HETATM   31 BR   UNL     1     -10.981  15.492  67.523  1.00  0.00    -0.298 Br 
ENDBRANCH  23  25
ENDBRANCH  22  23
ENDBRANCH  21  22
ENDBRANCH  16  21
TORSDOF 5
ENDMDL
MODEL       23
REMARK 921   NORMALIZED FREE ENERGY PREDICTED BY IDOCK:   -6.32 KCAL/MOL
REMARK 922        TOTAL FREE ENERGY PREDICTED BY IDOCK:   -8.59 KCAL/MOL
REMARK 923 INTER-LIGAND FREE ENERGY PREDICTED BY IDOCK:   -8.50 KCAL/MOL
REMARK 924 INTRA-LIGAND FREE ENERGY PREDICTED BY IDOCK:   -0.09 KCAL/MOL
REMARK 927      BINDING AFFINITY PREDICTED BY RF-SCORE:    0.00 PKD
ROOT
HETATM    1  C   UNL     1      -9.859  12.210  68.199  1.00  0.00    -0.207 C  
HETATM    2  C   UNL     1     -10.219  13.618  68.659  1.00  0.00    -0.199 C  
HETATM    3  C   UNL     1     -10.600  14.327  67.478  1.00  0.00    -0.261 A  
HETATM    4  C   UNL     1     -10.436  15.632  67.150  1.00  0.00    -0.303 A  
HETATM    5  N   UNL     1     -10.816  15.732  65.840  1.00  0.00    -0.303 NA 
HETATM    6  C   UNL     1     -10.622  16.966  65.114  1.00  0.00    -0.069 C  
HETATM    7  C   UNL     1     -11.262  14.508  65.374  1.00  0.00    -0.342 A  
HETATM    8  C   UNL     1     -11.790  14.058  64.156  1.00  0.00    -0.393 A  
HETATM    9  C   UNL     1     -12.062  12.680  64.053  1.00  0.00    -0.542 A  
HETATM   10  C   UNL     1     -11.771  11.733  65.080  1.00  0.00    -0.174 A  
HETATM   11  C   UNL     1     -11.241  12.124  66.316  1.00  0.00    -0.382 A  
HETATM   12  C   UNL     1     -10.893  11.226  67.628  1.00  0.00    -0.238 C  
HETATM   13  C   UNL     1     -11.064  13.561  66.400  1.00  0.00    -0.311 A  
HETATM   14  C   UNL     1      -9.881   9.861  68.270  1.00  0.00    -0.165 C  
HETATM   15  C   UNL     1      -8.536  11.316  66.112  1.00  0.00    -0.156 C  
HETATM   16  C   UNL     1      -8.457  10.342  69.129  1.00  0.00    -0.168 C  
HETATM   17  N   UNL     1      -8.525  12.052  67.424  1.00  0.00    -0.161 NA 
HETATM   18  C   UNL     1      -7.638  11.324  68.291  1.00  0.00    -0.114 C  
ENDROOT
BRANCH  12  19
HETATM   19  O   UNL     1     -12.131  11.134  68.377  1.00  0.00    -0.605 OA 
HETATM   20  C   UNL     1     -12.009  11.596  69.727  1.00  0.00    -0.332 C  
ENDBRANCH  12  19
BRANCH  16  21
HETATM   21  C   UNL     1      -7.429   9.632  70.009  1.00  0.00    -0.141 C  
BRANCH  21  22
HETATM   22  O   UNL     1      -7.764   8.356  70.479  1.00  0.00    -0.072 OA 
BRANCH  22  23
HETATM   23  C   UNL     1      -8.384   8.458  71.681  1.00  0.00    -0.156 C  
HETATM   24  O   UNL     1      -7.886   8.837  72.718  1.00  0.00    -0.377 OA 
BRANCH  23  25
HETATM   25  C   UNL     1      -9.746   7.979  71.577  1.00  0.00    -0.213 A  
HETATM   26  C   UNL     1      -9.887   6.675  71.131  1.00  0.00    -0.181 A  
HETATM   27  N   UNL     1     -11.085   6.061  70.986  1.00  0.00    -0.294 NA 
HETATM   28  C   UNL     1     -12.176   6.799  71.283  1.00  0.00    -0.364 A  
HETATM   29  C   UNL     1     -12.135   8.137  71.696  1.00  0.00    -0.304 A  
HETATM   30  C   UNL     1     -10.893   8.739  71.841  1.00  0.00    -0.431 A  
HETATM   31 BR   UNL     1     -13.722   9.071  72.062  1.00  0.00    -0.542 Br 
ENDBRANCH  23  25
ENDBRANCH  22  23
ENDBRANCH  21  22
ENDBRANCH  16  21
TORSDOF 5
ENDMDL
MODEL       24
REMARK 921   NORMALIZED FREE ENERGY PREDICTED BY IDOCK:   -6.29 KCAL/MOL
REMARK 922        TOTAL FREE ENERGY PREDICTED BY IDOCK:   -8.55 KCAL/MOL
REMARK 923 INTER-LIGAND FREE ENERGY PREDICTED BY IDOCK:   -8.30 KCAL/MOL
REMARK 924 INTRA-LIGAND FREE ENERGY PREDICTED BY IDOCK:   -0.25 KCAL/MOL
REMARK 927      BINDING AFFINITY PREDICTED BY RF-SCORE:    0.00 PKD
ROOT
HETATM    1  C   UNL     1      -8.388  17.182  67.413  1.00  0.00    -0.190 C  
HETATM    2  C   UNL     1      -7.566  17.108  66.132  1.00  0.00    -0.304 C  
HETATM    3  C   UNL     1      -6.772  18.297  66.110  1.00  0.00    -0.288 A  
HETATM    4  C   UNL     1      -6.355  19.051  65.064  1.00  0.00    -0.248 A  
HETATM    5  N   UNL     1      -5.787  20.165  65.617  1.00  0.00    -0.176 NA 
HETATM    6  C   UNL     1      -5.370  21.267  64.782  1.00  0.00    -0.145 C  
HETATM    7  C   UNL     1      -5.805  20.078  66.998  1.00  0.00    -0.171 A  
HETATM    8  C   UNL     1      -5.334  20.893  68.037  1.00  0.00    -0.319 A  
HETATM    9  C   UNL     1      -5.622  20.477  69.351  1.00  0.00    -0.381 A  
HETATM   10  C   UNL     1      -6.407  19.329  69.667  1.00  0.00    -0.321 A  
HETATM   11  C   UNL     1      -6.905  18.477  68.672  1.00  0.00    -0.279 A  
HETATM   12  C   UNL     1      -7.762  17.102  68.815  1.00  0.00    -0.259 C  
HETATM   13  C   UNL     1      -6.506  18.904  67.344  1.00  0.00    -0.195 A  
HETATM   14  C   UNL     1      -9.313  16.371  69.415  1.00  0.00    -0.090 C  
HETATM   15  C   UNL     1      -9.650  19.162  68.592  1.00  0.00    -0.413 C  
HETATM   16  C   UNL     1     -10.533  16.140  68.209  1.00  0.00    -0.276 C  
HETATM   17  N   UNL     1      -9.551  18.207  67.433  1.00  0.00    -0.271 NA 
HETATM   18  C   UNL     1     -10.767  17.439  67.435  1.00  0.00    -0.251 C  
ENDROOT
BRANCH  12  19
HETATM   19  O   UNL     1      -6.781  16.048  68.989  1.00  0.00    -0.136 OA 
HETATM   20  C   UNL     1      -5.855  16.309  70.049  1.00  0.00    -0.185 C  
ENDBRANCH  12  19
BRANCH  16  21
HETATM   21  C   UNL     1     -11.871  15.404  68.146  1.00  0.00    -0.160 C  
BRANCH  21  22
HETATM   22  O   UNL     1     -11.966  14.193  68.840  1.00  0.00    -0.333 OA 
BRANCH  22  23
HETATM   23  C   UNL     1     -11.699  13.161  68.002  1.00  0.00    -0.355 C  
HETATM   24  O   UNL     1     -11.876  13.142  66.804  1.00  0.00    -0.360 OA 
BRANCH  23  25
HETATM   25  C   UNL     1     -11.218  12.023  68.756  1.00  0.00    -0.316 A  
HETATM   26  C   UNL     1      -9.983  11.530  68.370  1.00  0.00    -0.206 A  
HETATM   27  N   UNL     1      -9.376  10.480  68.973  1.00  0.00    -0.192 NA 
HETATM   28  C   UNL     1     -10.053   9.899  69.987  1.00  0.00    -0.260 A  
HETATM   29  C   UNL     1     -11.325  10.297  70.417  1.00  0.00    -0.332 A  
HETATM   30  C   UNL     1     -11.920  11.381  69.784  1.00  0.00    -0.422 A  
HETATM   31 BR   UNL     1     -12.180   9.399  71.826  1.00  0.00    -0.465 Br 
ENDBRANCH  23  25
ENDBRANCH  22  23
ENDBRANCH  21  22
ENDBRANCH  16  21
TORSDOF 5
ENDMDL
MODEL       25
REMARK 921   NORMALIZED FREE ENERGY PREDICTED BY IDOCK:   -6.25 KCAL/MOL
REMARK 922        TOTAL FREE ENERGY PREDICTED BY IDOCK:   -8.50 KCAL/MOL
REMARK 923 INTER-LIGAND FREE ENERGY PREDICTED BY IDOCK:   -8.42 KCAL/MOL
REMARK 924 INTRA-LIGAND FREE ENERGY PREDICTED BY IDOCK:   -0.09 KCAL/MOL
REMARK 927      BINDING AFFINITY PREDICTED BY RF-SCORE:    0.00 PKD
ROOT
HETATM    1  C   UNL     1     -10.547   7.788  69.436  1.00  0.00    -0.208 C  
HETATM    2  C   UNL     1     -10.956   6.336  69.219  1.00  0.00    -0.435 C  
HETATM    3  C   UNL     1     -10.402   5.608  70.316  1.00  0.00    -0.336 A  
HETATM    4  C   UNL     1      -9.919   4.343  70.373  1.00  0.00    -0.183 A  
HETATM    5  N   UNL     1      -9.348   4.221  71.609  1.00  0.00    -0.132 NA 
HETATM    6  C   UNL     1      -8.594   3.038  71.954  1.00  0.00    -0.073 C  
HETATM    7  C   UNL     1      -9.522   5.385  72.335  1.00  0.00    -0.143 A  
HETATM    8  C   UNL     1      -9.185   5.788  73.635  1.00  0.00    -0.130 A  
HETATM    9  C   UNL     1      -9.480   7.121  73.983  1.00  0.00    -0.303 A  
HETATM   10  C   UNL     1     -10.029   8.076  73.077  1.00  0.00    -0.349 A  
HETATM   11  C   UNL     1     -10.384   7.732  71.766  1.00  0.00    -0.243 A  
HETATM   12  C   UNL     1     -11.069   8.640  70.603  1.00  0.00    -0.249 C  
HETATM   13  C   UNL     1     -10.142   6.329  71.489  1.00  0.00    -0.218 A  
HETATM   14  C   UNL     1     -10.874  10.112  69.556  1.00  0.00    -0.289 C  
HETATM   15  C   UNL     1      -8.301   8.890  70.239  1.00  0.00    -0.147 C  
HETATM   16  C   UNL     1     -10.300   9.803  67.953  1.00  0.00    -0.258 C  
HETATM   17  N   UNL     1      -9.057   8.134  69.180  1.00  0.00    -0.148 NA 
HETATM   18  C   UNL     1      -9.029   8.954  67.999  1.00  0.00    -0.140 C  
ENDROOT
BRANCH  12  19
HETATM   19  O   UNL     1     -12.499   8.554  70.833  1.00  0.00    -0.162 OA 
HETATM   20  C   UNL     1     -12.907   9.139  72.075  1.00  0.00    -0.408 C  
ENDBRANCH  12  19
BRANCH  16  21
HETATM   21  C   UNL     1     -10.172  10.623  66.669  1.00  0.00    -0.231 C  
BRANCH  21  22
HETATM   22  O   UNL     1     -11.160  11.584  66.425  1.00  0.00    -0.296 OA 
BRANCH  22  23
HETATM   23  C   UNL     1     -11.127  11.954  65.120  1.00  0.00    -0.305 C  
HETATM   24  O   UNL     1     -10.993  11.219  64.167  1.00  0.00    -0.372 OA 
BRANCH  23  25
HETATM   25  C   UNL     1     -11.212  13.395  65.013  1.00  0.00    -0.332 A  
HETATM   26  C   UNL     1     -12.151  13.872  64.114  1.00  0.00    -0.425 A  
HETATM   27  N   UNL     1     -12.374  15.190  63.895  1.00  0.00    -0.664 NA 
HETATM   28  C   UNL     1     -11.608  16.051  64.597  1.00  0.00    -0.169 A  
HETATM   29  C   UNL     1     -10.603  15.664  65.492  1.00  0.00    -0.404 A  
HETATM   30  C   UNL     1     -10.400  14.306  65.701  1.00  0.00    -0.352 A  
HETATM   31 BR   UNL     1      -9.583  16.953  66.398  1.00  0.00    -0.313 Br 
ENDBRANCH  23  25
ENDBRANCH  22  23
ENDBRANCH  21  22
ENDBRANCH  16  21
TORSDOF 5
ENDMDL
MODEL       26
REMARK 921   NORMALIZED FREE ENERGY PREDICTED BY IDOCK:   -6.22 KCAL/MOL
REMARK 922        TOTAL FREE ENERGY PREDICTED BY IDOCK:   -8.47 KCAL/MOL
REMARK 923 INTER-LIGAND FREE ENERGY PREDICTED BY IDOCK:   -8.38 KCAL/MOL
REMARK 924 INTRA-LIGAND FREE ENERGY PREDICTED BY IDOCK:   -0.09 KCAL/MOL
REMARK 927      BINDING AFFINITY PREDICTED BY RF-SCORE:    0.00 PKD
ROOT
HETATM    1  C   UNL     1     -10.720   7.630  69.486  1.00  0.00    -0.209 C  
HETATM    2  C   UNL     1     -11.028   6.544  68.462  1.00  0.00    -0.360 C  
HETATM    3  C   UNL     1      -9.963   5.597  68.567  1.00  0.00    -0.205 A  
HETATM    4  C   UNL     1      -9.377   4.829  67.616  1.00  0.00    -0.138 A  
HETATM    5  N   UNL     1      -8.298   4.249  68.224  1.00  0.00    -0.092 NA 
HETATM    6  C   UNL     1      -7.350   3.479  67.454  1.00  0.00    -0.063 C  
HETATM    7  C   UNL     1      -8.246   4.613  69.558  1.00  0.00    -0.068 A  
HETATM    8  C   UNL     1      -7.401   4.289  70.629  1.00  0.00    -0.048 A  
HETATM    9  C   UNL     1      -7.644   4.945  71.851  1.00  0.00    -0.097 A  
HETATM   10  C   UNL     1      -8.642   5.949  72.029  1.00  0.00    -0.137 A  
HETATM   11  C   UNL     1      -9.514   6.315  70.995  1.00  0.00    -0.187 A  
HETATM   12  C   UNL     1     -10.743   7.381  71.002  1.00  0.00    -0.231 C  
HETATM   13  C   UNL     1      -9.277   5.547  69.788  1.00  0.00    -0.168 A  
HETATM   14  C   UNL     1     -11.200   9.125  71.235  1.00  0.00    -0.407 C  
HETATM   15  C   UNL     1      -8.484   8.823  70.179  1.00  0.00    -0.137 C  
HETATM   16  C   UNL     1     -11.386  10.036  69.775  1.00  0.00    -0.281 C  
HETATM   17  N   UNL     1      -9.553   8.593  69.146  1.00  0.00    -0.161 NA 
HETATM   18  C   UNL     1     -10.150   9.876  68.888  1.00  0.00    -0.184 C  
ENDROOT
BRANCH  12  19
HETATM   19  O   UNL     1     -11.895   6.644  71.485  1.00  0.00    -0.306 OA 
HETATM   20  C   UNL     1     -11.567   5.678  72.489  1.00  0.00    -0.246 C  
ENDBRANCH  12  19
BRANCH  16  21
HETATM   21  C   UNL     1     -11.941  11.416  69.422  1.00  0.00    -0.339 C  
BRANCH  21  22
HETATM   22  O   UNL     1     -12.388  11.606  68.109  1.00  0.00    -0.429 OA 
BRANCH  22  23
HETATM   23  C   UNL     1     -11.969  12.813  67.653  1.00  0.00    -0.273 C  
HETATM   24  O   UNL     1     -11.805  13.815  68.313  1.00  0.00    -0.344 OA 
BRANCH  23  25
HETATM   25  C   UNL     1     -11.800  12.766  66.216  1.00  0.00    -0.485 A  
HETATM   26  C   UNL     1     -12.646  13.586  65.488  1.00  0.00    -0.481 A  
HETATM   27  N   UNL     1     -12.619  13.678  64.137  1.00  0.00    -0.674 NA 
HETATM   28  C   UNL     1     -11.717  12.899  63.503  1.00  0.00    -0.512 A  
HETATM   29  C   UNL     1     -10.852  12.006  64.149  1.00  0.00    -0.352 A  
HETATM   30  C   UNL     1     -10.899  11.937  65.535  1.00  0.00    -0.343 A  
HETATM   31 BR   UNL     1      -9.652  10.956  63.159  1.00  0.00    -0.417 Br 
ENDBRANCH  23  25
ENDBRANCH  22  23
ENDBRANCH  21  22
ENDBRANCH  16  21
TORSDOF 5
ENDMDL
MODEL       27
REMARK 921   NORMALIZED FREE ENERGY PREDICTED BY IDOCK:   -6.21 KCAL/MOL
REMARK 922        TOTAL FREE ENERGY PREDICTED BY IDOCK:   -8.46 KCAL/MOL
REMARK 923 INTER-LIGAND FREE ENERGY PREDICTED BY IDOCK:   -8.12 KCAL/MOL
REMARK 924 INTRA-LIGAND FREE ENERGY PREDICTED BY IDOCK:   -0.34 KCAL/MOL
REMARK 927      BINDING AFFINITY PREDICTED BY RF-SCORE:    0.00 PKD
ROOT
HETATM    1  C   UNL     1     -10.111   7.813  68.958  1.00  0.00    -0.196 C  
HETATM    2  C   UNL     1     -10.691   6.925  67.862  1.00  0.00    -0.294 C  
HETATM    3  C   UNL     1     -10.306   5.591  68.199  1.00  0.00    -0.236 A  
HETATM    4  C   UNL     1      -9.996   4.541  67.399  1.00  0.00    -0.120 A  
HETATM    5  N   UNL     1      -9.526   3.568  68.236  1.00  0.00    -0.171 NA 
HETATM    6  C   UNL     1      -8.955   2.354  67.699  1.00  0.00    -0.154 C  
HETATM    7  C   UNL     1      -9.593   3.990  69.551  1.00  0.00    -0.195 A  
HETATM    8  C   UNL     1      -9.291   3.401  70.786  1.00  0.00    -0.225 A  
HETATM    9  C   UNL     1      -9.432   4.211  71.929  1.00  0.00    -0.201 A  
HETATM   10  C   UNL     1      -9.794   5.591  71.885  1.00  0.00    -0.210 A  
HETATM   11  C   UNL     1     -10.107   6.234  70.680  1.00  0.00    -0.230 A  
HETATM   12  C   UNL     1     -10.593   7.764  70.416  1.00  0.00    -0.227 C  
HETATM   13  C   UNL     1     -10.031   5.332  69.548  1.00  0.00    -0.297 A  
HETATM   14  C   UNL     1     -10.142   9.518  70.575  1.00  0.00    -0.347 C  
HETATM   15  C   UNL     1      -7.798   7.801  70.203  1.00  0.00    -0.095 C  
HETATM   16  C   UNL     1      -9.512  10.247  69.138  1.00  0.00    -0.225 C  
HETATM   17  N   UNL     1      -8.576   8.029  68.935  1.00  0.00    -0.131 NA 
HETATM   18  C   UNL     1      -8.367   9.405  68.573  1.00  0.00    -0.118 C  
ENDROOT
BRANCH  12  19
HETATM   19  O   UNL     1     -12.033   7.750  70.587  1.00  0.00    -0.207 OA 
HETATM   20  C   UNL     1     -12.440   7.413  71.917  1.00  0.00    -0.302 C  
ENDBRANCH  12  19
BRANCH  16  21
HETATM   21  C   UNL     1      -9.198  11.676  68.695  1.00  0.00    -0.108 C  
BRANCH  21  22
HETATM   22  O   UNL     1      -9.962  12.202  67.646  1.00  0.00    -0.191 OA 
BRANCH  22  23
HETATM   23  C   UNL     1     -11.282  12.069  67.930  1.00  0.00    -0.264 C  
HETATM   24  O   UNL     1     -12.032  11.227  67.487  1.00  0.00    -0.612 OA 
BRANCH  23  25
HETATM   25  C   UNL     1     -11.708  13.137  68.808  1.00  0.00    -0.363 A  
HETATM   26  C   UNL     1     -11.523  14.420  68.320  1.00  0.00    -0.305 A  
HETATM   27  N   UNL     1     -11.875  15.537  69.001  1.00  0.00    -0.367 NA 
HETATM   28  C   UNL     1     -12.415  15.347  70.224  1.00  0.00    -0.374 A  
HETATM   29  C   UNL     1     -12.599  14.092  70.819  1.00  0.00    -0.360 A  
HETATM   30  C   UNL     1     -12.233  12.964  70.095  1.00  0.00    -0.336 A  
HETATM   31 BR   UNL     1     -13.342  13.951  72.537  1.00  0.00    -0.653 Br 
ENDBRANCH  23  25
ENDBRANCH  22  23
ENDBRANCH  21  22
ENDBRANCH  16  21
TORSDOF 5
ENDMDL
MODEL       28
REMARK 921   NORMALIZED FREE ENERGY PREDICTED BY IDOCK:   -6.21 KCAL/MOL
REMARK 922        TOTAL FREE ENERGY PREDICTED BY IDOCK:   -8.45 KCAL/MOL
REMARK 923 INTER-LIGAND FREE ENERGY PREDICTED BY IDOCK:   -8.45 KCAL/MOL
REMARK 924 INTRA-LIGAND FREE ENERGY PREDICTED BY IDOCK:   -0.01 KCAL/MOL
REMARK 927      BINDING AFFINITY PREDICTED BY RF-SCORE:    0.00 PKD
ROOT
HETATM    1  C   UNL     1      -9.671  11.348  67.453  1.00  0.00    -0.181 C  
HETATM    2  C   UNL     1      -9.183  12.503  68.319  1.00  0.00    -0.186 C  
HETATM    3  C   UNL     1      -9.343  13.680  67.525  1.00  0.00    -0.223 A  
HETATM    4  C   UNL     1      -8.598  14.811  67.475  1.00  0.00    -0.187 A  
HETATM    5  N   UNL     1      -9.088  15.529  66.420  1.00  0.00    -0.292 NA 
HETATM    6  C   UNL     1      -8.421  16.732  65.979  1.00  0.00    -0.165 C  
HETATM    7  C   UNL     1     -10.164  14.872  65.850  1.00  0.00    -0.314 A  
HETATM    8  C   UNL     1     -11.044  15.163  64.798  1.00  0.00    -0.395 A  
HETATM    9  C   UNL     1     -11.990  14.174  64.470  1.00  0.00    -0.476 A  
HETATM   10  C   UNL     1     -12.052  12.893  65.096  1.00  0.00    -0.489 A  
HETATM   11  C   UNL     1     -11.198  12.546  66.152  1.00  0.00    -0.362 A  
HETATM   12  C   UNL     1     -11.139  11.179  67.032  1.00  0.00    -0.273 C  
HETATM   13  C   UNL     1     -10.305  13.631  66.507  1.00  0.00    -0.282 A  
HETATM   14  C   UNL     1     -10.869   9.383  66.977  1.00  0.00    -0.096 C  
HETATM   15  C   UNL     1      -9.356  10.796  64.903  1.00  0.00    -0.222 C  
HETATM   16  C   UNL     1      -9.277   8.866  67.418  1.00  0.00    -0.157 C  
HETATM   17  N   UNL     1      -8.753  10.929  66.275  1.00  0.00    -0.165 NA 
HETATM   18  C   UNL     1      -8.227   9.634  66.614  1.00  0.00    -0.120 C  
ENDROOT
BRANCH  12  19
HETATM   19  O   UNL     1     -12.107  11.360  68.097  1.00  0.00    -0.623 OA 
HETATM   20  C   UNL     1     -11.563  11.119  69.400  1.00  0.00    -0.318 C  
ENDBRANCH  12  19
BRANCH  16  21
HETATM   21  C   UNL     1      -8.621   7.520  67.728  1.00  0.00    -0.120 C  
BRANCH  21  22
HETATM   22  O   UNL     1      -8.634   7.096  69.062  1.00  0.00    -0.128 OA 
BRANCH  22  23
HETATM   23  C   UNL     1      -9.746   6.355  69.296  1.00  0.00    -0.136 C  
HETATM   24  O   UNL     1     -10.092   5.365  68.691  1.00  0.00    -0.161 OA 
BRANCH  23  25
HETATM   25  C   UNL     1     -10.527   6.957  70.356  1.00  0.00    -0.229 A  
HETATM   26  C   UNL     1      -9.797   7.585  71.352  1.00  0.00    -0.177 A  
HETATM   27  N   UNL     1     -10.362   8.210  72.412  1.00  0.00    -0.285 NA 
HETATM   28  C   UNL     1     -11.711   8.181  72.474  1.00  0.00    -0.394 A  
HETATM   29  C   UNL     1     -12.530   7.533  71.541  1.00  0.00    -0.346 A  
HETATM   30  C   UNL     1     -11.923   6.904  70.462  1.00  0.00    -0.358 A  
HETATM   31 BR   UNL     1     -14.396   7.541  71.742  1.00  0.00    -0.585 Br 
ENDBRANCH  23  25
ENDBRANCH  22  23
ENDBRANCH  21  22
ENDBRANCH  16  21
TORSDOF 5
ENDMDL
MODEL       29
REMARK 921   NORMALIZED FREE ENERGY PREDICTED BY IDOCK:   -6.19 KCAL/MOL
REMARK 922        TOTAL FREE ENERGY PREDICTED BY IDOCK:   -8.42 KCAL/MOL
REMARK 923 INTER-LIGAND FREE ENERGY PREDICTED BY IDOCK:   -7.94 KCAL/MOL
REMARK 924 INTRA-LIGAND FREE ENERGY PREDICTED BY IDOCK:   -0.48 KCAL/MOL
REMARK 927      BINDING AFFINITY PREDICTED BY RF-SCORE:    0.00 PKD
ROOT
HETATM    1  C   UNL     1      -9.296   9.453  66.244  1.00  0.00    -0.198 C  
HETATM    2  C   UNL     1      -9.404   9.669  64.739  1.00  0.00    -0.286 C  
HETATM    3  C   UNL     1      -9.937  10.985  64.573  1.00  0.00    -0.366 A  
HETATM    4  C   UNL     1     -10.767  11.479  63.623  1.00  0.00    -0.424 A  
HETATM    5  N   UNL     1     -11.101  12.736  64.043  1.00  0.00    -0.387 NA 
HETATM    6  C   UNL     1     -12.104  13.502  63.340  1.00  0.00    -0.289 C  
HETATM    7  C   UNL     1     -10.441  13.040  65.221  1.00  0.00    -0.304 A  
HETATM    8  C   UNL     1     -10.383  14.171  66.047  1.00  0.00    -0.316 A  
HETATM    9  C   UNL     1      -9.630  14.054  67.231  1.00  0.00    -0.238 A  
HETATM   10  C   UNL     1      -8.995  12.849  67.654  1.00  0.00    -0.192 A  
HETATM   11  C   UNL     1      -9.021  11.687  66.871  1.00  0.00    -0.191 A  
HETATM   12  C   UNL     1      -8.323  10.241  67.135  1.00  0.00    -0.122 C  
HETATM   13  C   UNL     1      -9.733  11.889  65.624  1.00  0.00    -0.248 A  
HETATM   14  C   UNL     1      -8.249   8.805  68.246  1.00  0.00    -0.118 C  
HETATM   15  C   UNL     1     -10.894  10.064  68.237  1.00  0.00    -0.241 C  
HETATM   16  C   UNL     1      -9.185   7.439  67.744  1.00  0.00    -0.133 C  
HETATM   17  N   UNL     1     -10.625   9.234  67.011  1.00  0.00    -0.227 NA 
HETATM   18  C   UNL     1     -10.623   7.862  67.442  1.00  0.00    -0.272 C  
ENDROOT
BRANCH  12  19
HETATM   19  O   UNL     1      -6.974  10.359  66.616  1.00  0.00    -0.099 OA 
HETATM   20  C   UNL     1      -6.269  11.495  67.130  1.00  0.00    -0.121 C  
ENDBRANCH  12  19
BRANCH  16  21
HETATM   21  C   UNL     1      -9.295   5.979  68.183  1.00  0.00    -0.115 C  
BRANCH  21  22
HETATM   22  O   UNL     1     -10.517   5.566  68.726  1.00  0.00    -0.209 OA 
BRANCH  22  23
HETATM   23  C   UNL     1     -10.347   5.217  70.026  1.00  0.00    -0.295 C  
HETATM   24  O   UNL     1      -9.869   4.183  70.438  1.00  0.00    -0.196 OA 
BRANCH  23  25
HETATM   25  C   UNL     1     -10.887   6.247  70.888  1.00  0.00    -0.329 A  
HETATM   26  C   UNL     1     -10.000   6.779  71.809  1.00  0.00    -0.174 A  
HETATM   27  N   UNL     1     -10.331   7.758  72.685  1.00  0.00    -0.265 NA 
HETATM   28  C   UNL     1     -11.606   8.198  72.637  1.00  0.00    -0.375 A  
HETATM   29  C   UNL     1     -12.585   7.689  71.774  1.00  0.00    -0.331 A  
HETATM   30  C   UNL     1     -12.216   6.690  70.883  1.00  0.00    -0.324 A  
HETATM   31 BR   UNL     1     -14.335   8.366  71.812  1.00  0.00    -0.559 Br 
ENDBRANCH  23  25
ENDBRANCH  22  23
ENDBRANCH  21  22
ENDBRANCH  16  21
TORSDOF 5
ENDMDL
MODEL       30
REMARK 921   NORMALIZED FREE ENERGY PREDICTED BY IDOCK:   -6.18 KCAL/MOL
REMARK 922        TOTAL FREE ENERGY PREDICTED BY IDOCK:   -8.42 KCAL/MOL
REMARK 923 INTER-LIGAND FREE ENERGY PREDICTED BY IDOCK:   -8.15 KCAL/MOL
REMARK 924 INTRA-LIGAND FREE ENERGY PREDICTED BY IDOCK:   -0.27 KCAL/MOL
REMARK 927      BINDING AFFINITY PREDICTED BY RF-SCORE:    0.00 PKD
ROOT
HETATM    1  C   UNL     1      -9.347   8.133  70.431  1.00  0.00    -0.158 C  
HETATM    2  C   UNL     1      -8.148   8.143  71.372  1.00  0.00    -0.132 C  
HETATM    3  C   UNL     1      -8.057   6.818  71.900  1.00  0.00    -0.101 A  
HETATM    4  C   UNL     1      -7.655   6.388  73.121  1.00  0.00    -0.094 A  
HETATM    5  N   UNL     1      -7.940   5.052  73.153  1.00  0.00    -0.103 NA 
HETATM    6  C   UNL     1      -7.781   4.298  74.375  1.00  0.00    -0.084 C  
HETATM    7  C   UNL     1      -8.467   4.643  71.941  1.00  0.00    -0.117 A  
HETATM    8  C   UNL     1      -8.886   3.411  71.420  1.00  0.00    -0.135 A  
HETATM    9  C   UNL     1      -9.449   3.426  70.130  1.00  0.00    -0.244 A  
HETATM   10  C   UNL     1      -9.669   4.614  69.371  1.00  0.00    -0.272 A  
HETATM   11  C   UNL     1      -9.272   5.873  69.841  1.00  0.00    -0.163 A  
HETATM   12  C   UNL     1      -9.376   7.329  69.121  1.00  0.00    -0.146 C  
HETATM   13  C   UNL     1      -8.620   5.790  71.133  1.00  0.00    -0.128 A  
HETATM   14  C   UNL     1     -10.509   8.574  68.436  1.00  0.00    -0.215 C  
HETATM   15  C   UNL     1     -11.730   7.044  70.616  1.00  0.00    -0.338 C  
HETATM   16  C   UNL     1     -10.885   9.888  69.497  1.00  0.00    -0.274 C  
HETATM   17  N   UNL     1     -10.748   8.079  71.093  1.00  0.00    -0.217 NA 
HETATM   18  C   UNL     1     -11.358   9.359  70.852  1.00  0.00    -0.319 C  
ENDROOT
BRANCH  12  19
HETATM   19  O   UNL     1      -8.184   7.445  68.303  1.00  0.00    -0.123 OA 
HETATM   20  C   UNL     1      -8.312   6.810  67.026  1.00  0.00    -0.114 C  
ENDBRANCH  12  19
BRANCH  16  21
HETATM   21  C   UNL     1     -11.581  11.241  69.345  1.00  0.00    -0.321 C  
BRANCH  21  22
HETATM   22  O   UNL     1     -12.191  11.509  68.114  1.00  0.00    -0.576 OA 
BRANCH  22  23
HETATM   23  C   UNL     1     -11.632  12.612  67.556  1.00  0.00    -0.359 C  
HETATM   24  O   UNL     1     -11.275  13.611  68.139  1.00  0.00    -0.252 OA 
BRANCH  23  25
HETATM   25  C   UNL     1     -11.576  12.463  66.118  1.00  0.00    -0.452 A  
HETATM   26  C   UNL     1     -12.579  13.108  65.411  1.00  0.00    -0.454 A  
HETATM   27  N   UNL     1     -12.674  13.086  64.060  1.00  0.00    -0.680 NA 
HETATM   28  C   UNL     1     -11.733  12.373  63.406  1.00  0.00    -0.472 A  
HETATM   29  C   UNL     1     -10.710  11.651  64.034  1.00  0.00    -0.384 A  
HETATM   30  C   UNL     1     -10.634  11.696  65.420  1.00  0.00    -0.331 A  
HETATM   31 BR   UNL     1      -9.467  10.676  63.020  1.00  0.00    -0.393 Br 
ENDBRANCH  23  25
ENDBRANCH  22  23
ENDBRANCH  21  22
ENDBRANCH  16  21
TORSDOF 5
ENDMDL
MODEL       31
REMARK 921   NORMALIZED FREE ENERGY PREDICTED BY IDOCK:   -6.17 KCAL/MOL
REMARK 922        TOTAL FREE ENERGY PREDICTED BY IDOCK:   -8.41 KCAL/MOL
REMARK 923 INTER-LIGAND FREE ENERGY PREDICTED BY IDOCK:   -7.81 KCAL/MOL
REMARK 924 INTRA-LIGAND FREE ENERGY PREDICTED BY IDOCK:   -0.60 KCAL/MOL
REMARK 927      BINDING AFFINITY PREDICTED BY RF-SCORE:    0.00 PKD
ROOT
HETATM    1  C   UNL     1      -9.981  10.473  67.341  1.00  0.00    -0.179 C  
HETATM    2  C   UNL     1     -10.658   9.344  68.110  1.00  0.00    -0.261 C  
HETATM    3  C   UNL     1     -10.169   8.133  67.531  1.00  0.00    -0.309 A  
HETATM    4  C   UNL     1     -10.784   6.938  67.352  1.00  0.00    -0.326 A  
HETATM    5  N   UNL     1      -9.926   6.193  66.591  1.00  0.00    -0.166 NA 
HETATM    6  C   UNL     1     -10.332   4.906  66.077  1.00  0.00    -0.271 C  
HETATM    7  C   UNL     1      -8.764   6.902  66.344  1.00  0.00    -0.142 A  
HETATM    8  C   UNL     1      -7.567   6.617  65.672  1.00  0.00    -0.086 A  
HETATM    9  C   UNL     1      -6.629   7.662  65.576  1.00  0.00    -0.045 A  
HETATM   10  C   UNL     1      -6.859   8.985  66.059  1.00  0.00    -0.080 A  
HETATM   11  C   UNL     1      -8.036   9.328  66.737  1.00  0.00    -0.112 A  
HETATM   12  C   UNL     1      -8.470  10.744  67.411  1.00  0.00    -0.119 C  
HETATM   13  C   UNL     1      -8.928   8.195  66.885  1.00  0.00    -0.163 A  
HETATM   14  C   UNL     1      -8.817  12.500  67.093  1.00  0.00    -0.202 C  
HETATM   15  C   UNL     1      -9.459  10.809  64.788  1.00  0.00    -0.247 C  
HETATM   16  C   UNL     1     -10.493  12.901  66.936  1.00  0.00    -0.252 C  
HETATM   17  N   UNL     1     -10.477  10.721  65.893  1.00  0.00    -0.234 NA 
HETATM   18  C   UNL     1     -11.165  11.984  65.912  1.00  0.00    -0.337 C  
ENDROOT
BRANCH  12  19
HETATM   19  O   UNL     1      -7.905  10.730  68.746  1.00  0.00    -0.112 OA 
HETATM   20  C   UNL     1      -6.572  11.249  68.801  1.00  0.00    -0.062 C  
ENDBRANCH  12  19
BRANCH  16  21
HETATM   21  C   UNL     1     -11.297  14.200  66.880  1.00  0.00    -0.331 C  
BRANCH  21  22
HETATM   22  O   UNL     1     -12.267  14.393  67.871  1.00  0.00    -0.299 OA 
BRANCH  22  23
HETATM   23  C   UNL     1     -11.665  14.698  69.047  1.00  0.00    -0.306 C  
HETATM   24  O   UNL     1     -10.715  15.433  69.201  1.00  0.00    -0.224 OA 
BRANCH  23  25
HETATM   25  C   UNL     1     -12.285  13.958  70.126  1.00  0.00    -0.425 A  
HETATM   26  C   UNL     1     -12.919  14.725  71.089  1.00  0.00    -0.359 A  
HETATM   27  N   UNL     1     -13.560  14.200  72.160  1.00  0.00    -0.429 NA 
HETATM   28  C   UNL     1     -13.542  12.854  72.267  1.00  0.00    -0.515 A  
HETATM   29  C   UNL     1     -12.889  11.999  71.370  1.00  0.00    -0.288 A  
HETATM   30  C   UNL     1     -12.244  12.566  70.278  1.00  0.00    -0.345 A  
HETATM   31 BR   UNL     1     -12.914  10.141  71.632  1.00  0.00    -0.587 Br 
ENDBRANCH  23  25
ENDBRANCH  22  23
ENDBRANCH  21  22
ENDBRANCH  16  21
TORSDOF 5
ENDMDL
MODEL       32
REMARK 921   NORMALIZED FREE ENERGY PREDICTED BY IDOCK:   -6.17 KCAL/MOL
REMARK 922        TOTAL FREE ENERGY PREDICTED BY IDOCK:   -8.41 KCAL/MOL
REMARK 923 INTER-LIGAND FREE ENERGY PREDICTED BY IDOCK:   -8.14 KCAL/MOL
REMARK 924 INTRA-LIGAND FREE ENERGY PREDICTED BY IDOCK:   -0.27 KCAL/MOL
REMARK 927      BINDING AFFINITY PREDICTED BY RF-SCORE:    0.00 PKD
ROOT
HETATM    1  C   UNL     1      -9.119   9.067  69.016  1.00  0.00    -0.143 C  
HETATM    2  C   UNL     1      -7.876   8.549  69.730  1.00  0.00    -0.094 C  
HETATM    3  C   UNL     1      -8.338   7.996  70.963  1.00  0.00    -0.120 A  
HETATM    4  C   UNL     1      -7.745   7.956  72.181  1.00  0.00    -0.101 A  
HETATM    5  N   UNL     1      -8.697   7.479  73.039  1.00  0.00    -0.137 NA 
HETATM    6  C   UNL     1      -8.454   7.452  74.462  1.00  0.00    -0.196 C  
HETATM    7  C   UNL     1      -9.857   7.174  72.348  1.00  0.00    -0.150 A  
HETATM    8  C   UNL     1     -11.098   6.632  72.709  1.00  0.00    -0.283 A  
HETATM    9  C   UNL     1     -12.071   6.545  71.696  1.00  0.00    -0.381 A  
HETATM   10  C   UNL     1     -11.884   7.032  70.368  1.00  0.00    -0.295 A  
HETATM   11  C   UNL     1     -10.666   7.585  69.951  1.00  0.00    -0.254 A  
HETATM   12  C   UNL     1     -10.226   8.141  68.486  1.00  0.00    -0.208 C  
HETATM   13  C   UNL     1      -9.672   7.570  71.006  1.00  0.00    -0.170 A  
HETATM   14  C   UNL     1     -10.574   9.372  67.195  1.00  0.00    -0.294 C  
HETATM   15  C   UNL     1     -11.242  10.356  69.873  1.00  0.00    -0.306 C  
HETATM   16  C   UNL     1      -9.555  10.771  67.220  1.00  0.00    -0.182 C  
HETATM   17  N   UNL     1      -9.764  10.354  69.591  1.00  0.00    -0.175 NA 
HETATM   18  C   UNL     1      -9.536  11.389  68.619  1.00  0.00    -0.163 C  
ENDROOT
BRANCH  12  19
HETATM   19  O   UNL     1      -9.757   6.981  67.753  1.00  0.00    -0.132 OA 
HETATM   20  C   UNL     1     -10.819   6.143  67.283  1.00  0.00    -0.352 C  
ENDBRANCH  12  19
BRANCH  16  21
HETATM   21  C   UNL     1      -9.300  11.944  66.274  1.00  0.00    -0.227 C  
BRANCH  21  22
HETATM   22  O   UNL     1     -10.290  12.226  65.326  1.00  0.00    -0.268 OA 
BRANCH  22  23
HETATM   23  C   UNL     1     -11.333  12.853  65.925  1.00  0.00    -0.312 C  
HETATM   24  O   UNL     1     -12.375  12.343  66.274  1.00  0.00    -0.577 OA 
BRANCH  23  25
HETATM   25  C   UNL     1     -11.059  14.269  66.040  1.00  0.00    -0.319 A  
HETATM   26  C   UNL     1     -11.036  14.971  64.846  1.00  0.00    -0.415 A  
HETATM   27  N   UNL     1     -10.808  16.304  64.766  1.00  0.00    -0.699 NA 
HETATM   28  C   UNL     1     -10.577  16.942  65.933  1.00  0.00    -0.233 A  
HETATM   29  C   UNL     1     -10.534  16.310  67.183  1.00  0.00    -0.297 A  
HETATM   30  C   UNL     1     -10.777  14.944  67.235  1.00  0.00    -0.294 A  
HETATM   31 BR   UNL     1     -10.181  17.299  68.739  1.00  0.00    -0.361 Br 
ENDBRANCH  23  25
ENDBRANCH  22  23
ENDBRANCH  21  22
ENDBRANCH  16  21
TORSDOF 5
ENDMDL
MODEL       33
REMARK 921   NORMALIZED FREE ENERGY PREDICTED BY IDOCK:   -6.16 KCAL/MOL
REMARK 922        TOTAL FREE ENERGY PREDICTED BY IDOCK:   -8.39 KCAL/MOL
REMARK 923 INTER-LIGAND FREE ENERGY PREDICTED BY IDOCK:   -8.26 KCAL/MOL
REMARK 924 INTRA-LIGAND FREE ENERGY PREDICTED BY IDOCK:   -0.13 KCAL/MOL
REMARK 927      BINDING AFFINITY PREDICTED BY RF-SCORE:    0.00 PKD
ROOT
HETATM    1  C   UNL     1     -10.438  10.465  69.217  1.00  0.00    -0.234 C  
HETATM    2  C   UNL     1     -11.384  10.817  70.359  1.00  0.00    -0.342 C  
HETATM    3  C   UNL     1     -11.903   9.572  70.830  1.00  0.00    -0.385 A  
HETATM    4  C   UNL     1     -13.123   9.268  71.338  1.00  0.00    -0.322 A  
HETATM    5  N   UNL     1     -13.145   7.906  71.456  1.00  0.00    -0.330 NA 
HETATM    6  C   UNL     1     -14.362   7.222  71.825  1.00  0.00    -0.402 C  
HETATM    7  C   UNL     1     -11.927   7.372  71.073  1.00  0.00    -0.306 A  
HETATM    8  C   UNL     1     -11.397   6.075  71.032  1.00  0.00    -0.299 A  
HETATM    9  C   UNL     1     -10.104   5.935  70.492  1.00  0.00    -0.254 A  
HETATM   10  C   UNL     1      -9.353   7.013  69.936  1.00  0.00    -0.150 A  
HETATM   11  C   UNL     1      -9.832   8.330  69.948  1.00  0.00    -0.186 A  
HETATM   12  C   UNL     1      -9.123   9.697  69.426  1.00  0.00    -0.188 C  
HETATM   13  C   UNL     1     -11.127   8.430  70.593  1.00  0.00    -0.278 A  
HETATM   14  C   UNL     1      -8.442  10.563  67.981  1.00  0.00    -0.120 C  
HETATM   15  C   UNL     1     -10.606   8.727  67.254  1.00  0.00    -0.233 C  
HETATM   16  C   UNL     1      -9.510  11.703  67.236  1.00  0.00    -0.173 C  
HETATM   17  N   UNL     1     -11.093  10.000  67.891  1.00  0.00    -0.253 NA 
HETATM   18  C   UNL     1     -10.859  11.048  66.935  1.00  0.00    -0.269 C  
ENDROOT
BRANCH  12  19
HETATM   19  O   UNL     1      -8.311  10.162  70.534  1.00  0.00    -0.025 OA 
HETATM   20  C   UNL     1      -7.174   9.330  70.789  1.00  0.00    -0.121 C  
ENDBRANCH  12  19
BRANCH  16  21
HETATM   21  C   UNL     1      -9.364  12.795  66.176  1.00  0.00    -0.106 C  
BRANCH  21  22
HETATM   22  O   UNL     1      -9.324  14.119  66.626  1.00  0.00    -0.272 OA 
BRANCH  22  23
HETATM   23  C   UNL     1      -9.932  14.929  65.723  1.00  0.00    -0.347 C  
HETATM   24  O   UNL     1     -10.549  14.577  64.741  1.00  0.00    -0.425 OA 
BRANCH  23  25
HETATM   25  C   UNL     1      -9.687  16.315  66.058  1.00  0.00    -0.370 A  
HETATM   26  C   UNL     1     -10.568  17.228  65.502  1.00  0.00    -0.127 A  
HETATM   27  N   UNL     1     -10.495  18.563  65.718  1.00  0.00    -0.628 NA 
HETATM   28  C   UNL     1      -9.486  18.988  66.508  1.00  0.00    -0.345 A  
HETATM   29  C   UNL     1      -8.520  18.146  67.075  1.00  0.00    -0.245 A  
HETATM   30  C   UNL     1      -8.623  16.781  66.841  1.00  0.00    -0.240 A  
HETATM   31 BR   UNL     1      -7.147  18.853  68.141  1.00  0.00    -0.283 Br 
ENDBRANCH  23  25
ENDBRANCH  22  23
ENDBRANCH  21  22
ENDBRANCH  16  21
TORSDOF 5
ENDMDL
MODEL       34
REMARK 921   NORMALIZED FREE ENERGY PREDICTED BY IDOCK:   -6.14 KCAL/MOL
REMARK 922        TOTAL FREE ENERGY PREDICTED BY IDOCK:   -8.37 KCAL/MOL
REMARK 923 INTER-LIGAND FREE ENERGY PREDICTED BY IDOCK:   -8.16 KCAL/MOL
REMARK 924 INTRA-LIGAND FREE ENERGY PREDICTED BY IDOCK:   -0.21 KCAL/MOL
REMARK 927      BINDING AFFINITY PREDICTED BY RF-SCORE:    0.00 PKD
ROOT
HETATM    1  C   UNL     1     -10.992  11.657  67.884  1.00  0.00    -0.225 C  
HETATM    2  C   UNL     1     -12.039  11.721  68.990  1.00  0.00    -0.276 C  
HETATM    3  C   UNL     1     -11.954  13.041  69.530  1.00  0.00    -0.350 A  
HETATM    4  C   UNL     1     -12.143  13.483  70.797  1.00  0.00    -0.271 A  
HETATM    5  N   UNL     1     -11.759  14.795  70.792  1.00  0.00    -0.296 NA 
HETATM    6  C   UNL     1     -11.684  15.541  72.026  1.00  0.00    -0.455 C  
HETATM    7  C   UNL     1     -11.384  15.180  69.517  1.00  0.00    -0.285 A  
HETATM    8  C   UNL     1     -10.956  16.386  68.944  1.00  0.00    -0.332 A  
HETATM    9  C   UNL     1     -10.589  16.348  67.586  1.00  0.00    -0.313 A  
HETATM   10  C   UNL     1     -10.568  15.158  66.800  1.00  0.00    -0.298 A  
HETATM   11  C   UNL     1     -10.984  13.924  67.318  1.00  0.00    -0.299 A  
HETATM   12  C   UNL     1     -11.093  12.475  66.587  1.00  0.00    -0.283 C  
HETATM   13  C   UNL     1     -11.434  14.037  68.692  1.00  0.00    -0.337 A  
HETATM   14  C   UNL     1     -10.166  11.161  65.741  1.00  0.00    -0.310 C  
HETATM   15  C   UNL     1      -8.533  12.568  67.724  1.00  0.00    -0.171 C  
HETATM   16  C   UNL     1      -9.738   9.808  66.732  1.00  0.00    -0.248 C  
HETATM   17  N   UNL     1      -9.509  11.600  68.336  1.00  0.00    -0.194 NA 
HETATM   18  C   UNL     1      -9.036  10.283  68.005  1.00  0.00    -0.132 C  
ENDROOT
BRANCH  12  19
HETATM   19  O   UNL     1     -12.396  12.456  65.951  1.00  0.00    -0.638 OA 
HETATM   20  C   UNL     1     -12.519  13.406  64.887  1.00  0.00    -0.396 C  
ENDBRANCH  12  19
BRANCH  16  21
HETATM   21  C   UNL     1      -9.172   8.411  66.476  1.00  0.00    -0.189 C  
BRANCH  21  22
HETATM   22  O   UNL     1      -8.840   7.642  67.596  1.00  0.00    -0.125 OA 
BRANCH  22  23
HETATM   23  C   UNL     1      -9.884   6.842  67.929  1.00  0.00    -0.129 C  
HETATM   24  O   UNL     1     -10.892   6.666  67.280  1.00  0.00    -0.303 OA 
BRANCH  23  25
HETATM   25  C   UNL     1      -9.662   6.256  69.234  1.00  0.00    -0.157 A  
HETATM   26  C   UNL     1      -8.369   5.823  69.481  1.00  0.00    -0.112 A  
HETATM   27  N   UNL     1      -7.980   5.263  70.651  1.00  0.00    -0.101 NA 
HETATM   28  C   UNL     1      -8.936   5.120  71.593  1.00  0.00    -0.134 A  
HETATM   29  C   UNL     1     -10.277   5.485  71.419  1.00  0.00    -0.215 A  
HETATM   30  C   UNL     1     -10.647   6.062  70.211  1.00  0.00    -0.338 A  
HETATM   31 BR   UNL     1     -11.524   5.218  72.796  1.00  0.00    -0.252 Br 
ENDBRANCH  23  25
ENDBRANCH  22  23
ENDBRANCH  21  22
ENDBRANCH  16  21
TORSDOF 5
ENDMDL
MODEL       35
REMARK 921   NORMALIZED FREE ENERGY PREDICTED BY IDOCK:   -6.12 KCAL/MOL
REMARK 922        TOTAL FREE ENERGY PREDICTED BY IDOCK:   -8.35 KCAL/MOL
REMARK 923 INTER-LIGAND FREE ENERGY PREDICTED BY IDOCK:   -8.12 KCAL/MOL
REMARK 924 INTRA-LIGAND FREE ENERGY PREDICTED BY IDOCK:   -0.22 KCAL/MOL
REMARK 927      BINDING AFFINITY PREDICTED BY RF-SCORE:    0.00 PKD
ROOT
HETATM    1  C   UNL     1     -11.153  11.793  68.126  1.00  0.00    -0.243 C  
HETATM    2  C   UNL     1     -12.224  12.018  69.187  1.00  0.00    -0.106 C  
HETATM    3  C   UNL     1     -12.074  13.374  69.609  1.00  0.00    -0.349 A  
HETATM    4  C   UNL     1     -12.270  13.939  70.826  1.00  0.00    -0.369 A  
HETATM    5  N   UNL     1     -11.807  15.221  70.716  1.00  0.00    -0.307 NA 
HETATM    6  C   UNL     1     -11.720  16.071  71.881  1.00  0.00    -0.504 C  
HETATM    7  C   UNL     1     -11.375  15.466  69.425  1.00  0.00    -0.307 A  
HETATM    8  C   UNL     1     -10.859  16.588  68.762  1.00  0.00    -0.342 A  
HETATM    9  C   UNL     1     -10.458  16.406  67.425  1.00  0.00    -0.309 A  
HETATM   10  C   UNL     1     -10.488  15.150  66.749  1.00  0.00    -0.283 A  
HETATM   11  C   UNL     1     -10.993  13.995  67.361  1.00  0.00    -0.302 A  
HETATM   12  C   UNL     1     -11.170  12.494  66.758  1.00  0.00    -0.296 C  
HETATM   13  C   UNL     1     -11.472  14.258  68.704  1.00  0.00    -0.328 A  
HETATM   14  C   UNL     1     -10.301  11.057  66.063  1.00  0.00    -0.311 C  
HETATM   15  C   UNL     1      -8.640  12.541  67.965  1.00  0.00    -0.185 C  
HETATM   16  C   UNL     1      -9.984   9.777  67.184  1.00  0.00    -0.252 C  
HETATM   17  N   UNL     1      -9.690  11.691  68.628  1.00  0.00    -0.177 NA 
HETATM   18  C   UNL     1      -9.289  10.324  68.432  1.00  0.00    -0.143 C  
ENDROOT
BRANCH  12  19
HETATM   19  O   UNL     1     -12.454  12.494  66.085  1.00  0.00    -0.522 OA 
HETATM   20  C   UNL     1     -12.444  13.220  64.851  1.00  0.00    -0.409 C  
ENDBRANCH  12  19
BRANCH  16  21
HETATM   21  C   UNL     1      -9.497   8.333  67.071  1.00  0.00    -0.176 C  
BRANCH  21  22
HETATM   22  O   UNL     1     -10.470   7.346  66.872  1.00  0.00    -0.302 OA 
BRANCH  22  23
HETATM   23  C   UNL     1     -10.569   6.569  67.979  1.00  0.00    -0.251 C  
HETATM   24  O   UNL     1     -11.026   6.898  69.051  1.00  0.00    -0.225 OA 
BRANCH  23  25
HETATM   25  C   UNL     1      -9.978   5.272  67.727  1.00  0.00    -0.204 A  
HETATM   26  C   UNL     1      -9.549   4.583  68.850  1.00  0.00    -0.166 A  
HETATM   27  N   UNL     1      -8.985   3.353  68.802  1.00  0.00    -0.115 NA 
HETATM   28  C   UNL     1      -8.834   2.812  67.575  1.00  0.00    -0.138 A  
HETATM   29  C   UNL     1      -9.194   3.450  66.381  1.00  0.00    -0.163 A  
HETATM   30  C   UNL     1      -9.775   4.709  66.461  1.00  0.00    -0.212 A  
HETATM   31 BR   UNL     1      -8.916   2.606  64.727  1.00  0.00    -0.127 Br 
ENDBRANCH  23  25
ENDBRANCH  22  23
ENDBRANCH  21  22
ENDBRANCH  16  21
TORSDOF 5
ENDMDL
MODEL       36
REMARK 921   NORMALIZED FREE ENERGY PREDICTED BY IDOCK:   -6.10 KCAL/MOL
REMARK 922        TOTAL FREE ENERGY PREDICTED BY IDOCK:   -8.31 KCAL/MOL
REMARK 923 INTER-LIGAND FREE ENERGY PREDICTED BY IDOCK:   -8.92 KCAL/MOL
REMARK 924 INTRA-LIGAND FREE ENERGY PREDICTED BY IDOCK:    0.61 KCAL/MOL
REMARK 927      BINDING AFFINITY PREDICTED BY RF-SCORE:    0.00 PKD
ROOT
HETATM    1  C   UNL     1     -10.438  13.071  65.379  1.00  0.00    -0.296 C  
HETATM    2  C   UNL     1     -10.172  12.403  64.035  1.00  0.00    -0.401 C  
HETATM    3  C   UNL     1      -9.721  11.082  64.339  1.00  0.00    -0.330 A  
HETATM    4  C   UNL     1      -8.824  10.294  63.697  1.00  0.00    -0.222 A  
HETATM    5  N   UNL     1      -8.634   9.213  64.512  1.00  0.00    -0.181 NA 
HETATM    6  C   UNL     1      -7.615   8.236  64.207  1.00  0.00    -0.122 C  
HETATM    7  C   UNL     1      -9.446   9.304  65.628  1.00  0.00    -0.256 A  
HETATM    8  C   UNL     1      -9.682   8.480  66.737  1.00  0.00    -0.303 A  
HETATM    9  C   UNL     1     -10.556   8.978  67.723  1.00  0.00    -0.278 A  
HETATM   10  C   UNL     1     -11.147  10.276  67.681  1.00  0.00    -0.319 A  
HETATM   11  C   UNL     1     -10.946  11.143  66.599  1.00  0.00    -0.289 A  
HETATM   12  C   UNL     1     -11.562  12.624  66.327  1.00  0.00    -0.386 C  
HETATM   13  C   UNL     1     -10.111  10.547  65.574  1.00  0.00    -0.349 A  
HETATM   14  C   UNL     1     -11.660  14.331  66.942  1.00  0.00    -0.405 C  
HETATM   15  C   UNL     1      -9.130  13.039  67.657  1.00  0.00    -0.198 C  
HETATM   16  C   UNL     1     -10.575  15.448  66.185  1.00  0.00    -0.321 C  
HETATM   17  N   UNL     1      -9.194  13.465  66.216  1.00  0.00    -0.123 NA 
HETATM   18  C   UNL     1      -9.146  14.903  66.215  1.00  0.00    -0.227 C  
ENDROOT
BRANCH  12  19
HETATM   19  O   UNL     1     -12.847  12.401  65.693  1.00  0.00    -0.308 OA 
HETATM   20  C   UNL     1     -12.906  12.892  64.349  1.00  0.00    -0.155 C  
ENDBRANCH  12  19
BRANCH  16  21
HETATM   21  C   UNL     1     -10.410  16.967  66.181  1.00  0.00    -0.319 C  
BRANCH  21  22
HETATM   22  O   UNL     1     -10.765  17.650  67.350  1.00  0.00    -0.340 OA 
BRANCH  22  23
HETATM   23  C   UNL     1     -10.322  18.931  67.285  1.00  0.00    -0.418 C  
HETATM   24  O   UNL     1     -10.941  19.887  66.871  1.00  0.00    -0.385 OA 
BRANCH  23  25
HETATM   25  C   UNL     1      -8.946  19.001  67.727  1.00  0.00    -0.329 A  
HETATM   26  C   UNL     1      -8.253  20.138  67.345  1.00  0.00    -0.340 A  
HETATM   27  N   UNL     1      -6.962  20.375  67.680  1.00  0.00    -0.286 NA 
HETATM   28  C   UNL     1      -6.349  19.420  68.411  1.00  0.00    -0.241 A  
HETATM   29  C   UNL     1      -6.952  18.219  68.805  1.00  0.00    -0.270 A  
HETATM   30  C   UNL     1      -8.278  18.005  68.452  1.00  0.00    -0.305 A  
HETATM   31 BR   UNL     1      -5.992  16.952  69.805  1.00  0.00    -0.223 Br 
ENDBRANCH  23  25
ENDBRANCH  22  23
ENDBRANCH  21  22
ENDBRANCH  16  21
TORSDOF 5
ENDMDL
MODEL       37
REMARK 921   NORMALIZED FREE ENERGY PREDICTED BY IDOCK:   -6.06 KCAL/MOL
REMARK 922        TOTAL FREE ENERGY PREDICTED BY IDOCK:   -8.27 KCAL/MOL
REMARK 923 INTER-LIGAND FREE ENERGY PREDICTED BY IDOCK:   -8.24 KCAL/MOL
REMARK 924 INTRA-LIGAND FREE ENERGY PREDICTED BY IDOCK:   -0.02 KCAL/MOL
REMARK 927      BINDING AFFINITY PREDICTED BY RF-SCORE:    0.00 PKD
ROOT
HETATM    1  C   UNL     1      -9.002  11.342  67.022  1.00  0.00    -0.154 C  
HETATM    2  C   UNL     1      -7.751  11.263  67.889  1.00  0.00    -0.110 C  
HETATM    3  C   UNL     1      -7.978  10.186  68.800  1.00  0.00    -0.104 A  
HETATM    4  C   UNL     1      -7.578  10.028  70.086  1.00  0.00    -0.155 A  
HETATM    5  N   UNL     1      -8.220   8.909  70.537  1.00  0.00    -0.128 NA 
HETATM    6  C   UNL     1      -8.144   8.530  71.929  1.00  0.00    -0.130 C  
HETATM    7  C   UNL     1      -8.973   8.345  69.522  1.00  0.00    -0.149 A  
HETATM    8  C   UNL     1      -9.775   7.200  69.417  1.00  0.00    -0.160 A  
HETATM    9  C   UNL     1     -10.451   7.008  68.197  1.00  0.00    -0.242 A  
HETATM   10  C   UNL     1     -10.413   7.934  67.112  1.00  0.00    -0.414 A  
HETATM   11  C   UNL     1      -9.630   9.095  67.160  1.00  0.00    -0.215 A  
HETATM   12  C   UNL     1      -9.401  10.240  66.027  1.00  0.00    -0.180 C  
HETATM   13  C   UNL     1      -8.888   9.198  68.401  1.00  0.00    -0.129 A  
HETATM   14  C   UNL     1     -10.209  11.513  65.012  1.00  0.00    -0.328 C  
HETATM   15  C   UNL     1     -11.559  11.123  67.583  1.00  0.00    -0.183 C  
HETATM   16  C   UNL     1     -10.081  13.128  65.621  1.00  0.00    -0.279 C  
HETATM   17  N   UNL     1     -10.279  11.906  67.695  1.00  0.00    -0.198 NA 
HETATM   18  C   UNL     1     -10.530  13.182  67.082  1.00  0.00    -0.247 C  
ENDROOT
BRANCH  12  19
HETATM   19  O   UNL     1      -8.323   9.750  65.190  1.00  0.00    -0.128 OA 
HETATM   20  C   UNL     1      -8.363   8.333  64.991  1.00  0.00    -0.148 C  
ENDBRANCH  12  19
BRANCH  16  21
HETATM   21  C   UNL     1     -10.383  14.522  65.070  1.00  0.00    -0.413 C  
BRANCH  21  22
HETATM   22  O   UNL     1     -10.626  15.537  66.002  1.00  0.00    -0.303 OA 
BRANCH  22  23
HETATM   23  C   UNL     1     -10.702  16.734  65.367  1.00  0.00    -0.189 C  
HETATM   24  O   UNL     1     -11.183  16.940  64.275  1.00  0.00    -1.204 OA 
BRANCH  23  25
HETATM   25  C   UNL     1     -10.055  17.756  66.160  1.00  0.00    -0.308 A  
HETATM   26  C   UNL     1     -10.613  19.021  66.074  1.00  0.00    -0.423 A  
HETATM   27  N   UNL     1     -10.145  20.093  66.757  1.00  0.00    -0.454 NA 
HETATM   28  C   UNL     1      -9.064  19.880  67.538  1.00  0.00    -0.340 A  
HETATM   29  C   UNL     1      -8.404  18.649  67.653  1.00  0.00    -0.267 A  
HETATM   30  C   UNL     1      -8.910  17.567  66.945  1.00  0.00    -0.267 A  
HETATM   31 BR   UNL     1      -6.895  18.476  68.755  1.00  0.00    -0.296 Br 
ENDBRANCH  23  25
ENDBRANCH  22  23
ENDBRANCH  21  22
ENDBRANCH  16  21
TORSDOF 5
ENDMDL
MODEL       38
REMARK 921   NORMALIZED FREE ENERGY PREDICTED BY IDOCK:   -6.04 KCAL/MOL
REMARK 922        TOTAL FREE ENERGY PREDICTED BY IDOCK:   -8.24 KCAL/MOL
REMARK 923 INTER-LIGAND FREE ENERGY PREDICTED BY IDOCK:   -7.67 KCAL/MOL
REMARK 924 INTRA-LIGAND FREE ENERGY PREDICTED BY IDOCK:   -0.56 KCAL/MOL
REMARK 927      BINDING AFFINITY PREDICTED BY RF-SCORE:    0.00 PKD
ROOT
HETATM    1  C   UNL     1      -9.370  14.405  67.522  1.00  0.00    -0.198 C  
HETATM    2  C   UNL     1      -7.911  13.971  67.595  1.00  0.00    -0.185 C  
HETATM    3  C   UNL     1      -7.924  12.652  68.145  1.00  0.00    -0.158 A  
HETATM    4  C   UNL     1      -7.033  12.034  68.958  1.00  0.00    -0.094 A  
HETATM    5  N   UNL     1      -7.623  10.857  69.324  1.00  0.00    -0.131 NA 
HETATM    6  C   UNL     1      -7.011  10.008  70.320  1.00  0.00    -0.150 C  
HETATM    7  C   UNL     1      -8.850  10.720  68.699  1.00  0.00    -0.152 A  
HETATM    8  C   UNL     1      -9.834   9.722  68.681  1.00  0.00    -0.168 A  
HETATM    9  C   UNL     1     -11.010  10.002  67.958  1.00  0.00    -0.296 A  
HETATM   10  C   UNL     1     -11.269  11.249  67.315  1.00  0.00    -0.364 A  
HETATM   11  C   UNL     1     -10.324  12.283  67.300  1.00  0.00    -0.228 A  
HETATM   12  C   UNL     1     -10.394  13.743  66.586  1.00  0.00    -0.279 C  
HETATM   13  C   UNL     1      -9.101  11.910  67.983  1.00  0.00    -0.189 A  
HETATM   14  C   UNL     1     -11.285  15.326  66.518  1.00  0.00    -0.228 C  
HETATM   15  C   UNL     1     -11.385  14.113  69.182  1.00  0.00    -0.279 C  
HETATM   16  C   UNL     1     -10.562  16.615  67.418  1.00  0.00    -0.295 C  
HETATM   17  N   UNL     1     -10.059  14.750  68.868  1.00  0.00    -0.234 NA 
HETATM   18  C   UNL     1     -10.284  16.170  68.854  1.00  0.00    -0.245 C  
ENDROOT
BRANCH  12  19
HETATM   19  O   UNL     1      -9.936  13.534  65.226  1.00  0.00    -0.265 OA 
HETATM   20  C   UNL     1     -10.879  12.822  64.417  1.00  0.00    -0.368 C  
ENDBRANCH  12  19
BRANCH  16  21
HETATM   21  C   UNL     1     -10.779  18.125  67.515  1.00  0.00    -0.345 C  
BRANCH  21  22
HETATM   22  O   UNL     1     -10.020  18.820  68.464  1.00  0.00    -0.365 OA 
BRANCH  22  23
HETATM   23  C   UNL     1      -9.288  19.782  67.850  1.00  0.00    -0.344 C  
HETATM   24  O   UNL     1      -9.717  20.709  67.199  1.00  0.00    -0.454 OA 
BRANCH  23  25
HETATM   25  C   UNL     1      -7.876  19.515  68.025  1.00  0.00    -0.340 A  
HETATM   26  C   UNL     1      -7.022  20.519  67.597  1.00  0.00    -0.322 A  
HETATM   27  N   UNL     1      -5.673  20.444  67.695  1.00  0.00    -0.184 NA 
HETATM   28  C   UNL     1      -5.174  19.307  68.226  1.00  0.00    -0.183 A  
HETATM   29  C   UNL     1      -5.955  18.221  68.643  1.00  0.00    -0.197 A  
HETATM   30  C   UNL     1      -7.335  18.328  68.536  1.00  0.00    -0.297 A  
HETATM   31 BR   UNL     1      -5.147  16.681  69.349  1.00  0.00    -0.134 Br 
ENDBRANCH  23  25
ENDBRANCH  22  23
ENDBRANCH  21  22
ENDBRANCH  16  21
TORSDOF 5
ENDMDL
MODEL       39
REMARK 921   NORMALIZED FREE ENERGY PREDICTED BY IDOCK:   -6.04 KCAL/MOL
REMARK 922        TOTAL FREE ENERGY PREDICTED BY IDOCK:   -8.23 KCAL/MOL
REMARK 923 INTER-LIGAND FREE ENERGY PREDICTED BY IDOCK:   -7.72 KCAL/MOL
REMARK 924 INTRA-LIGAND FREE ENERGY PREDICTED BY IDOCK:   -0.52 KCAL/MOL
REMARK 927      BINDING AFFINITY PREDICTED BY RF-SCORE:    0.00 PKD
ROOT
HETATM    1  C   UNL     1     -10.468   9.395  67.322  1.00  0.00    -0.264 C  
HETATM    2  C   UNL     1     -10.619   7.898  67.076  1.00  0.00    -0.381 C  
HETATM    3  C   UNL     1      -9.465   7.291  67.659  1.00  0.00    -0.149 A  
HETATM    4  C   UNL     1      -8.765   6.195  67.275  1.00  0.00    -0.108 A  
HETATM    5  N   UNL     1      -7.655   6.169  68.073  1.00  0.00    -0.099 NA 
HETATM    6  C   UNL     1      -6.601   5.211  67.831  1.00  0.00    -0.050 C  
HETATM    7  C   UNL     1      -7.693   7.211  68.982  1.00  0.00    -0.109 A  
HETATM    8  C   UNL     1      -6.861   7.626  70.031  1.00  0.00    -0.050 A  
HETATM    9  C   UNL     1      -7.219   8.816  70.693  1.00  0.00    -0.066 A  
HETATM   10  C   UNL     1      -8.324   9.635  70.314  1.00  0.00    -0.216 A  
HETATM   11  C   UNL     1      -9.189   9.272  69.273  1.00  0.00    -0.152 A  
HETATM   12  C   UNL     1     -10.523  10.023  68.723  1.00  0.00    -0.208 C  
HETATM   13  C   UNL     1      -8.826   7.998  68.685  1.00  0.00    -0.134 A  
HETATM   14  C   UNL     1     -11.171  11.543  67.967  1.00  0.00    -0.335 C  
HETATM   15  C   UNL     1      -8.400  11.009  67.182  1.00  0.00    -0.132 C  
HETATM   16  C   UNL     1     -11.396  11.472  66.252  1.00  0.00    -0.222 C  
HETATM   17  N   UNL     1      -9.398  10.132  66.476  1.00  0.00    -0.160 NA 
HETATM   18  C   UNL     1     -10.117  10.986  65.568  1.00  0.00    -0.261 C  
ENDROOT
BRANCH  12  19
HETATM   19  O   UNL     1     -11.609   9.554  69.563  1.00  0.00     0.008 OA 
HETATM   20  C   UNL     1     -11.426   9.867  70.948  1.00  0.00    -0.376 C  
ENDBRANCH  12  19
BRANCH  16  21
HETATM   21  C   UNL     1     -12.080  12.357  65.210  1.00  0.00    -0.391 C  
BRANCH  21  22
HETATM   22  O   UNL     1     -11.257  13.176  64.429  1.00  0.00    -0.339 OA 
BRANCH  22  23
HETATM   23  C   UNL     1     -11.663  14.466  64.532  1.00  0.00    -0.419 C  
HETATM   24  O   UNL     1     -12.678  14.940  64.072  1.00  0.00    -0.792 OA 
BRANCH  23  25
HETATM   25  C   UNL     1     -10.662  15.245  65.229  1.00  0.00    -0.433 A  
HETATM   26  C   UNL     1     -10.828  16.619  65.172  1.00  0.00    -0.186 A  
HETATM   27  N   UNL     1      -9.994  17.498  65.777  1.00  0.00    -0.569 NA 
HETATM   28  C   UNL     1      -8.948  16.968  66.446  1.00  0.00    -0.275 A  
HETATM   29  C   UNL     1      -8.673  15.596  66.521  1.00  0.00    -0.307 A  
HETATM   30  C   UNL     1      -9.548  14.718  65.895  1.00  0.00    -0.320 A  
HETATM   31 BR   UNL     1      -7.174  14.975  67.464  1.00  0.00    -0.224 Br 
ENDBRANCH  23  25
ENDBRANCH  22  23
ENDBRANCH  21  22
ENDBRANCH  16  21
TORSDOF 5
ENDMDL
MODEL       40
REMARK 921   NORMALIZED FREE ENERGY PREDICTED BY IDOCK:   -6.03 KCAL/MOL
REMARK 922        TOTAL FREE ENERGY PREDICTED BY IDOCK:   -8.23 KCAL/MOL
REMARK 923 INTER-LIGAND FREE ENERGY PREDICTED BY IDOCK:   -7.99 KCAL/MOL
REMARK 924 INTRA-LIGAND FREE ENERGY PREDICTED BY IDOCK:   -0.24 KCAL/MOL
REMARK 927      BINDING AFFINITY PREDICTED BY RF-SCORE:    0.00 PKD
ROOT
HETATM    1  C   UNL     1     -10.504  10.524  67.217  1.00  0.00    -0.250 C  
HETATM    2  C   UNL     1     -10.774   9.154  66.604  1.00  0.00    -0.049 C  
HETATM    3  C   UNL     1      -9.717   8.309  67.061  1.00  0.00    -0.274 A  
HETATM    4  C   UNL     1      -9.095   7.274  66.444  1.00  0.00    -0.158 A  
HETATM    5  N   UNL     1      -8.044   6.942  67.252  1.00  0.00    -0.117 NA 
HETATM    6  C   UNL     1      -7.067   5.969  66.821  1.00  0.00    -0.070 C  
HETATM    7  C   UNL     1      -8.043   7.731  68.389  1.00  0.00    -0.124 A  
HETATM    8  C   UNL     1      -7.242   7.792  69.538  1.00  0.00    -0.079 A  
HETATM    9  C   UNL     1      -7.532   8.816  70.459  1.00  0.00    -0.075 A  
HETATM   10  C   UNL     1      -8.533   9.812  70.253  1.00  0.00    -0.163 A  
HETATM   11  C   UNL     1      -9.362   9.802  69.124  1.00  0.00    -0.185 A  
HETATM   12  C   UNL     1     -10.588  10.796  68.727  1.00  0.00    -0.200 C  
HETATM   13  C   UNL     1      -9.080   8.677  68.253  1.00  0.00    -0.141 A  
HETATM   14  C   UNL     1     -11.049  12.511  68.346  1.00  0.00    -0.293 C  
HETATM   15  C   UNL     1      -8.294  11.904  67.557  1.00  0.00    -0.158 C  
HETATM   16  C   UNL     1     -11.174  12.881  66.660  1.00  0.00    -0.342 C  
HETATM   17  N   UNL     1      -9.323  11.330  66.619  1.00  0.00    -0.176 NA 
HETATM   18  C   UNL     1      -9.905  12.447  65.925  1.00  0.00    -0.252 C  
ENDROOT
BRANCH  12  19
HETATM   19  O   UNL     1     -11.760  10.250  69.384  1.00  0.00    -0.194 OA 
HETATM   20  C   UNL     1     -11.713  10.367  70.811  1.00  0.00    -0.368 C  
ENDBRANCH  12  19
BRANCH  16  21
HETATM   21  C   UNL     1     -11.712  14.057  65.844  1.00  0.00    -0.366 C  
BRANCH  21  22
HETATM   22  O   UNL     1     -10.891  14.555  64.825  1.00  0.00    -0.399 OA 
BRANCH  22  23
HETATM   23  C   UNL     1     -11.023  15.903  64.748  1.00  0.00    -0.375 C  
HETATM   24  O   UNL     1     -11.679  16.517  63.936  1.00  0.00    -1.148 OA 
BRANCH  23  25
HETATM   25  C   UNL     1     -10.200  16.538  65.755  1.00  0.00    -0.350 A  
HETATM   26  C   UNL     1      -8.952  15.970  65.951  1.00  0.00    -0.221 A  
HETATM   27  N   UNL     1      -8.047  16.441  66.843  1.00  0.00    -0.200 NA 
HETATM   28  C   UNL     1      -8.428  17.512  67.572  1.00  0.00    -0.213 A  
HETATM   29  C   UNL     1      -9.684  18.125  67.478  1.00  0.00    -0.303 A  
HETATM   30  C   UNL     1     -10.589  17.623  66.551  1.00  0.00    -0.207 A  
HETATM   31 BR   UNL     1     -10.111  19.597  68.561  1.00  0.00    -0.538 Br 
ENDBRANCH  23  25
ENDBRANCH  22  23
ENDBRANCH  21  22
ENDBRANCH  16  21
TORSDOF 5
ENDMDL
MODEL       41
REMARK 921   NORMALIZED FREE ENERGY PREDICTED BY IDOCK:   -6.03 KCAL/MOL
REMARK 922        TOTAL FREE ENERGY PREDICTED BY IDOCK:   -8.23 KCAL/MOL
REMARK 923 INTER-LIGAND FREE ENERGY PREDICTED BY IDOCK:   -8.01 KCAL/MOL
REMARK 924 INTRA-LIGAND FREE ENERGY PREDICTED BY IDOCK:   -0.21 KCAL/MOL
REMARK 927      BINDING AFFINITY PREDICTED BY RF-SCORE:    0.00 PKD
ROOT
HETATM    1  C   UNL     1     -10.374  14.427  67.365  1.00  0.00    -0.252 C  
HETATM    2  C   UNL     1     -10.655  14.980  65.973  1.00  0.00    -0.329 C  
HETATM    3  C   UNL     1     -10.278  16.357  66.018  1.00  0.00    -0.373 A  
HETATM    4  C   UNL     1     -10.807  17.431  65.382  1.00  0.00     0.020 A  
HETATM    5  N   UNL     1     -10.185  18.522  65.922  1.00  0.00    -0.580 NA 
HETATM    6  C   UNL     1     -10.621  19.857  65.582  1.00  0.00    -0.327 C  
HETATM    7  C   UNL     1      -9.238  18.126  66.850  1.00  0.00    -0.278 A  
HETATM    8  C   UNL     1      -8.309  18.803  67.652  1.00  0.00    -0.291 A  
HETATM    9  C   UNL     1      -7.553  18.020  68.545  1.00  0.00    -0.296 A  
HETATM   10  C   UNL     1      -7.729  16.615  68.717  1.00  0.00    -0.233 A  
HETATM   11  C   UNL     1      -8.642  15.886  67.945  1.00  0.00    -0.164 A  
HETATM   12  C   UNL     1      -8.955  14.289  67.939  1.00  0.00    -0.186 C  
HETATM   13  C   UNL     1      -9.330  16.724  66.982  1.00  0.00    -0.244 A  
HETATM   14  C   UNL     1      -9.543  12.884  68.931  1.00  0.00     0.215 C  
HETATM   15  C   UNL     1     -10.755  15.416  69.769  1.00  0.00    -0.291 C  
HETATM   16  C   UNL     1     -11.206  12.466  68.698  1.00  0.00    -0.314 C  
HETATM   17  N   UNL     1     -11.339  14.869  68.495  1.00  0.00    -0.283 NA 
HETATM   18  C   UNL     1     -12.092  13.701  68.863  1.00  0.00    -0.300 C  
ENDROOT
BRANCH  12  19
HETATM   19  O   UNL     1      -7.982  13.704  67.036  1.00  0.00    -0.091 OA 
HETATM   20  C   UNL     1      -6.677  13.584  67.613  1.00  0.00    -0.167 C  
ENDBRANCH  12  19
BRANCH  16  21
HETATM   21  C   UNL     1     -12.096  11.292  69.105  1.00  0.00    -0.279 C  
BRANCH  21  22
HETATM   22  O   UNL     1     -11.459  10.149  69.602  1.00  0.00    -0.241 OA 
BRANCH  22  23
HETATM   23  C   UNL     1     -12.055   9.757  70.756  1.00  0.00    -0.279 C  
HETATM   24  O   UNL     1     -13.176  10.038  71.119  1.00  0.00    -0.384 OA 
BRANCH  23  25
HETATM   25  C   UNL     1     -11.126   8.986  71.555  1.00  0.00    -0.419 A  
HETATM   26  C   UNL     1     -11.701   8.140  72.488  1.00  0.00    -0.394 A  
HETATM   27  N   UNL     1     -10.985   7.337  73.311  1.00  0.00    -0.349 NA 
HETATM   28  C   UNL     1      -9.642   7.409  73.197  1.00  0.00    -0.210 A  
HETATM   29  C   UNL     1      -8.969   8.267  72.316  1.00  0.00    -0.213 A  
HETATM   30  C   UNL     1      -9.730   9.074  71.481  1.00  0.00    -0.365 A  
HETATM   31 BR   UNL     1      -7.093   8.296  72.259  1.00  0.00    -0.114 Br 
ENDBRANCH  23  25
ENDBRANCH  22  23
ENDBRANCH  21  22
ENDBRANCH  16  21
TORSDOF 5
ENDMDL
MODEL       42
REMARK 921   NORMALIZED FREE ENERGY PREDICTED BY IDOCK:   -6.02 KCAL/MOL
REMARK 922        TOTAL FREE ENERGY PREDICTED BY IDOCK:   -8.21 KCAL/MOL
REMARK 923 INTER-LIGAND FREE ENERGY PREDICTED BY IDOCK:   -8.00 KCAL/MOL
REMARK 924 INTRA-LIGAND FREE ENERGY PREDICTED BY IDOCK:   -0.21 KCAL/MOL
REMARK 927      BINDING AFFINITY PREDICTED BY RF-SCORE:    0.00 PKD
ROOT
HETATM    1  C   UNL     1      -9.976   9.585  69.506  1.00  0.00    -0.194 C  
HETATM    2  C   UNL     1     -10.707   9.706  70.838  1.00  0.00    -0.402 C  
HETATM    3  C   UNL     1     -10.437   8.492  71.542  1.00  0.00    -0.318 A  
HETATM    4  C   UNL     1     -11.213   7.788  72.402  1.00  0.00    -0.337 A  
HETATM    5  N   UNL     1     -10.539   6.622  72.634  1.00  0.00    -0.212 NA 
HETATM    6  C   UNL     1     -11.155   5.559  73.394  1.00  0.00    -0.228 C  
HETATM    7  C   UNL     1      -9.328   6.624  71.965  1.00  0.00    -0.142 A  
HETATM    8  C   UNL     1      -8.253   5.729  71.883  1.00  0.00    -0.119 A  
HETATM    9  C   UNL     1      -7.205   6.075  71.008  1.00  0.00    -0.074 A  
HETATM   10  C   UNL     1      -7.215   7.230  70.172  1.00  0.00    -0.074 A  
HETATM   11  C   UNL     1      -8.263   8.159  70.210  1.00  0.00    -0.122 A  
HETATM   12  C   UNL     1      -8.444   9.555  69.393  1.00  0.00    -0.146 C  
HETATM   13  C   UNL     1      -9.271   7.801  71.188  1.00  0.00    -0.158 A  
HETATM   14  C   UNL     1      -8.597  10.306  67.745  1.00  0.00    -0.118 C  
HETATM   15  C   UNL     1      -9.681   7.586  67.827  1.00  0.00    -0.146 C  
HETATM   16  C   UNL     1     -10.216  10.657  67.245  1.00  0.00    -0.250 C  
HETATM   17  N   UNL     1     -10.583   8.606  68.468  1.00  0.00    -0.166 NA 
HETATM   18  C   UNL     1     -11.100   9.418  67.400  1.00  0.00     0.192 C  
ENDROOT
BRANCH  12  19
HETATM   19  O   UNL     1      -7.751  10.558  70.178  1.00  0.00    -0.090 OA 
HETATM   20  C   UNL     1      -6.334  10.358  70.225  1.00  0.00    -0.132 C  
ENDBRANCH  12  19
BRANCH  16  21
HETATM   21  C   UNL     1     -10.851  11.446  66.100  1.00  0.00    -0.255 C  
BRANCH  21  22
HETATM   22  O   UNL     1     -12.079  12.066  66.357  1.00  0.00    -0.610 OA 
BRANCH  22  23
HETATM   23  C   UNL     1     -12.297  13.046  65.444  1.00  0.00    -0.486 C  
HETATM   24  O   UNL     1     -12.864  12.928  64.381  1.00  0.00    -0.696 OA 
BRANCH  23  25
HETATM   25  C   UNL     1     -11.686  14.280  65.890  1.00  0.00    -0.375 A  
HETATM   26  C   UNL     1     -11.228  15.116  64.885  1.00  0.00    -0.417 A  
HETATM   27  N   UNL     1     -10.641  16.315  65.119  1.00  0.00    -0.638 NA 
HETATM   28  C   UNL     1     -10.499  16.668  66.414  1.00  0.00    -0.266 A  
HETATM   29  C   UNL     1     -10.888  15.870  67.498  1.00  0.00    -0.305 A  
HETATM   30  C   UNL     1     -11.491  14.649  67.228  1.00  0.00    -0.386 A  
HETATM   31 BR   UNL     1     -10.620  16.458  69.260  1.00  0.00    -0.330 Br 
ENDBRANCH  23  25
ENDBRANCH  22  23
ENDBRANCH  21  22
ENDBRANCH  16  21
TORSDOF 5
ENDMDL
MODEL       43
REMARK 921   NORMALIZED FREE ENERGY PREDICTED BY IDOCK:   -6.01 KCAL/MOL
REMARK 922        TOTAL FREE ENERGY PREDICTED BY IDOCK:   -8.20 KCAL/MOL
REMARK 923 INTER-LIGAND FREE ENERGY PREDICTED BY IDOCK:   -7.82 KCAL/MOL
REMARK 924 INTRA-LIGAND FREE ENERGY PREDICTED BY IDOCK:   -0.38 KCAL/MOL
REMARK 927      BINDING AFFINITY PREDICTED BY RF-SCORE:    0.00 PKD
ROOT
HETATM    1  C   UNL     1     -10.685   7.550  72.349  1.00  0.00    -0.263 C  
HETATM    2  C   UNL     1     -10.506   6.900  73.716  1.00  0.00    -0.390 C  
HETATM    3  C   UNL     1     -10.330   5.505  73.464  1.00  0.00    -0.252 A  
HETATM    4  C   UNL     1     -10.712   4.428  74.193  1.00  0.00    -0.252 A  
HETATM    5  N   UNL     1     -10.457   3.340  73.406  1.00  0.00    -0.159 NA 
HETATM    6  C   UNL     1     -10.890   2.024  73.812  1.00  0.00    -0.170 C  
HETATM    7  C   UNL     1      -9.870   3.735  72.216  1.00  0.00    -0.163 A  
HETATM    8  C   UNL     1      -9.378   3.055  71.094  1.00  0.00    -0.212 A  
HETATM    9  C   UNL     1      -8.912   3.845  70.027  1.00  0.00    -0.165 A  
HETATM   10  C   UNL     1      -8.976   5.271  70.005  1.00  0.00    -0.154 A  
HETATM   11  C   UNL     1      -9.459   6.004  71.097  1.00  0.00    -0.182 A  
HETATM   12  C   UNL     1      -9.564   7.615  71.300  1.00  0.00    -0.157 C  
HETATM   13  C   UNL     1      -9.843   5.146  72.200  1.00  0.00    -0.222 A  
HETATM   14  C   UNL     1     -10.306   9.150  70.670  1.00  0.00    -0.306 C  
HETATM   15  C   UNL     1     -12.020   6.819  70.207  1.00  0.00    -0.236 C  
HETATM   16  C   UNL     1     -11.713   9.689  71.521  1.00  0.00    -0.472 C  
HETATM   17  N   UNL     1     -12.037   7.297  71.634  1.00  0.00    -0.308 NA 
HETATM   18  C   UNL     1     -12.734   8.555  71.631  1.00  0.00    -0.332 C  
ENDROOT
BRANCH  12  19
HETATM   19  O   UNL     1      -8.271   8.029  71.810  1.00  0.00    -0.104 OA 
HETATM   20  C   UNL     1      -7.179   7.620  70.978  1.00  0.00    -0.058 C  
ENDBRANCH  12  19
BRANCH  16  21
HETATM   21  C   UNL     1     -12.550  10.968  71.533  1.00  0.00    -0.356 C  
BRANCH  21  22
HETATM   22  O   UNL     1     -12.850  11.545  70.294  1.00  0.00    -0.054 OA 
BRANCH  22  23
HETATM   23  C   UNL     1     -12.305  12.785  70.222  1.00  0.00    -0.204 C  
HETATM   24  O   UNL     1     -12.235  13.594  71.121  1.00  0.00    -0.344 OA 
BRANCH  23  25
HETATM   25  C   UNL     1     -11.859  13.052  68.871  1.00  0.00    -0.358 A  
HETATM   26  C   UNL     1     -11.966  14.369  68.456  1.00  0.00    -0.298 A  
HETATM   27  N   UNL     1     -11.585  14.800  67.230  1.00  0.00    -0.379 NA 
HETATM   28  C   UNL     1     -11.098  13.861  66.391  1.00  0.00    -0.309 A  
HETATM   29  C   UNL     1     -10.995  12.499  66.704  1.00  0.00    -0.266 A  
HETATM   30  C   UNL     1     -11.388  12.088  67.971  1.00  0.00    -0.358 A  
HETATM   31 BR   UNL     1     -10.319  11.280  65.447  1.00  0.00    -0.336 Br 
ENDBRANCH  23  25
ENDBRANCH  22  23
ENDBRANCH  21  22
ENDBRANCH  16  21
TORSDOF 5
ENDMDL
MODEL       44
REMARK 921   NORMALIZED FREE ENERGY PREDICTED BY IDOCK:   -5.99 KCAL/MOL
REMARK 922        TOTAL FREE ENERGY PREDICTED BY IDOCK:   -8.18 KCAL/MOL
REMARK 923 INTER-LIGAND FREE ENERGY PREDICTED BY IDOCK:   -7.59 KCAL/MOL
REMARK 924 INTRA-LIGAND FREE ENERGY PREDICTED BY IDOCK:   -0.59 KCAL/MOL
REMARK 927      BINDING AFFINITY PREDICTED BY RF-SCORE:    0.00 PKD
ROOT
HETATM    1  C   UNL     1      -9.812  13.511  66.460  1.00  0.00    -0.291 C  
HETATM    2  C   UNL     1      -8.684  14.491  66.762  1.00  0.00    -0.214 C  
HETATM    3  C   UNL     1      -9.232  15.445  67.674  1.00  0.00    -0.187 A  
HETATM    4  C   UNL     1      -8.976  16.768  67.815  1.00  0.00    -0.216 A  
HETATM    5  N   UNL     1      -9.903  17.230  68.707  1.00  0.00    -0.297 NA 
HETATM    6  C   UNL     1     -10.022  18.644  68.976  1.00  0.00    -0.291 C  
HETATM    7  C   UNL     1     -10.696  16.189  69.158  1.00  0.00    -0.292 A  
HETATM    8  C   UNL     1     -11.745  16.086  70.082  1.00  0.00    -0.290 A  
HETATM    9  C   UNL     1     -12.358  14.825  70.208  1.00  0.00    -0.400 A  
HETATM   10  C   UNL     1     -12.017  13.691  69.412  1.00  0.00    -0.394 A  
HETATM   11  C   UNL     1     -10.979  13.735  68.472  1.00  0.00    -0.283 A  
HETATM   12  C   UNL     1     -10.396  12.557  67.513  1.00  0.00    -0.220 C  
HETATM   13  C   UNL     1     -10.325  15.029  68.446  1.00  0.00    -0.231 A  
HETATM   14  C   UNL     1     -10.793  11.395  66.173  1.00  0.00    -0.310 C  
HETATM   15  C   UNL     1     -12.379  13.854  66.014  1.00  0.00    -0.475 C  
HETATM   16  C   UNL     1     -10.318  11.909  64.590  1.00  0.00    -0.326 C  
HETATM   17  N   UNL     1     -10.957  14.031  65.553  1.00  0.00    -0.301 NA 
HETATM   18  C   UNL     1     -10.843  13.317  64.309  1.00  0.00    -0.392 C  
ENDROOT
BRANCH  12  19
HETATM   19  O   UNL     1      -9.414  11.853  68.314  1.00  0.00    -0.189 OA 
HETATM   20  C   UNL     1      -9.972  10.774  69.072  1.00  0.00    -0.199 C  
ENDBRANCH  12  19
BRANCH  16  21
HETATM   21  C   UNL     1     -10.229  11.246  63.216  1.00  0.00    -0.368 C  
BRANCH  21  22
HETATM   22  O   UNL     1      -9.646   9.975  63.156  1.00  0.00    -0.268 OA 
BRANCH  22  23
HETATM   23  C   UNL     1      -8.325  10.063  63.449  1.00  0.00    -0.170 C  
HETATM   24  O   UNL     1      -7.452  10.480  62.720  1.00  0.00    -0.140 OA 
BRANCH  23  25
HETATM   25  C   UNL     1      -8.073   9.516  64.765  1.00  0.00    -0.130 A  
HETATM   26  C   UNL     1      -7.136  10.197  65.525  1.00  0.00    -0.138 A  
HETATM   27  N   UNL     1      -6.786   9.833  66.782  1.00  0.00    -0.082 NA 
HETATM   28  C   UNL     1      -7.392   8.733  67.277  1.00  0.00    -0.081 A  
HETATM   29  C   UNL     1      -8.315   7.954  66.568  1.00  0.00    -0.127 A  
HETATM   30  C   UNL     1      -8.659   8.354  65.283  1.00  0.00    -0.177 A  
HETATM   31 BR   UNL     1      -9.079   6.429  67.353  1.00  0.00    -0.111 Br 
ENDBRANCH  23  25
ENDBRANCH  22  23
ENDBRANCH  21  22
ENDBRANCH  16  21
TORSDOF 5
ENDMDL
MODEL       45
REMARK 921   NORMALIZED FREE ENERGY PREDICTED BY IDOCK:   -5.99 KCAL/MOL
REMARK 922        TOTAL FREE ENERGY PREDICTED BY IDOCK:   -8.17 KCAL/MOL
REMARK 923 INTER-LIGAND FREE ENERGY PREDICTED BY IDOCK:   -8.05 KCAL/MOL
REMARK 924 INTRA-LIGAND FREE ENERGY PREDICTED BY IDOCK:   -0.12 KCAL/MOL
REMARK 927      BINDING AFFINITY PREDICTED BY RF-SCORE:    0.00 PKD
ROOT
HETATM    1  C   UNL     1     -11.007   7.296  70.432  1.00  0.00    -0.252 C  
HETATM    2  C   UNL     1     -11.377   6.414  69.245  1.00  0.00    -0.405 C  
HETATM    3  C   UNL     1     -10.255   5.555  69.035  1.00  0.00    -0.298 A  
HETATM    4  C   UNL     1      -9.748   5.042  67.887  1.00  0.00    -0.153 A  
HETATM    5  N   UNL     1      -8.571   4.443  68.239  1.00  0.00    -0.093 NA 
HETATM    6  C   UNL     1      -7.683   3.921  67.226  1.00  0.00    -0.080 C  
HETATM    7  C   UNL     1      -8.374   4.537  69.605  1.00  0.00    -0.069 A  
HETATM    8  C   UNL     1      -7.385   4.077  70.486  1.00  0.00    -0.041 A  
HETATM    9  C   UNL     1      -7.512   4.455  71.836  1.00  0.00    -0.070 A  
HETATM   10  C   UNL     1      -8.536   5.319  72.327  1.00  0.00    -0.125 A  
HETATM   11  C   UNL     1      -9.549   5.811  71.494  1.00  0.00    -0.181 A  
HETATM   12  C   UNL     1     -10.827   6.750  71.857  1.00  0.00    -0.232 C  
HETATM   13  C   UNL     1      -9.421   5.320  70.136  1.00  0.00    -0.217 A  
HETATM   14  C   UNL     1     -11.352   8.369  72.494  1.00  0.00    -0.416 C  
HETATM   15  C   UNL     1      -8.775   8.506  71.107  1.00  0.00    -0.174 C  
HETATM   16  C   UNL     1     -11.770   9.534  71.285  1.00  0.00    -0.444 C  
HETATM   17  N   UNL     1      -9.950   8.400  70.172  1.00  0.00    -0.185 NA 
HETATM   18  C   UNL     1     -10.647   9.655  70.253  1.00  0.00    -0.278 C  
ENDROOT
BRANCH  12  19
HETATM   19  O   UNL     1     -11.866   5.840  72.301  1.00  0.00    -0.273 OA 
HETATM   20  C   UNL     1     -11.409   4.894  73.274  1.00  0.00    -0.327 C  
ENDBRANCH  12  19
BRANCH  16  21
HETATM   21  C   UNL     1     -12.443  10.906  71.287  1.00  0.00    -0.388 C  
BRANCH  21  22
HETATM   22  O   UNL     1     -12.409  11.637  70.094  1.00  0.00    -0.274 OA 
BRANCH  22  23
HETATM   23  C   UNL     1     -12.281  12.959  70.369  1.00  0.00    -0.304 C  
HETATM   24  O   UNL     1     -12.512  13.500  71.428  1.00  0.00    -0.332 OA 
BRANCH  23  25
HETATM   25  C   UNL     1     -11.880  13.675  69.177  1.00  0.00    -0.394 A  
HETATM   26  C   UNL     1     -11.911  12.942  68.002  1.00  0.00    -0.343 A  
HETATM   27  N   UNL     1     -11.581  13.454  66.792  1.00  0.00    -0.346 NA 
HETATM   28  C   UNL     1     -11.190  14.746  66.776  1.00  0.00    -0.344 A  
HETATM   29  C   UNL     1     -11.083  15.553  67.917  1.00  0.00    -0.321 A  
HETATM   30  C   UNL     1     -11.433  15.002  69.143  1.00  0.00    -0.320 A  
HETATM   31 BR   UNL     1     -10.507  17.333  67.775  1.00  0.00    -0.368 Br 
ENDBRANCH  23  25
ENDBRANCH  22  23
ENDBRANCH  21  22
ENDBRANCH  16  21
TORSDOF 5
ENDMDL
MODEL       46
REMARK 921   NORMALIZED FREE ENERGY PREDICTED BY IDOCK:   -5.96 KCAL/MOL
REMARK 922        TOTAL FREE ENERGY PREDICTED BY IDOCK:   -8.13 KCAL/MOL
REMARK 923 INTER-LIGAND FREE ENERGY PREDICTED BY IDOCK:   -8.36 KCAL/MOL
REMARK 924 INTRA-LIGAND FREE ENERGY PREDICTED BY IDOCK:    0.23 KCAL/MOL
REMARK 927      BINDING AFFINITY PREDICTED BY RF-SCORE:    0.00 PKD
ROOT
HETATM    1  C   UNL     1      -7.858  17.075  67.206  1.00  0.00    -0.174 C  
HETATM    2  C   UNL     1      -7.060  17.012  65.909  1.00  0.00     0.187 C  
HETATM    3  C   UNL     1      -6.519  18.321  65.722  1.00  0.00    -0.310 A  
HETATM    4  C   UNL     1      -6.277  19.014  64.582  1.00  0.00    -0.141 A  
HETATM    5  N   UNL     1      -5.932  20.274  64.983  1.00  0.00    -0.218 NA 
HETATM    6  C   UNL     1      -5.755  21.329  64.013  1.00  0.00    -0.196 C  
HETATM    7  C   UNL     1      -5.908  20.349  66.365  1.00  0.00    -0.178 A  
HETATM    8  C   UNL     1      -5.591  21.357  67.285  1.00  0.00    -0.409 A  
HETATM    9  C   UNL     1      -5.767  21.050  68.648  1.00  0.00    -0.360 A  
HETATM   10  C   UNL     1      -6.304  19.817  69.123  1.00  0.00    -0.349 A  
HETATM   11  C   UNL     1      -6.640  18.774  68.250  1.00  0.00    -0.240 A  
HETATM   12  C   UNL     1      -7.205  17.284  68.581  1.00  0.00    -0.231 C  
HETATM   13  C   UNL     1      -6.356  19.110  66.868  1.00  0.00    -0.190 A  
HETATM   14  C   UNL     1      -8.570  16.341  69.322  1.00  0.00    -0.148 C  
HETATM   15  C   UNL     1      -9.468  18.896  68.204  1.00  0.00    -0.332 C  
HETATM   16  C   UNL     1      -9.740  15.736  68.199  1.00  0.00    -0.211 C  
HETATM   17  N   UNL     1      -9.201  17.848  67.157  1.00  0.00    -0.254 NA 
HETATM   18  C   UNL     1     -10.240  16.864  67.295  1.00  0.00    -0.297 C  
ENDROOT
BRANCH  12  19
HETATM   19  O   UNL     1      -6.032  16.470  68.833  1.00  0.00    -0.135 OA 
HETATM   20  C   UNL     1      -5.331  16.844  70.024  1.00  0.00    -0.198 C  
ENDBRANCH  12  19
BRANCH  16  21
HETATM   21  C   UNL     1     -10.907  14.752  68.273  1.00  0.00    -0.249 C  
BRANCH  21  22
HETATM   22  O   UNL     1     -12.123  15.239  68.767  1.00  0.00    -0.273 OA 
BRANCH  22  23
HETATM   23  C   UNL     1     -12.066  15.324  70.119  1.00  0.00    -0.358 C  
HETATM   24  O   UNL     1     -11.710  16.284  70.766  1.00  0.00    -0.351 OA 
BRANCH  23  25
HETATM   25  C   UNL     1     -12.437  14.056  70.710  1.00  0.00    -0.442 A  
HETATM   26  C   UNL     1     -13.282  14.132  71.805  1.00  0.00    -0.373 A  
HETATM   27  N   UNL     1     -13.740  13.047  72.473  1.00  0.00    -0.630 NA 
HETATM   28  C   UNL     1     -13.312  11.846  72.028  1.00  0.00    -0.320 A  
HETATM   29  C   UNL     1     -12.422  11.671  70.960  1.00  0.00    -0.334 A  
HETATM   30  C   UNL     1     -11.974  12.802  70.290  1.00  0.00    -0.358 A  
HETATM   31 BR   UNL     1     -11.880   9.951  70.442  1.00  0.00    -0.283 Br 
ENDBRANCH  23  25
ENDBRANCH  22  23
ENDBRANCH  21  22
ENDBRANCH  16  21
TORSDOF 5
ENDMDL
MODEL       47
REMARK 921   NORMALIZED FREE ENERGY PREDICTED BY IDOCK:   -5.94 KCAL/MOL
REMARK 922        TOTAL FREE ENERGY PREDICTED BY IDOCK:   -8.11 KCAL/MOL
REMARK 923 INTER-LIGAND FREE ENERGY PREDICTED BY IDOCK:   -7.73 KCAL/MOL
REMARK 924 INTRA-LIGAND FREE ENERGY PREDICTED BY IDOCK:   -0.37 KCAL/MOL
REMARK 927      BINDING AFFINITY PREDICTED BY RF-SCORE:    0.00 PKD
ROOT
HETATM    1  C   UNL     1     -10.799   9.102  71.665  1.00  0.00    -0.372 C  
HETATM    2  C   UNL     1      -9.673   8.703  72.612  1.00  0.00    -0.199 C  
HETATM    3  C   UNL     1      -9.491   7.298  72.428  1.00  0.00    -0.178 A  
HETATM    4  C   UNL     1      -9.132   6.339  73.315  1.00  0.00    -0.128 A  
HETATM    5  N   UNL     1      -9.287   5.151  72.657  1.00  0.00    -0.137 NA 
HETATM    6  C   UNL     1      -9.138   3.898  73.360  1.00  0.00    -0.102 C  
HETATM    7  C   UNL     1      -9.689   5.374  71.352  1.00  0.00    -0.161 A  
HETATM    8  C   UNL     1      -9.950   4.545  70.252  1.00  0.00    -0.288 A  
HETATM    9  C   UNL     1     -10.423   5.171  69.083  1.00  0.00    -0.170 A  
HETATM   10  C   UNL     1     -10.706   6.567  68.987  1.00  0.00    -0.324 A  
HETATM   11  C   UNL     1     -10.466   7.443  70.053  1.00  0.00    -0.233 A  
HETATM   12  C   UNL     1     -10.662   9.056  70.135  1.00  0.00    -0.233 C  
HETATM   13  C   UNL     1      -9.898   6.761  71.200  1.00  0.00    -0.188 A  
HETATM   14  C   UNL     1     -11.861  10.417  70.032  1.00  0.00    -0.351 C  
HETATM   15  C   UNL     1     -13.073   7.946  71.036  1.00  0.00     0.034 C  
HETATM   16  C   UNL     1     -12.434  11.008  71.555  1.00  0.00    -0.389 C  
HETATM   17  N   UNL     1     -12.230   8.655  72.061  1.00  0.00    -0.347 NA 
HETATM   18  C   UNL     1     -12.944   9.852  72.416  1.00  0.00    -0.177 C  
ENDROOT
BRANCH  12  19
HETATM   19  O   UNL     1      -9.434   9.625  69.612  1.00  0.00    -0.182 OA 
HETATM   20  C   UNL     1      -9.192   9.282  68.243  1.00  0.00    -0.131 C  
ENDBRANCH  12  19
BRANCH  16  21
HETATM   21  C   UNL     1     -13.246  12.220  72.012  1.00  0.00    -0.403 C  
BRANCH  21  22
HETATM   22  O   UNL     1     -13.322  13.306  71.133  1.00  0.00    -0.146 OA 
BRANCH  22  23
HETATM   23  C   UNL     1     -12.355  14.208  71.435  1.00  0.00    -0.344 C  
HETATM   24  O   UNL     1     -12.011  14.551  72.544  1.00  0.00    -0.156 OA 
BRANCH  23  25
HETATM   25  C   UNL     1     -11.812  14.776  70.219  1.00  0.00    -0.357 A  
HETATM   26  C   UNL     1     -11.878  13.962  69.100  1.00  0.00    -0.358 A  
HETATM   27  N   UNL     1     -11.429  14.335  67.877  1.00  0.00    -0.297 NA 
HETATM   28  C   UNL     1     -10.881  15.566  67.791  1.00  0.00    -0.309 A  
HETATM   29  C   UNL     1     -10.729  16.440  68.875  1.00  0.00    -0.319 A  
HETATM   30  C   UNL     1     -11.202  16.033  70.115  1.00  0.00    -0.376 A  
HETATM   31 BR   UNL     1      -9.930  18.122  68.639  1.00  0.00    -0.410 Br 
ENDBRANCH  23  25
ENDBRANCH  22  23
ENDBRANCH  21  22
ENDBRANCH  16  21
TORSDOF 5
ENDMDL
MODEL       48
REMARK 921   NORMALIZED FREE ENERGY PREDICTED BY IDOCK:   -5.94 KCAL/MOL
REMARK 922        TOTAL FREE ENERGY PREDICTED BY IDOCK:   -8.10 KCAL/MOL
REMARK 923 INTER-LIGAND FREE ENERGY PREDICTED BY IDOCK:   -8.05 KCAL/MOL
REMARK 924 INTRA-LIGAND FREE ENERGY PREDICTED BY IDOCK:   -0.05 KCAL/MOL
REMARK 927      BINDING AFFINITY PREDICTED BY RF-SCORE:    0.00 PKD
ROOT
HETATM    1  C   UNL     1      -8.929  10.409  68.775  1.00  0.00    -0.157 C  
HETATM    2  C   UNL     1      -8.516   9.840  70.127  1.00  0.00    -0.204 C  
HETATM    3  C   UNL     1      -9.299   8.658  70.308  1.00  0.00    -0.180 A  
HETATM    4  C   UNL     1      -9.811   8.111  71.437  1.00  0.00    -0.174 A  
HETATM    5  N   UNL     1     -10.624   7.095  71.019  1.00  0.00    -0.220 NA 
HETATM    6  C   UNL     1     -11.459   6.389  71.963  1.00  0.00    -0.305 C  
HETATM    7  C   UNL     1     -10.577   6.978  69.641  1.00  0.00    -0.234 A  
HETATM    8  C   UNL     1     -11.163   6.108  68.711  1.00  0.00    -0.307 A  
HETATM    9  C   UNL     1     -10.916   6.373  67.351  1.00  0.00    -0.463 A  
HETATM   10  C   UNL     1     -10.173   7.497  66.881  1.00  0.00    -0.359 A  
HETATM   11  C   UNL     1      -9.565   8.400  67.763  1.00  0.00    -0.185 A  
HETATM   12  C   UNL     1      -8.638   9.698  67.444  1.00  0.00    -0.125 C  
HETATM   13  C   UNL     1      -9.777   8.031  69.149  1.00  0.00    -0.163 A  
HETATM   14  C   UNL     1      -8.582  11.327  66.640  1.00  0.00    -0.167 C  
HETATM   15  C   UNL     1     -11.267  10.657  67.602  1.00  0.00    -0.290 C  
HETATM   16  C   UNL     1      -8.824  12.677  67.696  1.00  0.00    -0.184 C  
HETATM   17  N   UNL     1     -10.327  11.074  68.701  1.00  0.00    -0.185 NA 
HETATM   18  C   UNL     1     -10.096  12.483  68.523  1.00  0.00    -0.181 C  
ENDROOT
BRANCH  12  19
HETATM   19  O   UNL     1      -7.288   9.187  67.304  1.00  0.00    -0.086 OA 
HETATM   20  C   UNL     1      -7.090   8.435  66.102  1.00  0.00    -0.076 C  
ENDBRANCH  12  19
BRANCH  16  21
HETATM   21  C   UNL     1      -8.669  14.192  67.573  1.00  0.00    -0.204 C  
BRANCH  21  22
HETATM   22  O   UNL     1      -8.768  14.741  66.289  1.00  0.00    -0.135 OA 
BRANCH  22  23
HETATM   23  C   UNL     1     -10.061  15.055  66.024  1.00  0.00    -0.301 C  
HETATM   24  O   UNL     1     -10.713  15.928  66.552  1.00  0.00    -0.309 OA 
BRANCH  23  25
HETATM   25  C   UNL     1     -10.601  14.139  65.042  1.00  0.00    -0.436 A  
HETATM   26  C   UNL     1     -11.921  14.357  64.685  1.00  0.00    -0.464 A  
HETATM   27  N   UNL     1     -12.582  13.605  63.772  1.00  0.00    -0.703 NA 
HETATM   28  C   UNL     1     -11.887  12.588  63.219  1.00  0.00    -0.413 A  
HETATM   29  C   UNL     1     -10.566  12.262  63.551  1.00  0.00    -0.448 A  
HETATM   30  C   UNL     1      -9.911  13.054  64.485  1.00  0.00    -0.148 A  
HETATM   31 BR   UNL     1      -9.707  10.809  62.729  1.00  0.00    -0.242 Br 
ENDBRANCH  23  25
ENDBRANCH  22  23
ENDBRANCH  21  22
ENDBRANCH  16  21
TORSDOF 5
ENDMDL
MODEL       49
REMARK 921   NORMALIZED FREE ENERGY PREDICTED BY IDOCK:   -5.89 KCAL/MOL
REMARK 922        TOTAL FREE ENERGY PREDICTED BY IDOCK:   -8.04 KCAL/MOL
REMARK 923 INTER-LIGAND FREE ENERGY PREDICTED BY IDOCK:   -8.53 KCAL/MOL
REMARK 924 INTRA-LIGAND FREE ENERGY PREDICTED BY IDOCK:    0.49 KCAL/MOL
REMARK 927      BINDING AFFINITY PREDICTED BY RF-SCORE:    0.00 PKD
ROOT
HETATM    1  C   UNL     1      -9.621  15.253  68.348  1.00  0.00    -0.206 C  
HETATM    2  C   UNL     1      -8.419  15.440  69.267  1.00  0.00    -0.258 C  
HETATM    3  C   UNL     1      -7.904  16.740  68.972  1.00  0.00    -0.201 A  
HETATM    4  C   UNL     1      -6.628  17.198  68.981  1.00  0.00    -0.218 A  
HETATM    5  N   UNL     1      -6.684  18.455  68.446  1.00  0.00    -0.223 NA 
HETATM    6  C   UNL     1      -5.471  19.185  68.161  1.00  0.00    -0.189 C  
HETATM    7  C   UNL     1      -7.993  18.795  68.154  1.00  0.00    -0.290 A  
HETATM    8  C   UNL     1      -8.617  19.941  67.643  1.00  0.00    -0.385 A  
HETATM    9  C   UNL     1     -10.005  19.862  67.418  1.00  0.00    -0.558 A  
HETATM   10  C   UNL     1     -10.777  18.679  67.617  1.00  0.00    -0.428 A  
HETATM   11  C   UNL     1     -10.208  17.503  68.125  1.00  0.00    -0.359 A  
HETATM   12  C   UNL     1     -10.910  16.079  68.478  1.00  0.00    -0.304 C  
HETATM   13  C   UNL     1      -8.798  17.667  68.421  1.00  0.00    -0.281 A  
HETATM   14  C   UNL     1     -11.830  14.665  67.802  1.00  0.00    -0.359 C  
HETATM   15  C   UNL     1     -10.029  15.862  65.826  1.00  0.00    -0.360 C  
HETATM   16  C   UNL     1     -10.871  13.269  67.444  1.00  0.00    -0.279 C  
HETATM   17  N   UNL     1      -9.316  15.018  66.847  1.00  0.00    -0.228 NA 
HETATM   18  C   UNL     1      -9.678  13.654  66.569  1.00  0.00    -0.292 C  
ENDROOT
BRANCH  12  19
HETATM   19  O   UNL     1     -11.416  16.218  69.830  1.00  0.00    -0.299 OA 
HETATM   20  C   UNL     1     -11.229  15.043  70.626  1.00  0.00    -0.242 C  
ENDBRANCH  12  19
BRANCH  16  21
HETATM   21  C   UNL     1     -11.168  11.814  67.078  1.00  0.00    -0.322 C  
BRANCH  21  22
HETATM   22  O   UNL     1     -12.124  11.144  67.850  1.00  0.00    -0.627 OA 
BRANCH  22  23
HETATM   23  C   UNL     1     -11.603  10.844  69.066  1.00  0.00    -0.316 C  
HETATM   24  O   UNL     1     -11.973  11.276  70.135  1.00  0.00    -0.311 OA 
BRANCH  23  25
HETATM   25  C   UNL     1     -10.466   9.961  68.912  1.00  0.00    -0.229 A  
HETATM   26  C   UNL     1     -10.666   8.870  68.083  1.00  0.00    -0.092 A  
HETATM   27  N   UNL     1      -9.710   7.949  67.815  1.00  0.00    -0.150 NA 
HETATM   28  C   UNL     1      -8.518   8.131  68.422  1.00  0.00    -0.126 A  
HETATM   29  C   UNL     1      -8.236   9.176  69.312  1.00  0.00    -0.118 A  
HETATM   30  C   UNL     1      -9.234  10.108  69.563  1.00  0.00    -0.223 A  
HETATM   31 BR   UNL     1      -6.545   9.316  70.115  1.00  0.00    -0.060 Br 
ENDBRANCH  23  25
ENDBRANCH  22  23
ENDBRANCH  21  22
ENDBRANCH  16  21
TORSDOF 5
ENDMDL
MODEL       50
REMARK 921   NORMALIZED FREE ENERGY PREDICTED BY IDOCK:   -5.88 KCAL/MOL
REMARK 922        TOTAL FREE ENERGY PREDICTED BY IDOCK:   -8.03 KCAL/MOL
REMARK 923 INTER-LIGAND FREE ENERGY PREDICTED BY IDOCK:   -8.12 KCAL/MOL
REMARK 924 INTRA-LIGAND FREE ENERGY PREDICTED BY IDOCK:    0.08 KCAL/MOL
REMARK 927      BINDING AFFINITY PREDICTED BY RF-SCORE:    0.00 PKD
ROOT
HETATM    1  C   UNL     1      -9.617  14.561  68.211  1.00  0.00    -0.212 C  
HETATM    2  C   UNL     1      -8.112  14.742  68.370  1.00  0.00    -0.144 C  
HETATM    3  C   UNL     1      -7.798  15.978  67.726  1.00  0.00    -0.155 A  
HETATM    4  C   UNL     1      -6.690  16.352  67.041  1.00  0.00    -0.204 A  
HETATM    5  N   UNL     1      -6.991  17.563  66.485  1.00  0.00    -0.225 NA 
HETATM    6  C   UNL     1      -6.082  18.188  65.553  1.00  0.00    -0.208 C  
HETATM    7  C   UNL     1      -8.260  17.964  66.864  1.00  0.00    -0.237 A  
HETATM    8  C   UNL     1      -9.039  19.104  66.626  1.00  0.00    -0.361 A  
HETATM    9  C   UNL     1     -10.349  19.099  67.144  1.00  0.00    -0.511 A  
HETATM   10  C   UNL     1     -10.930  17.987  67.825  1.00  0.00    -0.106 A  
HETATM   11  C   UNL     1     -10.200  16.821  68.090  1.00  0.00    -0.301 A  
HETATM   12  C   UNL     1     -10.646  15.477  68.892  1.00  0.00    -0.240 C  
HETATM   13  C   UNL     1      -8.834  16.915  67.614  1.00  0.00    -0.215 A  
HETATM   14  C   UNL     1     -11.804  14.077  68.921  1.00  0.00    -0.390 C  
HETATM   15  C   UNL     1     -11.246  14.996  66.196  1.00  0.00    -0.307 C  
HETATM   16  C   UNL     1     -11.185  12.598  68.269  1.00  0.00    -0.312 C  
HETATM   17  N   UNL     1     -10.125  14.190  66.794  1.00  0.00    -0.257 NA 
HETATM   18  C   UNL     1     -10.600  12.835  66.877  1.00  0.00    -0.244 C  
ENDROOT
BRANCH  12  19
HETATM   19  O   UNL     1     -10.389  15.754  70.291  1.00  0.00    -0.286 OA 
HETATM   20  C   UNL     1     -11.559  16.158  71.011  1.00  0.00    -0.393 C  
ENDBRANCH  12  19
BRANCH  16  21
HETATM   21  C   UNL     1     -11.650  11.142  68.252  1.00  0.00    -0.289 C  
BRANCH  21  22
HETATM   22  O   UNL     1     -10.767  10.184  68.763  1.00  0.00    -0.201 OA 
BRANCH  22  23
HETATM   23  C   UNL     1     -11.198   9.766  69.980  1.00  0.00    -0.251 C  
HETATM   24  O   UNL     1     -11.645  10.462  70.864  1.00  0.00    -0.340 OA 
BRANCH  23  25
HETATM   25  C   UNL     1     -10.989   8.340  70.115  1.00  0.00    -0.222 A  
HETATM   26  C   UNL     1     -10.565   7.688  68.968  1.00  0.00    -0.174 A  
HETATM   27  N   UNL     1     -10.308   6.359  68.916  1.00  0.00    -0.183 NA 
HETATM   28  C   UNL     1     -10.505   5.666  70.057  1.00  0.00    -0.297 A  
HETATM   29  C   UNL     1     -10.975   6.229  71.251  1.00  0.00    -0.275 A  
HETATM   30  C   UNL     1     -11.225   7.595  71.277  1.00  0.00    -0.277 A  
HETATM   31 BR   UNL     1     -11.231   5.160  72.773  1.00  0.00    -0.301 Br 
ENDBRANCH  23  25
ENDBRANCH  22  23
ENDBRANCH  21  22
ENDBRANCH  16  21
TORSDOF 5
ENDMDL
MODEL       51
REMARK 921   NORMALIZED FREE ENERGY PREDICTED BY IDOCK:   -5.87 KCAL/MOL
REMARK 922        TOTAL FREE ENERGY PREDICTED BY IDOCK:   -8.02 KCAL/MOL
REMARK 923 INTER-LIGAND FREE ENERGY PREDICTED BY IDOCK:   -7.67 KCAL/MOL
REMARK 924 INTRA-LIGAND FREE ENERGY PREDICTED BY IDOCK:   -0.35 KCAL/MOL
REMARK 927      BINDING AFFINITY PREDICTED BY RF-SCORE:    0.00 PKD
ROOT
HETATM    1  C   UNL     1     -10.280  14.669  67.589  1.00  0.00    -0.232 C  
HETATM    2  C   UNL     1     -10.540  15.352  66.251  1.00  0.00    -0.311 C  
HETATM    3  C   UNL     1     -10.015  16.674  66.382  1.00  0.00    -0.316 A  
HETATM    4  C   UNL     1     -10.443  17.843  65.844  1.00  0.00    -0.253 A  
HETATM    5  N   UNL     1      -9.693  18.819  66.439  1.00  0.00    -0.346 NA 
HETATM    6  C   UNL     1      -9.992  20.213  66.212  1.00  0.00    -0.435 C  
HETATM    7  C   UNL     1      -8.768  18.256  67.301  1.00  0.00    -0.255 A  
HETATM    8  C   UNL     1      -7.750  18.769  68.116  1.00  0.00    -0.310 A  
HETATM    9  C   UNL     1      -7.057  17.846  68.923  1.00  0.00    -0.264 A  
HETATM   10  C   UNL     1      -7.378  16.458  69.000  1.00  0.00    -0.221 A  
HETATM   11  C   UNL     1      -8.386  15.889  68.210  1.00  0.00    -0.165 A  
HETATM   12  C   UNL     1      -8.869  14.339  68.101  1.00  0.00    -0.183 C  
HETATM   13  C   UNL     1      -9.006  16.865  67.335  1.00  0.00    -0.215 A  
HETATM   14  C   UNL     1      -9.577  12.933  69.009  1.00  0.00     0.377 C  
HETATM   15  C   UNL     1     -10.485  15.508  70.071  1.00  0.00    -0.309 C  
HETATM   16  C   UNL     1     -11.281  12.711  68.806  1.00  0.00    -0.325 C  
HETATM   17  N   UNL     1     -11.160  15.124  68.782  1.00  0.00    -0.253 NA 
HETATM   18  C   UNL     1     -12.025  14.016  69.092  1.00  0.00    -0.360 C  
ENDROOT
BRANCH  12  19
HETATM   19  O   UNL     1      -7.991  13.725  67.124  1.00  0.00    -0.145 OA 
HETATM   20  C   UNL     1      -6.695  13.411  67.648  1.00  0.00    -0.167 C  
ENDBRANCH  12  19
BRANCH  16  21
HETATM   21  C   UNL     1     -12.281  11.610  69.160  1.00  0.00    -0.137 C  
BRANCH  21  22
HETATM   22  O   UNL     1     -11.756  10.377  69.564  1.00  0.00    -0.241 OA 
BRANCH  22  23
HETATM   23  C   UNL     1     -11.779  10.292  70.918  1.00  0.00    -0.379 C  
HETATM   24  O   UNL     1     -12.460  10.953  71.670  1.00  0.00    -0.335 OA 
BRANCH  23  25
HETATM   25  C   UNL     1     -10.805   9.321  71.368  1.00  0.00    -0.434 A  
HETATM   26  C   UNL     1      -9.566   9.388  70.751  1.00  0.00    -0.255 A  
HETATM   27  N   UNL     1      -8.534   8.566  71.056  1.00  0.00    -0.141 NA 
HETATM   28  C   UNL     1      -8.770   7.635  72.004  1.00  0.00    -0.117 A  
HETATM   29  C   UNL     1     -10.001   7.460  72.650  1.00  0.00    -0.194 A  
HETATM   30  C   UNL     1     -11.040   8.321  72.321  1.00  0.00    -0.429 A  
HETATM   31 BR   UNL     1     -10.218   6.115  73.940  1.00  0.00    -0.319 Br 
ENDBRANCH  23  25
ENDBRANCH  22  23
ENDBRANCH  21  22
ENDBRANCH  16  21
TORSDOF 5
ENDMDL
MODEL       52
REMARK 921   NORMALIZED FREE ENERGY PREDICTED BY IDOCK:   -5.87 KCAL/MOL
REMARK 922        TOTAL FREE ENERGY PREDICTED BY IDOCK:   -8.02 KCAL/MOL
REMARK 923 INTER-LIGAND FREE ENERGY PREDICTED BY IDOCK:   -7.63 KCAL/MOL
REMARK 924 INTRA-LIGAND FREE ENERGY PREDICTED BY IDOCK:   -0.39 KCAL/MOL
REMARK 927      BINDING AFFINITY PREDICTED BY RF-SCORE:    0.00 PKD
ROOT
HETATM    1  C   UNL     1      -9.668   9.312  70.053  1.00  0.00    -0.207 C  
HETATM    2  C   UNL     1     -10.439   9.274  71.367  1.00  0.00    -0.408 C  
HETATM    3  C   UNL     1     -10.350   7.925  71.831  1.00  0.00    -0.271 A  
HETATM    4  C   UNL     1     -11.243   7.177  72.524  1.00  0.00    -0.290 A  
HETATM    5  N   UNL     1     -10.727   5.912  72.544  1.00  0.00    -0.221 NA 
HETATM    6  C   UNL     1     -11.500   4.813  73.073  1.00  0.00    -0.209 C  
HETATM    7  C   UNL     1      -9.496   5.885  71.913  1.00  0.00    -0.151 A  
HETATM    8  C   UNL     1      -8.534   4.891  71.684  1.00  0.00    -0.124 A  
HETATM    9  C   UNL     1      -7.413   5.258  70.914  1.00  0.00    -0.082 A  
HETATM   10  C   UNL     1      -7.246   6.541  70.314  1.00  0.00    -0.080 A  
HETATM   11  C   UNL     1      -8.174   7.573  70.507  1.00  0.00    -0.118 A  
HETATM   12  C   UNL     1      -8.147   9.108  69.968  1.00  0.00    -0.128 C  
HETATM   13  C   UNL     1      -9.261   7.169  71.377  1.00  0.00    -0.150 A  
HETATM   14  C   UNL     1      -8.134  10.168  68.492  1.00  0.00    -0.106 C  
HETATM   15  C   UNL     1      -9.542   7.641  68.029  1.00  0.00    -0.145 C  
HETATM   16  C   UNL     1      -9.675  10.809  68.034  1.00  0.00    -0.174 C  
HETATM   17  N   UNL     1     -10.342   8.629  68.834  1.00  0.00    -0.211 NA 
HETATM   18  C   UNL     1     -10.708   9.686  67.930  1.00  0.00    -0.247 C  
ENDROOT
BRANCH  12  19
HETATM   19  O   UNL     1      -7.374   9.850  70.945  1.00  0.00    -0.328 OA 
HETATM   20  C   UNL     1      -5.975   9.548  70.905  1.00  0.00    -0.073 C  
ENDBRANCH  12  19
BRANCH  16  21
HETATM   21  C   UNL     1     -10.157  11.872  67.047  1.00  0.00    -0.205 C  
BRANCH  21  22
HETATM   22  O   UNL     1     -10.127  13.203  67.479  1.00  0.00    -0.218 OA 
BRANCH  22  23
HETATM   23  C   UNL     1     -11.388  13.703  67.511  1.00  0.00    -0.308 C  
HETATM   24  O   UNL     1     -12.210  13.642  66.624  1.00  0.00    -0.415 OA 
BRANCH  23  25
HETATM   25  C   UNL     1     -11.611  14.400  68.760  1.00  0.00    -0.348 A  
HETATM   26  C   UNL     1     -11.038  15.658  68.852  1.00  0.00    -0.290 A  
HETATM   27  N   UNL     1     -11.155  16.455  69.941  1.00  0.00    -0.347 NA 
HETATM   28  C   UNL     1     -11.859  15.952  70.977  1.00  0.00    -0.428 A  
HETATM   29  C   UNL     1     -12.435  14.675  70.995  1.00  0.00    -0.329 A  
HETATM   30  C   UNL     1     -12.304  13.882  69.862  1.00  0.00    -0.358 A  
HETATM   31 BR   UNL     1     -13.376  14.074  72.504  1.00  0.00    -0.659 Br 
ENDBRANCH  23  25
ENDBRANCH  22  23
ENDBRANCH  21  22
ENDBRANCH  16  21
TORSDOF 5
ENDMDL
MODEL       53
REMARK 921   NORMALIZED FREE ENERGY PREDICTED BY IDOCK:   -5.87 KCAL/MOL
REMARK 922        TOTAL FREE ENERGY PREDICTED BY IDOCK:   -8.02 KCAL/MOL
REMARK 923 INTER-LIGAND FREE ENERGY PREDICTED BY IDOCK:   -7.52 KCAL/MOL
REMARK 924 INTRA-LIGAND FREE ENERGY PREDICTED BY IDOCK:   -0.49 KCAL/MOL
REMARK 927      BINDING AFFINITY PREDICTED BY RF-SCORE:    0.00 PKD
ROOT
HETATM    1  C   UNL     1      -9.044  10.680  67.206  1.00  0.00    -0.143 C  
HETATM    2  C   UNL     1      -8.047  11.542  67.973  1.00  0.00    -0.136 C  
HETATM    3  C   UNL     1      -8.391  12.895  67.671  1.00  0.00    -0.176 A  
HETATM    4  C   UNL     1      -7.603  13.990  67.538  1.00  0.00    -0.180 A  
HETATM    5  N   UNL     1      -8.421  14.979  67.069  1.00  0.00    -0.217 NA 
HETATM    6  C   UNL     1      -7.874  16.253  66.664  1.00  0.00    -0.275 C  
HETATM    7  C   UNL     1      -9.721  14.516  66.960  1.00  0.00    -0.245 A  
HETATM    8  C   UNL     1     -10.939  15.097  66.581  1.00  0.00    -0.318 A  
HETATM    9  C   UNL     1     -12.059  14.245  66.531  1.00  0.00    -0.454 A  
HETATM   10  C   UNL     1     -12.003  12.841  66.776  1.00  0.00    -0.389 A  
HETATM   11  C   UNL     1     -10.814  12.205  67.156  1.00  0.00    -0.286 A  
HETATM   12  C   UNL     1     -10.545  10.646  67.534  1.00  0.00    -0.252 C  
HETATM   13  C   UNL     1      -9.713  13.141  67.279  1.00  0.00    -0.230 A  
HETATM   14  C   UNL     1     -10.593   8.936  66.920  1.00  0.00    -0.254 C  
HETATM   15  C   UNL     1     -10.045  10.865  64.784  1.00  0.00    -0.321 C  
HETATM   16  C   UNL     1      -9.073   8.305  66.384  1.00  0.00    -0.226 C  
HETATM   17  N   UNL     1      -8.856  10.603  65.670  1.00  0.00    -0.181 NA 
HETATM   18  C   UNL     1      -8.425   9.262  65.382  1.00  0.00    -0.145 C  
ENDROOT
BRANCH  12  19
HETATM   19  O   UNL     1     -10.863  10.526  68.944  1.00  0.00    -0.206 OA 
HETATM   20  C   UNL     1     -12.117  11.122  69.293  1.00  0.00    -0.308 C  
ENDBRANCH  12  19
BRANCH  16  21
HETATM   21  C   UNL     1      -8.548   6.923  65.996  1.00  0.00    -0.145 C  
BRANCH  21  22
HETATM   22  O   UNL     1      -8.518   5.947  66.999  1.00  0.00    -0.109 OA 
BRANCH  22  23
HETATM   23  C   UNL     1      -9.752   5.400  67.143  1.00  0.00    -0.146 C  
HETATM   24  O   UNL     1     -10.466   4.992  66.254  1.00  0.00    -0.276 OA 
BRANCH  23  25
HETATM   25  C   UNL     1     -10.145   5.428  68.535  1.00  0.00    -0.242 A  
HETATM   26  C   UNL     1      -9.558   4.465  69.340  1.00  0.00    -0.199 A  
HETATM   27  N   UNL     1      -9.801   4.351  70.668  1.00  0.00    -0.211 NA 
HETATM   28  C   UNL     1     -10.680   5.231  71.192  1.00  0.00    -0.119 A  
HETATM   29  C   UNL     1     -11.357   6.208  70.451  1.00  0.00    -0.328 A  
HETATM   30  C   UNL     1     -11.084   6.304  69.093  1.00  0.00    -0.457 A  
HETATM   31 BR   UNL     1     -12.576   7.365  71.287  1.00  0.00    -0.353 Br 
ENDBRANCH  23  25
ENDBRANCH  22  23
ENDBRANCH  21  22
ENDBRANCH  16  21
TORSDOF 5
ENDMDL
MODEL       54
REMARK 921   NORMALIZED FREE ENERGY PREDICTED BY IDOCK:   -5.86 KCAL/MOL
REMARK 922        TOTAL FREE ENERGY PREDICTED BY IDOCK:   -8.00 KCAL/MOL
REMARK 923 INTER-LIGAND FREE ENERGY PREDICTED BY IDOCK:   -8.01 KCAL/MOL
REMARK 924 INTRA-LIGAND FREE ENERGY PREDICTED BY IDOCK:    0.00 KCAL/MOL
REMARK 927      BINDING AFFINITY PREDICTED BY RF-SCORE:    0.00 PKD
ROOT
HETATM    1  C   UNL     1      -9.939  12.102  67.618  1.00  0.00    -0.197 C  
HETATM    2  C   UNL     1     -10.056  13.438  68.343  1.00  0.00    -0.244 C  
HETATM    3  C   UNL     1     -10.517  14.372  67.365  1.00  0.00    -0.261 A  
HETATM    4  C   UNL     1     -10.247  15.693  67.221  1.00  0.00    -0.266 A  
HETATM    5  N   UNL     1     -10.797  16.053  66.023  1.00  0.00    -0.245 NA 
HETATM    6  C   UNL     1     -10.565  17.369  65.475  1.00  0.00    -0.108 C  
HETATM    7  C   UNL     1     -11.450  14.975  65.451  1.00  0.00    -0.287 A  
HETATM    8  C   UNL     1     -12.200  14.792  64.281  1.00  0.00    -0.402 A  
HETATM    9  C   UNL     1     -12.647  13.485  64.011  1.00  0.00    -0.168 A  
HETATM   10  C   UNL     1     -12.326  12.352  64.816  1.00  0.00    -0.497 A  
HETATM   11  C   UNL     1     -11.580  12.473  65.996  1.00  0.00    -0.456 A  
HETATM   12  C   UNL     1     -11.155  11.334  67.077  1.00  0.00    -0.293 C  
HETATM   13  C   UNL     1     -11.220  13.850  66.272  1.00  0.00    -0.310 A  
HETATM   14  C   UNL     1     -10.232   9.789  67.327  1.00  0.00    -0.289 C  
HETATM   15  C   UNL     1      -9.049  11.460  65.231  1.00  0.00    -0.074 C  
HETATM   16  C   UNL     1      -8.651   9.979  68.007  1.00  0.00    -0.121 C  
HETATM   17  N   UNL     1      -8.760  11.955  66.622  1.00  0.00    -0.195 NA 
HETATM   18  C   UNL     1      -7.850  11.009  67.209  1.00  0.00    -0.122 C  
ENDROOT
BRANCH  12  19
HETATM   19  O   UNL     1     -12.273  11.232  67.995  1.00  0.00    -0.621 OA 
HETATM   20  C   UNL     1     -11.880  11.271  69.371  1.00  0.00    -0.355 C  
ENDBRANCH  12  19
BRANCH  16  21
HETATM   21  C   UNL     1      -7.599   9.034  68.587  1.00  0.00    -0.092 C  
BRANCH  21  22
HETATM   22  O   UNL     1      -8.022   8.138  69.576  1.00  0.00    -0.109 OA 
BRANCH  22  23
HETATM   23  C   UNL     1      -8.032   8.758  70.782  1.00  0.00    -0.127 C  
HETATM   24  O   UNL     1      -7.204   9.537  71.198  1.00  0.00    -0.304 OA 
BRANCH  23  25
HETATM   25  C   UNL     1      -9.165   8.306  71.561  1.00  0.00    -0.231 A  
HETATM   26  C   UNL     1      -8.869   7.851  72.835  1.00  0.00    -0.202 A  
HETATM   27  N   UNL     1      -9.806   7.402  73.705  1.00  0.00    -0.306 NA 
HETATM   28  C   UNL     1     -11.081   7.397  73.261  1.00  0.00    -0.255 A  
HETATM   29  C   UNL     1     -11.471   7.793  71.975  1.00  0.00    -0.289 A  
HETATM   30  C   UNL     1     -10.489   8.254  71.107  1.00  0.00    -0.254 A  
HETATM   31 BR   UNL     1     -13.274   7.723  71.461  1.00  0.00    -0.328 Br 
ENDBRANCH  23  25
ENDBRANCH  22  23
ENDBRANCH  21  22
ENDBRANCH  16  21
TORSDOF 5
ENDMDL
MODEL       55
REMARK 921   NORMALIZED FREE ENERGY PREDICTED BY IDOCK:   -5.85 KCAL/MOL
REMARK 922        TOTAL FREE ENERGY PREDICTED BY IDOCK:   -7.99 KCAL/MOL
REMARK 923 INTER-LIGAND FREE ENERGY PREDICTED BY IDOCK:   -7.78 KCAL/MOL
REMARK 924 INTRA-LIGAND FREE ENERGY PREDICTED BY IDOCK:   -0.21 KCAL/MOL
REMARK 927      BINDING AFFINITY PREDICTED BY RF-SCORE:    0.00 PKD
ROOT
HETATM    1  C   UNL     1     -10.069  10.918  67.251  1.00  0.00    -0.191 C  
HETATM    2  C   UNL     1     -10.674   9.832  68.132  1.00  0.00    -0.280 C  
HETATM    3  C   UNL     1     -10.218   8.592  67.589  1.00  0.00    -0.297 A  
HETATM    4  C   UNL     1     -10.833   7.385  67.526  1.00  0.00    -0.187 A  
HETATM    5  N   UNL     1     -10.028   6.602  66.746  1.00  0.00    -0.181 NA 
HETATM    6  C   UNL     1     -10.459   5.285  66.339  1.00  0.00    -0.292 C  
HETATM    7  C   UNL     1      -8.895   7.302  66.371  1.00  0.00    -0.149 A  
HETATM    8  C   UNL     1      -7.750   6.985  65.627  1.00  0.00    -0.102 A  
HETATM    9  C   UNL     1      -6.831   8.028  65.400  1.00  0.00    -0.062 A  
HETATM   10  C   UNL     1      -7.038   9.375  65.822  1.00  0.00    -0.091 A  
HETATM   11  C   UNL     1      -8.163   9.751  66.567  1.00  0.00    -0.120 A  
HETATM   12  C   UNL     1      -8.559  11.201  67.189  1.00  0.00    -0.139 C  
HETATM   13  C   UNL     1      -9.030   8.623  66.847  1.00  0.00    -0.161 A  
HETATM   14  C   UNL     1      -8.946  12.933  66.799  1.00  0.00    -0.182 C  
HETATM   15  C   UNL     1      -9.744  11.108  64.650  1.00  0.00    -0.262 C  
HETATM   16  C   UNL     1     -10.634  13.315  66.747  1.00  0.00    -0.276 C  
HETATM   17  N   UNL     1     -10.675  11.079  65.833  1.00  0.00    -0.203 NA 
HETATM   18  C   UNL     1     -11.371  12.337  65.831  1.00  0.00    -0.360 C  
ENDROOT
BRANCH  12  19
HETATM   19  O   UNL     1      -7.895  11.267  68.477  1.00  0.00    -0.123 OA 
HETATM   20  C   UNL     1      -6.475  11.423  68.372  1.00  0.00    -0.050 C  
ENDBRANCH  12  19
BRANCH  16  21
HETATM   21  C   UNL     1     -11.452  14.604  66.678  1.00  0.00    -0.357 C  
BRANCH  21  22
HETATM   22  O   UNL     1     -10.849  15.770  67.164  1.00  0.00    -0.321 OA 
BRANCH  22  23
HETATM   23  C   UNL     1     -10.476  16.560  66.126  1.00  0.00    -0.294 C  
HETATM   24  O   UNL     1     -10.562  16.291  64.949  1.00  0.00    -0.650 OA 
BRANCH  23  25
HETATM   25  C   UNL     1      -9.882  17.782  66.625  1.00  0.00    -0.322 A  
HETATM   26  C   UNL     1     -10.530  18.951  66.263  1.00  0.00    -0.445 A  
HETATM   27  N   UNL     1     -10.121  20.183  66.651  1.00  0.00    -0.453 NA 
HETATM   28  C   UNL     1      -9.008  20.232  67.413  1.00  0.00    -0.349 A  
HETATM   29  C   UNL     1      -8.260  19.109  67.790  1.00  0.00    -0.286 A  
HETATM   30  C   UNL     1      -8.706  17.858  67.384  1.00  0.00    -0.237 A  
HETATM   31 BR   UNL     1      -6.714  19.300  68.838  1.00  0.00    -0.360 Br 
ENDBRANCH  23  25
ENDBRANCH  22  23
ENDBRANCH  21  22
ENDBRANCH  16  21
TORSDOF 5
ENDMDL
MODEL       56
REMARK 921   NORMALIZED FREE ENERGY PREDICTED BY IDOCK:   -5.84 KCAL/MOL
REMARK 922        TOTAL FREE ENERGY PREDICTED BY IDOCK:   -7.98 KCAL/MOL
REMARK 923 INTER-LIGAND FREE ENERGY PREDICTED BY IDOCK:   -7.82 KCAL/MOL
REMARK 924 INTRA-LIGAND FREE ENERGY PREDICTED BY IDOCK:   -0.16 KCAL/MOL
REMARK 927      BINDING AFFINITY PREDICTED BY RF-SCORE:    0.00 PKD
ROOT
HETATM    1  C   UNL     1      -9.297   9.344  68.901  1.00  0.00    -0.154 C  
HETATM    2  C   UNL     1      -8.003   8.904  69.576  1.00  0.00    -0.092 C  
HETATM    3  C   UNL     1      -8.392   8.325  70.823  1.00  0.00    -0.127 A  
HETATM    4  C   UNL     1      -7.761   8.324  72.023  1.00  0.00    -0.119 A  
HETATM    5  N   UNL     1      -8.655   7.791  72.909  1.00  0.00    -0.142 NA 
HETATM    6  C   UNL     1      -8.366   7.781  74.324  1.00  0.00    -0.243 C  
HETATM    7  C   UNL     1      -9.815   7.416  72.255  1.00  0.00    -0.167 A  
HETATM    8  C   UNL     1     -11.009   6.800  72.654  1.00  0.00    -0.291 A  
HETATM    9  C   UNL     1     -12.006   6.652  71.671  1.00  0.00    -0.395 A  
HETATM   10  C   UNL     1     -11.890   7.148  70.338  1.00  0.00    -0.235 A  
HETATM   11  C   UNL     1     -10.721   7.773  69.883  1.00  0.00    -0.245 A  
HETATM   12  C   UNL     1     -10.361   8.353  68.406  1.00  0.00    -0.200 C  
HETATM   13  C   UNL     1      -9.696   7.819  70.908  1.00  0.00    -0.174 A  
HETATM   14  C   UNL     1     -10.823   9.558  67.127  1.00  0.00    -0.156 C  
HETATM   15  C   UNL     1     -11.466  10.504  69.824  1.00  0.00    -0.294 C  
HETATM   16  C   UNL     1      -9.890  11.016  67.121  1.00  0.00    -0.211 C  
HETATM   17  N   UNL     1     -10.000  10.591  69.496  1.00  0.00    -0.197 NA 
HETATM   18  C   UNL     1      -9.865  11.637  68.518  1.00  0.00    -0.193 C  
ENDROOT
BRANCH  12  19
HETATM   19  O   UNL     1      -9.846   7.222  67.659  1.00  0.00    -0.140 OA 
HETATM   20  C   UNL     1     -10.873   6.352  67.170  1.00  0.00    -0.393 C  
ENDBRANCH  12  19
BRANCH  16  21
HETATM   21  C   UNL     1      -9.735  12.201  66.167  1.00  0.00    -0.240 C  
BRANCH  21  22
HETATM   22  O   UNL     1      -9.709  13.479  66.736  1.00  0.00    -0.254 OA 
BRANCH  22  23
HETATM   23  C   UNL     1     -10.194  14.385  65.851  1.00  0.00    -0.325 C  
HETATM   24  O   UNL     1     -10.418  14.195  64.676  1.00  0.00    -0.434 OA 
BRANCH  23  25
HETATM   25  C   UNL     1     -10.355  15.670  66.497  1.00  0.00    -0.296 A  
HETATM   26  C   UNL     1     -10.666  15.624  67.846  1.00  0.00    -0.294 A  
HETATM   27  N   UNL     1     -10.840  16.729  68.611  1.00  0.00    -0.346 NA 
HETATM   28  C   UNL     1     -10.712  17.917  67.984  1.00  0.00    -0.294 A  
HETATM   29  C   UNL     1     -10.445  18.063  66.616  1.00  0.00    -0.325 A  
HETATM   30  C   UNL     1     -10.267  16.913  65.858  1.00  0.00    -0.330 A  
HETATM   31 BR   UNL     1     -10.310  19.770  65.847  1.00  0.00    -0.516 Br 
ENDBRANCH  23  25
ENDBRANCH  22  23
ENDBRANCH  21  22
ENDBRANCH  16  21
TORSDOF 5
ENDMDL
MODEL       57
REMARK 921   NORMALIZED FREE ENERGY PREDICTED BY IDOCK:   -5.82 KCAL/MOL
REMARK 922        TOTAL FREE ENERGY PREDICTED BY IDOCK:   -7.96 KCAL/MOL
REMARK 923 INTER-LIGAND FREE ENERGY PREDICTED BY IDOCK:   -7.52 KCAL/MOL
REMARK 924 INTRA-LIGAND FREE ENERGY PREDICTED BY IDOCK:   -0.44 KCAL/MOL
REMARK 927      BINDING AFFINITY PREDICTED BY RF-SCORE:    0.00 PKD
ROOT
HETATM    1  C   UNL     1     -10.088   8.618  66.998  1.00  0.00    -0.272 C  
HETATM    2  C   UNL     1     -10.748   7.247  67.099  1.00  0.00    -0.413 C  
HETATM    3  C   UNL     1      -9.880   6.458  67.914  1.00  0.00    -0.130 A  
HETATM    4  C   UNL     1      -9.600   5.132  67.867  1.00  0.00    -0.135 A  
HETATM    5  N   UNL     1      -8.574   4.940  68.750  1.00  0.00    -0.089 NA 
HETATM    6  C   UNL     1      -7.916   3.658  68.841  1.00  0.00    -0.058 C  
HETATM    7  C   UNL     1      -8.254   6.130  69.380  1.00  0.00    -0.113 A  
HETATM    8  C   UNL     1      -7.336   6.495  70.375  1.00  0.00    -0.085 A  
HETATM    9  C   UNL     1      -7.264   7.862  70.701  1.00  0.00    -0.053 A  
HETATM   10  C   UNL     1      -8.013   8.879  70.037  1.00  0.00    -0.109 A  
HETATM   11  C   UNL     1      -8.944   8.574  69.035  1.00  0.00    -0.146 A  
HETATM   12  C   UNL     1      -9.931   9.562  68.200  1.00  0.00    -0.165 C  
HETATM   13  C   UNL     1      -9.042   7.147  68.801  1.00  0.00    -0.134 A  
HETATM   14  C   UNL     1     -10.007  10.966  67.049  1.00  0.00    -0.227 C  
HETATM   15  C   UNL     1      -7.587   9.357  66.676  1.00  0.00    -0.094 C  
HETATM   16  C   UNL     1     -10.231  10.541  65.386  1.00  0.00    -0.340 C  
HETATM   17  N   UNL     1      -8.823   8.715  66.106  1.00  0.00    -0.160 NA 
HETATM   18  C   UNL     1      -9.196   9.499  64.960  1.00  0.00    -0.236 C  
ENDROOT
BRANCH  12  19
HETATM   19  O   UNL     1     -11.118   9.711  69.021  1.00  0.00    -0.177 OA 
HETATM   20  C   UNL     1     -10.839  10.234  70.325  1.00  0.00    -0.286 C  
ENDBRANCH  12  19
BRANCH  16  21
HETATM   21  C   UNL     1     -10.559  11.309  64.105  1.00  0.00    -0.373 C  
BRANCH  21  22
HETATM   22  O   UNL     1     -10.499  12.706  64.165  1.00  0.00    -0.368 OA 
BRANCH  22  23
HETATM   23  C   UNL     1     -11.689  13.198  64.591  1.00  0.00    -0.361 C  
HETATM   24  O   UNL     1     -12.781  12.931  64.141  1.00  0.00    -0.653 OA 
BRANCH  23  25
HETATM   25  C   UNL     1     -11.475  14.164  65.647  1.00  0.00    -0.325 A  
HETATM   26  C   UNL     1     -12.063  13.859  66.864  1.00  0.00    -0.430 A  
HETATM   27  N   UNL     1     -11.955  14.643  67.963  1.00  0.00    -0.301 NA 
HETATM   28  C   UNL     1     -11.245  15.782  67.819  1.00  0.00    -0.286 A  
HETATM   29  C   UNL     1     -10.654  16.197  66.618  1.00  0.00    -0.274 A  
HETATM   30  C   UNL     1     -10.776  15.370  65.509  1.00  0.00    -0.397 A  
HETATM   31 BR   UNL     1      -9.705  17.814  66.531  1.00  0.00    -0.328 Br 
ENDBRANCH  23  25
ENDBRANCH  22  23
ENDBRANCH  21  22
ENDBRANCH  16  21
TORSDOF 5
ENDMDL
MODEL       58
REMARK 921   NORMALIZED FREE ENERGY PREDICTED BY IDOCK:   -5.82 KCAL/MOL
REMARK 922        TOTAL FREE ENERGY PREDICTED BY IDOCK:   -7.95 KCAL/MOL
REMARK 923 INTER-LIGAND FREE ENERGY PREDICTED BY IDOCK:   -7.94 KCAL/MOL
REMARK 924 INTRA-LIGAND FREE ENERGY PREDICTED BY IDOCK:   -0.01 KCAL/MOL
REMARK 927      BINDING AFFINITY PREDICTED BY RF-SCORE:    0.00 PKD
ROOT
HETATM    1  C   UNL     1      -8.835   7.958  68.604  1.00  0.00    -0.134 C  
HETATM    2  C   UNL     1      -7.606   7.605  69.434  1.00  0.00    -0.095 C  
HETATM    3  C   UNL     1      -8.039   7.619  70.795  1.00  0.00    -0.103 A  
HETATM    4  C   UNL     1      -7.374   7.973  71.922  1.00  0.00    -0.082 A  
HETATM    5  N   UNL     1      -8.310   7.973  72.918  1.00  0.00    -0.156 NA 
HETATM    6  C   UNL     1      -7.977   8.458  74.237  1.00  0.00    -0.168 C  
HETATM    7  C   UNL     1      -9.538   7.570  72.424  1.00  0.00    -0.159 A  
HETATM    8  C   UNL     1     -10.800   7.356  72.993  1.00  0.00    -0.423 A  
HETATM    9  C   UNL     1     -11.843   7.008  72.113  1.00  0.00    -0.314 A  
HETATM   10  C   UNL     1     -11.695   6.931  70.696  1.00  0.00    -0.417 A  
HETATM   11  C   UNL     1     -10.458   7.136  70.071  1.00  0.00    -0.235 A  
HETATM   12  C   UNL     1     -10.063   7.040  68.495  1.00  0.00    -0.165 C  
HETATM   13  C   UNL     1      -9.403   7.403  71.029  1.00  0.00    -0.157 A  
HETATM   14  C   UNL     1     -10.369   7.722  66.839  1.00  0.00    -0.396 C  
HETATM   15  C   UNL     1     -10.755   9.718  68.949  1.00  0.00    -0.217 C  
HETATM   16  C   UNL     1      -9.214   8.894  66.303  1.00  0.00    -0.261 C  
HETATM   17  N   UNL     1      -9.306   9.434  68.655  1.00  0.00    -0.141 NA 
HETATM   18  C   UNL     1      -9.040   9.989  67.356  1.00  0.00    -0.134 C  
ENDROOT
BRANCH  12  19
HETATM   19  O   UNL     1      -9.763   5.641  68.253  1.00  0.00    -0.120 OA 
HETATM   20  C   UNL     1     -10.158   4.785  69.331  1.00  0.00    -0.171 C  
ENDBRANCH  12  19
BRANCH  16  21
HETATM   21  C   UNL     1      -8.905   9.582  64.973  1.00  0.00    -0.195 C  
BRANCH  21  22
HETATM   22  O   UNL     1      -8.978  10.980  64.945  1.00  0.00    -0.179 OA 
BRANCH  22  23
HETATM   23  C   UNL     1      -9.806  11.375  63.946  1.00  0.00    -0.300 C  
HETATM   24  O   UNL     1      -9.747  11.036  62.785  1.00  0.00    -0.302 OA 
BRANCH  23  25
HETATM   25  C   UNL     1     -10.763  12.338  64.448  1.00  0.00    -0.369 A  
HETATM   26  C   UNL     1     -11.647  12.846  63.511  1.00  0.00    -0.468 A  
HETATM   27  N   UNL     1     -12.615  13.746  63.807  1.00  0.00    -0.723 NA 
HETATM   28  C   UNL     1     -12.676  14.158  65.091  1.00  0.00    -0.364 A  
HETATM   29  C   UNL     1     -11.798  13.736  66.098  1.00  0.00    -0.398 A  
HETATM   30  C   UNL     1     -10.819  12.809  65.767  1.00  0.00    -0.299 A  
HETATM   31 BR   UNL     1     -11.967  14.394  67.848  1.00  0.00    -0.293 Br 
ENDBRANCH  23  25
ENDBRANCH  22  23
ENDBRANCH  21  22
ENDBRANCH  16  21
TORSDOF 5
ENDMDL
MODEL       59
REMARK 921   NORMALIZED FREE ENERGY PREDICTED BY IDOCK:   -5.78 KCAL/MOL
REMARK 922        TOTAL FREE ENERGY PREDICTED BY IDOCK:   -7.90 KCAL/MOL
REMARK 923 INTER-LIGAND FREE ENERGY PREDICTED BY IDOCK:   -7.59 KCAL/MOL
REMARK 924 INTRA-LIGAND FREE ENERGY PREDICTED BY IDOCK:   -0.31 KCAL/MOL
REMARK 927      BINDING AFFINITY PREDICTED BY RF-SCORE:    0.00 PKD
ROOT
HETATM    1  C   UNL     1      -8.466   8.375  68.256  1.00  0.00    -0.135 C  
HETATM    2  C   UNL     1      -8.230   9.078  69.588  1.00  0.00    -0.116 C  
HETATM    3  C   UNL     1      -8.840   8.249  70.579  1.00  0.00    -0.148 A  
HETATM    4  C   UNL     1      -9.463   8.581  71.736  1.00  0.00    -0.258 A  
HETATM    5  N   UNL     1     -10.015   7.421  72.203  1.00  0.00    -0.168 NA 
HETATM    6  C   UNL     1     -10.891   7.437  73.351  1.00  0.00    -0.313 C  
HETATM    7  C   UNL     1      -9.693   6.365  71.369  1.00  0.00    -0.172 A  
HETATM    8  C   UNL     1      -9.952   4.988  71.388  1.00  0.00    -0.259 A  
HETATM    9  C   UNL     1      -9.499   4.242  70.283  1.00  0.00    -0.245 A  
HETATM   10  C   UNL     1      -8.865   4.816  69.141  1.00  0.00    -0.122 A  
HETATM   11  C   UNL     1      -8.581   6.186  69.066  1.00  0.00    -0.121 A  
HETATM   12  C   UNL     1      -7.823   7.026  67.896  1.00  0.00    -0.114 C  
HETATM   13  C   UNL     1      -8.988   6.891  70.265  1.00  0.00    -0.152 A  
HETATM   14  C   UNL     1      -7.873   7.521  66.149  1.00  0.00    -0.096 C  
HETATM   15  C   UNL     1     -10.553   7.124  67.263  1.00  0.00    -0.327 C  
HETATM   16  C   UNL     1      -8.515   9.100  65.850  1.00  0.00    -0.150 C  
HETATM   17  N   UNL     1      -9.912   8.415  67.697  1.00  0.00    -0.177 NA 
HETATM   18  C   UNL     1      -9.873   9.259  66.534  1.00  0.00    -0.263 C  
ENDROOT
BRANCH  12  19
HETATM   19  O   UNL     1      -6.409   6.922  68.196  1.00  0.00    -0.032 OA 
HETATM   20  C   UNL     1      -5.889   5.600  68.017  1.00  0.00    -0.017 C  
ENDBRANCH  12  19
BRANCH  16  21
HETATM   21  C   UNL     1      -8.577  10.035  64.642  1.00  0.00    -0.181 C  
BRANCH  21  22
HETATM   22  O   UNL     1      -9.836  10.258  64.071  1.00  0.00    -0.311 OA 
BRANCH  22  23
HETATM   23  C   UNL     1      -9.849  11.462  63.447  1.00  0.00    -0.396 C  
HETATM   24  O   UNL     1      -9.202  11.775  62.472  1.00  0.00    -0.236 OA 
BRANCH  23  25
HETATM   25  C   UNL     1     -10.717  12.377  64.157  1.00  0.00    -0.414 A  
HETATM   26  C   UNL     1     -12.075  12.163  63.989  1.00  0.00    -0.443 A  
HETATM   27  N   UNL     1     -13.030  12.914  64.588  1.00  0.00    -0.747 NA 
HETATM   28  C   UNL     1     -12.593  13.927  65.367  1.00  0.00    -0.507 A  
HETATM   29  C   UNL     1     -11.243  14.249  65.559  1.00  0.00    -0.320 A  
HETATM   30  C   UNL     1     -10.286  13.458  64.937  1.00  0.00    -0.382 A  
HETATM   31 BR   UNL     1     -10.754  15.697  66.650  1.00  0.00    -0.264 Br 
ENDBRANCH  23  25
ENDBRANCH  22  23
ENDBRANCH  21  22
ENDBRANCH  16  21
TORSDOF 5
ENDMDL
MODEL       60
REMARK 921   NORMALIZED FREE ENERGY PREDICTED BY IDOCK:   -5.76 KCAL/MOL
REMARK 922        TOTAL FREE ENERGY PREDICTED BY IDOCK:   -7.88 KCAL/MOL
REMARK 923 INTER-LIGAND FREE ENERGY PREDICTED BY IDOCK:   -7.71 KCAL/MOL
REMARK 924 INTRA-LIGAND FREE ENERGY PREDICTED BY IDOCK:   -0.17 KCAL/MOL
REMARK 927      BINDING AFFINITY PREDICTED BY RF-SCORE:    0.00 PKD
ROOT
HETATM    1  C   UNL     1     -10.081   7.335  68.547  1.00  0.00    -0.172 C  
HETATM    2  C   UNL     1     -10.683   6.452  67.460  1.00  0.00    -0.396 C  
HETATM    3  C   UNL     1     -10.217   5.129  67.731  1.00  0.00    -0.190 A  
HETATM    4  C   UNL     1      -9.906   4.119  66.882  1.00  0.00    -0.164 A  
HETATM    5  N   UNL     1      -9.343   3.145  67.658  1.00  0.00    -0.203 NA 
HETATM    6  C   UNL     1      -8.749   1.977  67.052  1.00  0.00    -0.119 C  
HETATM    7  C   UNL     1      -9.351   3.526  68.988  1.00  0.00    -0.170 A  
HETATM    8  C   UNL     1      -8.948   2.917  70.184  1.00  0.00    -0.170 A  
HETATM    9  C   UNL     1      -9.058   3.686  71.358  1.00  0.00    -0.180 A  
HETATM   10  C   UNL     1      -9.486   5.047  71.379  1.00  0.00    -0.206 A  
HETATM   11  C   UNL     1      -9.899   5.709  70.216  1.00  0.00    -0.254 A  
HETATM   12  C   UNL     1     -10.471   7.221  70.029  1.00  0.00    -0.224 C  
HETATM   13  C   UNL     1      -9.850   4.844  69.053  1.00  0.00    -0.250 A  
HETATM   14  C   UNL     1     -10.094   8.989  70.216  1.00  0.00    -0.232 C  
HETATM   15  C   UNL     1      -7.699   7.399  69.654  1.00  0.00    -0.107 C  
HETATM   16  C   UNL     1      -9.585   9.789  68.768  1.00  0.00    -0.155 C  
HETATM   17  N   UNL     1      -8.561   7.625  68.441  1.00  0.00    -0.125 NA 
HETATM   18  C   UNL     1      -8.438   9.020  68.111  1.00  0.00    -0.129 C  
ENDROOT
BRANCH  12  19
HETATM   19  O   UNL     1     -11.896   7.133  70.282  1.00  0.00    -0.233 OA 
HETATM   20  C   UNL     1     -12.208   6.760  71.629  1.00  0.00    -0.365 C  
ENDBRANCH  12  19
BRANCH  16  21
HETATM   21  C   UNL     1      -9.365  11.244  68.353  1.00  0.00    -0.181 C  
BRANCH  21  22
HETATM   22  O   UNL     1     -10.239  12.198  68.886  1.00  0.00    -0.157 OA 
BRANCH  22  23
HETATM   23  C   UNL     1     -11.427  12.147  68.233  1.00  0.00    -0.305 C  
HETATM   24  O   UNL     1     -12.348  11.398  68.473  1.00  0.00    -0.504 OA 
BRANCH  23  25
HETATM   25  C   UNL     1     -11.429  13.089  67.135  1.00  0.00    -0.379 A  
HETATM   26  C   UNL     1     -11.938  12.610  65.938  1.00  0.00    -0.438 A  
HETATM   27  N   UNL     1     -12.027  13.356  64.812  1.00  0.00    -0.372 NA 
HETATM   28  C   UNL     1     -11.568  14.623  64.896  1.00  0.00    -0.405 A  
HETATM   29  C   UNL     1     -10.995  15.181  66.046  1.00  0.00    -0.332 A  
HETATM   30  C   UNL     1     -10.921  14.394  67.188  1.00  0.00    -0.305 A  
HETATM   31 BR   UNL     1     -10.371  16.951  66.039  1.00  0.00    -0.285 Br 
ENDBRANCH  23  25
ENDBRANCH  22  23
ENDBRANCH  21  22
ENDBRANCH  16  21
TORSDOF 5
ENDMDL
MODEL       61
REMARK 921   NORMALIZED FREE ENERGY PREDICTED BY IDOCK:   -5.73 KCAL/MOL
REMARK 922        TOTAL FREE ENERGY PREDICTED BY IDOCK:   -7.84 KCAL/MOL
REMARK 923 INTER-LIGAND FREE ENERGY PREDICTED BY IDOCK:   -7.62 KCAL/MOL
REMARK 924 INTRA-LIGAND FREE ENERGY PREDICTED BY IDOCK:   -0.22 KCAL/MOL
REMARK 927      BINDING AFFINITY PREDICTED BY RF-SCORE:    0.00 PKD
ROOT
HETATM    1  C   UNL     1     -10.933  12.146  67.621  1.00  0.00    -0.243 C  
HETATM    2  C   UNL     1     -12.024  12.257  68.680  1.00  0.00    -0.276 C  
HETATM    3  C   UNL     1     -11.924  13.583  69.204  1.00  0.00    -0.378 A  
HETATM    4  C   UNL     1     -12.153  14.049  70.456  1.00  0.00    -0.353 A  
HETATM    5  N   UNL     1     -11.731  15.349  70.448  1.00  0.00    -0.290 NA 
HETATM    6  C   UNL     1     -11.686  16.113  71.673  1.00  0.00    -0.484 C  
HETATM    7  C   UNL     1     -11.292  15.704  69.185  1.00  0.00    -0.338 A  
HETATM    8  C   UNL     1     -10.804  16.888  68.614  1.00  0.00    -0.314 A  
HETATM    9  C   UNL     1     -10.381  16.819  67.273  1.00  0.00    -0.304 A  
HETATM   10  C   UNL     1     -10.362  15.616  66.506  1.00  0.00    -0.296 A  
HETATM   11  C   UNL     1     -10.836  14.403  67.023  1.00  0.00    -0.297 A  
HETATM   12  C   UNL     1     -10.956  12.947  66.309  1.00  0.00    -0.281 C  
HETATM   13  C   UNL     1     -11.340  14.550  68.375  1.00  0.00    -0.311 A  
HETATM   14  C   UNL     1     -10.032  11.594  65.522  1.00  0.00    -0.277 C  
HETATM   15  C   UNL     1      -8.444  12.984  67.553  1.00  0.00    -0.190 C  
HETATM   16  C   UNL     1      -9.687  10.245  66.550  1.00  0.00    -0.243 C  
HETATM   17  N   UNL     1      -9.474  12.054  68.136  1.00  0.00    -0.195 NA 
HETATM   18  C   UNL     1      -9.025  10.719  67.844  1.00  0.00    -0.139 C  
ENDROOT
BRANCH  12  19
HETATM   19  O   UNL     1     -12.231  12.955  65.618  1.00  0.00    -0.442 OA 
HETATM   20  C   UNL     1     -12.259  13.846  64.497  1.00  0.00    -0.417 C  
ENDBRANCH  12  19
BRANCH  16  21
HETATM   21  C   UNL     1      -9.152   8.829  66.338  1.00  0.00    -0.177 C  
BRANCH  21  22
HETATM   22  O   UNL     1     -10.067   7.776  66.460  1.00  0.00    -0.233 OA 
BRANCH  22  23
HETATM   23  C   UNL     1      -9.609   6.874  67.364  1.00  0.00    -0.136 C  
HETATM   24  O   UNL     1      -9.434   7.065  68.547  1.00  0.00    -0.135 OA 
BRANCH  23  25
HETATM   25  C   UNL     1      -9.284   5.630  66.699  1.00  0.00    -0.138 A  
HETATM   26  C   UNL     1      -8.108   5.024  67.108  1.00  0.00    -0.107 A  
HETATM   27  N   UNL     1      -7.656   3.851  66.604  1.00  0.00    -0.087 NA 
HETATM   28  C   UNL     1      -8.412   3.284  65.639  1.00  0.00    -0.106 A  
HETATM   29  C   UNL     1      -9.590   3.844  65.128  1.00  0.00    -0.181 A  
HETATM   30  C   UNL     1     -10.032   5.045  65.668  1.00  0.00    -0.098 A  
HETATM   31 BR   UNL     1     -10.549   2.974  63.769  1.00  0.00    -0.149 Br 
ENDBRANCH  23  25
ENDBRANCH  22  23
ENDBRANCH  21  22
ENDBRANCH  16  21
TORSDOF 5
ENDMDL
MODEL       62
REMARK 921   NORMALIZED FREE ENERGY PREDICTED BY IDOCK:   -5.71 KCAL/MOL
REMARK 922        TOTAL FREE ENERGY PREDICTED BY IDOCK:   -7.80 KCAL/MOL
REMARK 923 INTER-LIGAND FREE ENERGY PREDICTED BY IDOCK:   -7.65 KCAL/MOL
REMARK 924 INTRA-LIGAND FREE ENERGY PREDICTED BY IDOCK:   -0.16 KCAL/MOL
REMARK 927      BINDING AFFINITY PREDICTED BY RF-SCORE:    0.00 PKD
ROOT
HETATM    1  C   UNL     1      -9.113  10.825  68.496  1.00  0.00    -0.170 C  
HETATM    2  C   UNL     1      -8.476  10.357  69.800  1.00  0.00     0.006 C  
HETATM    3  C   UNL     1      -9.175   9.167  70.169  1.00  0.00    -0.231 A  
HETATM    4  C   UNL     1      -9.486   8.680  71.395  1.00  0.00    -0.237 A  
HETATM    5  N   UNL     1     -10.314   7.616  71.169  1.00  0.00    -0.200 NA 
HETATM    6  C   UNL     1     -10.967   6.948  72.271  1.00  0.00    -0.242 C  
HETATM    7  C   UNL     1     -10.474   7.411  69.810  1.00  0.00    -0.229 A  
HETATM    8  C   UNL     1     -11.161   6.466  69.036  1.00  0.00    -0.424 A  
HETATM    9  C   UNL     1     -11.136   6.650  67.640  1.00  0.00    -0.357 A  
HETATM   10  C   UNL     1     -10.517   7.762  66.995  1.00  0.00    -0.419 A  
HETATM   11  C   UNL     1      -9.817   8.738  67.717  1.00  0.00    -0.217 A  
HETATM   12  C   UNL     1      -9.001  10.039  67.181  1.00  0.00    -0.135 C  
HETATM   13  C   UNL     1      -9.800   8.453  69.138  1.00  0.00    -0.183 A  
HETATM   14  C   UNL     1      -9.132  11.613  66.283  1.00  0.00    -0.219 C  
HETATM   15  C   UNL     1     -11.610  10.929  67.687  1.00  0.00    -0.085 C  
HETATM   16  C   UNL     1      -9.262  13.020  67.282  1.00  0.00    -0.213 C  
HETATM   17  N   UNL     1     -10.530  11.443  68.601  1.00  0.00    -0.195 NA 
HETATM   18  C   UNL     1     -10.384  12.843  68.306  1.00  0.00    -0.244 C  
ENDROOT
BRANCH  12  19
HETATM   19  O   UNL     1      -7.669   9.560  66.864  1.00  0.00    -0.097 OA 
HETATM   20  C   UNL     1      -7.609   8.831  65.633  1.00  0.00    -0.086 C  
ENDBRANCH  12  19
BRANCH  16  21
HETATM   21  C   UNL     1      -9.186  14.529  67.046  1.00  0.00    -0.240 C  
BRANCH  21  22
HETATM   22  O   UNL     1      -9.940  15.346  67.896  1.00  0.00    -0.220 OA 
BRANCH  22  23
HETATM   23  C   UNL     1      -9.114  16.155  68.605  1.00  0.00    -0.218 C  
HETATM   24  O   UNL     1      -8.423  15.832  69.546  1.00  0.00    -0.246 OA 
BRANCH  23  25
HETATM   25  C   UNL     1      -9.217  17.514  68.120  1.00  0.00    -0.277 A  
HETATM   26  C   UNL     1     -10.502  17.953  67.842  1.00  0.00    -0.396 A  
HETATM   27  N   UNL     1     -10.785  19.199  67.392  1.00  0.00    -0.483 NA 
HETATM   28  C   UNL     1      -9.731  20.020  67.200  1.00  0.00    -0.411 A  
HETATM   29  C   UNL     1      -8.395  19.652  67.408  1.00  0.00    -0.300 A  
HETATM   30  C   UNL     1      -8.135  18.370  67.874  1.00  0.00    -0.271 A  
HETATM   31 BR   UNL     1      -7.007  20.874  67.085  1.00  0.00    -0.412 Br 
ENDBRANCH  23  25
ENDBRANCH  22  23
ENDBRANCH  21  22
ENDBRANCH  16  21
TORSDOF 5
ENDMDL
MODEL       63
REMARK 921   NORMALIZED FREE ENERGY PREDICTED BY IDOCK:   -5.68 KCAL/MOL
REMARK 922        TOTAL FREE ENERGY PREDICTED BY IDOCK:   -7.77 KCAL/MOL
REMARK 923 INTER-LIGAND FREE ENERGY PREDICTED BY IDOCK:   -7.83 KCAL/MOL
REMARK 924 INTRA-LIGAND FREE ENERGY PREDICTED BY IDOCK:    0.06 KCAL/MOL
REMARK 927      BINDING AFFINITY PREDICTED BY RF-SCORE:    0.00 PKD
ROOT
HETATM    1  C   UNL     1      -9.750  11.558  67.510  1.00  0.00    -0.179 C  
HETATM    2  C   UNL     1      -9.598  12.816  68.357  1.00  0.00    -0.175 C  
HETATM    3  C   UNL     1      -9.993  13.902  67.517  1.00  0.00    -0.240 A  
HETATM    4  C   UNL     1      -9.538  15.177  67.462  1.00  0.00    -0.207 A  
HETATM    5  N   UNL     1     -10.129  15.733  66.362  1.00  0.00    -0.275 NA 
HETATM    6  C   UNL     1      -9.746  17.050  65.911  1.00  0.00    -0.142 C  
HETATM    7  C   UNL     1     -10.987  14.824  65.767  1.00  0.00    -0.334 A  
HETATM    8  C   UNL     1     -11.854  14.872  64.668  1.00  0.00    -0.412 A  
HETATM    9  C   UNL     1     -12.519  13.677  64.331  1.00  0.00    -0.316 A  
HETATM   10  C   UNL     1     -12.306  12.434  64.997  1.00  0.00    -0.441 A  
HETATM   11  C   UNL     1     -11.450  12.325  66.101  1.00  0.00    -0.429 A  
HETATM   12  C   UNL     1     -11.112  11.033  67.030  1.00  0.00    -0.244 C  
HETATM   13  C   UNL     1     -10.861  13.601  66.459  1.00  0.00    -0.283 A  
HETATM   14  C   UNL     1     -10.418   9.353  67.048  1.00  0.00    -0.302 C  
HETATM   15  C   UNL     1      -9.181  11.041  64.997  1.00  0.00    -0.197 C  
HETATM   16  C   UNL     1      -8.774   9.243  67.578  1.00  0.00    -0.116 C  
HETATM   17  N   UNL     1      -8.699  11.345  66.390  1.00  0.00    -0.184 NA 
HETATM   18  C   UNL     1      -7.898  10.222  66.796  1.00  0.00    -0.114 C  
ENDROOT
BRANCH  12  19
HETATM   19  O   UNL     1     -12.148  11.000  68.044  1.00  0.00    -0.615 OA 
HETATM   20  C   UNL     1     -11.641  10.770  69.363  1.00  0.00    -0.308 C  
ENDBRANCH  12  19
BRANCH  16  21
HETATM   21  C   UNL     1      -7.833   8.102  67.963  1.00  0.00    -0.122 C  
BRANCH  21  22
HETATM   22  O   UNL     1      -8.102   7.430  69.161  1.00  0.00    -0.117 OA 
BRANCH  22  23
HETATM   23  C   UNL     1      -9.081   6.512  68.962  1.00  0.00    -0.132 C  
HETATM   24  O   UNL     1      -9.221   5.809  67.986  1.00  0.00    -0.110 OA 
BRANCH  23  25
HETATM   25  C   UNL     1     -10.005   6.526  70.076  1.00  0.00    -0.193 A  
HETATM   26  C   UNL     1     -11.334   6.735  69.746  1.00  0.00    -0.296 A  
HETATM   27  N   UNL     1     -12.334   6.767  70.658  1.00  0.00    -0.289 NA 
HETATM   28  C   UNL     1     -11.973   6.600  71.948  1.00  0.00    -0.341 A  
HETATM   29  C   UNL     1     -10.652   6.430  72.382  1.00  0.00    -0.213 A  
HETATM   30  C   UNL     1      -9.647   6.396  71.424  1.00  0.00    -0.173 A  
HETATM   31 BR   UNL     1     -10.266   6.228  74.209  1.00  0.00    -0.328 Br 
ENDBRANCH  23  25
ENDBRANCH  22  23
ENDBRANCH  21  22
ENDBRANCH  16  21
TORSDOF 5
ENDMDL
MODEL       64
REMARK 921   NORMALIZED FREE ENERGY PREDICTED BY IDOCK:   -5.63 KCAL/MOL
REMARK 922        TOTAL FREE ENERGY PREDICTED BY IDOCK:   -7.70 KCAL/MOL
REMARK 923 INTER-LIGAND FREE ENERGY PREDICTED BY IDOCK:   -7.14 KCAL/MOL
REMARK 924 INTRA-LIGAND FREE ENERGY PREDICTED BY IDOCK:   -0.56 KCAL/MOL
REMARK 927      BINDING AFFINITY PREDICTED BY RF-SCORE:    0.00 PKD
ROOT
HETATM    1  C   UNL     1      -9.417  16.207  67.606  1.00  0.00    -0.220 C  
HETATM    2  C   UNL     1      -9.483  15.305  68.833  1.00  0.00    -0.218 C  
HETATM    3  C   UNL     1      -8.214  15.433  69.477  1.00  0.00    -0.207 A  
HETATM    4  C   UNL     1      -7.490  14.522  70.173  1.00  0.00     0.423 A  
HETATM    5  N   UNL     1      -6.281  15.115  70.409  1.00  0.00    -0.116 NA 
HETATM    6  C   UNL     1      -5.199  14.363  71.000  1.00  0.00    -0.136 C  
HETATM    7  C   UNL     1      -6.273  16.405  69.909  1.00  0.00    -0.163 A  
HETATM    8  C   UNL     1      -5.337  17.449  69.907  1.00  0.00    -0.213 A  
HETATM    9  C   UNL     1      -5.692  18.619  69.209  1.00  0.00    -0.230 A  
HETATM   10  C   UNL     1      -6.900  18.764  68.463  1.00  0.00    -0.285 A  
HETATM   11  C   UNL     1      -7.872  17.755  68.428  1.00  0.00    -0.284 A  
HETATM   12  C   UNL     1      -9.325  17.739  67.697  1.00  0.00    -0.250 C  
HETATM   13  C   UNL     1      -7.495  16.611  69.234  1.00  0.00    -0.165 A  
HETATM   14  C   UNL     1     -10.191  17.839  66.102  1.00  0.00    -0.339 C  
HETATM   15  C   UNL     1      -7.523  16.657  65.842  1.00  0.00     0.519 C  
HETATM   16  C   UNL     1     -10.647  16.317  65.416  1.00  0.00    -0.371 C  
HETATM   17  N   UNL     1      -8.538  15.713  66.428  1.00  0.00    -0.301 NA 
HETATM   18  C   UNL     1      -9.442  15.377  65.362  1.00  0.00     0.002 C  
ENDROOT
BRANCH  12  19
HETATM   19  O   UNL     1     -10.241  18.353  68.638  1.00  0.00    -0.379 OA 
HETATM   20  C   UNL     1      -9.814  19.647  69.078  1.00  0.00    -0.393 C  
ENDBRANCH  12  19
BRANCH  16  21
HETATM   21  C   UNL     1     -11.538  15.874  64.256  1.00  0.00    -0.178 C  
BRANCH  21  22
HETATM   22  O   UNL     1     -12.563  14.967  64.549  1.00  0.00    -0.438 OA 
BRANCH  22  23
HETATM   23  C   UNL     1     -12.365  13.813  63.864  1.00  0.00    -0.292 C  
HETATM   24  O   UNL     1     -12.700  13.587  62.722  1.00  0.00    -0.419 OA 
BRANCH  23  25
HETATM   25  C   UNL     1     -11.738  12.831  64.722  1.00  0.00    -0.398 A  
HETATM   26  C   UNL     1     -10.941  11.898  64.078  1.00  0.00    -0.381 A  
HETATM   27  N   UNL     1     -10.269  10.916  64.725  1.00  0.00    -0.314 NA 
HETATM   28  C   UNL     1     -10.426  10.866  66.065  1.00  0.00    -0.225 A  
HETATM   29  C   UNL     1     -11.246  11.734  66.797  1.00  0.00    -0.328 A  
HETATM   30  C   UNL     1     -11.918  12.735  66.108  1.00  0.00    -0.476 A  
HETATM   31 BR   UNL     1     -11.403  11.555  68.659  1.00  0.00    -0.368 Br 
ENDBRANCH  23  25
ENDBRANCH  22  23
ENDBRANCH  21  22
ENDBRANCH  16  21
TORSDOF 5
ENDMDL
MODEL       65
REMARK 921   NORMALIZED FREE ENERGY PREDICTED BY IDOCK:   -5.60 KCAL/MOL
REMARK 922        TOTAL FREE ENERGY PREDICTED BY IDOCK:   -7.67 KCAL/MOL
REMARK 923 INTER-LIGAND FREE ENERGY PREDICTED BY IDOCK:   -7.32 KCAL/MOL
REMARK 924 INTRA-LIGAND FREE ENERGY PREDICTED BY IDOCK:   -0.35 KCAL/MOL
REMARK 927      BINDING AFFINITY PREDICTED BY RF-SCORE:    0.00 PKD
ROOT
HETATM    1  C   UNL     1      -9.728   6.992  69.336  1.00  0.00    -0.159 C  
HETATM    2  C   UNL     1     -10.484   5.682  69.525  1.00  0.00    -0.372 C  
HETATM    3  C   UNL     1     -10.047   5.160  70.782  1.00  0.00    -0.303 A  
HETATM    4  C   UNL     1      -9.876   3.877  71.184  1.00  0.00    -0.153 A  
HETATM    5  N   UNL     1      -9.271   3.952  72.408  1.00  0.00    -0.110 NA 
HETATM    6  C   UNL     1      -8.798   2.757  73.067  1.00  0.00    -0.079 C  
HETATM    7  C   UNL     1      -9.116   5.274  72.787  1.00  0.00    -0.133 A  
HETATM    8  C   UNL     1      -8.610   5.914  73.927  1.00  0.00    -0.117 A  
HETATM    9  C   UNL     1      -8.557   7.320  73.895  1.00  0.00    -0.218 A  
HETATM   10  C   UNL     1      -8.922   8.104  72.760  1.00  0.00    -0.313 A  
HETATM   11  C   UNL     1      -9.433   7.521  71.593  1.00  0.00    -0.170 A  
HETATM   12  C   UNL     1      -9.957   8.226  70.224  1.00  0.00    -0.186 C  
HETATM   13  C   UNL     1      -9.549   6.080  71.713  1.00  0.00    -0.168 A  
HETATM   14  C   UNL     1      -9.487   9.270  68.813  1.00  0.00    -0.150 C  
HETATM   15  C   UNL     1      -7.238   7.681  69.812  1.00  0.00    -0.079 C  
HETATM   16  C   UNL     1      -9.108   8.413  67.358  1.00  0.00    -0.152 C  
HETATM   17  N   UNL     1      -8.219   6.880  69.000  1.00  0.00    -0.123 NA 
HETATM   18  C   UNL     1      -8.074   7.322  67.639  1.00  0.00    -0.114 C  
ENDROOT
BRANCH  12  19
HETATM   19  O   UNL     1     -11.348   8.558  70.464  1.00  0.00    -0.262 OA 
HETATM   20  C   UNL     1     -11.563   9.213  71.720  1.00  0.00    -0.387 C  
ENDBRANCH  12  19
BRANCH  16  21
HETATM   21  C   UNL     1      -8.874   8.804  65.899  1.00  0.00    -0.186 C  
BRANCH  21  22
HETATM   22  O   UNL     1      -9.958   9.350  65.202  1.00  0.00    -0.105 OA 
BRANCH  22  23
HETATM   23  C   UNL     1      -9.607  10.551  64.678  1.00  0.00    -0.292 C  
HETATM   24  O   UNL     1      -8.617  10.789  64.022  1.00  0.00    -0.136 OA 
BRANCH  23  25
HETATM   25  C   UNL     1     -10.568  11.560  65.069  1.00  0.00    -0.354 A  
HETATM   26  C   UNL     1     -11.493  11.912  64.100  1.00  0.00    -0.370 A  
HETATM   27  N   UNL     1     -12.470  12.829  64.297  1.00  0.00    -0.607 NA 
HETATM   28  C   UNL     1     -12.499  13.421  65.510  1.00  0.00    -0.483 A  
HETATM   29  C   UNL     1     -11.580  13.165  66.535  1.00  0.00    -0.356 A  
HETATM   30  C   UNL     1     -10.591  12.217  66.307  1.00  0.00    -0.285 A  
HETATM   31 BR   UNL     1     -11.706  14.067  68.177  1.00  0.00    -0.400 Br 
ENDBRANCH  23  25
ENDBRANCH  22  23
ENDBRANCH  21  22
ENDBRANCH  16  21
TORSDOF 5
ENDMDL
MODEL       66
REMARK 921   NORMALIZED FREE ENERGY PREDICTED BY IDOCK:   -5.60 KCAL/MOL
REMARK 922        TOTAL FREE ENERGY PREDICTED BY IDOCK:   -7.67 KCAL/MOL
REMARK 923 INTER-LIGAND FREE ENERGY PREDICTED BY IDOCK:   -7.74 KCAL/MOL
REMARK 924 INTRA-LIGAND FREE ENERGY PREDICTED BY IDOCK:    0.07 KCAL/MOL
REMARK 927      BINDING AFFINITY PREDICTED BY RF-SCORE:    0.00 PKD
ROOT
HETATM    1  C   UNL     1      -8.562  15.813  68.592  1.00  0.00    -0.194 C  
HETATM    2  C   UNL     1      -7.465  16.612  69.286  1.00  0.00    -0.165 C  
HETATM    3  C   UNL     1      -7.532  17.927  68.731  1.00  0.00    -0.271 A  
HETATM    4  C   UNL     1      -6.547  18.825  68.485  1.00  0.00    -0.243 A  
HETATM    5  N   UNL     1      -7.139  19.839  67.785  1.00  0.00    -0.260 NA 
HETATM    6  C   UNL     1      -6.341  20.903  67.221  1.00  0.00    -0.308 C  
HETATM    7  C   UNL     1      -8.494  19.598  67.643  1.00  0.00    -0.319 A  
HETATM    8  C   UNL     1      -9.559  20.303  67.065  1.00  0.00    -0.572 A  
HETATM    9  C   UNL     1     -10.814  19.666  67.061  1.00  0.00    -0.518 A  
HETATM   10  C   UNL     1     -11.035  18.341  67.543  1.00  0.00    -0.140 A  
HETATM   11  C   UNL     1     -10.009  17.588  68.129  1.00  0.00    -0.321 A  
HETATM   12  C   UNL     1     -10.059  16.101  68.787  1.00  0.00    -0.237 C  
HETATM   13  C   UNL     1      -8.761  18.324  68.188  1.00  0.00    -0.293 A  
HETATM   14  C   UNL     1     -10.391  14.343  68.469  1.00  0.00    -0.248 C  
HETATM   15  C   UNL     1      -9.374  15.725  66.095  1.00  0.00    -0.346 C  
HETATM   16  C   UNL     1      -8.989  13.370  68.183  1.00  0.00    -0.188 C  
HETATM   17  N   UNL     1      -8.307  15.425  67.113  1.00  0.00    -0.201 NA 
HETATM   18  C   UNL     1      -8.118  14.000  67.095  1.00  0.00    -0.099 C  
ENDROOT
BRANCH  12  19
HETATM   19  O   UNL     1     -10.471  16.297  70.163  1.00  0.00    -0.227 OA 
HETATM   20  C   UNL     1     -11.845  15.967  70.393  1.00  0.00    -0.338 C  
ENDBRANCH  12  19
BRANCH  16  21
HETATM   21  C   UNL     1      -8.711  11.870  68.082  1.00  0.00    -0.173 C  
BRANCH  21  22
HETATM   22  O   UNL     1      -9.700  11.004  68.565  1.00  0.00    -0.176 OA 
BRANCH  22  23
HETATM   23  C   UNL     1     -10.510  10.621  67.547  1.00  0.00    -0.230 C  
HETATM   24  O   UNL     1     -11.641  11.004  67.343  1.00  0.00    -0.525 OA 
BRANCH  23  25
HETATM   25  C   UNL     1      -9.852   9.613  66.744  1.00  0.00    -0.270 A  
HETATM   26  C   UNL     1      -9.577   8.420  67.393  1.00  0.00    -0.157 A  
HETATM   27  N   UNL     1      -8.978   7.364  66.793  1.00  0.00    -0.134 NA 
HETATM   28  C   UNL     1      -8.629   7.529  65.499  1.00  0.00    -0.083 A  
HETATM   29  C   UNL     1      -8.824   8.712  64.774  1.00  0.00     0.008 A  
HETATM   30  C   UNL     1      -9.446   9.776  65.414  1.00  0.00    -0.333 A  
HETATM   31 BR   UNL     1      -8.278   8.833  62.983  1.00  0.00    -0.174 Br 
ENDBRANCH  23  25
ENDBRANCH  22  23
ENDBRANCH  21  22
ENDBRANCH  16  21
TORSDOF 5
ENDMDL
MODEL       67
REMARK 921   NORMALIZED FREE ENERGY PREDICTED BY IDOCK:   -5.56 KCAL/MOL
REMARK 922        TOTAL FREE ENERGY PREDICTED BY IDOCK:   -7.62 KCAL/MOL
REMARK 923 INTER-LIGAND FREE ENERGY PREDICTED BY IDOCK:   -7.22 KCAL/MOL
REMARK 924 INTRA-LIGAND FREE ENERGY PREDICTED BY IDOCK:   -0.40 KCAL/MOL
REMARK 927      BINDING AFFINITY PREDICTED BY RF-SCORE:    0.00 PKD
ROOT
HETATM    1  C   UNL     1     -10.285   9.870  69.065  1.00  0.00    -0.200 C  
HETATM    2  C   UNL     1     -11.192  10.414  70.163  1.00  0.00    -0.393 C  
HETATM    3  C   UNL     1     -11.752   9.269  70.807  1.00  0.00    -0.328 A  
HETATM    4  C   UNL     1     -12.973   9.091  71.370  1.00  0.00    -0.291 A  
HETATM    5  N   UNL     1     -13.048   7.760  71.673  1.00  0.00    -0.342 NA 
HETATM    6  C   UNL     1     -14.284   7.186  72.151  1.00  0.00    -0.093 C  
HETATM    7  C   UNL     1     -11.862   7.125  71.348  1.00  0.00    -0.308 A  
HETATM    8  C   UNL     1     -11.386   5.813  71.477  1.00  0.00    -0.195 A  
HETATM    9  C   UNL     1     -10.111   5.545  70.942  1.00  0.00    -0.276 A  
HETATM   10  C   UNL     1      -9.328   6.504  70.233  1.00  0.00    -0.163 A  
HETATM   11  C   UNL     1      -9.753   7.829  70.072  1.00  0.00    -0.176 A  
HETATM   12  C   UNL     1      -8.999   9.081  69.357  1.00  0.00    -0.145 C  
HETATM   13  C   UNL     1     -11.029   8.073  70.717  1.00  0.00    -0.259 A  
HETATM   14  C   UNL     1      -8.313   9.712  67.797  1.00  0.00    -0.121 C  
HETATM   15  C   UNL     1     -10.565   7.891  67.361  1.00  0.00    -0.272 C  
HETATM   16  C   UNL     1      -9.349  10.786  66.920  1.00  0.00    -0.179 C  
HETATM   17  N   UNL     1     -10.987   9.258  67.826  1.00  0.00    -0.113 NA 
HETATM   18  C   UNL     1     -10.729  10.156  66.731  1.00  0.00    -0.121 C  
ENDROOT
BRANCH  12  19
HETATM   19  O   UNL     1      -8.145   9.657  70.379  1.00  0.00    -0.180 OA 
HETATM   20  C   UNL     1      -7.657   8.691  71.316  1.00  0.00    -0.110 C  
ENDBRANCH  12  19
BRANCH  16  21
HETATM   21  C   UNL     1      -9.180  11.716  65.719  1.00  0.00    -0.173 C  
BRANCH  21  22
HETATM   22  O   UNL     1      -9.597  13.043  65.876  1.00  0.00    -0.220 OA 
BRANCH  22  23
HETATM   23  C   UNL     1      -8.990  13.589  66.959  1.00  0.00    -0.231 C  
HETATM   24  O   UNL     1      -7.818  13.502  67.249  1.00  0.00    -0.156 OA 
BRANCH  23  25
HETATM   25  C   UNL     1      -9.970  14.257  67.789  1.00  0.00    -0.227 A  
HETATM   26  C   UNL     1     -10.217  15.583  67.470  1.00  0.00    -0.254 A  
HETATM   27  N   UNL     1     -11.110  16.357  68.132  1.00  0.00    -0.346 NA 
HETATM   28  C   UNL     1     -11.760  15.774  69.161  1.00  0.00    -0.388 A  
HETATM   29  C   UNL     1     -11.544  14.456  69.587  1.00  0.00    -0.292 A  
HETATM   30  C   UNL     1     -10.626  13.685  68.886  1.00  0.00    -0.211 A  
HETATM   31 BR   UNL     1     -12.493  13.758  71.048  1.00  0.00    -0.454 Br 
ENDBRANCH  23  25
ENDBRANCH  22  23
ENDBRANCH  21  22
ENDBRANCH  16  21
TORSDOF 5
ENDMDL
MODEL       68
REMARK 921   NORMALIZED FREE ENERGY PREDICTED BY IDOCK:   -5.55 KCAL/MOL
REMARK 922        TOTAL FREE ENERGY PREDICTED BY IDOCK:   -7.60 KCAL/MOL
REMARK 923 INTER-LIGAND FREE ENERGY PREDICTED BY IDOCK:   -7.43 KCAL/MOL
REMARK 924 INTRA-LIGAND FREE ENERGY PREDICTED BY IDOCK:   -0.17 KCAL/MOL
REMARK 927      BINDING AFFINITY PREDICTED BY RF-SCORE:    0.00 PKD
ROOT
HETATM    1  C   UNL     1      -9.226   9.055  69.585  1.00  0.00    -0.159 C  
HETATM    2  C   UNL     1     -10.016   9.492  70.814  1.00  0.00    -0.334 C  
HETATM    3  C   UNL     1      -9.755   8.505  71.814  1.00  0.00    -0.337 A  
HETATM    4  C   UNL     1     -10.554   8.023  72.797  1.00  0.00    -0.351 A  
HETATM    5  N   UNL     1      -9.871   6.973  73.345  1.00  0.00    -0.210 NA 
HETATM    6  C   UNL     1     -10.500   6.122  74.328  1.00  0.00    -0.192 C  
HETATM    7  C   UNL     1      -8.633   6.838  72.742  1.00  0.00    -0.121 A  
HETATM    8  C   UNL     1      -7.539   5.982  72.931  1.00  0.00    -0.102 A  
HETATM    9  C   UNL     1      -6.461   6.122  72.036  1.00  0.00    -0.057 A  
HETATM   10  C   UNL     1      -6.456   7.025  70.932  1.00  0.00    -0.044 A  
HETATM   11  C   UNL     1      -7.521   7.904  70.692  1.00  0.00    -0.069 A  
HETATM   12  C   UNL     1      -7.690   9.039  69.540  1.00  0.00    -0.082 C  
HETATM   13  C   UNL     1      -8.563   7.779  71.693  1.00  0.00    -0.138 A  
HETATM   14  C   UNL     1      -7.786   9.341  67.750  1.00  0.00    -0.092 C  
HETATM   15  C   UNL     1      -8.826   6.703  68.486  1.00  0.00    -0.122 C  
HETATM   16  C   UNL     1      -9.389   9.508  67.118  1.00  0.00    -0.174 C  
HETATM   17  N   UNL     1      -9.771   7.828  68.811  1.00  0.00    -0.155 NA 
HETATM   18  C   UNL     1     -10.257   8.326  67.552  1.00  0.00    -0.243 C  
ENDROOT
BRANCH  12  19
HETATM   19  O   UNL     1      -7.049  10.228  70.067  1.00  0.00    -0.135 OA 
HETATM   20  C   UNL     1      -5.634  10.080  70.233  1.00  0.00    -0.051 C  
ENDBRANCH  12  19
BRANCH  16  21
HETATM   21  C   UNL     1      -9.988   9.961  65.787  1.00  0.00    -0.277 C  
BRANCH  21  22
HETATM   22  O   UNL     1      -9.232  10.853  65.018  1.00  0.00    -0.199 OA 
BRANCH  22  23
HETATM   23  C   UNL     1      -9.927  11.202  63.906  1.00  0.00    -0.329 C  
HETATM   24  O   UNL     1      -9.962  10.595  62.858  1.00  0.00    -0.300 OA 
BRANCH  23  25
HETATM   25  C   UNL     1     -10.593  12.469  64.117  1.00  0.00    -0.425 A  
HETATM   26  C   UNL     1     -11.734  12.678  63.359  1.00  0.00    -0.498 A  
HETATM   27  N   UNL     1     -12.488  13.800  63.436  1.00  0.00    -0.803 NA 
HETATM   28  C   UNL     1     -12.061  14.749  64.296  1.00  0.00    -0.394 A  
HETATM   29  C   UNL     1     -10.897  14.649  65.069  1.00  0.00    -0.417 A  
HETATM   30  C   UNL     1     -10.147  13.484  64.973  1.00  0.00    -0.280 A  
HETATM   31 BR   UNL     1     -10.391  16.045  66.217  1.00  0.00    -0.344 Br 
ENDBRANCH  23  25
ENDBRANCH  22  23
ENDBRANCH  21  22
ENDBRANCH  16  21
TORSDOF 5
ENDMDL
MODEL       69
REMARK 921   NORMALIZED FREE ENERGY PREDICTED BY IDOCK:   -5.54 KCAL/MOL
REMARK 922        TOTAL FREE ENERGY PREDICTED BY IDOCK:   -7.59 KCAL/MOL
REMARK 923 INTER-LIGAND FREE ENERGY PREDICTED BY IDOCK:   -7.44 KCAL/MOL
REMARK 924 INTRA-LIGAND FREE ENERGY PREDICTED BY IDOCK:   -0.16 KCAL/MOL
REMARK 927      BINDING AFFINITY PREDICTED BY RF-SCORE:    0.00 PKD
ROOT
HETATM    1  C   UNL     1      -9.821   9.075  67.040  1.00  0.00    -0.209 C  
HETATM    2  C   UNL     1     -10.046   9.757  65.695  1.00  0.00    -0.282 C  
HETATM    3  C   UNL     1      -8.864   9.508  64.931  1.00  0.00    -0.240 A  
HETATM    4  C   UNL     1      -8.240  10.280  64.008  1.00  0.00    -0.151 A  
HETATM    5  N   UNL     1      -7.063   9.643  63.730  1.00  0.00    -0.110 NA 
HETATM    6  C   UNL     1      -6.070  10.272  62.891  1.00  0.00    -0.142 C  
HETATM    7  C   UNL     1      -6.981   8.455  64.436  1.00  0.00    -0.073 A  
HETATM    8  C   UNL     1      -6.043   7.417  64.499  1.00  0.00    -0.038 A  
HETATM    9  C   UNL     1      -6.298   6.386  65.424  1.00  0.00    -0.038 A  
HETATM   10  C   UNL     1      -7.404   6.382  66.325  1.00  0.00    -0.080 A  
HETATM   11  C   UNL     1      -8.373   7.393  66.308  1.00  0.00    -0.132 A  
HETATM   12  C   UNL     1      -9.726   7.549  67.199  1.00  0.00    -0.173 C  
HETATM   13  C   UNL     1      -8.109   8.381  65.280  1.00  0.00    -0.140 A  
HETATM   14  C   UNL     1     -10.388   7.729  68.881  1.00  0.00    -0.224 C  
HETATM   15  C   UNL     1      -7.721   8.909  68.609  1.00  0.00    -0.097 C  
HETATM   16  C   UNL     1     -10.772   9.350  69.350  1.00  0.00    -0.234 C  
HETATM   17  N   UNL     1      -8.809   9.751  68.000  1.00  0.00    -0.119 NA 
HETATM   18  C   UNL     1      -9.579  10.273  69.097  1.00  0.00    -0.218 C  
ENDROOT
BRANCH  12  19
HETATM   19  O   UNL     1     -10.745   6.795  66.495  1.00  0.00    -0.161 OA 
HETATM   20  C   UNL     1     -10.573   5.377  66.604  1.00  0.00    -0.294 C  
ENDBRANCH  12  19
BRANCH  16  21
HETATM   21  C   UNL     1     -11.519   9.993  70.519  1.00  0.00    -0.330 C  
BRANCH  21  22
HETATM   22  O   UNL     1     -12.276  11.137  70.241  1.00  0.00    -0.310 OA 
BRANCH  22  23
HETATM   23  C   UNL     1     -12.907  11.554  71.367  1.00  0.00    -0.384 C  
HETATM   24  O   UNL     1     -13.482  10.854  72.171  1.00  0.00    -0.372 OA 
BRANCH  23  25
HETATM   25  C   UNL     1     -12.860  12.998  71.453  1.00  0.00    -0.385 A  
HETATM   26  C   UNL     1     -13.691  13.566  72.405  1.00  0.00    -0.602 A  
HETATM   27  N   UNL     1     -13.766  14.899  72.632  1.00  0.00    -0.456 NA 
HETATM   28  C   UNL     1     -12.988  15.683  71.855  1.00  0.00    -0.463 A  
HETATM   29  C   UNL     1     -12.152  15.205  70.838  1.00  0.00    -0.334 A  
HETATM   30  C   UNL     1     -12.091  13.833  70.632  1.00  0.00    -0.405 A  
HETATM   31 BR   UNL     1     -11.129  16.393  69.806  1.00  0.00    -0.240 Br 
ENDBRANCH  23  25
ENDBRANCH  22  23
ENDBRANCH  21  22
ENDBRANCH  16  21
TORSDOF 5
ENDMDL
MODEL       70
REMARK 921   NORMALIZED FREE ENERGY PREDICTED BY IDOCK:   -5.51 KCAL/MOL
REMARK 922        TOTAL FREE ENERGY PREDICTED BY IDOCK:   -7.55 KCAL/MOL
REMARK 923 INTER-LIGAND FREE ENERGY PREDICTED BY IDOCK:   -7.72 KCAL/MOL
REMARK 924 INTRA-LIGAND FREE ENERGY PREDICTED BY IDOCK:    0.17 KCAL/MOL
REMARK 927      BINDING AFFINITY PREDICTED BY RF-SCORE:    0.00 PKD
ROOT
HETATM    1  C   UNL     1     -10.636  14.445  67.546  1.00  0.00    -0.265 C  
HETATM    2  C   UNL     1     -11.221  15.314  66.439  1.00  0.00    -0.224 C  
HETATM    3  C   UNL     1     -10.302  16.394  66.265  1.00  0.00    -0.337 A  
HETATM    4  C   UNL     1     -10.526  17.688  65.928  1.00  0.00    -0.246 A  
HETATM    5  N   UNL     1      -9.324  18.322  66.082  1.00  0.00    -0.503 NA 
HETATM    6  C   UNL     1      -9.231  19.757  65.956  1.00  0.00    -0.275 C  
HETATM    7  C   UNL     1      -8.349  17.416  66.461  1.00  0.00    -0.273 A  
HETATM    8  C   UNL     1      -6.973  17.507  66.712  1.00  0.00    -0.239 A  
HETATM    9  C   UNL     1      -6.331  16.337  67.160  1.00  0.00    -0.195 A  
HETATM   10  C   UNL     1      -7.009  15.111  67.430  1.00  0.00    -0.195 A  
HETATM   11  C   UNL     1      -8.383  14.962  67.200  1.00  0.00    -0.247 A  
HETATM   12  C   UNL     1      -9.330  13.651  67.384  1.00  0.00    -0.227 C  
HETATM   13  C   UNL     1      -8.976  16.168  66.656  1.00  0.00    -0.288 A  
HETATM   14  C   UNL     1      -9.976  12.436  68.570  1.00  0.00    -0.175 C  
HETATM   15  C   UNL     1      -9.457  15.035  69.818  1.00  0.00     0.057 C  
HETATM   16  C   UNL     1     -11.569  12.762  69.163  1.00  0.00    -0.373 C  
HETATM   17  N   UNL     1     -10.711  15.013  68.986  1.00  0.00    -0.231 NA 
HETATM   18  C   UNL     1     -11.654  14.193  69.696  1.00  0.00    -0.292 C  
ENDROOT
BRANCH  12  19
HETATM   19  O   UNL     1      -9.213  12.909  66.143  1.00  0.00    -0.154 OA 
HETATM   20  C   UNL     1     -10.475  12.660  65.514  1.00  0.00    -0.281 C  
ENDBRANCH  12  19
BRANCH  16  21
HETATM   21  C   UNL     1     -12.606  11.983  69.972  1.00  0.00     0.128 C  
BRANCH  21  22
HETATM   22  O   UNL     1     -12.509  10.587  69.958  1.00  0.00    -0.278 OA 
BRANCH  22  23
HETATM   23  C   UNL     1     -12.445  10.119  71.229  1.00  0.00    -0.406 C  
HETATM   24  O   UNL     1     -13.174  10.424  72.147  1.00  0.00    -0.452 OA 
BRANCH  23  25
HETATM   25  C   UNL     1     -11.314   9.227  71.370  1.00  0.00    -0.434 A  
HETATM   26  C   UNL     1     -11.374   8.352  72.442  1.00  0.00    -0.378 A  
HETATM   27  N   UNL     1     -10.411   7.440  72.719  1.00  0.00    -0.246 NA 
HETATM   28  C   UNL     1      -9.344   7.429  71.892  1.00  0.00    -0.136 A  
HETATM   29  C   UNL     1      -9.172   8.304  70.812  1.00  0.00    -0.153 A  
HETATM   30  C   UNL     1     -10.178   9.225  70.549  1.00  0.00    -0.309 A  
HETATM   31 BR   UNL     1      -7.633   8.209  69.742  1.00  0.00    -0.092 Br 
ENDBRANCH  23  25
ENDBRANCH  22  23
ENDBRANCH  21  22
ENDBRANCH  16  21
TORSDOF 5
ENDMDL
MODEL       71
REMARK 921   NORMALIZED FREE ENERGY PREDICTED BY IDOCK:   -5.51 KCAL/MOL
REMARK 922        TOTAL FREE ENERGY PREDICTED BY IDOCK:   -7.55 KCAL/MOL
REMARK 923 INTER-LIGAND FREE ENERGY PREDICTED BY IDOCK:   -6.99 KCAL/MOL
REMARK 924 INTRA-LIGAND FREE ENERGY PREDICTED BY IDOCK:   -0.55 KCAL/MOL
REMARK 927      BINDING AFFINITY PREDICTED BY RF-SCORE:    0.00 PKD
ROOT
HETATM    1  C   UNL     1     -10.305  15.038  67.430  1.00  0.00    -0.238 C  
HETATM    2  C   UNL     1     -10.615  15.615  66.053  1.00  0.00    -0.336 C  
HETATM    3  C   UNL     1     -10.222  16.988  66.111  1.00  0.00    -0.346 A  
HETATM    4  C   UNL     1     -10.756  18.077  65.505  1.00  0.00     0.042 A  
HETATM    5  N   UNL     1     -10.111  19.153  66.047  1.00  0.00    -0.483 NA 
HETATM    6  C   UNL     1     -10.541  20.497  65.739  1.00  0.00     0.313 C  
HETATM    7  C   UNL     1      -9.146  18.733  66.945  1.00  0.00    -0.300 A  
HETATM    8  C   UNL     1      -8.191  19.388  67.735  1.00  0.00    -0.324 A  
HETATM    9  C   UNL     1      -7.421  18.585  68.597  1.00  0.00    -0.323 A  
HETATM   10  C   UNL     1      -7.607  17.178  68.751  1.00  0.00    -0.259 A  
HETATM   11  C   UNL     1      -8.546  16.470  67.990  1.00  0.00    -0.184 A  
HETATM   12  C   UNL     1      -8.874  14.877  67.967  1.00  0.00    -0.167 C  
HETATM   13  C   UNL     1      -9.248  17.330  67.057  1.00  0.00    -0.252 A  
HETATM   14  C   UNL     1      -9.452  13.462  68.950  1.00  0.00     0.186 C  
HETATM   15  C   UNL     1     -10.618  15.992  69.858  1.00  0.00    -0.314 C  
HETATM   16  C   UNL     1     -11.125  13.063  68.752  1.00  0.00    -0.311 C  
HETATM   17  N   UNL     1     -11.239  15.471  68.589  1.00  0.00    -0.304 NA 
HETATM   18  C   UNL     1     -11.995  14.304  68.957  1.00  0.00    -0.325 C  
ENDROOT
BRANCH  12  19
HETATM   19  O   UNL     1      -7.930  14.297  67.032  1.00  0.00    -0.142 OA 
HETATM   20  C   UNL     1      -6.648  14.034  67.614  1.00  0.00    -0.159 C  
ENDBRANCH  12  19
BRANCH  16  21
HETATM   21  C   UNL     1     -12.017  11.892  69.162  1.00  0.00    -0.276 C  
BRANCH  21  22
HETATM   22  O   UNL     1     -12.031  10.775  68.319  1.00  0.00    -0.520 OA 
BRANCH  22  23
HETATM   23  C   UNL     1     -11.101   9.877  68.731  1.00  0.00    -0.135 C  
HETATM   24  O   UNL     1     -10.927   9.490  69.865  1.00  0.00    -0.231 OA 
BRANCH  23  25
HETATM   25  C   UNL     1     -10.272   9.477  67.614  1.00  0.00    -0.273 A  
HETATM   26  C   UNL     1      -9.411   8.420  67.859  1.00  0.00    -0.135 A  
HETATM   27  N   UNL     1      -8.573   7.907  66.926  1.00  0.00    -0.126 NA 
HETATM   28  C   UNL     1      -8.596   8.497  65.712  1.00  0.00    -0.168 A  
HETATM   29  C   UNL     1      -9.397   9.599  65.385  1.00  0.00    -0.259 A  
HETATM   30  C   UNL     1     -10.250  10.101  66.360  1.00  0.00    -0.288 A  
HETATM   31 BR   UNL     1      -9.328  10.352  63.667  1.00  0.00    -0.356 Br 
ENDBRANCH  23  25
ENDBRANCH  22  23
ENDBRANCH  21  22
ENDBRANCH  16  21
TORSDOF 5
ENDMDL
MODEL       72
REMARK 921   NORMALIZED FREE ENERGY PREDICTED BY IDOCK:   -5.48 KCAL/MOL
REMARK 922        TOTAL FREE ENERGY PREDICTED BY IDOCK:   -7.51 KCAL/MOL
REMARK 923 INTER-LIGAND FREE ENERGY PREDICTED BY IDOCK:   -7.20 KCAL/MOL
REMARK 924 INTRA-LIGAND FREE ENERGY PREDICTED BY IDOCK:   -0.31 KCAL/MOL
REMARK 927      BINDING AFFINITY PREDICTED BY RF-SCORE:    0.00 PKD
ROOT
HETATM    1  C   UNL     1      -9.256   8.783  69.208  1.00  0.00    -0.149 C  
HETATM    2  C   UNL     1      -7.936   9.013  69.936  1.00  0.00    -0.103 C  
HETATM    3  C   UNL     1      -7.974   8.165  71.085  1.00  0.00    -0.103 A  
HETATM    4  C   UNL     1      -7.455   8.347  72.324  1.00  0.00    -0.102 A  
HETATM    5  N   UNL     1      -7.939   7.316  73.081  1.00  0.00    -0.099 NA 
HETATM    6  C   UNL     1      -7.709   7.282  74.506  1.00  0.00    -0.139 C  
HETATM    7  C   UNL     1      -8.710   6.470  72.303  1.00  0.00    -0.130 A  
HETATM    8  C   UNL     1      -9.396   5.271  72.544  1.00  0.00    -0.154 A  
HETATM    9  C   UNL     1     -10.146   4.743  71.476  1.00  0.00    -0.260 A  
HETATM   10  C   UNL     1     -10.294   5.389  70.213  1.00  0.00    -0.357 A  
HETATM   11  C   UNL     1      -9.634   6.588  69.915  1.00  0.00    -0.163 A  
HETATM   12  C   UNL     1      -9.619   7.450  68.535  1.00  0.00    -0.146 C  
HETATM   13  C   UNL     1      -8.807   7.040  71.016  1.00  0.00    -0.146 A  
HETATM   14  C   UNL     1     -10.635   8.379  67.349  1.00  0.00    -0.313 C  
HETATM   15  C   UNL     1     -11.721   8.494  70.067  1.00  0.00     0.308 C  
HETATM   16  C   UNL     1     -10.626  10.097  67.560  1.00  0.00    -0.327 C  
HETATM   17  N   UNL     1     -10.524   9.384  69.866  1.00  0.00    -0.218 NA 
HETATM   18  C   UNL     1     -10.955  10.456  69.009  1.00  0.00    -0.238 C  
ENDROOT
BRANCH  12  19
HETATM   19  O   UNL     1      -8.569   6.867  67.723  1.00  0.00    -0.122 OA 
HETATM   20  C   UNL     1      -8.961   5.647  67.083  1.00  0.00    -0.112 C  
ENDBRANCH  12  19
BRANCH  16  21
HETATM   21  C   UNL     1     -11.115  11.293  66.743  1.00  0.00    -0.250 C  
BRANCH  21  22
HETATM   22  O   UNL     1     -12.077  12.119  67.335  1.00  0.00    -0.553 OA 
BRANCH  22  23
HETATM   23  C   UNL     1     -12.014  13.360  66.790  1.00  0.00    -0.394 C  
HETATM   24  O   UNL     1     -12.144  13.639  65.619  1.00  0.00    -0.374 OA 
BRANCH  23  25
HETATM   25  C   UNL     1     -11.695  14.332  67.813  1.00  0.00    -0.408 A  
HETATM   26  C   UNL     1     -11.001  15.450  67.378  1.00  0.00    -0.312 A  
HETATM   27  N   UNL     1     -10.632  16.465  68.195  1.00  0.00    -0.304 NA 
HETATM   28  C   UNL     1     -10.960  16.334  69.498  1.00  0.00    -0.339 A  
HETATM   29  C   UNL     1     -11.619  15.222  70.038  1.00  0.00    -0.305 A  
HETATM   30  C   UNL     1     -11.990  14.199  69.176  1.00  0.00    -0.388 A  
HETATM   31 BR   UNL     1     -12.006  15.141  71.873  1.00  0.00    -0.506 Br 
ENDBRANCH  23  25
ENDBRANCH  22  23
ENDBRANCH  21  22
ENDBRANCH  16  21
TORSDOF 5
ENDMDL
MODEL       73
REMARK 921   NORMALIZED FREE ENERGY PREDICTED BY IDOCK:   -5.48 KCAL/MOL
REMARK 922        TOTAL FREE ENERGY PREDICTED BY IDOCK:   -7.51 KCAL/MOL
REMARK 923 INTER-LIGAND FREE ENERGY PREDICTED BY IDOCK:   -7.41 KCAL/MOL
REMARK 924 INTRA-LIGAND FREE ENERGY PREDICTED BY IDOCK:   -0.10 KCAL/MOL
REMARK 927      BINDING AFFINITY PREDICTED BY RF-SCORE:    0.00 PKD
ROOT
HETATM    1  C   UNL     1      -9.361  10.856  67.700  1.00  0.00    -0.156 C  
HETATM    2  C   UNL     1      -7.890  11.252  67.645  1.00  0.00    -0.116 C  
HETATM    3  C   UNL     1      -7.434  10.876  66.344  1.00  0.00    -0.145 A  
HETATM    4  C   UNL     1      -6.222  10.426  65.937  1.00  0.00    -0.118 A  
HETATM    5  N   UNL     1      -6.388  10.046  64.635  1.00  0.00    -0.118 NA 
HETATM    6  C   UNL     1      -5.326   9.369  63.927  1.00  0.00    -0.062 C  
HETATM    7  C   UNL     1      -7.682  10.306  64.219  1.00  0.00    -0.102 A  
HETATM    8  C   UNL     1      -8.371  10.158  63.007  1.00  0.00    -0.169 A  
HETATM    9  C   UNL     1      -9.741  10.480  63.012  1.00  0.00    -0.337 A  
HETATM   10  C   UNL     1     -10.461  10.875  64.179  1.00  0.00    -0.397 A  
HETATM   11  C   UNL     1      -9.827  11.039  65.417  1.00  0.00    -0.301 A  
HETATM   12  C   UNL     1     -10.442  11.531  66.841  1.00  0.00    -0.235 C  
HETATM   13  C   UNL     1      -8.403  10.780  65.336  1.00  0.00    -0.104 A  
HETATM   14  C   UNL     1     -11.647  11.161  68.150  1.00  0.00    -0.350 C  
HETATM   15  C   UNL     1     -10.654   8.736  66.841  1.00  0.00    -0.193 C  
HETATM   16  C   UNL     1     -10.998  10.362  69.542  1.00  0.00    -0.307 C  
HETATM   17  N   UNL     1      -9.667   9.340  67.804  1.00  0.00    -0.145 NA 
HETATM   18  C   UNL     1     -10.204   9.125  69.121  1.00  0.00    -0.207 C  
ENDROOT
BRANCH  12  19
HETATM   19  O   UNL     1     -10.384  12.980  66.811  1.00  0.00    -0.249 OA 
HETATM   20  C   UNL     1     -11.273  13.560  65.850  1.00  0.00    -0.300 C  
ENDBRANCH  12  19
BRANCH  16  21
HETATM   21  C   UNL     1     -11.514  10.035  70.943  1.00  0.00    -0.371 C  
BRANCH  21  22
HETATM   22  O   UNL     1     -10.873   8.999  71.633  1.00  0.00    -0.317 OA 
BRANCH  22  23
HETATM   23  C   UNL     1     -11.795   8.114  72.090  1.00  0.00    -0.359 C  
HETATM   24  O   UNL     1     -12.996   8.194  71.961  1.00  0.00    -0.323 OA 
BRANCH  23  25
HETATM   25  C   UNL     1     -11.139   7.059  72.833  1.00  0.00    -0.314 A  
HETATM   26  C   UNL     1     -10.144   7.472  73.703  1.00  0.00    -0.288 A  
HETATM   27  N   UNL     1      -9.436   6.623  74.486  1.00  0.00    -0.242 NA 
HETATM   28  C   UNL     1      -9.734   5.312  74.369  1.00  0.00    -0.170 A  
HETATM   29  C   UNL     1     -10.691   4.796  73.485  1.00  0.00    -0.273 A  
HETATM   30  C   UNL     1     -11.405   5.690  72.698  1.00  0.00    -0.356 A  
HETATM   31 BR   UNL     1     -11.007   2.948  73.393  1.00  0.00    -0.281 Br 
ENDBRANCH  23  25
ENDBRANCH  22  23
ENDBRANCH  21  22
ENDBRANCH  16  21
TORSDOF 5
ENDMDL
MODEL       74
REMARK 921   NORMALIZED FREE ENERGY PREDICTED BY IDOCK:   -5.46 KCAL/MOL
REMARK 922        TOTAL FREE ENERGY PREDICTED BY IDOCK:   -7.48 KCAL/MOL
REMARK 923 INTER-LIGAND FREE ENERGY PREDICTED BY IDOCK:   -7.35 KCAL/MOL
REMARK 924 INTRA-LIGAND FREE ENERGY PREDICTED BY IDOCK:   -0.13 KCAL/MOL
REMARK 927      BINDING AFFINITY PREDICTED BY RF-SCORE:    0.00 PKD
ROOT
HETATM    1  C   UNL     1     -10.291  10.417  67.861  1.00  0.00    -0.190 C  
HETATM    2  C   UNL     1     -10.658   9.141  67.113  1.00  0.00    -0.286 C  
HETATM    3  C   UNL     1     -10.046   8.075  67.841  1.00  0.00    -0.243 A  
HETATM    4  C   UNL     1      -9.519   6.905  67.403  1.00  0.00    -0.132 A  
HETATM    5  N   UNL     1      -8.907   6.346  68.490  1.00  0.00    -0.120 NA 
HETATM    6  C   UNL     1      -8.104   5.155  68.347  1.00  0.00    -0.086 C  
HETATM    7  C   UNL     1      -9.098   7.138  69.609  1.00  0.00    -0.140 A  
HETATM    8  C   UNL     1      -8.736   7.031  70.959  1.00  0.00    -0.139 A  
HETATM    9  C   UNL     1      -9.064   8.117  71.793  1.00  0.00    -0.229 A  
HETATM   10  C   UNL     1      -9.673   9.321  71.328  1.00  0.00    -0.299 A  
HETATM   11  C   UNL     1     -10.056   9.485  69.991  1.00  0.00    -0.279 A  
HETATM   12  C   UNL     1     -10.807  10.738  69.273  1.00  0.00    -0.242 C  
HETATM   13  C   UNL     1      -9.775   8.305  69.196  1.00  0.00    -0.171 A  
HETATM   14  C   UNL     1     -10.694  12.505  68.863  1.00  0.00    -0.202 C  
HETATM   15  C   UNL     1      -8.061  11.226  68.989  1.00  0.00    -0.042 C  
HETATM   16  C   UNL     1     -10.158  12.853  67.254  1.00  0.00    -0.231 C  
HETATM   17  N   UNL     1      -8.823  10.898  67.734  1.00  0.00    -0.133 NA 
HETATM   18  C   UNL     1      -8.859  12.106  66.954  1.00  0.00    -0.202 C  
ENDROOT
BRANCH  12  19
HETATM   19  O   UNL     1     -12.225  10.510  69.474  1.00  0.00    -0.217 OA 
HETATM   20  C   UNL     1     -12.647  10.740  70.823  1.00  0.00    -0.383 C  
ENDBRANCH  12  19
BRANCH  16  21
HETATM   21  C   UNL     1     -10.098  14.104  66.379  1.00  0.00    -0.293 C  
BRANCH  21  22
HETATM   22  O   UNL     1      -9.423  15.215  66.898  1.00  0.00    -0.219 OA 
BRANCH  22  23
HETATM   23  C   UNL     1     -10.317  16.095  67.413  1.00  0.00    -0.294 C  
HETATM   24  O   UNL     1     -11.367  15.823  67.953  1.00  0.00    -0.338 OA 
BRANCH  23  25
HETATM   25  C   UNL     1      -9.873  17.451  67.169  1.00  0.00    -0.278 A  
HETATM   26  C   UNL     1     -10.842  18.431  67.306  1.00  0.00    -0.257 A  
HETATM   27  N   UNL     1     -10.601  19.751  67.127  1.00  0.00    -0.462 NA 
HETATM   28  C   UNL     1      -9.340  20.087  66.780  1.00  0.00    -0.392 A  
HETATM   29  C   UNL     1      -8.306  19.165  66.574  1.00  0.00    -0.315 A  
HETATM   30  C   UNL     1      -8.581  17.818  66.769  1.00  0.00    -0.272 A  
HETATM   31 BR   UNL     1      -6.594  19.749  66.072  1.00  0.00    -0.264 Br 
ENDBRANCH  23  25
ENDBRANCH  22  23
ENDBRANCH  21  22
ENDBRANCH  16  21
TORSDOF 5
ENDMDL
MODEL       75
REMARK 921   NORMALIZED FREE ENERGY PREDICTED BY IDOCK:   -5.45 KCAL/MOL
REMARK 922        TOTAL FREE ENERGY PREDICTED BY IDOCK:   -7.47 KCAL/MOL
REMARK 923 INTER-LIGAND FREE ENERGY PREDICTED BY IDOCK:   -7.16 KCAL/MOL
REMARK 924 INTRA-LIGAND FREE ENERGY PREDICTED BY IDOCK:   -0.31 KCAL/MOL
REMARK 927      BINDING AFFINITY PREDICTED BY RF-SCORE:    0.00 PKD
ROOT
HETATM    1  C   UNL     1     -10.326   9.066  68.346  1.00  0.00    -0.205 C  
HETATM    2  C   UNL     1     -10.979   7.733  67.998  1.00  0.00     0.072 C  
HETATM    3  C   UNL     1     -10.490   6.798  68.961  1.00  0.00    -0.229 A  
HETATM    4  C   UNL     1     -10.218   5.476  68.837  1.00  0.00    -0.214 A  
HETATM    5  N   UNL     1      -9.607   5.114  70.005  1.00  0.00    -0.165 NA 
HETATM    6  C   UNL     1      -9.038   3.796  70.157  1.00  0.00    -0.125 C  
HETATM    7  C   UNL     1      -9.547   6.193  70.870  1.00  0.00    -0.173 A  
HETATM    8  C   UNL     1      -9.076   6.375  72.177  1.00  0.00    -0.140 A  
HETATM    9  C   UNL     1      -9.129   7.683  72.695  1.00  0.00    -0.209 A  
HETATM   10  C   UNL     1      -9.565   8.817  71.947  1.00  0.00    -0.372 A  
HETATM   11  C   UNL     1     -10.045   8.697  70.636  1.00  0.00    -0.237 A  
HETATM   12  C   UNL     1     -10.636   9.838  69.638  1.00  0.00    -0.239 C  
HETATM   13  C   UNL     1     -10.051   7.319  70.185  1.00  0.00    -0.192 A  
HETATM   14  C   UNL     1     -10.262  11.380  68.752  1.00  0.00    -0.209 C  
HETATM   15  C   UNL     1      -7.889   9.697  69.098  1.00  0.00    -0.090 C  
HETATM   16  C   UNL     1      -9.837  11.186  67.086  1.00  0.00    -0.212 C  
HETATM   17  N   UNL     1      -8.817   9.205  68.020  1.00  0.00    -0.129 NA 
HETATM   18  C   UNL     1      -8.721  10.150  66.940  1.00  0.00    -0.129 C  
ENDROOT
BRANCH  12  19
HETATM   19  O   UNL     1     -12.045   9.948  69.964  1.00  0.00    -0.106 OA 
HETATM   20  C   UNL     1     -12.282  10.445  71.285  1.00  0.00    -0.389 C  
ENDBRANCH  12  19
BRANCH  16  21
HETATM   21  C   UNL     1      -9.649  12.128  65.897  1.00  0.00    -0.214 C  
BRANCH  21  22
HETATM   22  O   UNL     1      -9.442  13.482  66.183  1.00  0.00    -0.238 OA 
BRANCH  22  23
HETATM   23  C   UNL     1     -10.606  14.165  66.040  1.00  0.00    -0.297 C  
HETATM   24  O   UNL     1     -11.542  13.852  65.339  1.00  0.00    -0.312 OA 
BRANCH  23  25
HETATM   25  C   UNL     1     -10.558  15.389  66.810  1.00  0.00    -0.309 A  
HETATM   26  C   UNL     1     -10.927  15.274  68.140  1.00  0.00    -0.292 A  
HETATM   27  N   UNL     1     -10.930  16.313  69.008  1.00  0.00    -0.306 NA 
HETATM   28  C   UNL     1     -10.564  17.512  68.507  1.00  0.00    -0.312 A  
HETATM   29  C   UNL     1     -10.219  17.736  67.168  1.00  0.00    -0.353 A  
HETATM   30  C   UNL     1     -10.221  16.651  66.301  1.00  0.00    -0.344 A  
HETATM   31 BR   UNL     1      -9.747  19.455  66.579  1.00  0.00    -0.492 Br 
ENDBRANCH  23  25
ENDBRANCH  22  23
ENDBRANCH  21  22
ENDBRANCH  16  21
TORSDOF 5
ENDMDL
MODEL       76
REMARK 921   NORMALIZED FREE ENERGY PREDICTED BY IDOCK:   -5.45 KCAL/MOL
REMARK 922        TOTAL FREE ENERGY PREDICTED BY IDOCK:   -7.47 KCAL/MOL
REMARK 923 INTER-LIGAND FREE ENERGY PREDICTED BY IDOCK:   -6.81 KCAL/MOL
REMARK 924 INTRA-LIGAND FREE ENERGY PREDICTED BY IDOCK:   -0.66 KCAL/MOL
REMARK 927      BINDING AFFINITY PREDICTED BY RF-SCORE:    0.00 PKD
ROOT
HETATM    1  C   UNL     1     -10.215   6.460  71.455  1.00  0.00    -0.199 C  
HETATM    2  C   UNL     1     -10.177   5.056  72.047  1.00  0.00    -0.262 C  
HETATM    3  C   UNL     1      -9.479   4.252  71.095  1.00  0.00    -0.233 A  
HETATM    4  C   UNL     1      -9.643   2.948  70.762  1.00  0.00    -0.125 A  
HETATM    5  N   UNL     1      -8.842   2.742  69.673  1.00  0.00    -0.078 NA 
HETATM    6  C   UNL     1      -8.889   1.489  68.956  1.00  0.00    -0.073 C  
HETATM    7  C   UNL     1      -8.145   3.896  69.364  1.00  0.00    -0.054 A  
HETATM    8  C   UNL     1      -7.184   4.232  68.400  1.00  0.00    -0.060 A  
HETATM    9  C   UNL     1      -6.761   5.574  68.366  1.00  0.00    -0.054 A  
HETATM   10  C   UNL     1      -7.299   6.599  69.199  1.00  0.00    -0.093 A  
HETATM   11  C   UNL     1      -8.262   6.324  70.179  1.00  0.00    -0.121 A  
HETATM   12  C   UNL     1      -8.957   7.321  71.261  1.00  0.00    -0.139 C  
HETATM   13  C   UNL     1      -8.596   4.914  70.231  1.00  0.00    -0.111 A  
HETATM   14  C   UNL     1      -9.993   8.800  71.471  1.00  0.00    -0.370 C  
HETATM   15  C   UNL     1     -10.634   7.339  69.014  1.00  0.00    -0.201 C  
HETATM   16  C   UNL     1     -11.666   8.487  71.785  1.00  0.00    -0.392 C  
HETATM   17  N   UNL     1     -11.174   6.682  70.256  1.00  0.00    -0.324 NA 
HETATM   18  C   UNL     1     -12.232   7.529  70.736  1.00  0.00    -0.122 C  
ENDROOT
BRANCH  12  19
HETATM   19  O   UNL     1      -8.056   7.354  72.396  1.00  0.00    -0.097 OA 
HETATM   20  C   UNL     1      -6.930   8.217  72.198  1.00  0.00    -0.088 C  
ENDBRANCH  12  19
BRANCH  16  21
HETATM   21  C   UNL     1     -12.862   9.328  72.228  1.00  0.00    -0.384 C  
BRANCH  21  22
HETATM   22  O   UNL     1     -13.452  10.156  71.266  1.00  0.00    -0.334 OA 
BRANCH  22  23
HETATM   23  C   UNL     1     -13.100  11.446  71.494  1.00  0.00    -0.335 C  
HETATM   24  O   UNL     1     -13.439  12.129  72.435  1.00  0.00    -0.425 OA 
BRANCH  23  25
HETATM   25  C   UNL     1     -12.294  11.940  70.399  1.00  0.00    -0.334 A  
HETATM   26  C   UNL     1     -12.041  13.302  70.410  1.00  0.00    -0.327 A  
HETATM   27  N   UNL     1     -11.295  13.931  69.470  1.00  0.00    -0.256 NA 
HETATM   28  C   UNL     1     -10.806  13.157  68.478  1.00  0.00    -0.262 A  
HETATM   29  C   UNL     1     -11.046  11.783  68.357  1.00  0.00    -0.237 A  
HETATM   30  C   UNL     1     -11.810  11.163  69.338  1.00  0.00    -0.415 A  
HETATM   31 BR   UNL     1     -10.329  10.812  66.919  1.00  0.00    -0.304 Br 
ENDBRANCH  23  25
ENDBRANCH  22  23
ENDBRANCH  21  22
ENDBRANCH  16  21
TORSDOF 5
ENDMDL
MODEL       77
REMARK 921   NORMALIZED FREE ENERGY PREDICTED BY IDOCK:   -5.43 KCAL/MOL
REMARK 922        TOTAL FREE ENERGY PREDICTED BY IDOCK:   -7.45 KCAL/MOL
REMARK 923 INTER-LIGAND FREE ENERGY PREDICTED BY IDOCK:   -7.50 KCAL/MOL
REMARK 924 INTRA-LIGAND FREE ENERGY PREDICTED BY IDOCK:    0.05 KCAL/MOL
REMARK 927      BINDING AFFINITY PREDICTED BY RF-SCORE:    0.00 PKD
ROOT
HETATM    1  C   UNL     1      -9.772   8.988  66.582  1.00  0.00    -0.230 C  
HETATM    2  C   UNL     1     -10.635   7.783  66.938  1.00  0.00    -0.347 C  
HETATM    3  C   UNL     1      -9.723   6.751  67.319  1.00  0.00    -0.175 A  
HETATM    4  C   UNL     1      -9.802   5.407  67.153  1.00  0.00    -0.158 A  
HETATM    5  N   UNL     1      -8.585   4.917  67.534  1.00  0.00    -0.104 NA 
HETATM    6  C   UNL     1      -8.263   3.522  67.339  1.00  0.00    -0.090 C  
HETATM    7  C   UNL     1      -7.773   5.943  67.984  1.00  0.00    -0.100 A  
HETATM    8  C   UNL     1      -6.477   6.005  68.516  1.00  0.00    -0.049 A  
HETATM    9  C   UNL     1      -5.965   7.287  68.791  1.00  0.00    -0.026 A  
HETATM   10  C   UNL     1      -6.658   8.500  68.500  1.00  0.00    -0.059 A  
HETATM   11  C   UNL     1      -7.954   8.500  67.968  1.00  0.00    -0.111 A  
HETATM   12  C   UNL     1      -8.933   9.752  67.620  1.00  0.00    -0.128 C  
HETATM   13  C   UNL     1      -8.466   7.155  67.787  1.00  0.00    -0.120 A  
HETATM   14  C   UNL     1      -9.133  11.249  66.610  1.00  0.00    -0.187 C  
HETATM   15  C   UNL     1      -7.510   9.214  65.265  1.00  0.00    -0.097 C  
HETATM   16  C   UNL     1     -10.094  11.051  65.184  1.00  0.00    -0.346 C  
HETATM   17  N   UNL     1      -8.983   8.907  65.250  1.00  0.00    -0.191 NA 
HETATM   18  C   UNL     1      -9.588   9.864  64.363  1.00  0.00    -0.189 C  
ENDROOT
BRANCH  12  19
HETATM   19  O   UNL     1      -9.623  10.063  68.857  1.00  0.00    -0.165 OA 
HETATM   20  C   UNL     1     -10.967  10.513  68.655  1.00  0.00    -0.248 C  
ENDBRANCH  12  19
BRANCH  16  21
HETATM   21  C   UNL     1     -10.717  11.995  64.156  1.00  0.00    -0.357 C  
BRANCH  21  22
HETATM   22  O   UNL     1     -10.409  13.356  64.270  1.00  0.00    -0.420 OA 
BRANCH  22  23
HETATM   23  C   UNL     1     -11.524  14.052  64.605  1.00  0.00    -0.383 C  
HETATM   24  O   UNL     1     -12.505  14.217  63.913  1.00  0.00    -0.773 OA 
BRANCH  23  25
HETATM   25  C   UNL     1     -11.361  14.646  65.914  1.00  0.00    -0.338 A  
HETATM   26  C   UNL     1     -10.725  15.876  65.937  1.00  0.00    -0.296 A  
HETATM   27  N   UNL     1     -10.499  16.580  67.071  1.00  0.00    -0.304 NA 
HETATM   28  C   UNL     1     -10.915  16.010  68.222  1.00  0.00    -0.335 A  
HETATM   29  C   UNL     1     -11.524  14.752  68.304  1.00  0.00    -0.317 A  
HETATM   30  C   UNL     1     -11.748  14.055  67.124  1.00  0.00    -0.421 A  
HETATM   31 BR   UNL     1     -12.042  14.050  69.966  1.00  0.00    -0.429 Br 
ENDBRANCH  23  25
ENDBRANCH  22  23
ENDBRANCH  21  22
ENDBRANCH  16  21
TORSDOF 5
ENDMDL
MODEL       78
REMARK 921   NORMALIZED FREE ENERGY PREDICTED BY IDOCK:   -5.40 KCAL/MOL
REMARK 922        TOTAL FREE ENERGY PREDICTED BY IDOCK:   -7.41 KCAL/MOL
REMARK 923 INTER-LIGAND FREE ENERGY PREDICTED BY IDOCK:   -6.64 KCAL/MOL
REMARK 924 INTRA-LIGAND FREE ENERGY PREDICTED BY IDOCK:   -0.77 KCAL/MOL
REMARK 927      BINDING AFFINITY PREDICTED BY RF-SCORE:    0.00 PKD
ROOT
HETATM    1  C   UNL     1     -10.643  11.010  67.560  1.00  0.00    -0.227 C  
HETATM    2  C   UNL     1     -11.015   9.778  66.743  1.00  0.00     0.041 C  
HETATM    3  C   UNL     1     -10.075   8.767  67.113  1.00  0.00    -0.320 A  
HETATM    4  C   UNL     1      -9.528   7.769  66.378  1.00  0.00    -0.180 A  
HETATM    5  N   UNL     1      -8.561   7.215  67.170  1.00  0.00    -0.120 NA 
HETATM    6  C   UNL     1      -7.666   6.213  66.641  1.00  0.00    -0.103 C  
HETATM    7  C   UNL     1      -8.544   7.830  68.409  1.00  0.00    -0.128 A  
HETATM    8  C   UNL     1      -7.807   7.642  69.586  1.00  0.00    -0.108 A  
HETATM    9  C   UNL     1      -8.043   8.551  70.635  1.00  0.00    -0.119 A  
HETATM   10  C   UNL     1      -8.926   9.668  70.537  1.00  0.00    -0.186 A  
HETATM   11  C   UNL     1      -9.688   9.907  69.386  1.00  0.00    -0.228 A  
HETATM   12  C   UNL     1     -10.783  11.073  69.089  1.00  0.00    -0.234 C  
HETATM   13  C   UNL     1      -9.472   8.893  68.372  1.00  0.00    -0.147 A  
HETATM   14  C   UNL     1     -11.047  12.865  68.945  1.00  0.00    -0.301 C  
HETATM   15  C   UNL     1      -8.327  12.081  68.188  1.00  0.00    -0.165 C  
HETATM   16  C   UNL     1     -11.040  13.481  67.327  1.00  0.00    -0.302 C  
HETATM   17  N   UNL     1      -9.354  11.761  67.136  1.00  0.00    -0.174 NA 
HETATM   18  C   UNL     1      -9.782  13.020  66.589  1.00  0.00    -0.256 C  
ENDROOT
BRANCH  12  19
HETATM   19  O   UNL     1     -12.039  10.570  69.611  1.00  0.00    -0.252 OA 
HETATM   20  C   UNL     1     -12.041  10.427  71.036  1.00  0.00    -0.385 C  
ENDBRANCH  12  19
BRANCH  16  21
HETATM   21  C   UNL     1     -11.409  14.811  66.671  1.00  0.00    -0.347 C  
BRANCH  21  22
HETATM   22  O   UNL     1     -10.465  15.842  66.742  1.00  0.00    -0.295 OA 
BRANCH  22  23
HETATM   23  C   UNL     1     -10.498  16.409  67.974  1.00  0.00    -0.303 C  
HETATM   24  O   UNL     1     -11.485  16.775  68.572  1.00  0.00    -0.198 OA 
BRANCH  23  25
HETATM   25  C   UNL     1      -9.151  16.586  68.472  1.00  0.00    -0.231 A  
HETATM   26  C   UNL     1      -8.609  17.849  68.293  1.00  0.00    -0.275 A  
HETATM   27  N   UNL     1      -7.367  18.195  68.707  1.00  0.00    -0.281 NA 
HETATM   28  C   UNL     1      -6.644  17.225  69.307  1.00  0.00    -0.237 A  
HETATM   29  C   UNL     1      -7.088  15.910  69.491  1.00  0.00    -0.184 A  
HETATM   30  C   UNL     1      -8.368  15.584  69.061  1.00  0.00    -0.227 A  
HETATM   31 BR   UNL     1      -5.985  14.638  70.321  1.00  0.00    -0.168 Br 
ENDBRANCH  23  25
ENDBRANCH  22  23
ENDBRANCH  21  22
ENDBRANCH  16  21
TORSDOF 5
ENDMDL
MODEL       79
REMARK 921   NORMALIZED FREE ENERGY PREDICTED BY IDOCK:   -5.40 KCAL/MOL
REMARK 922        TOTAL FREE ENERGY PREDICTED BY IDOCK:   -7.41 KCAL/MOL
REMARK 923 INTER-LIGAND FREE ENERGY PREDICTED BY IDOCK:   -7.01 KCAL/MOL
REMARK 924 INTRA-LIGAND FREE ENERGY PREDICTED BY IDOCK:   -0.41 KCAL/MOL
REMARK 927      BINDING AFFINITY PREDICTED BY RF-SCORE:    0.00 PKD
ROOT
HETATM    1  C   UNL     1      -9.334  12.615  67.588  1.00  0.00    -0.190 C  
HETATM    2  C   UNL     1      -7.872  12.451  67.987  1.00  0.00    -0.141 C  
HETATM    3  C   UNL     1      -7.793  11.196  68.666  1.00  0.00    -0.138 A  
HETATM    4  C   UNL     1      -7.005  10.808  69.699  1.00  0.00    -0.134 A  
HETATM    5  N   UNL     1      -7.467   9.576  70.072  1.00  0.00    -0.107 NA 
HETATM    6  C   UNL     1      -6.951   8.927  71.254  1.00  0.00    -0.091 C  
HETATM    7  C   UNL     1      -8.501   9.179  69.242  1.00  0.00    -0.132 A  
HETATM    8  C   UNL     1      -9.291   8.026  69.145  1.00  0.00    -0.151 A  
HETATM    9  C   UNL     1     -10.319   8.039  68.183  1.00  0.00    -0.250 A  
HETATM   10  C   UNL     1     -10.631   9.168  67.368  1.00  0.00    -0.315 A  
HETATM   11  C   UNL     1      -9.877  10.348  67.422  1.00  0.00    -0.210 A  
HETATM   12  C   UNL     1     -10.024  11.715  66.551  1.00  0.00    -0.203 C  
HETATM   13  C   UNL     1      -8.779  10.248  68.364  1.00  0.00    -0.129 A  
HETATM   14  C   UNL     1     -11.118  13.106  66.139  1.00  0.00    -0.301 C  
HETATM   15  C   UNL     1     -11.580  12.101  68.852  1.00  0.00    -0.324 C  
HETATM   16  C   UNL     1     -10.809  14.568  67.014  1.00  0.00    -0.297 C  
HETATM   17  N   UNL     1     -10.333  12.935  68.730  1.00  0.00    -0.179 NA 
HETATM   18  C   UNL     1     -10.770  14.289  68.517  1.00  0.00    -0.255 C  
ENDROOT
BRANCH  12  19
HETATM   19  O   UNL     1      -9.267  11.486  65.336  1.00  0.00    -0.196 OA 
HETATM   20  C   UNL     1      -9.798  10.429  64.530  1.00  0.00    -0.339 C  
ENDBRANCH  12  19
BRANCH  16  21
HETATM   21  C   UNL     1     -11.275  16.019  66.901  1.00  0.00     0.065 C  
BRANCH  21  22
HETATM   22  O   UNL     1     -10.569  16.975  67.639  1.00  0.00    -0.339 OA 
BRANCH  22  23
HETATM   23  C   UNL     1      -9.799  17.720  66.807  1.00  0.00    -0.320 C  
HETATM   24  O   UNL     1     -10.141  18.207  65.752  1.00  0.00    -0.563 OA 
BRANCH  23  25
HETATM   25  C   UNL     1      -8.451  17.805  67.326  1.00  0.00    -0.239 A  
HETATM   26  C   UNL     1      -7.594  16.791  66.932  1.00  0.00    -0.217 A  
HETATM   27  N   UNL     1      -6.296  16.719  67.312  1.00  0.00    -0.162 NA 
HETATM   28  C   UNL     1      -5.858  17.697  68.134  1.00  0.00    -0.155 A  
HETATM   29  C   UNL     1      -6.661  18.736  68.622  1.00  0.00    -0.254 A  
HETATM   30  C   UNL     1      -7.986  18.787  68.211  1.00  0.00    -0.346 A  
HETATM   31 BR   UNL     1      -5.946  20.031  69.778  1.00  0.00    -0.395 Br 
ENDBRANCH  23  25
ENDBRANCH  22  23
ENDBRANCH  21  22
ENDBRANCH  16  21
TORSDOF 5
ENDMDL
MODEL       80
REMARK 921   NORMALIZED FREE ENERGY PREDICTED BY IDOCK:   -5.39 KCAL/MOL
REMARK 922        TOTAL FREE ENERGY PREDICTED BY IDOCK:   -7.40 KCAL/MOL
REMARK 923 INTER-LIGAND FREE ENERGY PREDICTED BY IDOCK:   -7.33 KCAL/MOL
REMARK 924 INTRA-LIGAND FREE ENERGY PREDICTED BY IDOCK:   -0.07 KCAL/MOL
REMARK 927      BINDING AFFINITY PREDICTED BY RF-SCORE:    0.00 PKD
ROOT
HETATM    1  C   UNL     1     -10.883  12.192  68.042  1.00  0.00    -0.222 C  
HETATM    2  C   UNL     1     -11.757  13.119  68.880  1.00  0.00    -0.368 C  
HETATM    3  C   UNL     1     -11.376  14.447  68.515  1.00  0.00    -0.307 A  
HETATM    4  C   UNL     1     -11.325  15.578  69.259  1.00  0.00    -0.325 A  
HETATM    5  N   UNL     1     -10.722  16.514  68.466  1.00  0.00    -0.318 NA 
HETATM    6  C   UNL     1     -10.364  17.807  69.001  1.00  0.00    -0.234 C  
HETATM    7  C   UNL     1     -10.448  15.982  67.219  1.00  0.00    -0.308 A  
HETATM    8  C   UNL     1      -9.890  16.492  66.038  1.00  0.00    -0.348 A  
HETATM    9  C   UNL     1      -9.708  15.583  64.978  1.00  0.00     0.229 A  
HETATM   10  C   UNL     1      -9.994  14.188  65.069  1.00  0.00    -0.216 A  
HETATM   11  C   UNL     1     -10.551  13.622  66.224  1.00  0.00    -0.289 A  
HETATM   12  C   UNL     1     -11.001  12.086  66.513  1.00  0.00    -0.295 C  
HETATM   13  C   UNL     1     -10.799  14.616  67.249  1.00  0.00    -0.305 A  
HETATM   14  C   UNL     1     -10.431  10.365  66.635  1.00  0.00    -0.279 C  
HETATM   15  C   UNL     1      -8.342  12.280  67.379  1.00  0.00    -0.177 C  
HETATM   16  C   UNL     1     -10.125   9.804  68.244  1.00  0.00    -0.189 C  
HETATM   17  N   UNL     1      -9.389  12.096  68.444  1.00  0.00    -0.196 NA 
HETATM   18  C   UNL     1      -9.197  10.774  68.977  1.00  0.00    -0.146 C  
ENDROOT
BRANCH  12  19
HETATM   19  O   UNL     1     -12.357  11.976  66.009  1.00  0.00    -0.462 OA 
HETATM   20  C   UNL     1     -12.475  12.327  64.626  1.00  0.00    -0.341 C  
ENDBRANCH  12  19
BRANCH  16  21
HETATM   21  C   UNL     1      -9.848   8.444  68.884  1.00  0.00    -0.180 C  
BRANCH  21  22
HETATM   22  O   UNL     1      -9.249   7.469  68.078  1.00  0.00    -0.137 OA 
BRANCH  22  23
HETATM   23  C   UNL     1     -10.149   6.498  67.787  1.00  0.00    -0.148 C  
HETATM   24  O   UNL     1     -11.112   6.602  67.061  1.00  0.00    -0.403 OA 
BRANCH  23  25
HETATM   25  C   UNL     1      -9.838   5.297  68.533  1.00  0.00    -0.210 A  
HETATM   26  C   UNL     1      -9.287   4.262  67.795  1.00  0.00    -0.160 A  
HETATM   27  N   UNL     1      -8.924   3.073  68.331  1.00  0.00    -0.124 NA 
HETATM   28  C   UNL     1      -9.144   2.920  69.654  1.00  0.00    -0.129 A  
HETATM   29  C   UNL     1      -9.738   3.890  70.472  1.00  0.00    -0.177 A  
HETATM   30  C   UNL     1     -10.095   5.102  69.896  1.00  0.00    -0.342 A  
HETATM   31 BR   UNL     1     -10.014   3.558  72.299  1.00  0.00    -0.224 Br 
ENDBRANCH  23  25
ENDBRANCH  22  23
ENDBRANCH  21  22
ENDBRANCH  16  21
TORSDOF 5
ENDMDL
MODEL       81
REMARK 921   NORMALIZED FREE ENERGY PREDICTED BY IDOCK:   -5.38 KCAL/MOL
REMARK 922        TOTAL FREE ENERGY PREDICTED BY IDOCK:   -7.38 KCAL/MOL
REMARK 923 INTER-LIGAND FREE ENERGY PREDICTED BY IDOCK:   -7.20 KCAL/MOL
REMARK 924 INTRA-LIGAND FREE ENERGY PREDICTED BY IDOCK:   -0.18 KCAL/MOL
REMARK 927      BINDING AFFINITY PREDICTED BY RF-SCORE:    0.00 PKD
ROOT
HETATM    1  C   UNL     1     -10.801  11.344  67.978  1.00  0.00    -0.217 C  
HETATM    2  C   UNL     1     -11.894  10.914  68.949  1.00  0.00    -0.340 C  
HETATM    3  C   UNL     1     -12.197  12.071  69.731  1.00  0.00    -0.226 A  
HETATM    4  C   UNL     1     -12.574  12.176  71.029  1.00  0.00    -0.263 A  
HETATM    5  N   UNL     1     -12.553  13.514  71.311  1.00  0.00    -0.358 NA 
HETATM    6  C   UNL     1     -12.755  13.981  72.663  1.00  0.00    -0.229 C  
HETATM    7  C   UNL     1     -12.217  14.238  70.181  1.00  0.00    -0.345 A  
HETATM    8  C   UNL     1     -12.089  15.604  69.895  1.00  0.00    -0.360 A  
HETATM    9  C   UNL     1     -11.642  15.944  68.604  1.00  0.00    -0.383 A  
HETATM   10  C   UNL     1     -11.257  14.987  67.618  1.00  0.00    -0.331 A  
HETATM   11  C   UNL     1     -11.362  13.609  67.847  1.00  0.00    -0.325 A  
HETATM   12  C   UNL     1     -11.036  12.364  66.852  1.00  0.00    -0.287 C  
HETATM   13  C   UNL     1     -11.910  13.316  69.158  1.00  0.00    -0.378 A  
HETATM   14  C   UNL     1      -9.743  11.528  65.888  1.00  0.00    -0.260 C  
HETATM   15  C   UNL     1      -8.668  12.849  68.271  1.00  0.00    -0.168 C  
HETATM   16  C   UNL     1      -9.033  10.147  66.652  1.00  0.00    -0.156 C  
HETATM   17  N   UNL     1      -9.388  11.564  68.577  1.00  0.00    -0.185 NA 
HETATM   18  C   UNL     1      -8.562  10.504  68.063  1.00  0.00    -0.121 C  
ENDROOT
BRANCH  12  19
HETATM   19  O   UNL     1     -12.246  12.156  66.079  1.00  0.00    -0.609 OA 
HETATM   20  C   UNL     1     -12.463  13.167  65.089  1.00  0.00    -0.483 C  
ENDBRANCH  12  19
BRANCH  16  21
HETATM   21  C   UNL     1      -8.102   9.019  66.207  1.00  0.00    -0.110 C  
BRANCH  21  22
HETATM   22  O   UNL     1      -8.642   7.729  66.153  1.00  0.00    -0.136 OA 
BRANCH  22  23
HETATM   23  C   UNL     1      -7.760   6.841  66.675  1.00  0.00    -0.105 C  
HETATM   24  O   UNL     1      -6.740   7.104  67.273  1.00  0.00    -0.059 OA 
BRANCH  23  25
HETATM   25  C   UNL     1      -8.174   5.490  66.359  1.00  0.00    -0.106 A  
HETATM   26  C   UNL     1      -9.541   5.294  66.257  1.00  0.00    -0.161 A  
HETATM   27  N   UNL     1     -10.104   4.099  65.956  1.00  0.00    -0.183 NA 
HETATM   28  C   UNL     1      -9.254   3.067  65.771  1.00  0.00    -0.124 A  
HETATM   29  C   UNL     1      -7.862   3.158  65.898  1.00  0.00    -0.085 A  
HETATM   30  C   UNL     1      -7.313   4.396  66.202  1.00  0.00    -0.077 A  
HETATM   31 BR   UNL     1      -6.780   1.647  65.638  1.00  0.00    -0.031 Br 
ENDBRANCH  23  25
ENDBRANCH  22  23
ENDBRANCH  21  22
ENDBRANCH  16  21
TORSDOF 5
ENDMDL
MODEL       82
REMARK 921   NORMALIZED FREE ENERGY PREDICTED BY IDOCK:   -5.33 KCAL/MOL
REMARK 922        TOTAL FREE ENERGY PREDICTED BY IDOCK:   -7.32 KCAL/MOL
REMARK 923 INTER-LIGAND FREE ENERGY PREDICTED BY IDOCK:   -6.82 KCAL/MOL
REMARK 924 INTRA-LIGAND FREE ENERGY PREDICTED BY IDOCK:   -0.51 KCAL/MOL
REMARK 927      BINDING AFFINITY PREDICTED BY RF-SCORE:    0.00 PKD
ROOT
HETATM    1  C   UNL     1      -9.463  11.942  67.416  1.00  0.00    -0.175 C  
HETATM    2  C   UNL     1      -8.063  11.893  68.018  1.00  0.00    -0.151 C  
HETATM    3  C   UNL     1      -7.994  10.661  68.739  1.00  0.00    -0.135 A  
HETATM    4  C   UNL     1      -7.333  10.351  69.881  1.00  0.00    -0.142 A  
HETATM    5  N   UNL     1      -7.756   9.097  70.223  1.00  0.00    -0.096 NA 
HETATM    6  C   UNL     1      -7.367   8.510  71.484  1.00  0.00    -0.098 C  
HETATM    7  C   UNL     1      -8.634   8.609  69.270  1.00  0.00    -0.131 A  
HETATM    8  C   UNL     1      -9.321   7.400  69.099  1.00  0.00    -0.146 A  
HETATM    9  C   UNL     1     -10.202   7.320  68.004  1.00  0.00    -0.225 A  
HETATM   10  C   UNL     1     -10.475   8.407  67.121  1.00  0.00    -0.380 A  
HETATM   11  C   UNL     1      -9.819   9.639  67.243  1.00  0.00    -0.225 A  
HETATM   12  C   UNL     1      -9.937  10.974  66.321  1.00  0.00    -0.224 C  
HETATM   13  C   UNL     1      -8.860   9.638  68.331  1.00  0.00    -0.123 A  
HETATM   14  C   UNL     1     -11.055  12.275  65.720  1.00  0.00    -0.362 C  
HETATM   15  C   UNL     1     -11.822  11.292  68.371  1.00  0.00    -0.261 C  
HETATM   16  C   UNL     1     -10.974  13.771  66.586  1.00  0.00    -0.298 C  
HETATM   17  N   UNL     1     -10.631  12.212  68.398  1.00  0.00    -0.219 NA 
HETATM   18  C   UNL     1     -11.127  13.525  68.087  1.00  0.00    -0.257 C  
ENDROOT
BRANCH  12  19
HETATM   19  O   UNL     1      -9.003  10.777  65.230  1.00  0.00    -0.187 OA 
HETATM   20  C   UNL     1      -8.960   9.425  64.760  1.00  0.00    -0.194 C  
ENDBRANCH  12  19
BRANCH  16  21
HETATM   21  C   UNL     1     -11.519  15.182  66.366  1.00  0.00    -0.160 C  
BRANCH  21  22
HETATM   22  O   UNL     1     -11.147  16.161  67.294  1.00  0.00    -0.231 OA 
BRANCH  22  23
HETATM   23  C   UNL     1     -10.313  17.056  66.708  1.00  0.00    -0.302 C  
HETATM   24  O   UNL     1     -10.504  17.644  65.667  1.00  0.00    -0.606 OA 
BRANCH  23  25
HETATM   25  C   UNL     1      -9.093  17.171  67.478  1.00  0.00    -0.225 A  
HETATM   26  C   UNL     1      -8.829  18.431  67.992  1.00  0.00    -0.287 A  
HETATM   27  N   UNL     1      -7.740  18.717  68.745  1.00  0.00    -0.331 NA 
HETATM   28  C   UNL     1      -6.883  17.699  68.970  1.00  0.00    -0.240 A  
HETATM   29  C   UNL     1      -7.042  16.405  68.456  1.00  0.00    -0.157 A  
HETATM   30  C   UNL     1      -8.170  16.139  67.691  1.00  0.00    -0.161 A  
HETATM   31 BR   UNL     1      -5.771  15.072  68.819  1.00  0.00    -0.089 Br 
ENDBRANCH  23  25
ENDBRANCH  22  23
ENDBRANCH  21  22
ENDBRANCH  16  21
TORSDOF 5
ENDMDL
MODEL       83
REMARK 921   NORMALIZED FREE ENERGY PREDICTED BY IDOCK:   -5.33 KCAL/MOL
REMARK 922        TOTAL FREE ENERGY PREDICTED BY IDOCK:   -7.32 KCAL/MOL
REMARK 923 INTER-LIGAND FREE ENERGY PREDICTED BY IDOCK:   -7.21 KCAL/MOL
REMARK 924 INTRA-LIGAND FREE ENERGY PREDICTED BY IDOCK:   -0.11 KCAL/MOL
REMARK 927      BINDING AFFINITY PREDICTED BY RF-SCORE:    0.00 PKD
ROOT
HETATM    1  C   UNL     1      -9.946  14.373  67.064  1.00  0.00    -0.257 C  
HETATM    2  C   UNL     1     -10.121  14.991  65.682  1.00  0.00    -0.390 C  
HETATM    3  C   UNL     1     -10.002  16.403  65.871  1.00  0.00    -0.358 A  
HETATM    4  C   UNL     1     -10.616  17.426  65.229  1.00  0.00     0.072 A  
HETATM    5  N   UNL     1     -10.279  18.553  65.925  1.00  0.00    -0.580 NA 
HETATM    6  C   UNL     1     -10.890  19.822  65.606  1.00  0.00    -0.232 C  
HETATM    7  C   UNL     1      -9.418  18.238  66.961  1.00  0.00    -0.274 A  
HETATM    8  C   UNL     1      -8.746  18.986  67.938  1.00  0.00    -0.333 A  
HETATM    9  C   UNL     1      -7.997  18.264  68.887  1.00  0.00    -0.198 A  
HETATM   10  C   UNL     1      -7.946  16.839  68.942  1.00  0.00    -0.237 A  
HETATM   11  C   UNL     1      -8.598  16.040  67.994  1.00  0.00    -0.165 A  
HETATM   12  C   UNL     1      -8.621  14.420  67.841  1.00  0.00    -0.165 C  
HETATM   13  C   UNL     1      -9.279  16.834  66.991  1.00  0.00    -0.238 A  
HETATM   14  C   UNL     1      -9.087  12.856  68.640  1.00  0.00     0.044 C  
HETATM   15  C   UNL     1     -10.831  15.070  69.438  1.00  0.00    -0.260 C  
HETATM   16  C   UNL     1     -10.600  12.191  68.128  1.00  0.00    -0.236 C  
HETATM   17  N   UNL     1     -11.124  14.549  68.057  1.00  0.00    -0.267 NA 
HETATM   18  C   UNL     1     -11.705  13.244  68.231  1.00  0.00    -0.353 C  
ENDROOT
BRANCH  12  19
HETATM   19  O   UNL     1      -7.443  14.085  67.065  1.00  0.00     0.008 OA 
HETATM   20  C   UNL     1      -6.226  14.192  67.811  1.00  0.00    -0.140 C  
ENDBRANCH  12  19
BRANCH  16  21
HETATM   21  C   UNL     1     -11.319  10.856  68.319  1.00  0.00    -0.308 C  
BRANCH  21  22
HETATM   22  O   UNL     1     -10.728   9.932  69.189  1.00  0.00    -0.210 OA 
BRANCH  22  23
HETATM   23  C   UNL     1     -10.437   8.791  68.515  1.00  0.00    -0.175 C  
HETATM   24  O   UNL     1     -10.238   8.687  67.325  1.00  0.00    -0.221 OA 
BRANCH  23  25
HETATM   25  C   UNL     1     -10.458   7.663  69.422  1.00  0.00    -0.220 A  
HETATM   26  C   UNL     1     -10.430   6.414  68.823  1.00  0.00    -0.221 A  
HETATM   27  N   UNL     1     -10.432   5.252  69.518  1.00  0.00    -0.270 NA 
HETATM   28  C   UNL     1     -10.482   5.359  70.863  1.00  0.00    -0.237 A  
HETATM   29  C   UNL     1     -10.560   6.574  71.556  1.00  0.00    -0.229 A  
HETATM   30  C   UNL     1     -10.551   7.750  70.818  1.00  0.00    -0.220 A  
HETATM   31 BR   UNL     1     -10.647   6.598  73.431  1.00  0.00    -0.340 Br 
ENDBRANCH  23  25
ENDBRANCH  22  23
ENDBRANCH  21  22
ENDBRANCH  16  21
TORSDOF 5
ENDMDL
MODEL       84
REMARK 921   NORMALIZED FREE ENERGY PREDICTED BY IDOCK:   -5.32 KCAL/MOL
REMARK 922        TOTAL FREE ENERGY PREDICTED BY IDOCK:   -7.31 KCAL/MOL
REMARK 923 INTER-LIGAND FREE ENERGY PREDICTED BY IDOCK:   -7.08 KCAL/MOL
REMARK 924 INTRA-LIGAND FREE ENERGY PREDICTED BY IDOCK:   -0.22 KCAL/MOL
REMARK 927      BINDING AFFINITY PREDICTED BY RF-SCORE:    0.00 PKD
ROOT
HETATM    1  C   UNL     1     -10.314   8.887  68.430  1.00  0.00    -0.200 C  
HETATM    2  C   UNL     1     -10.485   8.306  67.031  1.00  0.00    -0.384 C  
HETATM    3  C   UNL     1      -9.310   7.530  66.787  1.00  0.00    -0.209 A  
HETATM    4  C   UNL     1      -8.633   7.305  65.635  1.00  0.00    -0.109 A  
HETATM    5  N   UNL     1      -7.491   6.649  66.000  1.00  0.00    -0.079 NA 
HETATM    6  C   UNL     1      -6.454   6.387  65.030  1.00  0.00    -0.038 C  
HETATM    7  C   UNL     1      -7.484   6.420  67.365  1.00  0.00    -0.088 A  
HETATM    8  C   UNL     1      -6.606   5.773  68.245  1.00  0.00    -0.052 A  
HETATM    9  C   UNL     1      -6.929   5.821  69.614  1.00  0.00    -0.063 A  
HETATM   10  C   UNL     1      -8.044   6.538  70.143  1.00  0.00    -0.121 A  
HETATM   11  C   UNL     1      -8.954   7.204  69.313  1.00  0.00    -0.138 A  
HETATM   12  C   UNL     1     -10.306   8.022  69.700  1.00  0.00    -0.220 C  
HETATM   13  C   UNL     1      -8.624   7.048  67.910  1.00  0.00    -0.126 A  
HETATM   14  C   UNL     1     -10.977   9.442  70.616  1.00  0.00    -0.352 C  
HETATM   15  C   UNL     1      -8.244   9.921  69.675  1.00  0.00    -0.171 C  
HETATM   16  C   UNL     1     -11.274  10.856  69.663  1.00  0.00    -0.348 C  
HETATM   17  N   UNL     1      -9.277  10.029  68.585  1.00  0.00    -0.147 NA 
HETATM   18  C   UNL     1     -10.028  11.224  68.857  1.00  0.00    -0.155 C  
ENDROOT
BRANCH  12  19
HETATM   19  O   UNL     1     -11.358   7.026  69.770  1.00  0.00    -0.249 OA 
HETATM   20  C   UNL     1     -11.259   6.180  70.921  1.00  0.00    -0.299 C  
ENDBRANCH  12  19
BRANCH  16  21
HETATM   21  C   UNL     1     -11.996  12.184  69.890  1.00  0.00    -0.309 C  
BRANCH  21  22
HETATM   22  O   UNL     1     -11.957  13.117  68.848  1.00  0.00    -0.309 OA 
BRANCH  22  23
HETATM   23  C   UNL     1     -11.796  14.365  69.356  1.00  0.00    -0.325 C  
HETATM   24  O   UNL     1     -12.130  14.743  70.457  1.00  0.00    -0.275 OA 
BRANCH  23  25
HETATM   25  C   UNL     1     -11.212  15.234  68.356  1.00  0.00    -0.314 A  
HETATM   26  C   UNL     1     -10.544  14.593  67.325  1.00  0.00    -0.284 A  
HETATM   27  N   UNL     1      -9.950  15.248  66.299  1.00  0.00    -0.266 NA 
HETATM   28  C   UNL     1     -10.019  16.595  66.329  1.00  0.00    -0.320 A  
HETATM   29  C   UNL     1     -10.631  17.332  67.351  1.00  0.00    -0.303 A  
HETATM   30  C   UNL     1     -11.237  16.634  68.388  1.00  0.00    -0.239 A  
HETATM   31 BR   UNL     1     -10.647  19.208  67.297  1.00  0.00    -0.591 Br 
ENDBRANCH  23  25
ENDBRANCH  22  23
ENDBRANCH  21  22
ENDBRANCH  16  21
TORSDOF 5
ENDMDL
MODEL       85
REMARK 921   NORMALIZED FREE ENERGY PREDICTED BY IDOCK:   -5.32 KCAL/MOL
REMARK 922        TOTAL FREE ENERGY PREDICTED BY IDOCK:   -7.30 KCAL/MOL
REMARK 923 INTER-LIGAND FREE ENERGY PREDICTED BY IDOCK:   -7.10 KCAL/MOL
REMARK 924 INTRA-LIGAND FREE ENERGY PREDICTED BY IDOCK:   -0.20 KCAL/MOL
REMARK 927      BINDING AFFINITY PREDICTED BY RF-SCORE:    0.00 PKD
ROOT
HETATM    1  C   UNL     1     -10.908  11.361  67.915  1.00  0.00    -0.225 C  
HETATM    2  C   UNL     1     -12.013  11.253  68.959  1.00  0.00    -0.393 C  
HETATM    3  C   UNL     1     -12.089  12.539  69.578  1.00  0.00    -0.248 A  
HETATM    4  C   UNL     1     -12.387  12.878  70.856  1.00  0.00    -0.275 A  
HETATM    5  N   UNL     1     -12.138  14.219  70.949  1.00  0.00    -0.337 NA 
HETATM    6  C   UNL     1     -12.202  14.890  72.226  1.00  0.00    -0.335 C  
HETATM    7  C   UNL     1     -11.737  14.719  69.722  1.00  0.00    -0.310 A  
HETATM    8  C   UNL     1     -11.403  15.994  69.246  1.00  0.00    -0.356 A  
HETATM    9  C   UNL     1     -10.963  16.079  67.911  1.00  0.00    -0.327 A  
HETATM   10  C   UNL     1     -10.782  14.948  67.061  1.00  0.00    -0.307 A  
HETATM   11  C   UNL     1     -11.099  13.650  67.482  1.00  0.00    -0.296 A  
HETATM   12  C   UNL     1     -11.023  12.246  66.663  1.00  0.00    -0.278 C  
HETATM   13  C   UNL     1     -11.629  13.631  68.831  1.00  0.00    -0.362 A  
HETATM   14  C   UNL     1      -9.925  11.084  65.798  1.00  0.00    -0.294 C  
HETATM   15  C   UNL     1      -8.548  12.515  67.951  1.00  0.00    -0.179 C  
HETATM   16  C   UNL     1      -9.416   9.719  66.732  1.00  0.00    -0.209 C  
HETATM   17  N   UNL     1      -9.453  11.420  68.447  1.00  0.00    -0.189 NA 
HETATM   18  C   UNL     1      -8.833  10.179  68.069  1.00  0.00    -0.125 C  
ENDROOT
BRANCH  12  19
HETATM   19  O   UNL     1     -12.283  12.141  65.952  1.00  0.00    -0.604 OA 
HETATM   20  C   UNL     1     -12.436  13.128  64.926  1.00  0.00    -0.433 C  
ENDBRANCH  12  19
BRANCH  16  21
HETATM   21  C   UNL     1      -8.700   8.403  66.429  1.00  0.00    -0.139 C  
BRANCH  21  22
HETATM   22  O   UNL     1      -7.578   8.464  65.595  1.00  0.00    -0.085 OA 
BRANCH  22  23
HETATM   23  C   UNL     1      -7.914   8.059  64.345  1.00  0.00    -0.145 C  
HETATM   24  O   UNL     1      -8.474   8.721  63.499  1.00  0.00    -0.177 OA 
BRANCH  23  25
HETATM   25  C   UNL     1      -7.565   6.666  64.167  1.00  0.00    -0.104 A  
HETATM   26  C   UNL     1      -6.246   6.421  63.821  1.00  0.00    -0.026 A  
HETATM   27  N   UNL     1      -5.743   5.178  63.627  1.00  0.00    -0.017 NA 
HETATM   28  C   UNL     1      -6.609   4.153  63.770  1.00  0.00    -0.042 A  
HETATM   29  C   UNL     1      -7.969   4.304  64.072  1.00  0.00    -0.090 A  
HETATM   30  C   UNL     1      -8.456   5.589  64.271  1.00  0.00    -0.069 A  
HETATM   31 BR   UNL     1      -9.085   2.803  64.226  1.00  0.00    -0.123 Br 
ENDBRANCH  23  25
ENDBRANCH  22  23
ENDBRANCH  21  22
ENDBRANCH  16  21
TORSDOF 5
ENDMDL
MODEL       86
REMARK 921   NORMALIZED FREE ENERGY PREDICTED BY IDOCK:   -5.29 KCAL/MOL
REMARK 922        TOTAL FREE ENERGY PREDICTED BY IDOCK:   -7.27 KCAL/MOL
REMARK 923 INTER-LIGAND FREE ENERGY PREDICTED BY IDOCK:   -7.01 KCAL/MOL
REMARK 924 INTRA-LIGAND FREE ENERGY PREDICTED BY IDOCK:   -0.26 KCAL/MOL
REMARK 927      BINDING AFFINITY PREDICTED BY RF-SCORE:    0.00 PKD
ROOT
HETATM    1  C   UNL     1      -9.541  12.886  66.436  1.00  0.00    -0.252 C  
HETATM    2  C   UNL     1      -8.473  13.929  66.747  1.00  0.00    -0.003 C  
HETATM    3  C   UNL     1      -9.118  14.917  67.554  1.00  0.00    -0.186 A  
HETATM    4  C   UNL     1      -8.922  16.256  67.621  1.00  0.00    -0.192 A  
HETATM    5  N   UNL     1      -9.926  16.736  68.416  1.00  0.00    -0.255 NA 
HETATM    6  C   UNL     1     -10.115  18.158  68.579  1.00  0.00    -0.400 C  
HETATM    7  C   UNL     1     -10.710  15.695  68.881  1.00  0.00    -0.238 A  
HETATM    8  C   UNL     1     -11.816  15.608  69.738  1.00  0.00    -0.376 A  
HETATM    9  C   UNL     1     -12.390  14.334  69.907  1.00  0.00    -0.377 A  
HETATM   10  C   UNL     1     -11.952  13.166  69.214  1.00  0.00    -0.344 A  
HETATM   11  C   UNL     1     -10.853  13.192  68.345  1.00  0.00    -0.283 A  
HETATM   12  C   UNL     1     -10.162  11.979  67.510  1.00  0.00    -0.198 C  
HETATM   13  C   UNL     1     -10.247  14.507  68.276  1.00  0.00    -0.234 A  
HETATM   14  C   UNL     1     -10.421  10.717  66.228  1.00  0.00    -0.287 C  
HETATM   15  C   UNL     1     -12.081  13.092  65.796  1.00  0.00    -0.447 C  
HETATM   16  C   UNL     1      -9.855  11.146  64.650  1.00  0.00    -0.330 C  
HETATM   17  N   UNL     1     -10.638  13.298  65.421  1.00  0.00    -0.288 NA 
HETATM   18  C   UNL     1     -10.411  12.510  64.239  1.00  0.00    -0.370 C  
ENDROOT
BRANCH  12  19
HETATM   19  O   UNL     1      -9.212  11.369  68.421  1.00  0.00    -0.173 OA 
HETATM   20  C   UNL     1      -9.831  10.523  69.397  1.00  0.00    -0.182 C  
ENDBRANCH  12  19
BRANCH  16  21
HETATM   21  C   UNL     1      -9.646  10.400  63.332  1.00  0.00    -0.312 C  
BRANCH  21  22
HETATM   22  O   UNL     1      -8.325  10.138  62.950  1.00  0.00    -0.146 OA 
BRANCH  22  23
HETATM   23  C   UNL     1      -7.634   9.636  64.003  1.00  0.00    -0.128 C  
HETATM   24  O   UNL     1      -6.885  10.248  64.731  1.00  0.00    -0.129 OA 
BRANCH  23  25
HETATM   25  C   UNL     1      -7.864   8.211  64.110  1.00  0.00    -0.142 A  
HETATM   26  C   UNL     1      -7.810   7.506  62.919  1.00  0.00    -0.130 A  
HETATM   27  N   UNL     1      -7.989   6.166  62.834  1.00  0.00    -0.103 NA 
HETATM   28  C   UNL     1      -8.249   5.523  63.991  1.00  0.00    -0.117 A  
HETATM   29  C   UNL     1      -8.368   6.155  65.236  1.00  0.00    -0.144 A  
HETATM   30  C   UNL     1      -8.175   7.529  65.294  1.00  0.00    -0.130 A  
HETATM   31 BR   UNL     1      -8.754   5.157  66.779  1.00  0.00    -0.107 Br 
ENDBRANCH  23  25
ENDBRANCH  22  23
ENDBRANCH  21  22
ENDBRANCH  16  21
TORSDOF 5
ENDMDL
MODEL       87
REMARK 921   NORMALIZED FREE ENERGY PREDICTED BY IDOCK:   -5.27 KCAL/MOL
REMARK 922        TOTAL FREE ENERGY PREDICTED BY IDOCK:   -7.24 KCAL/MOL
REMARK 923 INTER-LIGAND FREE ENERGY PREDICTED BY IDOCK:   -6.76 KCAL/MOL
REMARK 924 INTRA-LIGAND FREE ENERGY PREDICTED BY IDOCK:   -0.48 KCAL/MOL
REMARK 927      BINDING AFFINITY PREDICTED BY RF-SCORE:    0.00 PKD
ROOT
HETATM    1  C   UNL     1     -10.923  11.231  68.024  1.00  0.00    -0.247 C  
HETATM    2  C   UNL     1     -11.483  11.010  66.623  1.00  0.00     0.159 C  
HETATM    3  C   UNL     1     -11.297  12.246  65.931  1.00  0.00    -0.406 A  
HETATM    4  C   UNL     1     -12.059  12.839  64.979  1.00  0.00    -0.441 A  
HETATM    5  N   UNL     1     -11.521  14.083  64.799  1.00  0.00    -0.353 NA 
HETATM    6  C   UNL     1     -12.182  15.053  63.958  1.00  0.00    -0.090 C  
HETATM    7  C   UNL     1     -10.400  14.242  65.596  1.00  0.00    -0.336 A  
HETATM    8  C   UNL     1      -9.465  15.270  65.777  1.00  0.00    -0.310 A  
HETATM    9  C   UNL     1      -8.483  15.068  66.765  1.00  0.00    -0.239 A  
HETATM   10  C   UNL     1      -8.435  13.924  67.617  1.00  0.00    -0.193 A  
HETATM   11  C   UNL     1      -9.343  12.866  67.483  1.00  0.00    -0.190 A  
HETATM   12  C   UNL     1      -9.430  11.462  68.301  1.00  0.00    -0.187 C  
HETATM   13  C   UNL     1     -10.276  13.086  66.395  1.00  0.00    -0.283 A  
HETATM   14  C   UNL     1      -9.663  10.704  69.936  1.00  0.00     0.240 C  
HETATM   15  C   UNL     1     -11.075  13.259  69.688  1.00  0.00     0.063 C  
HETATM   16  C   UNL     1     -11.269  10.146  70.264  1.00  0.00    -0.387 C  
HETATM   17  N   UNL     1     -11.762  12.127  68.972  1.00  0.00    -0.306 NA 
HETATM   18  C   UNL     1     -12.283  11.258  69.993  1.00  0.00    -0.314 C  
ENDROOT
BRANCH  12  19
HETATM   19  O   UNL     1      -8.531  10.555  67.614  1.00  0.00    -0.115 OA 
HETATM   20  C   UNL     1      -7.153  10.927  67.734  1.00  0.00    -0.082 C  
ENDBRANCH  12  19
BRANCH  16  21
HETATM   21  C   UNL     1     -11.917   9.286  71.349  1.00  0.00    -0.351 C  
BRANCH  21  22
HETATM   22  O   UNL     1     -11.291   8.074  71.661  1.00  0.00    -0.248 OA 
BRANCH  22  23
HETATM   23  C   UNL     1     -11.971   7.047  71.092  1.00  0.00    -0.356 C  
HETATM   24  O   UNL     1     -13.127   6.749  71.293  1.00  0.00    -0.273 OA 
BRANCH  23  25
HETATM   25  C   UNL     1     -11.088   6.286  70.233  1.00  0.00    -0.430 A  
HETATM   26  C   UNL     1      -9.959   5.769  70.847  1.00  0.00    -0.189 A  
HETATM   27  N   UNL     1      -9.032   5.023  70.199  1.00  0.00    -0.108 NA 
HETATM   28  C   UNL     1      -9.248   4.811  68.884  1.00  0.00    -0.124 A  
HETATM   29  C   UNL     1     -10.334   5.330  68.168  1.00  0.00    -0.114 A  
HETATM   30  C   UNL     1     -11.271   6.087  68.859  1.00  0.00    -0.246 A  
HETATM   31 BR   UNL     1     -10.520   4.985  66.332  1.00  0.00    -0.309 Br 
ENDBRANCH  23  25
ENDBRANCH  22  23
ENDBRANCH  21  22
ENDBRANCH  16  21
TORSDOF 5
ENDMDL
MODEL       88
REMARK 921   NORMALIZED FREE ENERGY PREDICTED BY IDOCK:   -5.26 KCAL/MOL
REMARK 922        TOTAL FREE ENERGY PREDICTED BY IDOCK:   -7.22 KCAL/MOL
REMARK 923 INTER-LIGAND FREE ENERGY PREDICTED BY IDOCK:   -7.15 KCAL/MOL
REMARK 924 INTRA-LIGAND FREE ENERGY PREDICTED BY IDOCK:   -0.07 KCAL/MOL
REMARK 927      BINDING AFFINITY PREDICTED BY RF-SCORE:    0.00 PKD
ROOT
HETATM    1  C   UNL     1     -10.883  12.192  68.042  1.00  0.00    -0.222 C  
HETATM    2  C   UNL     1     -11.757  13.119  68.880  1.00  0.00    -0.368 C  
HETATM    3  C   UNL     1     -11.376  14.447  68.515  1.00  0.00    -0.307 A  
HETATM    4  C   UNL     1     -11.325  15.578  69.259  1.00  0.00    -0.325 A  
HETATM    5  N   UNL     1     -10.722  16.514  68.466  1.00  0.00    -0.318 NA 
HETATM    6  C   UNL     1     -10.364  17.807  69.001  1.00  0.00    -0.234 C  
HETATM    7  C   UNL     1     -10.448  15.982  67.219  1.00  0.00    -0.308 A  
HETATM    8  C   UNL     1      -9.890  16.492  66.038  1.00  0.00    -0.348 A  
HETATM    9  C   UNL     1      -9.708  15.583  64.978  1.00  0.00     0.229 A  
HETATM   10  C   UNL     1      -9.994  14.188  65.069  1.00  0.00    -0.216 A  
HETATM   11  C   UNL     1     -10.551  13.622  66.224  1.00  0.00    -0.289 A  
HETATM   12  C   UNL     1     -11.001  12.086  66.513  1.00  0.00    -0.295 C  
HETATM   13  C   UNL     1     -10.799  14.616  67.249  1.00  0.00    -0.305 A  
HETATM   14  C   UNL     1     -10.431  10.365  66.635  1.00  0.00    -0.279 C  
HETATM   15  C   UNL     1      -8.342  12.280  67.379  1.00  0.00    -0.177 C  
HETATM   16  C   UNL     1     -10.125   9.804  68.244  1.00  0.00    -0.189 C  
HETATM   17  N   UNL     1      -9.389  12.096  68.444  1.00  0.00    -0.196 NA 
HETATM   18  C   UNL     1      -9.197  10.774  68.977  1.00  0.00    -0.146 C  
ENDROOT
BRANCH  12  19
HETATM   19  O   UNL     1     -12.357  11.976  66.009  1.00  0.00    -0.462 OA 
HETATM   20  C   UNL     1     -12.475  12.327  64.626  1.00  0.00    -0.341 C  
ENDBRANCH  12  19
BRANCH  16  21
HETATM   21  C   UNL     1      -9.848   8.444  68.884  1.00  0.00    -0.180 C  
BRANCH  21  22
HETATM   22  O   UNL     1     -10.839   7.921  69.724  1.00  0.00    -0.249 OA 
BRANCH  22  23
HETATM   23  C   UNL     1     -10.416   7.962  71.012  1.00  0.00    -0.203 C  
HETATM   24  O   UNL     1     -10.269   8.954  71.691  1.00  0.00    -0.290 OA 
BRANCH  23  25
HETATM   25  C   UNL     1     -10.089   6.627  71.467  1.00  0.00    -0.200 A  
HETATM   26  C   UNL     1     -10.996   6.057  72.344  1.00  0.00    -0.260 A  
HETATM   27  N   UNL     1     -10.856   4.812  72.860  1.00  0.00    -0.229 NA 
HETATM   28  C   UNL     1      -9.751   4.132  72.489  1.00  0.00    -0.149 A  
HETATM   29  C   UNL     1      -8.756   4.642  71.645  1.00  0.00    -0.121 A  
HETATM   30  C   UNL     1      -8.929   5.919  71.127  1.00  0.00    -0.145 A  
HETATM   31 BR   UNL     1      -7.249   3.609  71.214  1.00  0.00    -0.033 Br 
ENDBRANCH  23  25
ENDBRANCH  22  23
ENDBRANCH  21  22
ENDBRANCH  16  21
TORSDOF 5
ENDMDL
MODEL       89
REMARK 921   NORMALIZED FREE ENERGY PREDICTED BY IDOCK:   -5.25 KCAL/MOL
REMARK 922        TOTAL FREE ENERGY PREDICTED BY IDOCK:   -7.22 KCAL/MOL
REMARK 923 INTER-LIGAND FREE ENERGY PREDICTED BY IDOCK:   -7.10 KCAL/MOL
REMARK 924 INTRA-LIGAND FREE ENERGY PREDICTED BY IDOCK:   -0.12 KCAL/MOL
REMARK 927      BINDING AFFINITY PREDICTED BY RF-SCORE:    0.00 PKD
ROOT
HETATM    1  C   UNL     1      -8.653  15.218  68.616  1.00  0.00    -0.173 C  
HETATM    2  C   UNL     1      -7.466  15.897  69.291  1.00  0.00    -0.219 C  
HETATM    3  C   UNL     1      -7.423  17.223  68.761  1.00  0.00    -0.260 A  
HETATM    4  C   UNL     1      -6.364  18.028  68.501  1.00  0.00    -0.198 A  
HETATM    5  N   UNL     1      -6.875  19.107  67.836  1.00  0.00    -0.222 NA 
HETATM    6  C   UNL     1      -5.996  20.101  67.267  1.00  0.00    -0.175 C  
HETATM    7  C   UNL     1      -8.251  18.998  67.730  1.00  0.00    -0.276 A  
HETATM    8  C   UNL     1      -9.259  19.812  67.197  1.00  0.00    -0.439 A  
HETATM    9  C   UNL     1     -10.569  19.297  67.219  1.00  0.00    -0.590 A  
HETATM   10  C   UNL     1     -10.902  17.990  67.685  1.00  0.00    -0.257 A  
HETATM   11  C   UNL     1      -9.936  17.132  68.228  1.00  0.00    -0.300 A  
HETATM   12  C   UNL     1     -10.109  15.643  68.861  1.00  0.00    -0.217 C  
HETATM   13  C   UNL     1      -8.623  17.745  68.261  1.00  0.00    -0.277 A  
HETATM   14  C   UNL     1     -10.617  13.931  68.523  1.00  0.00    -0.260 C  
HETATM   15  C   UNL     1      -9.539  15.258  66.143  1.00  0.00    -0.321 C  
HETATM   16  C   UNL     1      -9.322  12.836  68.179  1.00  0.00    -0.214 C  
HETATM   17  N   UNL     1      -8.477  14.838  67.124  1.00  0.00    -0.212 NA 
HETATM   18  C   UNL     1      -8.426  13.401  67.076  1.00  0.00    -0.125 C  
ENDROOT
BRANCH  12  19
HETATM   19  O   UNL     1     -10.462  15.850  70.252  1.00  0.00    -0.291 OA 
HETATM   20  C   UNL     1     -11.875  15.948  70.467  1.00  0.00    -0.350 C  
ENDBRANCH  12  19
BRANCH  16  21
HETATM   21  C   UNL     1      -9.192  11.318  68.044  1.00  0.00    -0.160 C  
BRANCH  21  22
HETATM   22  O   UNL     1      -7.900  10.782  68.089  1.00  0.00    -0.105 OA 
BRANCH  22  23
HETATM   23  C   UNL     1      -7.724  10.106  69.251  1.00  0.00    -0.126 C  
HETATM   24  O   UNL     1      -7.221  10.535  70.266  1.00  0.00    -0.226 OA 
BRANCH  23  25
HETATM   25  C   UNL     1      -8.171   8.738  69.099  1.00  0.00    -0.119 A  
HETATM   26  C   UNL     1      -7.629   8.049  68.027  1.00  0.00    -0.112 A  
HETATM   27  N   UNL     1      -7.925   6.758  67.741  1.00  0.00    -0.112 NA 
HETATM   28  C   UNL     1      -8.814   6.153  68.557  1.00  0.00    -0.113 A  
HETATM   29  C   UNL     1      -9.448   6.781  69.637  1.00  0.00    -0.146 A  
HETATM   30  C   UNL     1      -9.122   8.103  69.909  1.00  0.00    -0.151 A  
HETATM   31 BR   UNL     1     -10.685   5.844  70.692  1.00  0.00    -0.356 Br 
ENDBRANCH  23  25
ENDBRANCH  22  23
ENDBRANCH  21  22
ENDBRANCH  16  21
TORSDOF 5
ENDMDL
MODEL       90
REMARK 921   NORMALIZED FREE ENERGY PREDICTED BY IDOCK:   -5.23 KCAL/MOL
REMARK 922        TOTAL FREE ENERGY PREDICTED BY IDOCK:   -7.19 KCAL/MOL
REMARK 923 INTER-LIGAND FREE ENERGY PREDICTED BY IDOCK:   -6.67 KCAL/MOL
REMARK 924 INTRA-LIGAND FREE ENERGY PREDICTED BY IDOCK:   -0.52 KCAL/MOL
REMARK 927      BINDING AFFINITY PREDICTED BY RF-SCORE:    0.00 PKD
ROOT
HETATM    1  C   UNL     1      -9.803   9.532  66.791  1.00  0.00    -0.216 C  
HETATM    2  C   UNL     1      -9.961   9.944  65.332  1.00  0.00    -0.349 C  
HETATM    3  C   UNL     1      -8.824   9.408  64.652  1.00  0.00    -0.238 A  
HETATM    4  C   UNL     1      -8.124   9.896  63.598  1.00  0.00    -0.153 A  
HETATM    5  N   UNL     1      -7.032   9.083  63.473  1.00  0.00    -0.089 NA 
HETATM    6  C   UNL     1      -5.981   9.407  62.537  1.00  0.00    -0.093 C  
HETATM    7  C   UNL     1      -7.081   8.065  64.409  1.00  0.00    -0.077 A  
HETATM    8  C   UNL     1      -6.268   6.961  64.698  1.00  0.00    -0.036 A  
HETATM    9  C   UNL     1      -6.631   6.179  65.812  1.00  0.00    -0.047 A  
HETATM   10  C   UNL     1      -7.720   6.489  66.680  1.00  0.00    -0.099 A  
HETATM   11  C   UNL     1      -8.566   7.580  66.442  1.00  0.00    -0.145 A  
HETATM   12  C   UNL     1      -9.883   8.071  67.262  1.00  0.00    -0.197 C  
HETATM   13  C   UNL     1      -8.201   8.297  65.235  1.00  0.00    -0.149 A  
HETATM   14  C   UNL     1     -10.502   8.669  68.862  1.00  0.00    -0.211 C  
HETATM   15  C   UNL     1      -7.719   9.452  68.389  1.00  0.00    -0.086 C  
HETATM   16  C   UNL     1     -10.691  10.386  68.982  1.00  0.00    -0.260 C  
HETATM   17  N   UNL     1      -8.709  10.270  67.605  1.00  0.00    -0.122 NA 
HETATM   18  C   UNL     1      -9.402  11.092  68.560  1.00  0.00    -0.190 C  
ENDROOT
BRANCH  12  19
HETATM   19  O   UNL     1     -10.989   7.310  66.715  1.00  0.00    -0.284 OA 
HETATM   20  C   UNL     1     -10.859   5.899  66.918  1.00  0.00    -0.296 C  
ENDBRANCH  12  19
BRANCH  16  21
HETATM   21  C   UNL     1     -11.346  11.338  69.983  1.00  0.00    -0.208 C  
BRANCH  21  22
HETATM   22  O   UNL     1     -12.403  12.126  69.516  1.00  0.00    -0.136 OA 
BRANCH  22  23
HETATM   23  C   UNL     1     -12.217  13.415  69.896  1.00  0.00    -0.271 C  
HETATM   24  O   UNL     1     -12.416  13.877  70.998  1.00  0.00    -0.340 OA 
BRANCH  23  25
HETATM   25  C   UNL     1     -11.798  14.209  68.761  1.00  0.00    -0.384 A  
HETATM   26  C   UNL     1     -11.365  15.491  69.057  1.00  0.00    -0.326 A  
HETATM   27  N   UNL     1     -10.926  16.366  68.121  1.00  0.00    -0.347 NA 
HETATM   28  C   UNL     1     -10.945  15.934  66.842  1.00  0.00    -0.172 A  
HETATM   29  C   UNL     1     -11.408  14.674  66.441  1.00  0.00    -0.348 A  
HETATM   30  C   UNL     1     -11.847  13.796  67.423  1.00  0.00    -0.431 A  
HETATM   31 BR   UNL     1     -11.407  14.190  64.627  1.00  0.00    -0.367 Br 
ENDBRANCH  23  25
ENDBRANCH  22  23
ENDBRANCH  21  22
ENDBRANCH  16  21
TORSDOF 5
ENDMDL
MODEL       91
REMARK 921   NORMALIZED FREE ENERGY PREDICTED BY IDOCK:   -5.23 KCAL/MOL
REMARK 922        TOTAL FREE ENERGY PREDICTED BY IDOCK:   -7.18 KCAL/MOL
REMARK 923 INTER-LIGAND FREE ENERGY PREDICTED BY IDOCK:   -6.97 KCAL/MOL
REMARK 924 INTRA-LIGAND FREE ENERGY PREDICTED BY IDOCK:   -0.22 KCAL/MOL
REMARK 927      BINDING AFFINITY PREDICTED BY RF-SCORE:    0.00 PKD
ROOT
HETATM    1  C   UNL     1      -9.393   9.482  68.696  1.00  0.00    -0.142 C  
HETATM    2  C   UNL     1      -9.740   9.669  70.169  1.00  0.00    -0.301 C  
HETATM    3  C   UNL     1      -9.933   8.354  70.693  1.00  0.00    -0.212 A  
HETATM    4  C   UNL     1     -10.779   7.911  71.656  1.00  0.00    -0.223 A  
HETATM    5  N   UNL     1     -10.683   6.548  71.631  1.00  0.00    -0.225 NA 
HETATM    6  C   UNL     1     -11.570   5.736  72.431  1.00  0.00    -0.264 C  
HETATM    7  C   UNL     1      -9.745   6.149  70.696  1.00  0.00    -0.174 A  
HETATM    8  C   UNL     1      -9.230   4.909  70.292  1.00  0.00    -0.192 A  
HETATM    9  C   UNL     1      -8.313   4.920  69.224  1.00  0.00    -0.085 A  
HETATM   10  C   UNL     1      -7.943   6.095  68.505  1.00  0.00    -0.108 A  
HETATM   11  C   UNL     1      -8.426   7.361  68.862  1.00  0.00    -0.129 A  
HETATM   12  C   UNL     1      -8.091   8.818  68.221  1.00  0.00    -0.114 C  
HETATM   13  C   UNL     1      -9.295   7.303  70.021  1.00  0.00    -0.154 A  
HETATM   14  C   UNL     1      -8.174   9.839  66.720  1.00  0.00    -0.120 C  
HETATM   15  C   UNL     1     -10.346   7.878  66.847  1.00  0.00    -0.330 C  
HETATM   16  C   UNL     1      -9.514  10.931  66.646  1.00  0.00    -0.204 C  
HETATM   17  N   UNL     1     -10.553   9.056  67.760  1.00  0.00    -0.239 NA 
HETATM   18  C   UNL     1     -10.822  10.185  66.911  1.00  0.00    -0.106 C  
ENDROOT
BRANCH  12  19
HETATM   19  O   UNL     1      -6.890   9.273  68.894  1.00  0.00    -0.055 OA 
HETATM   20  C   UNL     1      -5.755   8.434  68.651  1.00  0.00    -0.037 C  
ENDBRANCH  12  19
BRANCH  16  21
HETATM   21  C   UNL     1      -9.911  12.103  65.749  1.00  0.00    -0.245 C  
BRANCH  21  22
HETATM   22  O   UNL     1      -9.710  13.392  66.257  1.00  0.00    -0.280 OA 
BRANCH  22  23
HETATM   23  C   UNL     1     -10.907  13.960  66.549  1.00  0.00    -0.295 C  
HETATM   24  O   UNL     1     -12.001  13.497  66.314  1.00  0.00    -0.370 OA 
BRANCH  23  25
HETATM   25  C   UNL     1     -10.703  15.265  67.141  1.00  0.00    -0.316 A  
HETATM   26  C   UNL     1     -10.756  15.308  68.525  1.00  0.00    -0.247 A  
HETATM   27  N   UNL     1     -10.575  16.441  69.245  1.00  0.00    -0.290 NA 
HETATM   28  C   UNL     1     -10.351  17.570  68.539  1.00  0.00    -0.380 A  
HETATM   29  C   UNL     1     -10.325  17.633  67.140  1.00  0.00    -0.343 A  
HETATM   30  C   UNL     1     -10.509  16.455  66.427  1.00  0.00    -0.288 A  
HETATM   31 BR   UNL     1     -10.025  19.266  66.264  1.00  0.00    -0.503 Br 
ENDBRANCH  23  25
ENDBRANCH  22  23
ENDBRANCH  21  22
ENDBRANCH  16  21
TORSDOF 5
ENDMDL
MODEL       92
REMARK 921   NORMALIZED FREE ENERGY PREDICTED BY IDOCK:   -5.20 KCAL/MOL
REMARK 922        TOTAL FREE ENERGY PREDICTED BY IDOCK:   -7.14 KCAL/MOL
REMARK 923 INTER-LIGAND FREE ENERGY PREDICTED BY IDOCK:   -6.88 KCAL/MOL
REMARK 924 INTRA-LIGAND FREE ENERGY PREDICTED BY IDOCK:   -0.27 KCAL/MOL
REMARK 927      BINDING AFFINITY PREDICTED BY RF-SCORE:    0.00 PKD
ROOT
HETATM    1  C   UNL     1      -9.377   8.435  69.196  1.00  0.00    -0.151 C  
HETATM    2  C   UNL     1     -10.047   9.623  69.878  1.00  0.00    -0.279 C  
HETATM    3  C   UNL     1     -11.043   9.066  70.738  1.00  0.00    -0.328 A  
HETATM    4  C   UNL     1     -12.259   9.546  71.093  1.00  0.00    -0.338 A  
HETATM    5  N   UNL     1     -12.867   8.535  71.783  1.00  0.00    -0.334 NA 
HETATM    6  C   UNL     1     -14.251   8.648  72.183  1.00  0.00    -0.439 C  
HETATM    7  C   UNL     1     -12.013   7.452  71.901  1.00  0.00    -0.302 A  
HETATM    8  C   UNL     1     -12.099   6.200  72.525  1.00  0.00    -0.108 A  
HETATM    9  C   UNL     1     -11.010   5.326  72.347  1.00  0.00    -0.273 A  
HETATM   10  C   UNL     1      -9.880   5.620  71.527  1.00  0.00    -0.213 A  
HETATM   11  C   UNL     1      -9.740   6.854  70.879  1.00  0.00    -0.183 A  
HETATM   12  C   UNL     1      -8.520   7.409  69.955  1.00  0.00    -0.138 C  
HETATM   13  C   UNL     1     -10.845   7.747  71.166  1.00  0.00    -0.254 A  
HETATM   14  C   UNL     1      -7.568   7.144  68.430  1.00  0.00    -0.118 C  
HETATM   15  C   UNL     1     -10.333   6.206  68.188  1.00  0.00    -0.198 C  
HETATM   16  C   UNL     1      -8.055   8.115  67.082  1.00  0.00    -0.116 C  
HETATM   17  N   UNL     1     -10.203   7.703  68.108  1.00  0.00    -0.190 NA 
HETATM   18  C   UNL     1      -9.562   7.988  66.853  1.00  0.00    -0.204 C  
ENDROOT
BRANCH  12  19
HETATM   19  O   UNL     1      -7.559   7.977  70.880  1.00  0.00    -0.073 OA 
HETATM   20  C   UNL     1      -6.622   7.017  71.380  1.00  0.00    -0.048 C  
ENDBRANCH  12  19
BRANCH  16  21
HETATM   21  C   UNL     1      -7.477   8.421  65.701  1.00  0.00    -0.081 C  
BRANCH  21  22
HETATM   22  O   UNL     1      -8.038   9.493  64.997  1.00  0.00    -0.115 OA 
BRANCH  22  23
HETATM   23  C   UNL     1      -7.861  10.643  65.695  1.00  0.00    -0.123 C  
HETATM   24  O   UNL     1      -6.853  10.986  66.272  1.00  0.00    -0.133 OA 
BRANCH  23  25
HETATM   25  C   UNL     1      -9.092  11.403  65.715  1.00  0.00    -0.195 A  
HETATM   26  C   UNL     1      -9.255  12.245  66.802  1.00  0.00    -0.210 A  
HETATM   27  N   UNL     1     -10.339  13.039  66.977  1.00  0.00    -0.246 NA 
HETATM   28  C   UNL     1     -11.296  12.961  66.029  1.00  0.00    -0.317 A  
HETATM   29  C   UNL     1     -11.242  12.107  64.920  1.00  0.00    -0.323 A  
HETATM   30  C   UNL     1     -10.116  11.309  64.764  1.00  0.00    -0.338 A  
HETATM   31 BR   UNL     1     -12.646  12.069  63.675  1.00  0.00    -0.510 Br 
ENDBRANCH  23  25
ENDBRANCH  22  23
ENDBRANCH  21  22
ENDBRANCH  16  21
TORSDOF 5
ENDMDL
MODEL       93
REMARK 921   NORMALIZED FREE ENERGY PREDICTED BY IDOCK:   -5.16 KCAL/MOL
REMARK 922        TOTAL FREE ENERGY PREDICTED BY IDOCK:   -7.10 KCAL/MOL
REMARK 923 INTER-LIGAND FREE ENERGY PREDICTED BY IDOCK:   -6.89 KCAL/MOL
REMARK 924 INTRA-LIGAND FREE ENERGY PREDICTED BY IDOCK:   -0.21 KCAL/MOL
REMARK 927      BINDING AFFINITY PREDICTED BY RF-SCORE:    0.00 PKD
ROOT
HETATM    1  C   UNL     1     -10.736   7.863  69.746  1.00  0.00    -0.233 C  
HETATM    2  C   UNL     1     -11.464   6.696  69.090  1.00  0.00    -0.199 C  
HETATM    3  C   UNL     1     -10.457   5.941  68.413  1.00  0.00    -0.294 A  
HETATM    4  C   UNL     1     -10.521   5.236  67.257  1.00  0.00    -0.173 A  
HETATM    5  N   UNL     1      -9.234   4.868  66.979  1.00  0.00    -0.119 NA 
HETATM    6  C   UNL     1      -8.910   4.228  65.725  1.00  0.00    -0.121 C  
HETATM    7  C   UNL     1      -8.384   5.296  67.983  1.00  0.00    -0.098 A  
HETATM    8  C   UNL     1      -7.010   5.163  68.226  1.00  0.00    -0.061 A  
HETATM    9  C   UNL     1      -6.498   5.826  69.357  1.00  0.00    -0.042 A  
HETATM   10  C   UNL     1      -7.279   6.662  70.211  1.00  0.00    -0.077 A  
HETATM   11  C   UNL     1      -8.656   6.833  70.017  1.00  0.00    -0.141 A  
HETATM   12  C   UNL     1      -9.730   7.684  70.894  1.00  0.00    -0.172 C  
HETATM   13  C   UNL     1      -9.146   6.059  68.892  1.00  0.00    -0.121 A  
HETATM   14  C   UNL     1     -10.187   9.338  71.492  1.00  0.00    -0.338 C  
HETATM   15  C   UNL     1      -8.803   9.435  68.911  1.00  0.00    -0.136 C  
HETATM   16  C   UNL     1     -11.413  10.140  70.570  1.00  0.00    -0.417 C  
HETATM   17  N   UNL     1     -10.236   8.987  68.802  1.00  0.00    -0.203 NA 
HETATM   18  C   UNL     1     -11.044  10.142  69.085  1.00  0.00    -0.212 C  
ENDROOT
BRANCH  12  19
HETATM   19  O   UNL     1     -10.161   6.792  71.953  1.00  0.00    -0.190 OA 
HETATM   20  C   UNL     1      -9.075   6.257  72.718  1.00  0.00    -0.131 C  
ENDBRANCH  12  19
BRANCH  16  21
HETATM   21  C   UNL     1     -12.267  11.393  70.760  1.00  0.00    -0.376 C  
BRANCH  21  22
HETATM   22  O   UNL     1     -12.249  12.340  69.729  1.00  0.00    -0.232 OA 
BRANCH  22  23
HETATM   23  C   UNL     1     -11.984  13.568  70.240  1.00  0.00    -0.316 C  
HETATM   24  O   UNL     1     -12.233  13.950  71.362  1.00  0.00    -0.323 OA 
BRANCH  23  25
HETATM   25  C   UNL     1     -11.406  14.414  69.218  1.00  0.00    -0.319 A  
HETATM   26  C   UNL     1     -11.251  13.825  67.974  1.00  0.00    -0.267 A  
HETATM   27  N   UNL     1     -10.738  14.472  66.900  1.00  0.00    -0.284 NA 
HETATM   28  C   UNL     1     -10.354  15.751  67.099  1.00  0.00    -0.291 A  
HETATM   29  C   UNL     1     -10.428  16.415  68.330  1.00  0.00    -0.302 A  
HETATM   30  C   UNL     1     -10.963  15.729  69.412  1.00  0.00    -0.296 A  
HETATM   31 BR   UNL     1      -9.842  18.191  68.493  1.00  0.00    -0.413 Br 
ENDBRANCH  23  25
ENDBRANCH  22  23
ENDBRANCH  21  22
ENDBRANCH  16  21
TORSDOF 5
ENDMDL
MODEL       94
REMARK 921   NORMALIZED FREE ENERGY PREDICTED BY IDOCK:   -5.16 KCAL/MOL
REMARK 922        TOTAL FREE ENERGY PREDICTED BY IDOCK:   -7.10 KCAL/MOL
REMARK 923 INTER-LIGAND FREE ENERGY PREDICTED BY IDOCK:   -6.85 KCAL/MOL
REMARK 924 INTRA-LIGAND FREE ENERGY PREDICTED BY IDOCK:   -0.25 KCAL/MOL
REMARK 927      BINDING AFFINITY PREDICTED BY RF-SCORE:    0.00 PKD
ROOT
HETATM    1  C   UNL     1      -9.735  11.111  68.287  1.00  0.00    -0.188 C  
HETATM    2  C   UNL     1      -9.774  10.158  69.476  1.00  0.00    -0.251 C  
HETATM    3  C   UNL     1      -9.354   8.889  68.971  1.00  0.00    -0.144 A  
HETATM    4  C   UNL     1      -9.735   7.637  69.324  1.00  0.00    -0.164 A  
HETATM    5  N   UNL     1      -9.164   6.805  68.403  1.00  0.00    -0.125 NA 
HETATM    6  C   UNL     1      -9.488   5.397  68.385  1.00  0.00    -0.123 C  
HETATM    7  C   UNL     1      -8.389   7.530  67.514  1.00  0.00    -0.117 A  
HETATM    8  C   UNL     1      -7.572   7.194  66.427  1.00  0.00    -0.092 A  
HETATM    9  C   UNL     1      -6.995   8.261  65.712  1.00  0.00    -0.067 A  
HETATM   10  C   UNL     1      -7.250   9.636  65.993  1.00  0.00    -0.098 A  
HETATM   11  C   UNL     1      -8.060  10.032  67.066  1.00  0.00    -0.117 A  
HETATM   12  C   UNL     1      -8.430  11.527  67.590  1.00  0.00    -0.135 C  
HETATM   13  C   UNL     1      -8.555   8.897  67.820  1.00  0.00    -0.125 A  
HETATM   14  C   UNL     1      -9.220  13.105  67.154  1.00  0.00    -0.227 C  
HETATM   15  C   UNL     1     -10.448  10.831  65.774  1.00  0.00    -0.188 C  
HETATM   16  C   UNL     1     -10.841  13.298  67.728  1.00  0.00    -0.268 C  
HETATM   17  N   UNL     1     -10.847  10.936  67.221  1.00  0.00    -0.272 NA 
HETATM   18  C   UNL     1     -11.694  12.093  67.326  1.00  0.00    -0.299 C  
ENDROOT
BRANCH  12  19
HETATM   19  O   UNL     1      -7.352  11.905  68.484  1.00  0.00    -0.098 OA 
HETATM   20  C   UNL     1      -6.054  11.764  67.894  1.00  0.00    -0.050 C  
ENDBRANCH  12  19
BRANCH  16  21
HETATM   21  C   UNL     1     -11.830  14.461  67.816  1.00  0.00    -0.368 C  
BRANCH  21  22
HETATM   22  O   UNL     1     -11.391  15.707  67.354  1.00  0.00    -0.281 OA 
BRANCH  22  23
HETATM   23  C   UNL     1     -10.940  16.449  68.397  1.00  0.00    -0.353 C  
HETATM   24  O   UNL     1     -11.257  16.326  69.559  1.00  0.00    -0.323 OA 
BRANCH  23  25
HETATM   25  C   UNL     1     -10.050  17.484  67.917  1.00  0.00    -0.330 A  
HETATM   26  C   UNL     1     -10.265  17.899  66.613  1.00  0.00    -0.371 A  
HETATM   27  N   UNL     1      -9.536  18.866  66.006  1.00  0.00    -0.476 NA 
HETATM   28  C   UNL     1      -8.545  19.416  66.739  1.00  0.00    -0.311 A  
HETATM   29  C   UNL     1      -8.222  19.031  68.046  1.00  0.00    -0.300 A  
HETATM   30  C   UNL     1      -8.990  18.041  68.645  1.00  0.00    -0.278 A  
HETATM   31 BR   UNL     1      -6.805  19.854  68.962  1.00  0.00    -0.313 Br 
ENDBRANCH  23  25
ENDBRANCH  22  23
ENDBRANCH  21  22
ENDBRANCH  16  21
TORSDOF 5
ENDMDL
MODEL       95
REMARK 921   NORMALIZED FREE ENERGY PREDICTED BY IDOCK:   -5.16 KCAL/MOL
REMARK 922        TOTAL FREE ENERGY PREDICTED BY IDOCK:   -7.10 KCAL/MOL
REMARK 923 INTER-LIGAND FREE ENERGY PREDICTED BY IDOCK:   -6.94 KCAL/MOL
REMARK 924 INTRA-LIGAND FREE ENERGY PREDICTED BY IDOCK:   -0.16 KCAL/MOL
REMARK 927      BINDING AFFINITY PREDICTED BY RF-SCORE:    0.00 PKD
ROOT
HETATM    1  C   UNL     1      -9.764  10.165  68.277  1.00  0.00    -0.141 C  
HETATM    2  C   UNL     1     -11.061  10.935  68.496  1.00  0.00    -0.311 C  
HETATM    3  C   UNL     1     -11.287  11.667  67.290  1.00  0.00    -0.372 A  
HETATM    4  C   UNL     1     -11.852  12.884  67.098  1.00  0.00    -0.362 A  
HETATM    5  N   UNL     1     -11.650  13.180  65.779  1.00  0.00    -0.333 NA 
HETATM    6  C   UNL     1     -11.991  14.483  65.259  1.00  0.00    -0.353 C  
HETATM    7  C   UNL     1     -11.010  12.130  65.144  1.00  0.00    -0.310 A  
HETATM    8  C   UNL     1     -10.605  11.884  63.825  1.00  0.00    -0.475 A  
HETATM    9  C   UNL     1      -9.897  10.690  63.590  1.00  0.00    -0.392 A  
HETATM   10  C   UNL     1      -9.523   9.772  64.617  1.00  0.00    -0.295 A  
HETATM   11  C   UNL     1      -9.899   9.966  65.952  1.00  0.00    -0.342 A  
HETATM   12  C   UNL     1      -9.630   9.026  67.253  1.00  0.00    -0.159 C  
HETATM   13  C   UNL     1     -10.699  11.163  66.123  1.00  0.00    -0.285 A  
HETATM   14  C   UNL     1      -8.356   8.283  68.315  1.00  0.00    -0.132 C  
HETATM   15  C   UNL     1      -7.484  10.827  67.152  1.00  0.00    -0.102 C  
HETATM   16  C   UNL     1      -8.031   9.142  69.782  1.00  0.00    -0.098 C  
HETATM   17  N   UNL     1      -8.454  10.994  68.290  1.00  0.00    -0.131 NA 
HETATM   18  C   UNL     1      -7.748  10.615  69.484  1.00  0.00    -0.106 C  
ENDROOT
BRANCH  12  19
HETATM   19  O   UNL     1     -10.711   8.060  67.266  1.00  0.00    -0.300 OA 
HETATM   20  C   UNL     1     -10.346   6.797  66.696  1.00  0.00    -0.149 C  
ENDBRANCH  12  19
BRANCH  16  21
HETATM   21  C   UNL     1      -7.245   8.847  71.060  1.00  0.00    -0.097 C  
BRANCH  21  22
HETATM   22  O   UNL     1      -7.487   7.620  71.688  1.00  0.00    -0.073 OA 
BRANCH  22  23
HETATM   23  C   UNL     1      -8.526   7.743  72.551  1.00  0.00    -0.131 C  
HETATM   24  O   UNL     1      -8.852   8.746  73.147  1.00  0.00    -0.310 OA 
BRANCH  23  25
HETATM   25  C   UNL     1      -9.179   6.463  72.725  1.00  0.00    -0.139 A  
HETATM   26  C   UNL     1     -10.553   6.511  72.887  1.00  0.00    -0.241 A  
HETATM   27  N   UNL     1     -11.326   5.410  73.049  1.00  0.00    -0.308 NA 
HETATM   28  C   UNL     1     -10.681   4.224  73.066  1.00  0.00    -0.192 A  
HETATM   29  C   UNL     1      -9.292   4.079  72.956  1.00  0.00    -0.110 A  
HETATM   30  C   UNL     1      -8.526   5.225  72.786  1.00  0.00    -0.116 A  
HETATM   31 BR   UNL     1      -8.504   2.377  73.014  1.00  0.00    -0.071 Br 
ENDBRANCH  23  25
ENDBRANCH  22  23
ENDBRANCH  21  22
ENDBRANCH  16  21
TORSDOF 5
ENDMDL
MODEL       96
REMARK 921   NORMALIZED FREE ENERGY PREDICTED BY IDOCK:   -5.10 KCAL/MOL
REMARK 922        TOTAL FREE ENERGY PREDICTED BY IDOCK:   -7.02 KCAL/MOL
REMARK 923 INTER-LIGAND FREE ENERGY PREDICTED BY IDOCK:   -6.29 KCAL/MOL
REMARK 924 INTRA-LIGAND FREE ENERGY PREDICTED BY IDOCK:   -0.73 KCAL/MOL
REMARK 927      BINDING AFFINITY PREDICTED BY RF-SCORE:    0.00 PKD
ROOT
HETATM    1  C   UNL     1      -9.023   5.565  68.126  1.00  0.00    -0.108 C  
HETATM    2  C   UNL     1      -8.725   4.312  67.310  1.00  0.00    -0.111 C  
HETATM    3  C   UNL     1      -8.503   4.763  65.973  1.00  0.00    -0.116 A  
HETATM    4  C   UNL     1      -8.788   4.166  64.789  1.00  0.00    -0.135 A  
HETATM    5  N   UNL     1      -8.536   5.108  63.831  1.00  0.00    -0.134 NA 
HETATM    6  C   UNL     1      -8.881   4.861  62.451  1.00  0.00    -0.120 C  
HETATM    7  C   UNL     1      -8.046   6.265  64.412  1.00  0.00    -0.091 A  
HETATM    8  C   UNL     1      -7.598   7.497  63.916  1.00  0.00    -0.114 A  
HETATM    9  C   UNL     1      -7.239   8.472  64.866  1.00  0.00    -0.084 A  
HETATM   10  C   UNL     1      -7.369   8.295  66.275  1.00  0.00    -0.078 A  
HETATM   11  C   UNL     1      -7.812   7.086  66.830  1.00  0.00    -0.107 A  
HETATM   12  C   UNL     1      -7.976   6.659  68.391  1.00  0.00    -0.111 C  
HETATM   13  C   UNL     1      -8.084   6.090  65.812  1.00  0.00    -0.123 A  
HETATM   14  C   UNL     1      -8.827   7.029  69.954  1.00  0.00    -0.142 C  
HETATM   15  C   UNL     1     -10.460   7.705  67.617  1.00  0.00    -0.244 C  
HETATM   16  C   UNL     1     -10.198   6.031  70.298  1.00  0.00    -0.266 C  
HETATM   17  N   UNL     1     -10.406   6.227  67.899  1.00  0.00    -0.169 NA 
HETATM   18  C   UNL     1     -11.158   6.018  69.107  1.00  0.00    -0.335 C  
ENDROOT
BRANCH  12  19
HETATM   19  O   UNL     1      -6.673   6.174  68.802  1.00  0.00    -0.056 OA 
HETATM   20  C   UNL     1      -5.645   7.167  68.705  1.00  0.00    -0.018 C  
ENDBRANCH  12  19
BRANCH  16  21
HETATM   21  C   UNL     1     -11.090   5.796  71.517  1.00  0.00    -0.214 C  
BRANCH  21  22
HETATM   22  O   UNL     1     -12.050   6.773  71.804  1.00  0.00    -0.321 OA 
BRANCH  22  23
HETATM   23  C   UNL     1     -11.473   7.798  72.480  1.00  0.00    -0.373 C  
HETATM   24  O   UNL     1     -10.824   7.714  73.499  1.00  0.00    -0.340 OA 
BRANCH  23  25
HETATM   25  C   UNL     1     -11.797   9.056  71.841  1.00  0.00    -0.447 A  
HETATM   26  C   UNL     1     -12.898   9.720  72.357  1.00  0.00    -0.187 A  
HETATM   27  N   UNL     1     -13.337  10.913  71.890  1.00  0.00    -0.393 NA 
HETATM   28  C   UNL     1     -12.648  11.441  70.855  1.00  0.00    -0.356 A  
HETATM   29  C   UNL     1     -11.553  10.823  70.239  1.00  0.00    -0.338 A  
HETATM   30  C   UNL     1     -11.122   9.602  70.742  1.00  0.00    -0.403 A  
HETATM   31 BR   UNL     1     -10.685  11.643  68.791  1.00  0.00    -0.261 Br 
ENDBRANCH  23  25
ENDBRANCH  22  23
ENDBRANCH  21  22
ENDBRANCH  16  21
TORSDOF 5
ENDMDL
MODEL       97
REMARK 921   NORMALIZED FREE ENERGY PREDICTED BY IDOCK:   -5.09 KCAL/MOL
REMARK 922        TOTAL FREE ENERGY PREDICTED BY IDOCK:   -7.01 KCAL/MOL
REMARK 923 INTER-LIGAND FREE ENERGY PREDICTED BY IDOCK:   -6.83 KCAL/MOL
REMARK 924 INTRA-LIGAND FREE ENERGY PREDICTED BY IDOCK:   -0.17 KCAL/MOL
REMARK 927      BINDING AFFINITY PREDICTED BY RF-SCORE:    0.00 PKD
ROOT
HETATM    1  C   UNL     1      -8.924   7.491  68.086  1.00  0.00    -0.129 C  
HETATM    2  C   UNL     1      -8.427   7.510  69.528  1.00  0.00    -0.132 C  
HETATM    3  C   UNL     1      -8.763   6.232  70.071  1.00  0.00    -0.141 A  
HETATM    4  C   UNL     1      -9.125   5.883  71.330  1.00  0.00    -0.140 A  
HETATM    5  N   UNL     1      -9.509   4.573  71.254  1.00  0.00    -0.148 NA 
HETATM    6  C   UNL     1     -10.106   3.917  72.393  1.00  0.00    -0.167 C  
HETATM    7  C   UNL     1      -9.335   4.096  69.967  1.00  0.00    -0.167 A  
HETATM    8  C   UNL     1      -9.523   2.851  69.350  1.00  0.00    -0.158 A  
HETATM    9  C   UNL     1      -9.296   2.790  67.962  1.00  0.00    -0.257 A  
HETATM   10  C   UNL     1      -8.959   3.920  67.160  1.00  0.00    -0.152 A  
HETATM   11  C   UNL     1      -8.759   5.189  67.720  1.00  0.00    -0.103 A  
HETATM   12  C   UNL     1      -8.319   6.582  67.005  1.00  0.00    -0.113 C  
HETATM   13  C   UNL     1      -8.919   5.177  69.162  1.00  0.00    -0.125 A  
HETATM   14  C   UNL     1      -8.779   7.829  65.765  1.00  0.00    -0.160 C  
HETATM   15  C   UNL     1     -11.122   6.564  66.987  1.00  0.00    -0.339 C  
HETATM   16  C   UNL     1      -9.540   9.249  66.399  1.00  0.00    -0.301 C  
HETATM   17  N   UNL     1     -10.458   7.576  67.881  1.00  0.00    -0.210 NA 
HETATM   18  C   UNL     1     -10.717   8.865  67.297  1.00  0.00    -0.149 C  
ENDROOT
BRANCH  12  19
HETATM   19  O   UNL     1      -6.870   6.559  66.964  1.00  0.00    -0.061 OA 
HETATM   20  C   UNL     1      -6.346   5.538  66.106  1.00  0.00    -0.035 C  
ENDBRANCH  12  19
BRANCH  16  21
HETATM   21  C   UNL     1      -9.911  10.622  65.839  1.00  0.00    -0.255 C  
BRANCH  21  22
HETATM   22  O   UNL     1     -11.008  11.272  66.418  1.00  0.00    -0.279 OA 
BRANCH  22  23
HETATM   23  C   UNL     1     -11.173  12.490  65.844  1.00  0.00    -0.320 C  
HETATM   24  O   UNL     1     -11.152  12.737  64.659  1.00  0.00    -0.294 OA 
BRANCH  23  25
HETATM   25  C   UNL     1     -11.318  13.502  66.868  1.00  0.00    -0.350 A  
HETATM   26  C   UNL     1     -10.887  14.772  66.519  1.00  0.00    -0.319 A  
HETATM   27  N   UNL     1     -10.959  15.840  67.348  1.00  0.00    -0.308 NA 
HETATM   28  C   UNL     1     -11.467  15.611  68.577  1.00  0.00    -0.375 A  
HETATM   29  C   UNL     1     -11.885  14.355  69.037  1.00  0.00    -0.323 A  
HETATM   30  C   UNL     1     -11.805  13.278  68.163  1.00  0.00    -0.388 A  
HETATM   31 BR   UNL     1     -12.557  14.151  70.778  1.00  0.00    -0.435 Br 
ENDBRANCH  23  25
ENDBRANCH  22  23
ENDBRANCH  21  22
ENDBRANCH  16  21
TORSDOF 5
ENDMDL
MODEL       98
REMARK 921   NORMALIZED FREE ENERGY PREDICTED BY IDOCK:   -5.08 KCAL/MOL
REMARK 922        TOTAL FREE ENERGY PREDICTED BY IDOCK:   -7.00 KCAL/MOL
REMARK 923 INTER-LIGAND FREE ENERGY PREDICTED BY IDOCK:   -7.58 KCAL/MOL
REMARK 924 INTRA-LIGAND FREE ENERGY PREDICTED BY IDOCK:    0.58 KCAL/MOL
REMARK 927      BINDING AFFINITY PREDICTED BY RF-SCORE:    0.00 PKD
ROOT
HETATM    1  C   UNL     1     -11.472   7.525  70.570  1.00  0.00    -0.237 C  
HETATM    2  C   UNL     1     -11.574   6.602  69.362  1.00  0.00    -0.210 C  
HETATM    3  C   UNL     1     -10.718   5.494  69.646  1.00  0.00    -0.349 A  
HETATM    4  C   UNL     1      -9.962   4.736  68.815  1.00  0.00    -0.112 A  
HETATM    5  N   UNL     1      -9.206   3.939  69.629  1.00  0.00    -0.134 NA 
HETATM    6  C   UNL     1      -8.165   3.104  69.076  1.00  0.00    -0.059 C  
HETATM    7  C   UNL     1      -9.529   4.163  70.956  1.00  0.00    -0.163 A  
HETATM    8  C   UNL     1      -9.106   3.612  72.173  1.00  0.00    -0.151 A  
HETATM    9  C   UNL     1      -9.638   4.181  73.346  1.00  0.00    -0.137 A  
HETATM   10  C   UNL     1     -10.512   5.308  73.358  1.00  0.00    -0.270 A  
HETATM   11  C   UNL     1     -10.966   5.902  72.173  1.00  0.00    -0.317 A  
HETATM   12  C   UNL     1     -11.998   7.142  71.963  1.00  0.00    -0.295 C  
HETATM   13  C   UNL     1     -10.459   5.222  70.996  1.00  0.00    -0.274 A  
HETATM   14  C   UNL     1     -12.290   8.907  72.287  1.00  0.00    -0.430 C  
HETATM   15  C   UNL     1      -9.438   8.281  72.050  1.00  0.00    -0.236 C  
HETATM   16  C   UNL     1     -11.899   9.969  70.977  1.00  0.00    -0.476 C  
HETATM   17  N   UNL     1     -10.151   8.321  70.726  1.00  0.00    -0.189 NA 
HETATM   18  C   UNL     1     -10.477   9.700  70.482  1.00  0.00    -0.303 C  
ENDROOT
BRANCH  12  19
HETATM   19  O   UNL     1     -13.323   6.554  71.978  1.00  0.00    -0.150 OA 
HETATM   20  C   UNL     1     -14.338   7.437  71.486  1.00  0.00    -0.440 C  
ENDBRANCH  12  19
BRANCH  16  21
HETATM   21  C   UNL     1     -12.145  11.445  70.668  1.00  0.00    -0.372 C  
BRANCH  21  22
HETATM   22  O   UNL     1     -12.120  11.828  69.322  1.00  0.00    -0.292 OA 
BRANCH  22  23
HETATM   23  C   UNL     1     -11.702  13.115  69.219  1.00  0.00    -0.321 C  
HETATM   24  O   UNL     1     -12.287  14.096  69.620  1.00  0.00    -0.326 OA 
BRANCH  23  25
HETATM   25  C   UNL     1     -10.455  13.172  68.487  1.00  0.00    -0.262 A  
HETATM   26  C   UNL     1     -10.083  12.000  67.849  1.00  0.00    -0.195 A  
HETATM   27  N   UNL     1      -8.955  11.877  67.109  1.00  0.00    -0.172 NA 
HETATM   28  C   UNL     1      -8.169  12.972  67.030  1.00  0.00    -0.062 A  
HETATM   29  C   UNL     1      -8.438  14.185  67.677  1.00  0.00    -0.185 A  
HETATM   30  C   UNL     1      -9.604  14.284  68.424  1.00  0.00    -0.221 A  
HETATM   31 BR   UNL     1      -7.259  15.636  67.510  1.00  0.00    -0.240 Br 
ENDBRANCH  23  25
ENDBRANCH  22  23
ENDBRANCH  21  22
ENDBRANCH  16  21
TORSDOF 5
ENDMDL
MODEL       99
REMARK 921   NORMALIZED FREE ENERGY PREDICTED BY IDOCK:   -5.07 KCAL/MOL
REMARK 922        TOTAL FREE ENERGY PREDICTED BY IDOCK:   -6.98 KCAL/MOL
REMARK 923 INTER-LIGAND FREE ENERGY PREDICTED BY IDOCK:   -7.02 KCAL/MOL
REMARK 924 INTRA-LIGAND FREE ENERGY PREDICTED BY IDOCK:    0.04 KCAL/MOL
REMARK 927      BINDING AFFINITY PREDICTED BY RF-SCORE:    0.00 PKD
ROOT
HETATM    1  C   UNL     1      -9.315   9.926  67.422  1.00  0.00    -0.137 C  
HETATM    2  C   UNL     1      -9.620   8.981  66.265  1.00  0.00    -0.327 C  
HETATM    3  C   UNL     1      -9.961   7.730  66.866  1.00  0.00    -0.331 A  
HETATM    4  C   UNL     1      -9.741   6.464  66.435  1.00  0.00    -0.089 A  
HETATM    5  N   UNL     1     -10.105   5.653  67.474  1.00  0.00    -0.158 NA 
HETATM    6  C   UNL     1      -9.854   4.232  67.417  1.00  0.00    -0.126 C  
HETATM    7  C   UNL     1     -10.596   6.409  68.524  1.00  0.00    -0.252 A  
HETATM    8  C   UNL     1     -11.132   6.104  69.783  1.00  0.00    -0.486 A  
HETATM    9  C   UNL     1     -11.460   7.193  70.613  1.00  0.00    -0.346 A  
HETATM   10  C   UNL     1     -11.216   8.557  70.271  1.00  0.00    -0.185 A  
HETATM   11  C   UNL     1     -10.682   8.921  69.028  1.00  0.00    -0.148 A  
HETATM   12  C   UNL     1     -10.383  10.400  68.420  1.00  0.00    -0.174 C  
HETATM   13  C   UNL     1     -10.446   7.769  68.180  1.00  0.00    -0.230 A  
HETATM   14  C   UNL     1      -9.433  11.934  68.637  1.00  0.00    -0.087 C  
HETATM   15  C   UNL     1      -8.011   9.595  69.678  1.00  0.00    -0.137 C  
HETATM   16  C   UNL     1      -7.999  12.053  67.675  1.00  0.00    -0.150 C  
HETATM   17  N   UNL     1      -7.981   9.690  68.177  1.00  0.00    -0.100 NA 
HETATM   18  C   UNL     1      -7.133  10.806  67.858  1.00  0.00    -0.085 C  
ENDROOT
BRANCH  12  19
HETATM   19  O   UNL     1     -11.630  10.836  67.822  1.00  0.00    -0.521 OA 
HETATM   20  C   UNL     1     -11.449  11.793  66.773  1.00  0.00    -0.281 C  
ENDBRANCH  12  19
BRANCH  16  21
HETATM   21  C   UNL     1      -7.009  13.167  67.337  1.00  0.00    -0.107 C  
BRANCH  21  22
HETATM   22  O   UNL     1      -7.022  14.303  68.156  1.00  0.00    -0.101 OA 
BRANCH  22  23
HETATM   23  C   UNL     1      -7.669  15.315  67.525  1.00  0.00    -0.176 C  
HETATM   24  O   UNL     1      -7.188  16.095  66.734  1.00  0.00    -0.214 OA 
BRANCH  23  25
HETATM   25  C   UNL     1      -9.040  15.386  67.984  1.00  0.00    -0.175 A  
HETATM   26  C   UNL     1     -10.003  15.383  66.988  1.00  0.00    -0.238 A  
HETATM   27  N   UNL     1     -11.334  15.432  67.236  1.00  0.00    -0.273 NA 
HETATM   28  C   UNL     1     -11.699  15.506  68.534  1.00  0.00    -0.337 A  
HETATM   29  C   UNL     1     -10.798  15.562  69.605  1.00  0.00    -0.283 A  
HETATM   30  C   UNL     1      -9.440  15.504  69.322  1.00  0.00    -0.263 A  
HETATM   31 BR   UNL     1     -11.422  15.685  71.371  1.00  0.00    -0.500 Br 
ENDBRANCH  23  25
ENDBRANCH  22  23
ENDBRANCH  21  22
ENDBRANCH  16  21
TORSDOF 5
ENDMDL
MODEL      100
REMARK 921   NORMALIZED FREE ENERGY PREDICTED BY IDOCK:   -5.04 KCAL/MOL
REMARK 922        TOTAL FREE ENERGY PREDICTED BY IDOCK:   -6.94 KCAL/MOL
REMARK 923 INTER-LIGAND FREE ENERGY PREDICTED BY IDOCK:   -6.95 KCAL/MOL
REMARK 924 INTRA-LIGAND FREE ENERGY PREDICTED BY IDOCK:    0.01 KCAL/MOL
REMARK 927      BINDING AFFINITY PREDICTED BY RF-SCORE:    0.00 PKD
ROOT
HETATM    1  C   UNL     1      -9.894  11.832  67.769  1.00  0.00    -0.181 C  
HETATM    2  C   UNL     1      -9.914  13.146  68.542  1.00  0.00    -0.182 C  
HETATM    3  C   UNL     1     -10.317  14.144  67.603  1.00  0.00    -0.241 A  
HETATM    4  C   UNL     1      -9.959  15.448  67.503  1.00  0.00    -0.226 A  
HETATM    5  N   UNL     1     -10.493  15.887  66.324  1.00  0.00    -0.309 NA 
HETATM    6  C   UNL     1     -10.175  17.203  65.821  1.00  0.00    -0.219 C  
HETATM    7  C   UNL     1     -11.223  14.878  65.721  1.00  0.00    -0.334 A  
HETATM    8  C   UNL     1     -11.992  14.789  64.553  1.00  0.00    -0.451 A  
HETATM    9  C   UNL     1     -12.531  13.526  64.242  1.00  0.00    -0.311 A  
HETATM   10  C   UNL     1     -12.281  12.345  65.003  1.00  0.00    -0.465 A  
HETATM   11  C   UNL     1     -11.519  12.373  66.178  1.00  0.00    -0.430 A  
HETATM   12  C   UNL     1     -11.165  11.169  67.214  1.00  0.00    -0.277 C  
HETATM   13  C   UNL     1     -11.064  13.711  66.499  1.00  0.00    -0.310 A  
HETATM   14  C   UNL     1     -10.347   9.556  67.399  1.00  0.00    -0.319 C  
HETATM   15  C   UNL     1      -9.070  11.217  65.351  1.00  0.00    -0.147 C  
HETATM   16  C   UNL     1      -8.752   9.613  68.068  1.00  0.00    -0.119 C  
HETATM   17  N   UNL     1      -8.736  11.642  66.756  1.00  0.00    -0.184 NA 
HETATM   18  C   UNL     1      -7.889  10.614  67.299  1.00  0.00    -0.112 C  
ENDROOT
BRANCH  12  19
HETATM   19  O   UNL     1     -12.280  11.110  68.139  1.00  0.00    -0.612 OA 
HETATM   20  C   UNL     1     -11.873  10.993  69.507  1.00  0.00    -0.333 C  
ENDBRANCH  12  19
BRANCH  16  21
HETATM   21  C   UNL     1      -7.763   8.578  68.603  1.00  0.00    -0.103 C  
BRANCH  21  22
HETATM   22  O   UNL     1      -7.235   7.665  67.684  1.00  0.00    -0.082 OA 
BRANCH  22  23
HETATM   23  C   UNL     1      -8.120   6.658  67.477  1.00  0.00    -0.118 C  
HETATM   24  O   UNL     1      -8.746   6.064  68.327  1.00  0.00    -0.114 OA 
BRANCH  23  25
HETATM   25  C   UNL     1      -8.175   6.330  66.069  1.00  0.00    -0.125 A  
HETATM   26  C   UNL     1      -7.878   7.369  65.202  1.00  0.00    -0.123 A  
HETATM   27  N   UNL     1      -7.869   7.238  63.854  1.00  0.00    -0.125 NA 
HETATM   28  C   UNL     1      -8.189   6.020  63.369  1.00  0.00    -0.028 A  
HETATM   29  C   UNL     1      -8.548   4.923  64.163  1.00  0.00    -0.135 A  
HETATM   30  C   UNL     1      -8.544   5.085  65.542  1.00  0.00    -0.139 A  
HETATM   31 BR   UNL     1      -8.996   3.280  63.374  1.00  0.00    -0.093 Br 
ENDBRANCH  23  25
ENDBRANCH  22  23
ENDBRANCH  21  22
ENDBRANCH  16  21
TORSDOF 5
ENDMDL
MODEL      101
REMARK 921   NORMALIZED FREE ENERGY PREDICTED BY IDOCK:   -4.99 KCAL/MOL
REMARK 922        TOTAL FREE ENERGY PREDICTED BY IDOCK:   -6.89 KCAL/MOL
REMARK 923 INTER-LIGAND FREE ENERGY PREDICTED BY IDOCK:   -6.74 KCAL/MOL
REMARK 924 INTRA-LIGAND FREE ENERGY PREDICTED BY IDOCK:   -0.14 KCAL/MOL
REMARK 927      BINDING AFFINITY PREDICTED BY RF-SCORE:    0.00 PKD
ROOT
HETATM    1  C   UNL     1      -9.751  10.679  67.191  1.00  0.00    -0.171 C  
HETATM    2  C   UNL     1     -10.004  10.260  65.747  1.00  0.00    -0.337 C  
HETATM    3  C   UNL     1     -10.424  11.444  65.067  1.00  0.00    -0.361 A  
HETATM    4  C   UNL     1     -11.303  11.603  64.047  1.00  0.00    -0.345 A  
HETATM    5  N   UNL     1     -11.468  12.953  63.909  1.00  0.00    -0.418 NA 
HETATM    6  C   UNL     1     -12.464  13.481  63.007  1.00  0.00     0.444 C  
HETATM    7  C   UNL     1     -10.656  13.630  64.802  1.00  0.00    -0.422 A  
HETATM    8  C   UNL     1     -10.399  14.983  65.060  1.00  0.00    -0.390 A  
HETATM    9  C   UNL     1      -9.535  15.272  66.134  1.00  0.00    -0.361 A  
HETATM   10  C   UNL     1      -8.975  14.280  66.993  1.00  0.00    -0.251 A  
HETATM   11  C   UNL     1      -9.197  12.912  66.784  1.00  0.00    -0.230 A  
HETATM   12  C   UNL     1      -8.615  11.630  67.600  1.00  0.00    -0.142 C  
HETATM   13  C   UNL     1     -10.020  12.668  65.616  1.00  0.00    -0.253 A  
HETATM   14  C   UNL     1      -8.556  10.793  69.211  1.00  0.00    -0.047 C  
HETATM   15  C   UNL     1     -11.055  12.273  68.823  1.00  0.00    -0.251 C  
HETATM   16  C   UNL     1      -9.668   9.479  69.398  1.00  0.00    -0.190 C  
HETATM   17  N   UNL     1     -11.003  10.979  68.055  1.00  0.00    -0.236 NA 
HETATM   18  C   UNL     1     -11.084   9.925  69.030  1.00  0.00    -0.146 C  
ENDROOT
BRANCH  12  19
HETATM   19  O   UNL     1      -7.327  11.340  67.001  1.00  0.00    -0.120 OA 
HETATM   20  C   UNL     1      -6.365  12.381  67.200  1.00  0.00    -0.089 C  
ENDBRANCH  12  19
BRANCH  16  21
HETATM   21  C   UNL     1      -9.867   8.365  70.425  1.00  0.00    -0.181 C  
BRANCH  21  22
HETATM   22  O   UNL     1      -9.978   8.745  71.767  1.00  0.00    -0.272 OA 
BRANCH  22  23
HETATM   23  C   UNL     1     -10.986   8.056  72.357  1.00  0.00    -0.338 C  
HETATM   24  O   UNL     1     -12.120   8.445  72.530  1.00  0.00    -0.393 OA 
BRANCH  23  25
HETATM   25  C   UNL     1     -10.500   6.777  72.828  1.00  0.00    -0.247 A  
HETATM   26  C   UNL     1     -11.399   5.727  72.737  1.00  0.00    -0.282 A  
HETATM   27  N   UNL     1     -11.110   4.460  73.119  1.00  0.00    -0.246 NA 
HETATM   28  C   UNL     1      -9.876   4.255  73.627  1.00  0.00    -0.122 A  
HETATM   29  C   UNL     1      -8.917   5.261  73.801  1.00  0.00    -0.123 A  
HETATM   30  C   UNL     1      -9.240   6.550  73.395  1.00  0.00    -0.145 A  
HETATM   31 BR   UNL     1      -7.238   4.862  74.539  1.00  0.00    -0.078 Br 
ENDBRANCH  23  25
ENDBRANCH  22  23
ENDBRANCH  21  22
ENDBRANCH  16  21
TORSDOF 5
ENDMDL
MODEL      102
REMARK 921   NORMALIZED FREE ENERGY PREDICTED BY IDOCK:   -4.99 KCAL/MOL
REMARK 922        TOTAL FREE ENERGY PREDICTED BY IDOCK:   -6.88 KCAL/MOL
REMARK 923 INTER-LIGAND FREE ENERGY PREDICTED BY IDOCK:   -6.71 KCAL/MOL
REMARK 924 INTRA-LIGAND FREE ENERGY PREDICTED BY IDOCK:   -0.17 KCAL/MOL
REMARK 927      BINDING AFFINITY PREDICTED BY RF-SCORE:    0.00 PKD
ROOT
HETATM    1  C   UNL     1     -10.812  10.007  68.304  1.00  0.00    -0.241 C  
HETATM    2  C   UNL     1     -11.898  11.063  68.137  1.00  0.00    -0.195 C  
HETATM    3  C   UNL     1     -11.235  12.324  68.253  1.00  0.00    -0.315 A  
HETATM    4  C   UNL     1     -11.672  13.498  68.772  1.00  0.00    -0.337 A  
HETATM    5  N   UNL     1     -10.579  14.318  68.798  1.00  0.00    -0.248 NA 
HETATM    6  C   UNL     1     -10.648  15.611  69.439  1.00  0.00    -0.253 C  
HETATM    7  C   UNL     1      -9.483  13.676  68.250  1.00  0.00    -0.213 A  
HETATM    8  C   UNL     1      -8.156  14.049  67.995  1.00  0.00    -0.152 A  
HETATM    9  C   UNL     1      -7.305  13.053  67.477  1.00  0.00    -0.154 A  
HETATM   10  C   UNL     1      -7.701  11.699  67.269  1.00  0.00    -0.154 A  
HETATM   11  C   UNL     1      -9.013  11.268  67.507  1.00  0.00    -0.140 A  
HETATM   12  C   UNL     1      -9.680   9.801  67.284  1.00  0.00    -0.169 C  
HETATM   13  C   UNL     1      -9.867  12.351  67.954  1.00  0.00    -0.202 A  
HETATM   14  C   UNL     1      -9.625   8.051  67.769  1.00  0.00    -0.179 C  
HETATM   15  C   UNL     1      -8.757   9.827  69.931  1.00  0.00    -0.217 C  
HETATM   16  C   UNL     1     -10.781   7.583  68.969  1.00  0.00    -0.148 C  
HETATM   17  N   UNL     1     -10.249   9.812  69.735  1.00  0.00    -0.225 NA 
HETATM   18  C   UNL     1     -10.702   8.520  70.175  1.00  0.00    -0.235 C  
ENDROOT
BRANCH  12  19
HETATM   19  O   UNL     1     -10.103   9.772  65.897  1.00  0.00    -0.282 OA 
HETATM   20  C   UNL     1      -9.057  10.114  64.981  1.00  0.00    -0.205 C  
ENDBRANCH  12  19
BRANCH  16  21
HETATM   21  C   UNL     1     -11.273   6.254  69.541  1.00  0.00    -0.430 C  
BRANCH  21  22
HETATM   22  O   UNL     1     -10.383   5.174  69.504  1.00  0.00    -0.251 OA 
BRANCH  22  23
HETATM   23  C   UNL     1      -9.420   5.342  70.444  1.00  0.00    -0.166 C  
HETATM   24  O   UNL     1      -8.299   5.761  70.260  1.00  0.00    -0.113 OA 
BRANCH  23  25
HETATM   25  C   UNL     1      -9.898   4.878  71.729  1.00  0.00    -0.240 A  
HETATM   26  C   UNL     1      -9.918   5.828  72.736  1.00  0.00    -0.176 A  
HETATM   27  N   UNL     1     -10.346   5.572  73.996  1.00  0.00    -0.253 NA 
HETATM   28  C   UNL     1     -10.749   4.308  74.246  1.00  0.00    -0.208 A  
HETATM   29  C   UNL     1     -10.720   3.270  73.306  1.00  0.00    -0.189 A  
HETATM   30  C   UNL     1     -10.282   3.562  72.021  1.00  0.00    -0.130 A  
HETATM   31 BR   UNL     1     -11.286   1.543  73.775  1.00  0.00    -0.282 Br 
ENDBRANCH  23  25
ENDBRANCH  22  23
ENDBRANCH  21  22
ENDBRANCH  16  21
TORSDOF 5
ENDMDL
MODEL      103
REMARK 921   NORMALIZED FREE ENERGY PREDICTED BY IDOCK:   -4.98 KCAL/MOL
REMARK 922        TOTAL FREE ENERGY PREDICTED BY IDOCK:   -6.87 KCAL/MOL
REMARK 923 INTER-LIGAND FREE ENERGY PREDICTED BY IDOCK:   -7.28 KCAL/MOL
REMARK 924 INTRA-LIGAND FREE ENERGY PREDICTED BY IDOCK:    0.41 KCAL/MOL
REMARK 927      BINDING AFFINITY PREDICTED BY RF-SCORE:    0.00 PKD
ROOT
HETATM    1  C   UNL     1      -9.907   9.825  66.484  1.00  0.00    -0.225 C  
HETATM    2  C   UNL     1     -10.779   8.771  67.158  1.00  0.00    -0.204 C  
HETATM    3  C   UNL     1     -10.142   7.519  66.900  1.00  0.00    -0.336 A  
HETATM    4  C   UNL     1     -10.677   6.289  66.700  1.00  0.00    -0.216 A  
HETATM    5  N   UNL     1      -9.635   5.491  66.319  1.00  0.00    -0.156 NA 
HETATM    6  C   UNL     1      -9.873   4.138  65.872  1.00  0.00    -0.199 C  
HETATM    7  C   UNL     1      -8.451   6.208  66.332  1.00  0.00    -0.123 A  
HETATM    8  C   UNL     1      -7.111   5.889  66.076  1.00  0.00    -0.074 A  
HETATM    9  C   UNL     1      -6.185   6.948  66.127  1.00  0.00    -0.042 A  
HETATM   10  C   UNL     1      -6.546   8.310  66.354  1.00  0.00    -0.055 A  
HETATM   11  C   UNL     1      -7.870   8.688  66.615  1.00  0.00    -0.097 A  
HETATM   12  C   UNL     1      -8.482  10.157  66.954  1.00  0.00    -0.126 C  
HETATM   13  C   UNL     1      -8.766   7.548  66.638  1.00  0.00    -0.146 A  
HETATM   14  C   UNL     1      -8.722  11.849  66.335  1.00  0.00    -0.118 C  
HETATM   15  C   UNL     1      -8.664   9.875  64.170  1.00  0.00    -0.206 C  
HETATM   16  C   UNL     1     -10.279  12.167  65.651  1.00  0.00    -0.285 C  
HETATM   17  N   UNL     1      -9.959   9.882  64.936  1.00  0.00    -0.242 NA 
HETATM   18  C   UNL     1     -10.623  11.113  64.598  1.00  0.00    -0.318 C  
ENDROOT
BRANCH  12  19
HETATM   19  O   UNL     1      -8.331  10.321  68.387  1.00  0.00    -0.112 OA 
HETATM   20  C   UNL     1      -9.550  10.686  69.044  1.00  0.00    -0.195 C  
ENDBRANCH  12  19
BRANCH  16  21
HETATM   21  C   UNL     1     -11.032  13.421  65.204  1.00  0.00    -0.303 C  
BRANCH  21  22
HETATM   22  O   UNL     1     -10.297  14.400  64.527  1.00  0.00    -0.314 OA 
BRANCH  22  23
HETATM   23  C   UNL     1     -10.596  15.625  65.027  1.00  0.00    -0.396 C  
HETATM   24  O   UNL     1     -11.159  16.524  64.441  1.00  0.00    -0.894 OA 
BRANCH  23  25
HETATM   25  C   UNL     1     -10.082  15.749  66.373  1.00  0.00    -0.305 A  
HETATM   26  C   UNL     1      -8.722  15.993  66.473  1.00  0.00    -0.303 A  
HETATM   27  N   UNL     1      -8.074  16.149  67.653  1.00  0.00    -0.144 NA 
HETATM   28  C   UNL     1      -8.827  16.035  68.767  1.00  0.00    -0.227 A  
HETATM   29  C   UNL     1     -10.197  15.744  68.769  1.00  0.00    -0.217 A  
HETATM   30  C   UNL     1     -10.836  15.594  67.544  1.00  0.00    -0.316 A  
HETATM   31 BR   UNL     1     -11.138  15.588  70.385  1.00  0.00    -0.384 Br 
ENDBRANCH  23  25
ENDBRANCH  22  23
ENDBRANCH  21  22
ENDBRANCH  16  21
TORSDOF 5
ENDMDL
MODEL      104
REMARK 921   NORMALIZED FREE ENERGY PREDICTED BY IDOCK:   -4.98 KCAL/MOL
REMARK 922        TOTAL FREE ENERGY PREDICTED BY IDOCK:   -6.86 KCAL/MOL
REMARK 923 INTER-LIGAND FREE ENERGY PREDICTED BY IDOCK:   -6.51 KCAL/MOL
REMARK 924 INTRA-LIGAND FREE ENERGY PREDICTED BY IDOCK:   -0.35 KCAL/MOL
REMARK 927      BINDING AFFINITY PREDICTED BY RF-SCORE:    0.00 PKD
ROOT
HETATM    1  C   UNL     1      -9.027  11.140  66.639  1.00  0.00    -0.170 C  
HETATM    2  C   UNL     1      -7.719  11.669  67.217  1.00  0.00    -0.154 C  
HETATM    3  C   UNL     1      -7.144  10.579  67.939  1.00  0.00    -0.083 A  
HETATM    4  C   UNL     1      -6.398  10.575  69.070  1.00  0.00    -0.045 A  
HETATM    5  N   UNL     1      -6.269   9.260  69.423  1.00  0.00    -0.040 NA 
HETATM    6  C   UNL     1      -5.657   8.895  70.679  1.00  0.00    -0.028 C  
HETATM    7  C   UNL     1      -6.888   8.450  68.487  1.00  0.00    -0.064 A  
HETATM    8  C   UNL     1      -7.027   7.064  68.332  1.00  0.00    -0.076 A  
HETATM    9  C   UNL     1      -7.816   6.622  67.253  1.00  0.00    -0.112 A  
HETATM   10  C   UNL     1      -8.520   7.496  66.372  1.00  0.00    -0.131 A  
HETATM   11  C   UNL     1      -8.420   8.889  66.480  1.00  0.00    -0.124 A  
HETATM   12  C   UNL     1      -9.084  10.052  65.555  1.00  0.00    -0.186 C  
HETATM   13  C   UNL     1      -7.526   9.288  67.550  1.00  0.00    -0.088 A  
HETATM   14  C   UNL     1     -10.643  10.781  64.971  1.00  0.00    -0.243 C  
HETATM   15  C   UNL     1     -10.904   9.597  67.638  1.00  0.00    -0.212 C  
HETATM   16  C   UNL     1     -11.163  12.190  65.831  1.00  0.00    -0.384 C  
HETATM   17  N   UNL     1     -10.189  10.922  67.641  1.00  0.00    -0.178 NA 
HETATM   18  C   UNL     1     -11.180  11.918  67.335  1.00  0.00    -0.305 C  
ENDROOT
BRANCH  12  19
HETATM   19  O   UNL     1      -8.166  10.241  64.448  1.00  0.00    -0.163 OA 
HETATM   20  C   UNL     1      -8.237   9.196  63.472  1.00  0.00    -0.178 C  
ENDBRANCH  12  19
BRANCH  16  21
HETATM   21  C   UNL     1     -12.237  13.256  65.617  1.00  0.00    -0.462 C  
BRANCH  21  22
HETATM   22  O   UNL     1     -12.118  14.439  66.354  1.00  0.00    -0.414 OA 
BRANCH  22  23
HETATM   23  C   UNL     1     -11.256  15.282  65.731  1.00  0.00    -0.247 C  
HETATM   24  O   UNL     1     -10.980  15.288  64.552  1.00  0.00    -0.334 OA 
BRANCH  23  25
HETATM   25  C   UNL     1     -10.639  16.162  66.701  1.00  0.00    -0.274 A  
HETATM   26  C   UNL     1     -10.675  15.722  68.014  1.00  0.00    -0.296 A  
HETATM   27  N   UNL     1     -10.136  16.412  69.048  1.00  0.00    -0.248 NA 
HETATM   28  C   UNL     1      -9.559  17.593  68.743  1.00  0.00    -0.280 A  
HETATM   29  C   UNL     1      -9.515  18.141  67.454  1.00  0.00    -0.255 A  
HETATM   30  C   UNL     1     -10.071  17.410  66.413  1.00  0.00    -0.330 A  
HETATM   31 BR   UNL     1      -8.702  19.806  67.153  1.00  0.00    -0.407 Br 
ENDBRANCH  23  25
ENDBRANCH  22  23
ENDBRANCH  21  22
ENDBRANCH  16  21
TORSDOF 5
ENDMDL
MODEL      105
REMARK 921   NORMALIZED FREE ENERGY PREDICTED BY IDOCK:   -4.96 KCAL/MOL
REMARK 922        TOTAL FREE ENERGY PREDICTED BY IDOCK:   -6.84 KCAL/MOL
REMARK 923 INTER-LIGAND FREE ENERGY PREDICTED BY IDOCK:   -6.68 KCAL/MOL
REMARK 924 INTRA-LIGAND FREE ENERGY PREDICTED BY IDOCK:   -0.16 KCAL/MOL
REMARK 927      BINDING AFFINITY PREDICTED BY RF-SCORE:    0.00 PKD
ROOT
HETATM    1  C   UNL     1      -9.326   7.211  68.635  1.00  0.00    -0.134 C  
HETATM    2  C   UNL     1      -9.798   5.852  68.130  1.00  0.00    -0.155 C  
HETATM    3  C   UNL     1      -9.158   5.662  66.868  1.00  0.00    -0.116 A  
HETATM    4  C   UNL     1      -9.595   5.031  65.750  1.00  0.00    -0.148 A  
HETATM    5  N   UNL     1      -8.666   5.304  64.785  1.00  0.00    -0.140 NA 
HETATM    6  C   UNL     1      -8.897   4.912  63.414  1.00  0.00    -0.076 C  
HETATM    7  C   UNL     1      -7.632   6.057  65.313  1.00  0.00    -0.088 A  
HETATM    8  C   UNL     1      -6.433   6.569  64.800  1.00  0.00    -0.041 A  
HETATM    9  C   UNL     1      -5.663   7.371  65.664  1.00  0.00    -0.037 A  
HETATM   10  C   UNL     1      -6.068   7.734  66.984  1.00  0.00    -0.052 A  
HETATM   11  C   UNL     1      -7.257   7.253  67.549  1.00  0.00    -0.090 A  
HETATM   12  C   UNL     1      -7.870   7.493  69.037  1.00  0.00    -0.120 C  
HETATM   13  C   UNL     1      -7.965   6.363  66.650  1.00  0.00    -0.109 A  
HETATM   14  C   UNL     1      -8.484   8.737  70.211  1.00  0.00    -0.154 C  
HETATM   15  C   UNL     1      -8.956   9.514  67.426  1.00  0.00    -0.131 C  
HETATM   16  C   UNL     1     -10.206   8.900  70.275  1.00  0.00    -0.230 C  
HETATM   17  N   UNL     1      -9.907   8.457  67.919  1.00  0.00    -0.162 NA 
HETATM   18  C   UNL     1     -10.773   9.102  68.869  1.00  0.00    -0.141 C  
ENDROOT
BRANCH  12  19
HETATM   19  O   UNL     1      -7.258   6.482  69.878  1.00  0.00    -0.072 OA 
HETATM   20  C   UNL     1      -5.860   6.699  70.095  1.00  0.00    -0.023 C  
ENDBRANCH  12  19
BRANCH  16  21
HETATM   21  C   UNL     1     -11.195   9.612  71.198  1.00  0.00    -0.384 C  
BRANCH  21  22
HETATM   22  O   UNL     1     -11.800  10.775  70.709  1.00  0.00    -0.326 OA 
BRANCH  22  23
HETATM   23  C   UNL     1     -12.799  11.157  71.544  1.00  0.00    -0.437 C  
HETATM   24  O   UNL     1     -13.529  10.426  72.176  1.00  0.00    -0.396 OA 
BRANCH  23  25
HETATM   25  C   UNL     1     -12.928  12.598  71.532  1.00  0.00    -0.380 A  
HETATM   26  C   UNL     1     -13.907  13.117  72.363  1.00  0.00    -0.483 A  
HETATM   27  N   UNL     1     -14.157  14.443  72.487  1.00  0.00    -0.564 NA 
HETATM   28  C   UNL     1     -13.403  15.267  71.730  1.00  0.00    -0.448 A  
HETATM   29  C   UNL     1     -12.423  14.834  70.827  1.00  0.00    -0.337 A  
HETATM   30  C   UNL     1     -12.185  13.470  70.725  1.00  0.00    -0.417 A  
HETATM   31 BR   UNL     1     -11.450  16.075  69.808  1.00  0.00    -0.294 Br 
ENDBRANCH  23  25
ENDBRANCH  22  23
ENDBRANCH  21  22
ENDBRANCH  16  21
TORSDOF 5
ENDMDL
MODEL      106
REMARK 921   NORMALIZED FREE ENERGY PREDICTED BY IDOCK:   -4.95 KCAL/MOL
REMARK 922        TOTAL FREE ENERGY PREDICTED BY IDOCK:   -6.83 KCAL/MOL
REMARK 923 INTER-LIGAND FREE ENERGY PREDICTED BY IDOCK:   -6.79 KCAL/MOL
REMARK 924 INTRA-LIGAND FREE ENERGY PREDICTED BY IDOCK:   -0.03 KCAL/MOL
REMARK 927      BINDING AFFINITY PREDICTED BY RF-SCORE:    0.00 PKD
ROOT
HETATM    1  C   UNL     1      -8.225  11.539  66.795  1.00  0.00    -0.164 C  
HETATM    2  C   UNL     1      -6.803  10.996  66.704  1.00  0.00    -0.137 C  
HETATM    3  C   UNL     1      -6.866   9.656  67.197  1.00  0.00    -0.084 A  
HETATM    4  C   UNL     1      -5.952   8.935  67.891  1.00  0.00    -0.050 A  
HETATM    5  N   UNL     1      -6.595   7.787  68.263  1.00  0.00    -0.056 NA 
HETATM    6  C   UNL     1      -5.958   6.848  69.157  1.00  0.00    -0.019 C  
HETATM    7  C   UNL     1      -7.883   7.772  67.758  1.00  0.00    -0.123 A  
HETATM    8  C   UNL     1      -8.939   6.851  67.795  1.00  0.00    -0.117 A  
HETATM    9  C   UNL     1     -10.152   7.252  67.205  1.00  0.00    -0.306 A  
HETATM   10  C   UNL     1     -10.375   8.544  66.644  1.00  0.00    -0.303 A  
HETATM   11  C   UNL     1      -9.358   9.506  66.580  1.00  0.00    -0.220 A  
HETATM   12  C   UNL     1      -9.382  11.001  65.938  1.00  0.00    -0.204 C  
HETATM   13  C   UNL     1      -8.107   9.011  67.121  1.00  0.00    -0.106 A  
HETATM   14  C   UNL     1     -10.149  12.646  66.025  1.00  0.00    -0.274 C  
HETATM   15  C   UNL     1     -10.089  11.313  68.633  1.00  0.00    -0.208 C  
HETATM   16  C   UNL     1      -9.246  13.833  66.903  1.00  0.00    -0.263 C  
HETATM   17  N   UNL     1      -8.753  11.866  68.216  1.00  0.00    -0.168 NA 
HETATM   18  C   UNL     1      -8.868  13.298  68.285  1.00  0.00    -0.168 C  
ENDROOT
BRANCH  12  19
HETATM   19  O   UNL     1      -9.074  10.827  64.532  1.00  0.00    -0.199 OA 
HETATM   20  C   UNL     1     -10.238  10.673  63.714  1.00  0.00    -0.196 C  
ENDBRANCH  12  19
BRANCH  16  21
HETATM   21  C   UNL     1      -9.335  15.348  67.085  1.00  0.00    -0.214 C  
BRANCH  21  22
HETATM   22  O   UNL     1      -9.141  15.848  68.378  1.00  0.00    -0.181 OA 
BRANCH  22  23
HETATM   23  C   UNL     1     -10.045  16.828  68.630  1.00  0.00    -0.279 C  
HETATM   24  O   UNL     1     -11.127  16.692  69.155  1.00  0.00    -0.296 OA 
BRANCH  23  25
HETATM   25  C   UNL     1      -9.560  18.091  68.115  1.00  0.00    -0.303 A  
HETATM   26  C   UNL     1     -10.461  18.807  67.344  1.00  0.00    -0.431 A  
HETATM   27  N   UNL     1     -10.182  20.012  66.793  1.00  0.00    -0.453 NA 
HETATM   28  C   UNL     1      -8.942  20.498  67.015  1.00  0.00    -0.257 A  
HETATM   29  C   UNL     1      -7.949  19.828  67.741  1.00  0.00    -0.299 A  
HETATM   30  C   UNL     1      -8.266  18.596  68.299  1.00  0.00    -0.349 A  
HETATM   31 BR   UNL     1      -6.251  20.594  67.967  1.00  0.00    -0.365 Br 
ENDBRANCH  23  25
ENDBRANCH  22  23
ENDBRANCH  21  22
ENDBRANCH  16  21
TORSDOF 5
ENDMDL
MODEL      107
REMARK 921   NORMALIZED FREE ENERGY PREDICTED BY IDOCK:   -4.95 KCAL/MOL
REMARK 922        TOTAL FREE ENERGY PREDICTED BY IDOCK:   -6.83 KCAL/MOL
REMARK 923 INTER-LIGAND FREE ENERGY PREDICTED BY IDOCK:   -6.41 KCAL/MOL
REMARK 924 INTRA-LIGAND FREE ENERGY PREDICTED BY IDOCK:   -0.42 KCAL/MOL
REMARK 927      BINDING AFFINITY PREDICTED BY RF-SCORE:    0.00 PKD
ROOT
HETATM    1  C   UNL     1      -9.686   5.451  69.701  1.00  0.00    -0.177 C  
HETATM    2  C   UNL     1      -9.532   3.961  69.418  1.00  0.00    -0.260 C  
HETATM    3  C   UNL     1      -8.761   3.871  68.218  1.00  0.00    -0.126 A  
HETATM    4  C   UNL     1      -8.812   2.964  67.212  1.00  0.00    -0.141 A  
HETATM    5  N   UNL     1      -7.989   3.452  66.235  1.00  0.00    -0.091 NA 
HETATM    6  C   UNL     1      -7.923   2.810  64.943  1.00  0.00    -0.082 C  
HETATM    7  C   UNL     1      -7.390   4.627  66.654  1.00  0.00    -0.081 A  
HETATM    8  C   UNL     1      -6.454   5.505  66.090  1.00  0.00    -0.044 A  
HETATM    9  C   UNL     1      -6.147   6.665  66.827  1.00  0.00    -0.033 A  
HETATM   10  C   UNL     1      -6.776   7.015  68.059  1.00  0.00    -0.065 A  
HETATM   11  C   UNL     1      -7.719   6.177  68.670  1.00  0.00    -0.100 A  
HETATM   12  C   UNL     1      -8.504   6.356  70.083  1.00  0.00    -0.135 C  
HETATM   13  C   UNL     1      -7.932   4.958  67.914  1.00  0.00    -0.093 A  
HETATM   14  C   UNL     1      -9.663   7.395  71.022  1.00  0.00    -0.164 C  
HETATM   15  C   UNL     1     -10.160   7.508  68.137  1.00  0.00    -0.183 C  
HETATM   16  C   UNL     1     -11.305   6.849  71.020  1.00  0.00    -0.342 C  
HETATM   17  N   UNL     1     -10.651   6.237  68.777  1.00  0.00    -0.232 NA 
HETATM   18  C   UNL     1     -11.781   6.601  69.588  1.00  0.00    -0.153 C  
ENDROOT
BRANCH  12  19
HETATM   19  O   UNL     1      -7.616   5.812  71.093  1.00  0.00    -0.094 OA 
HETATM   20  C   UNL     1      -6.729   6.788  71.649  1.00  0.00    -0.061 C  
ENDBRANCH  12  19
BRANCH  16  21
HETATM   21  C   UNL     1     -12.572   7.220  71.791  1.00  0.00    -0.341 C  
BRANCH  21  22
HETATM   22  O   UNL     1     -13.412   8.179  71.214  1.00  0.00    -0.238 OA 
BRANCH  22  23
HETATM   23  C   UNL     1     -13.577   9.219  72.070  1.00  0.00    -0.452 C  
HETATM   24  O   UNL     1     -14.109   9.179  73.157  1.00  0.00    -0.298 OA 
BRANCH  23  25
HETATM   25  C   UNL     1     -13.077  10.437  71.470  1.00  0.00    -0.532 A  
HETATM   26  C   UNL     1     -13.523  11.614  72.048  1.00  0.00    -0.199 A  
HETATM   27  N   UNL     1     -13.147  12.844  71.624  1.00  0.00    -0.380 NA 
HETATM   28  C   UNL     1     -12.308  12.882  70.567  1.00  0.00    -0.283 A  
HETATM   29  C   UNL     1     -11.841  11.749  69.889  1.00  0.00    -0.348 A  
HETATM   30  C   UNL     1     -12.238  10.501  70.349  1.00  0.00    -0.415 A  
HETATM   31 BR   UNL     1     -10.691  11.926  68.416  1.00  0.00    -0.268 Br 
ENDBRANCH  23  25
ENDBRANCH  22  23
ENDBRANCH  21  22
ENDBRANCH  16  21
TORSDOF 5
ENDMDL
MODEL      108
REMARK 921   NORMALIZED FREE ENERGY PREDICTED BY IDOCK:   -4.93 KCAL/MOL
REMARK 922        TOTAL FREE ENERGY PREDICTED BY IDOCK:   -6.80 KCAL/MOL
REMARK 923 INTER-LIGAND FREE ENERGY PREDICTED BY IDOCK:   -6.47 KCAL/MOL
REMARK 924 INTRA-LIGAND FREE ENERGY PREDICTED BY IDOCK:   -0.33 KCAL/MOL
REMARK 927      BINDING AFFINITY PREDICTED BY RF-SCORE:    0.00 PKD
ROOT
HETATM    1  C   UNL     1      -9.312   7.491  70.255  1.00  0.00    -0.161 C  
HETATM    2  C   UNL     1      -8.683   8.817  69.842  1.00  0.00    -0.135 C  
HETATM    3  C   UNL     1      -9.739   9.777  69.881  1.00  0.00    -0.273 A  
HETATM    4  C   UNL     1      -9.960  10.869  69.108  1.00  0.00    -0.161 A  
HETATM    5  N   UNL     1     -11.202  11.322  69.456  1.00  0.00    -0.268 NA 
HETATM    6  C   UNL     1     -11.826  12.392  68.713  1.00  0.00    -0.311 C  
HETATM    7  C   UNL     1     -11.727  10.548  70.476  1.00  0.00    -0.350 A  
HETATM    8  C   UNL     1     -12.913  10.586  71.222  1.00  0.00    -0.532 A  
HETATM    9  C   UNL     1     -13.114   9.545  72.148  1.00  0.00    -0.522 A  
HETATM   10  C   UNL     1     -12.222   8.444  72.313  1.00  0.00    -0.449 A  
HETATM   11  C   UNL     1     -11.022   8.352  71.594  1.00  0.00    -0.345 A  
HETATM   12  C   UNL     1      -9.851   7.226  71.670  1.00  0.00    -0.165 C  
HETATM   13  C   UNL     1     -10.824   9.493  70.721  1.00  0.00    -0.386 A  
HETATM   14  C   UNL     1      -9.460   5.466  71.439  1.00  0.00    -0.188 C  
HETATM   15  C   UNL     1     -11.611   6.366  69.665  1.00  0.00    -0.282 C  
HETATM   16  C   UNL     1      -8.728   5.069  69.921  1.00  0.00    -0.122 C  
HETATM   17  N   UNL     1     -10.245   6.814  69.219  1.00  0.00    -0.174 NA 
HETATM   18  C   UNL     1      -9.559   5.633  68.768  1.00  0.00    -0.131 C  
ENDROOT
BRANCH  12  19
HETATM   19  O   UNL     1      -8.976   7.645  72.748  1.00  0.00    -0.136 OA 
HETATM   20  C   UNL     1      -9.483   7.317  74.046  1.00  0.00    -0.251 C  
ENDBRANCH  12  19
BRANCH  16  21
HETATM   21  C   UNL     1      -8.043   3.834  69.338  1.00  0.00    -0.054 C  
BRANCH  21  22
HETATM   22  O   UNL     1      -7.259   4.020  68.194  1.00  0.00    -0.058 OA 
BRANCH  22  23
HETATM   23  C   UNL     1      -7.383   2.946  67.373  1.00  0.00    -0.057 C  
HETATM   24  O   UNL     1      -6.982   1.824  67.590  1.00  0.00    -0.038 OA 
BRANCH  23  25
HETATM   25  C   UNL     1      -8.020   3.341  66.136  1.00  0.00    -0.088 A  
HETATM   26  C   UNL     1      -7.685   4.601  65.668  1.00  0.00    -0.094 A  
HETATM   27  N   UNL     1      -8.177   5.127  64.521  1.00  0.00    -0.127 NA 
HETATM   28  C   UNL     1      -9.051   4.359  63.836  1.00  0.00    -0.138 A  
HETATM   29  C   UNL     1      -9.484   3.094  64.253  1.00  0.00    -0.142 A  
HETATM   30  C   UNL     1      -8.959   2.577  65.430  1.00  0.00    -0.131 A  
HETATM   31 BR   UNL     1     -10.721   2.123  63.227  1.00  0.00    -0.205 Br 
ENDBRANCH  23  25
ENDBRANCH  22  23
ENDBRANCH  21  22
ENDBRANCH  16  21
TORSDOF 5
ENDMDL
MODEL      109
REMARK 921   NORMALIZED FREE ENERGY PREDICTED BY IDOCK:   -4.92 KCAL/MOL
REMARK 922        TOTAL FREE ENERGY PREDICTED BY IDOCK:   -6.79 KCAL/MOL
REMARK 923 INTER-LIGAND FREE ENERGY PREDICTED BY IDOCK:   -7.12 KCAL/MOL
REMARK 924 INTRA-LIGAND FREE ENERGY PREDICTED BY IDOCK:    0.33 KCAL/MOL
REMARK 927      BINDING AFFINITY PREDICTED BY RF-SCORE:    0.00 PKD
ROOT
HETATM    1  C   UNL     1      -9.606  11.513  66.933  1.00  0.00    -0.187 C  
HETATM    2  C   UNL     1      -9.620  10.639  65.685  1.00  0.00    -0.268 C  
HETATM    3  C   UNL     1      -9.597   9.290  66.155  1.00  0.00    -0.327 A  
HETATM    4  C   UNL     1      -9.023   8.185  65.618  1.00  0.00    -0.080 A  
HETATM    5  N   UNL     1      -9.151   7.207  66.565  1.00  0.00    -0.150 NA 
HETATM    6  C   UNL     1      -8.506   5.926  66.387  1.00  0.00    -0.120 C  
HETATM    7  C   UNL     1      -9.846   7.686  67.661  1.00  0.00    -0.164 A  
HETATM    8  C   UNL     1     -10.285   7.121  68.866  1.00  0.00    -0.188 A  
HETATM    9  C   UNL     1     -10.916   7.986  69.780  1.00  0.00    -0.138 A  
HETATM   10  C   UNL     1     -11.066   9.390  69.573  1.00  0.00    -0.134 A  
HETATM   11  C   UNL     1     -10.647  10.010  68.389  1.00  0.00    -0.253 A  
HETATM   12  C   UNL     1     -10.774  11.566  67.931  1.00  0.00    -0.200 C  
HETATM   13  C   UNL     1     -10.085   9.060  67.448  1.00  0.00    -0.291 A  
HETATM   14  C   UNL     1     -10.301  13.277  68.322  1.00  0.00    -0.252 C  
HETATM   15  C   UNL     1      -8.283  11.342  69.196  1.00  0.00     0.054 C  
HETATM   16  C   UNL     1      -8.951  13.889  67.429  1.00  0.00    -0.211 C  
HETATM   17  N   UNL     1      -8.268  11.589  67.712  1.00  0.00    -0.129 NA 
HETATM   18  C   UNL     1      -7.768  12.925  67.528  1.00  0.00    -0.174 C  
ENDROOT
BRANCH  12  19
HETATM   19  O   UNL     1     -12.088  11.689  67.330  1.00  0.00    -0.605 OA 
HETATM   20  C   UNL     1     -12.082  12.429  66.104  1.00  0.00    -0.220 C  
ENDBRANCH  12  19
BRANCH  16  21
HETATM   21  C   UNL     1      -8.315  15.264  67.231  1.00  0.00    -0.200 C  
BRANCH  21  22
HETATM   22  O   UNL     1      -8.004  15.995  68.383  1.00  0.00    -0.141 OA 
BRANCH  22  23
HETATM   23  C   UNL     1      -9.069  16.754  68.746  1.00  0.00    -0.259 C  
HETATM   24  O   UNL     1      -9.919  16.461  69.558  1.00  0.00    -0.236 OA 
BRANCH  23  25
HETATM   25  C   UNL     1      -9.096  17.972  67.966  1.00  0.00    -0.274 A  
HETATM   26  C   UNL     1     -10.313  18.278  67.378  1.00  0.00    -0.392 A  
HETATM   27  N   UNL     1     -10.522  19.384  66.625  1.00  0.00    -0.437 NA 
HETATM   28  C   UNL     1      -9.459  20.196  66.446  1.00  0.00    -0.362 A  
HETATM   29  C   UNL     1      -8.180  19.947  66.960  1.00  0.00    -0.316 A  
HETATM   30  C   UNL     1      -7.996  18.808  67.733  1.00  0.00    -0.275 A  
HETATM   31 BR   UNL     1      -6.769  21.140  66.628  1.00  0.00    -0.197 Br 
ENDBRANCH  23  25
ENDBRANCH  22  23
ENDBRANCH  21  22
ENDBRANCH  16  21
TORSDOF 5
ENDMDL
MODEL      110
REMARK 921   NORMALIZED FREE ENERGY PREDICTED BY IDOCK:   -4.91 KCAL/MOL
REMARK 922        TOTAL FREE ENERGY PREDICTED BY IDOCK:   -6.77 KCAL/MOL
REMARK 923 INTER-LIGAND FREE ENERGY PREDICTED BY IDOCK:   -6.52 KCAL/MOL
REMARK 924 INTRA-LIGAND FREE ENERGY PREDICTED BY IDOCK:   -0.26 KCAL/MOL
REMARK 927      BINDING AFFINITY PREDICTED BY RF-SCORE:    0.00 PKD
ROOT
HETATM    1  C   UNL     1     -10.011  10.225  69.463  1.00  0.00    -0.228 C  
HETATM    2  C   UNL     1     -10.380   9.589  70.798  1.00  0.00    -0.377 C  
HETATM    3  C   UNL     1     -10.006   8.214  70.689  1.00  0.00    -0.204 A  
HETATM    4  C   UNL     1     -10.578   7.107  71.223  1.00  0.00    -0.213 A  
HETATM    5  N   UNL     1      -9.930   6.046  70.654  1.00  0.00    -0.180 NA 
HETATM    6  C   UNL     1     -10.392   4.697  70.881  1.00  0.00    -0.067 C  
HETATM    7  C   UNL     1      -8.926   6.492  69.812  1.00  0.00    -0.142 A  
HETATM    8  C   UNL     1      -7.953   5.859  69.026  1.00  0.00    -0.099 A  
HETATM    9  C   UNL     1      -7.140   6.690  68.232  1.00  0.00    -0.083 A  
HETATM   10  C   UNL     1      -7.299   8.104  68.138  1.00  0.00    -0.096 A  
HETATM   11  C   UNL     1      -8.254   8.792  68.899  1.00  0.00    -0.118 A  
HETATM   12  C   UNL     1      -8.559  10.387  68.986  1.00  0.00    -0.157 C  
HETATM   13  C   UNL     1      -9.003   7.900  69.763  1.00  0.00    -0.146 A  
HETATM   14  C   UNL     1      -9.079  11.857  68.051  1.00  0.00    -0.189 C  
HETATM   15  C   UNL     1     -10.249   9.393  66.983  1.00  0.00    -0.255 C  
HETATM   16  C   UNL     1     -10.752  12.274  68.209  1.00  0.00    -0.244 C  
HETATM   17  N   UNL     1     -10.908   9.863  68.251  1.00  0.00    -0.242 NA 
HETATM   18  C   UNL     1     -11.632  11.059  67.913  1.00  0.00    -0.226 C  
ENDROOT
BRANCH  12  19
HETATM   19  O   UNL     1      -7.641  10.906  69.981  1.00  0.00     0.038 OA 
HETATM   20  C   UNL     1      -6.277  10.903  69.546  1.00  0.00    -0.073 C  
ENDBRANCH  12  19
BRANCH  16  21
HETATM   21  C   UNL     1     -11.610  13.478  67.823  1.00  0.00    -0.339 C  
BRANCH  21  22
HETATM   22  O   UNL     1     -10.939  14.632  67.404  1.00  0.00    -0.291 OA 
BRANCH  22  23
HETATM   23  C   UNL     1     -11.136  15.629  68.304  1.00  0.00    -0.336 C  
HETATM   24  O   UNL     1     -12.054  15.720  69.088  1.00  0.00    -0.353 OA 
BRANCH  23  25
HETATM   25  C   UNL     1     -10.108  16.637  68.157  1.00  0.00    -0.267 A  
HETATM   26  C   UNL     1     -10.328  17.819  68.845  1.00  0.00    -0.300 A  
HETATM   27  N   UNL     1      -9.466  18.864  68.831  1.00  0.00    -0.336 NA 
HETATM   28  C   UNL     1      -8.354  18.712  68.080  1.00  0.00    -0.307 A  
HETATM   29  C   UNL     1      -8.068  17.575  67.314  1.00  0.00    -0.203 A  
HETATM   30  C   UNL     1      -8.967  16.517  67.352  1.00  0.00    -0.207 A  
HETATM   31 BR   UNL     1      -6.497  17.485  66.290  1.00  0.00    -0.276 Br 
ENDBRANCH  23  25
ENDBRANCH  22  23
ENDBRANCH  21  22
ENDBRANCH  16  21
TORSDOF 5
ENDMDL
MODEL      111
REMARK 921   NORMALIZED FREE ENERGY PREDICTED BY IDOCK:   -4.89 KCAL/MOL
REMARK 922        TOTAL FREE ENERGY PREDICTED BY IDOCK:   -6.75 KCAL/MOL
REMARK 923 INTER-LIGAND FREE ENERGY PREDICTED BY IDOCK:   -6.17 KCAL/MOL
REMARK 924 INTRA-LIGAND FREE ENERGY PREDICTED BY IDOCK:   -0.58 KCAL/MOL
REMARK 927      BINDING AFFINITY PREDICTED BY RF-SCORE:    0.00 PKD
ROOT
HETATM    1  C   UNL     1     -11.145  11.706  67.751  1.00  0.00    -0.249 C  
HETATM    2  C   UNL     1     -11.682  11.724  66.324  1.00  0.00    -0.109 C  
HETATM    3  C   UNL     1     -11.285  12.983  65.776  1.00  0.00    -0.316 A  
HETATM    4  C   UNL     1     -11.913  13.784  64.881  1.00  0.00    -0.390 A  
HETATM    5  N   UNL     1     -11.187  14.941  64.849  1.00  0.00    -0.399 NA 
HETATM    6  C   UNL     1     -11.663  16.086  64.108  1.00  0.00     0.043 C  
HETATM    7  C   UNL     1     -10.085  14.840  65.680  1.00  0.00    -0.366 A  
HETATM    8  C   UNL     1      -9.011  15.685  65.991  1.00  0.00    -0.297 A  
HETATM    9  C   UNL     1      -8.107  15.230  66.970  1.00  0.00    -0.253 A  
HETATM   10  C   UNL     1      -8.264  14.009  67.691  1.00  0.00    -0.185 A  
HETATM   11  C   UNL     1      -9.317  13.124  67.424  1.00  0.00    -0.213 A  
HETATM   12  C   UNL     1      -9.645  11.672  68.080  1.00  0.00    -0.190 C  
HETATM   13  C   UNL     1     -10.166  13.600  66.349  1.00  0.00    -0.292 A  
HETATM   14  C   UNL     1     -10.049  10.790  69.617  1.00  0.00    -0.053 C  
HETATM   15  C   UNL     1     -11.047  13.545  69.625  1.00  0.00     0.019 C  
HETATM   16  C   UNL     1     -11.731  10.456  69.851  1.00  0.00    -0.341 C  
HETATM   17  N   UNL     1     -11.871  12.615  68.776  1.00  0.00    -0.311 NA 
HETATM   18  C   UNL     1     -12.555  11.734  69.684  1.00  0.00     0.205 C  
ENDROOT
BRANCH  12  19
HETATM   19  O   UNL     1      -8.870  10.715  67.315  1.00  0.00    -0.136 OA 
HETATM   20  C   UNL     1      -7.458  10.943  67.388  1.00  0.00    -0.100 C  
ENDBRANCH  12  19
BRANCH  16  21
HETATM   21  C   UNL     1     -12.541   9.597  70.821  1.00  0.00    -0.143 C  
BRANCH  21  22
HETATM   22  O   UNL     1     -11.842   8.981  71.866  1.00  0.00    -0.344 OA 
BRANCH  22  23
HETATM   23  C   UNL     1     -11.354   7.786  71.448  1.00  0.00    -0.251 C  
HETATM   24  O   UNL     1     -12.000   6.848  71.038  1.00  0.00    -0.339 OA 
BRANCH  23  25
HETATM   25  C   UNL     1      -9.918   7.751  71.623  1.00  0.00    -0.213 A  
HETATM   26  C   UNL     1      -9.437   8.402  72.748  1.00  0.00    -0.242 A  
HETATM   27  N   UNL     1      -8.124   8.459  73.074  1.00  0.00    -0.342 NA 
HETATM   28  C   UNL     1      -7.269   7.853  72.224  1.00  0.00    -0.087 A  
HETATM   29  C   UNL     1      -7.655   7.211  71.040  1.00  0.00    -0.085 A  
HETATM   30  C   UNL     1      -9.009   7.163  70.733  1.00  0.00    -0.152 A  
HETATM   31 BR   UNL     1      -6.372   6.420  69.922  1.00  0.00    -0.040 Br 
ENDBRANCH  23  25
ENDBRANCH  22  23
ENDBRANCH  21  22
ENDBRANCH  16  21
TORSDOF 5
ENDMDL
MODEL      112
REMARK 921   NORMALIZED FREE ENERGY PREDICTED BY IDOCK:   -4.80 KCAL/MOL
REMARK 922        TOTAL FREE ENERGY PREDICTED BY IDOCK:   -6.63 KCAL/MOL
REMARK 923 INTER-LIGAND FREE ENERGY PREDICTED BY IDOCK:   -6.15 KCAL/MOL
REMARK 924 INTRA-LIGAND FREE ENERGY PREDICTED BY IDOCK:   -0.49 KCAL/MOL
REMARK 927      BINDING AFFINITY PREDICTED BY RF-SCORE:    0.00 PKD
ROOT
HETATM    1  C   UNL     1      -8.844   8.026  70.156  1.00  0.00    -0.143 C  
HETATM    2  C   UNL     1      -8.367   9.354  69.580  1.00  0.00    -0.147 C  
HETATM    3  C   UNL     1      -9.527  10.186  69.511  1.00  0.00    -0.235 A  
HETATM    4  C   UNL     1      -9.865  11.143  68.612  1.00  0.00    -0.202 A  
HETATM    5  N   UNL     1     -11.153  11.491  68.912  1.00  0.00    -0.215 NA 
HETATM    6  C   UNL     1     -11.889  12.385  68.050  1.00  0.00    -0.316 C  
HETATM    7  C   UNL     1     -11.594  10.793  70.022  1.00  0.00    -0.334 A  
HETATM    8  C   UNL     1     -12.781  10.785  70.767  1.00  0.00    -0.451 A  
HETATM    9  C   UNL     1     -12.868   9.849  71.814  1.00  0.00    -0.540 A  
HETATM   10  C   UNL     1     -11.857   8.884  72.104  1.00  0.00    -0.417 A  
HETATM   11  C   UNL     1     -10.651   8.843  71.393  1.00  0.00    -0.374 A  
HETATM   12  C   UNL     1      -9.359   7.874  71.596  1.00  0.00    -0.148 C  
HETATM   13  C   UNL     1     -10.578   9.884  70.387  1.00  0.00    -0.364 A  
HETATM   14  C   UNL     1      -8.769   6.156  71.578  1.00  0.00    -0.135 C  
HETATM   15  C   UNL     1     -10.997   6.583  69.724  1.00  0.00    -0.338 C  
HETATM   16  C   UNL     1      -7.987   5.663  70.114  1.00  0.00    -0.099 C  
HETATM   17  N   UNL     1      -9.688   7.126  69.217  1.00  0.00    -0.159 NA 
HETATM   18  C   UNL     1      -8.869   5.985  68.907  1.00  0.00    -0.120 C  
ENDROOT
BRANCH  12  19
HETATM   19  O   UNL     1      -8.545   8.518  72.609  1.00  0.00    -0.306 OA 
HETATM   20  C   UNL     1      -8.813   8.045  73.934  1.00  0.00    -0.209 C  
ENDBRANCH  12  19
BRANCH  16  21
HETATM   21  C   UNL     1      -7.162   4.452  69.680  1.00  0.00    -0.050 C  
BRANCH  21  22
HETATM   22  O   UNL     1      -7.781   3.199  69.753  1.00  0.00    -0.044 OA 
BRANCH  22  23
HETATM   23  C   UNL     1      -7.151   2.430  70.677  1.00  0.00    -0.033 C  
HETATM   24  O   UNL     1      -6.153   1.767  70.502  1.00  0.00    -0.018 OA 
BRANCH  23  25
HETATM   25  C   UNL     1      -7.888   2.452  71.922  1.00  0.00    -0.048 A  
HETATM   26  C   UNL     1      -7.189   2.925  73.021  1.00  0.00    -0.044 A  
HETATM   27  N   UNL     1      -7.725   3.027  74.260  1.00  0.00    -0.062 NA 
HETATM   28  C   UNL     1      -9.005   2.619  74.394  1.00  0.00    -0.078 A  
HETATM   29  C   UNL     1      -9.776   2.084  73.354  1.00  0.00    -0.082 A  
HETATM   30  C   UNL     1      -9.202   1.997  72.092  1.00  0.00    -0.136 A  
HETATM   31 BR   UNL     1     -11.542   1.529  73.664  1.00  0.00    -0.298 Br 
ENDBRANCH  23  25
ENDBRANCH  22  23
ENDBRANCH  21  22
ENDBRANCH  16  21
TORSDOF 5
ENDMDL
MODEL      113
REMARK 921   NORMALIZED FREE ENERGY PREDICTED BY IDOCK:   -4.74 KCAL/MOL
REMARK 922        TOTAL FREE ENERGY PREDICTED BY IDOCK:   -6.56 KCAL/MOL
REMARK 923 INTER-LIGAND FREE ENERGY PREDICTED BY IDOCK:   -6.40 KCAL/MOL
REMARK 924 INTRA-LIGAND FREE ENERGY PREDICTED BY IDOCK:   -0.16 KCAL/MOL
REMARK 927      BINDING AFFINITY PREDICTED BY RF-SCORE:    0.00 PKD
ROOT
HETATM    1  C   UNL     1     -10.362  11.296  67.408  1.00  0.00    -0.200 C  
HETATM    2  C   UNL     1     -10.792  11.265  65.946  1.00  0.00    -0.264 C  
HETATM    3  C   UNL     1     -10.778  12.625  65.508  1.00  0.00    -0.303 A  
HETATM    4  C   UNL     1     -11.571  13.265  64.615  1.00  0.00    -0.350 A  
HETATM    5  N   UNL     1     -11.242  14.589  64.712  1.00  0.00    -0.389 NA 
HETATM    6  C   UNL     1     -12.007  15.588  64.004  1.00  0.00     0.054 C  
HETATM    7  C   UNL     1     -10.214  14.763  65.622  1.00  0.00    -0.358 A  
HETATM    8  C   UNL     1      -9.479  15.869  66.069  1.00  0.00    -0.389 A  
HETATM    9  C   UNL     1      -8.538  15.635  67.090  1.00  0.00    -0.235 A  
HETATM   10  C   UNL     1      -8.347  14.370  67.722  1.00  0.00    -0.172 A  
HETATM   11  C   UNL     1      -9.053  13.230  67.317  1.00  0.00    -0.221 A  
HETATM   12  C   UNL     1      -8.948  11.698  67.857  1.00  0.00    -0.170 C  
HETATM   13  C   UNL     1      -9.943  13.508  66.207  1.00  0.00    -0.302 A  
HETATM   14  C   UNL     1      -9.147  10.612  69.300  1.00  0.00    -0.117 C  
HETATM   15  C   UNL     1     -10.955  12.915  69.391  1.00  0.00     0.012 C  
HETATM   16  C   UNL     1     -10.651   9.759  69.376  1.00  0.00    -0.248 C  
HETATM   17  N   UNL     1     -11.395  11.850  68.423  1.00  0.00    -0.250 NA 
HETATM   18  C   UNL     1     -11.821  10.731  69.219  1.00  0.00    -0.288 C  
ENDROOT
BRANCH  12  19
HETATM   19  O   UNL     1      -7.870  11.092  67.101  1.00  0.00    -0.123 OA 
HETATM   20  C   UNL     1      -6.580  11.611  67.443  1.00  0.00    -0.106 C  
ENDBRANCH  12  19
BRANCH  16  21
HETATM   21  C   UNL     1     -11.208   8.615  70.224  1.00  0.00    -0.184 C  
BRANCH  21  22
HETATM   22  O   UNL     1     -10.333   7.568  70.535  1.00  0.00    -0.210 OA 
BRANCH  22  23
HETATM   23  C   UNL     1     -10.706   6.446  69.870  1.00  0.00    -0.274 C  
HETATM   24  O   UNL     1     -11.575   6.362  69.030  1.00  0.00    -0.276 OA 
BRANCH  23  25
HETATM   25  C   UNL     1      -9.952   5.310  70.356  1.00  0.00    -0.303 A  
HETATM   26  C   UNL     1      -9.866   4.235  69.486  1.00  0.00    -0.154 A  
HETATM   27  N   UNL     1      -9.190   3.096  69.771  1.00  0.00    -0.137 NA 
HETATM   28  C   UNL     1      -8.599   3.038  70.983  1.00  0.00    -0.067 A  
HETATM   29  C   UNL     1      -8.671   4.053  71.946  1.00  0.00    -0.104 A  
HETATM   30  C   UNL     1      -9.366   5.212  71.624  1.00  0.00    -0.183 A  
HETATM   31 BR   UNL     1      -7.825   3.852  73.609  1.00  0.00    -0.084 Br 
ENDBRANCH  23  25
ENDBRANCH  22  23
ENDBRANCH  21  22
ENDBRANCH  16  21
TORSDOF 5
ENDMDL
MODEL      114
REMARK 921   NORMALIZED FREE ENERGY PREDICTED BY IDOCK:   -4.74 KCAL/MOL
REMARK 922        TOTAL FREE ENERGY PREDICTED BY IDOCK:   -6.56 KCAL/MOL
REMARK 923 INTER-LIGAND FREE ENERGY PREDICTED BY IDOCK:   -5.96 KCAL/MOL
REMARK 924 INTRA-LIGAND FREE ENERGY PREDICTED BY IDOCK:   -0.60 KCAL/MOL
REMARK 927      BINDING AFFINITY PREDICTED BY RF-SCORE:    0.00 PKD
ROOT
HETATM    1  C   UNL     1      -8.936  11.184  67.574  1.00  0.00    -0.139 C  
HETATM    2  C   UNL     1      -7.751  11.969  68.126  1.00  0.00    -0.135 C  
HETATM    3  C   UNL     1      -8.190  13.326  68.213  1.00  0.00    -0.156 A  
HETATM    4  C   UNL     1      -7.502  14.481  68.042  1.00  0.00    -0.137 A  
HETATM    5  N   UNL     1      -8.440  15.475  68.057  1.00  0.00    -0.142 NA 
HETATM    6  C   UNL     1      -8.072  16.836  67.746  1.00  0.00    -0.179 C  
HETATM    7  C   UNL     1      -9.698  14.945  68.288  1.00  0.00    -0.215 A  
HETATM    8  C   UNL     1     -10.979  15.493  68.439  1.00  0.00    -0.297 A  
HETATM    9  C   UNL     1     -12.044  14.585  68.593  1.00  0.00    -0.253 A  
HETATM   10  C   UNL     1     -11.894  13.167  68.536  1.00  0.00    -0.377 A  
HETATM   11  C   UNL     1     -10.639  12.563  68.386  1.00  0.00    -0.256 A  
HETATM   12  C   UNL     1     -10.244  10.985  68.355  1.00  0.00    -0.185 C  
HETATM   13  C   UNL     1      -9.570  13.540  68.321  1.00  0.00    -0.218 A  
HETATM   14  C   UNL     1     -10.473   9.410  67.478  1.00  0.00    -0.343 C  
HETATM   15  C   UNL     1     -10.683  11.717  65.685  1.00  0.00    -0.278 C  
HETATM   16  C   UNL     1      -9.209   8.994  66.372  1.00  0.00    -0.239 C  
HETATM   17  N   UNL     1      -9.266  11.391  66.073  1.00  0.00    -0.212 NA 
HETATM   18  C   UNL     1      -8.939  10.155  65.414  1.00  0.00    -0.177 C  
ENDROOT
BRANCH  12  19
HETATM   19  O   UNL     1     -10.077  10.598  69.743  1.00  0.00    -0.162 OA 
HETATM   20  C   UNL     1     -11.309  10.561  70.471  1.00  0.00    -0.314 C  
ENDBRANCH  12  19
BRANCH  16  21
HETATM   21  C   UNL     1      -8.827   7.742  65.582  1.00  0.00    -0.065 C  
BRANCH  21  22
HETATM   22  O   UNL     1      -9.301   6.516  66.061  1.00  0.00    -0.115 OA 
BRANCH  22  23
HETATM   23  C   UNL     1      -8.399   5.981  66.922  1.00  0.00    -0.105 C  
HETATM   24  O   UNL     1      -7.309   5.536  66.639  1.00  0.00    -0.080 OA 
BRANCH  23  25
HETATM   25  C   UNL     1      -8.951   5.950  68.260  1.00  0.00    -0.112 A  
HETATM   26  C   UNL     1     -10.311   5.700  68.338  1.00  0.00    -0.196 A  
HETATM   27  N   UNL     1     -10.991   5.624  69.507  1.00  0.00    -0.294 NA 
HETATM   28  C   UNL     1     -10.272   5.826  70.632  1.00  0.00    -0.218 A  
HETATM   29  C   UNL     1      -8.905   6.130  70.650  1.00  0.00    -0.143 A  
HETATM   30  C   UNL     1      -8.232   6.197  69.437  1.00  0.00    -0.113 A  
HETATM   31 BR   UNL     1      -8.012   6.412  72.277  1.00  0.00    -0.103 Br 
ENDBRANCH  23  25
ENDBRANCH  22  23
ENDBRANCH  21  22
ENDBRANCH  16  21
TORSDOF 5
ENDMDL
MODEL      115
REMARK 921   NORMALIZED FREE ENERGY PREDICTED BY IDOCK:   -4.73 KCAL/MOL
REMARK 922        TOTAL FREE ENERGY PREDICTED BY IDOCK:   -6.54 KCAL/MOL
REMARK 923 INTER-LIGAND FREE ENERGY PREDICTED BY IDOCK:   -5.90 KCAL/MOL
REMARK 924 INTRA-LIGAND FREE ENERGY PREDICTED BY IDOCK:   -0.64 KCAL/MOL
REMARK 927      BINDING AFFINITY PREDICTED BY RF-SCORE:    0.00 PKD
ROOT
HETATM    1  C   UNL     1      -9.061  10.727  67.251  1.00  0.00    -0.144 C  
HETATM    2  C   UNL     1      -8.018  11.594  67.948  1.00  0.00    -0.132 C  
HETATM    3  C   UNL     1      -8.373  12.945  67.650  1.00  0.00    -0.176 A  
HETATM    4  C   UNL     1      -7.590  14.035  67.458  1.00  0.00    -0.180 A  
HETATM    5  N   UNL     1      -8.430  15.021  67.024  1.00  0.00    -0.217 NA 
HETATM    6  C   UNL     1      -7.903  16.288  66.572  1.00  0.00    -0.263 C  
HETATM    7  C   UNL     1      -9.736  14.563  66.996  1.00  0.00    -0.245 A  
HETATM    8  C   UNL     1     -10.971  15.144  66.681  1.00  0.00    -0.318 A  
HETATM    9  C   UNL     1     -12.096  14.298  66.706  1.00  0.00    -0.446 A  
HETATM   10  C   UNL     1     -12.031  12.896  66.965  1.00  0.00    -0.390 A  
HETATM   11  C   UNL     1     -10.824  12.260  67.284  1.00  0.00    -0.283 A  
HETATM   12  C   UNL     1     -10.540  10.704  67.665  1.00  0.00    -0.246 C  
HETATM   13  C   UNL     1      -9.715  13.192  67.331  1.00  0.00    -0.220 A  
HETATM   14  C   UNL     1     -10.630   8.987  67.077  1.00  0.00    -0.270 C  
HETATM   15  C   UNL     1     -10.199  10.887  64.889  1.00  0.00    -0.316 C  
HETATM   16  C   UNL     1      -9.146   8.343  66.462  1.00  0.00    -0.217 C  
HETATM   17  N   UNL     1      -8.962  10.630  65.707  1.00  0.00    -0.175 NA 
HETATM   18  C   UNL     1      -8.553   9.284  65.412  1.00  0.00    -0.157 C  
ENDROOT
BRANCH  12  19
HETATM   19  O   UNL     1     -10.776  10.603  69.093  1.00  0.00    -0.199 OA 
HETATM   20  C   UNL     1     -12.087  11.031  69.480  1.00  0.00    -0.329 C  
ENDBRANCH  12  19
BRANCH  16  21
HETATM   21  C   UNL     1      -8.650   6.953  66.062  1.00  0.00    -0.145 C  
BRANCH  21  22
HETATM   22  O   UNL     1      -8.667   5.961  67.049  1.00  0.00    -0.111 OA 
BRANCH  22  23
HETATM   23  C   UNL     1      -7.451   5.886  67.644  1.00  0.00    -0.078 C  
HETATM   24  O   UNL     1      -6.516   5.203  67.289  1.00  0.00    -0.045 OA 
BRANCH  23  25
HETATM   25  C   UNL     1      -7.434   6.705  68.838  1.00  0.00    -0.096 A  
HETATM   26  C   UNL     1      -8.347   6.351  69.817  1.00  0.00    -0.127 A  
HETATM   27  N   UNL     1      -8.462   6.998  71.001  1.00  0.00    -0.132 NA 
HETATM   28  C   UNL     1      -7.636   8.050  71.191  1.00  0.00    -0.082 A  
HETATM   29  C   UNL     1      -6.714   8.510  70.242  1.00  0.00    -0.039 A  
HETATM   30  C   UNL     1      -6.615   7.824  69.039  1.00  0.00    -0.048 A  
HETATM   31 BR   UNL     1      -5.631   9.999  70.609  1.00  0.00    -0.078 Br 
ENDBRANCH  23  25
ENDBRANCH  22  23
ENDBRANCH  21  22
ENDBRANCH  16  21
TORSDOF 5
ENDMDL
MODEL      116
REMARK 921   NORMALIZED FREE ENERGY PREDICTED BY IDOCK:   -4.71 KCAL/MOL
REMARK 922        TOTAL FREE ENERGY PREDICTED BY IDOCK:   -6.52 KCAL/MOL
REMARK 923 INTER-LIGAND FREE ENERGY PREDICTED BY IDOCK:   -7.14 KCAL/MOL
REMARK 924 INTRA-LIGAND FREE ENERGY PREDICTED BY IDOCK:    0.63 KCAL/MOL
REMARK 927      BINDING AFFINITY PREDICTED BY RF-SCORE:    0.00 PKD
ROOT
HETATM    1  C   UNL     1      -9.993  11.943  68.010  1.00  0.00    -0.190 C  
HETATM    2  C   UNL     1     -10.090  13.300  68.699  1.00  0.00    -0.151 C  
HETATM    3  C   UNL     1     -10.428  14.234  67.672  1.00  0.00    -0.248 A  
HETATM    4  C   UNL     1     -10.078  15.535  67.522  1.00  0.00    -0.241 A  
HETATM    5  N   UNL     1     -10.521  15.895  66.280  1.00  0.00    -0.309 NA 
HETATM    6  C   UNL     1     -10.179  17.184  65.725  1.00  0.00    -0.219 C  
HETATM    7  C   UNL     1     -11.189  14.840  65.684  1.00  0.00    -0.343 A  
HETATM    8  C   UNL     1     -11.861  14.669  64.466  1.00  0.00    -0.442 A  
HETATM    9  C   UNL     1     -12.358  13.381  64.190  1.00  0.00    -0.395 A  
HETATM   10  C   UNL     1     -12.157  12.252  65.038  1.00  0.00    -0.392 A  
HETATM   11  C   UNL     1     -11.491  12.362  66.266  1.00  0.00    -0.423 A  
HETATM   12  C   UNL     1     -11.207  11.227  67.398  1.00  0.00    -0.303 C  
HETATM   13  C   UNL     1     -11.079  13.724  66.541  1.00  0.00    -0.309 A  
HETATM   14  C   UNL     1     -10.389   9.642  67.744  1.00  0.00    -0.286 C  
HETATM   15  C   UNL     1      -8.971  11.199  65.707  1.00  0.00    -0.196 C  
HETATM   16  C   UNL     1      -8.853   9.765  68.533  1.00  0.00    -0.121 C  
HETATM   17  N   UNL     1      -8.756  11.712  67.106  1.00  0.00    -0.158 NA 
HETATM   18  C   UNL     1      -7.943  10.732  67.775  1.00  0.00    -0.110 C  
ENDROOT
BRANCH  12  19
HETATM   19  O   UNL     1     -12.392  11.205  68.233  1.00  0.00    -0.532 OA 
HETATM   20  C   UNL     1     -12.096  11.236  69.634  1.00  0.00    -0.322 C  
ENDBRANCH  12  19
BRANCH  16  21
HETATM   21  C   UNL     1      -7.898   8.780  69.206  1.00  0.00    -0.100 C  
BRANCH  21  22
HETATM   22  O   UNL     1      -7.713   8.912  70.587  1.00  0.00    -0.080 OA 
BRANCH  22  23
HETATM   23  C   UNL     1      -8.870   8.623  71.234  1.00  0.00    -0.207 C  
HETATM   24  O   UNL     1      -9.851   9.328  71.306  1.00  0.00    -0.289 OA 
BRANCH  23  25
HETATM   25  C   UNL     1      -8.753   7.346  71.905  1.00  0.00    -0.127 A  
HETATM   26  C   UNL     1      -9.903   6.894  72.532  1.00  0.00    -0.157 A  
HETATM   27  N   UNL     1      -9.978   5.716  73.197  1.00  0.00    -0.171 NA 
HETATM   28  C   UNL     1      -8.847   4.982  73.243  1.00  0.00    -0.114 A  
HETATM   29  C   UNL     1      -7.626   5.376  72.680  1.00  0.00    -0.098 A  
HETATM   30  C   UNL     1      -7.580   6.586  72.000  1.00  0.00    -0.093 A  
HETATM   31 BR   UNL     1      -6.110   4.280  72.826  1.00  0.00    -0.017 Br 
ENDBRANCH  23  25
ENDBRANCH  22  23
ENDBRANCH  21  22
ENDBRANCH  16  21
TORSDOF 5
ENDMDL
MODEL      117
REMARK 921   NORMALIZED FREE ENERGY PREDICTED BY IDOCK:   -4.70 KCAL/MOL
REMARK 922        TOTAL FREE ENERGY PREDICTED BY IDOCK:   -6.51 KCAL/MOL
REMARK 923 INTER-LIGAND FREE ENERGY PREDICTED BY IDOCK:   -6.17 KCAL/MOL
REMARK 924 INTRA-LIGAND FREE ENERGY PREDICTED BY IDOCK:   -0.34 KCAL/MOL
REMARK 927      BINDING AFFINITY PREDICTED BY RF-SCORE:    0.00 PKD
ROOT
HETATM    1  C   UNL     1      -9.386  11.670  67.797  1.00  0.00    -0.178 C  
HETATM    2  C   UNL     1      -8.132  12.263  68.428  1.00  0.00    -0.151 C  
HETATM    3  C   UNL     1      -8.078  13.620  67.982  1.00  0.00    -0.161 A  
HETATM    4  C   UNL     1      -7.010  14.406  67.700  1.00  0.00    -0.184 A  
HETATM    5  N   UNL     1      -7.527  15.543  67.144  1.00  0.00    -0.218 NA 
HETATM    6  C   UNL     1      -6.653  16.545  66.578  1.00  0.00     0.111 C  
HETATM    7  C   UNL     1      -8.909  15.485  67.129  1.00  0.00    -0.212 A  
HETATM    8  C   UNL     1      -9.922  16.365  66.722  1.00  0.00    -0.277 A  
HETATM    9  C   UNL     1     -11.245  15.891  66.804  1.00  0.00     0.035 A  
HETATM   10  C   UNL     1     -11.593  14.567  67.208  1.00  0.00    -0.405 A  
HETATM   11  C   UNL     1     -10.624  13.645  67.624  1.00  0.00    -0.245 A  
HETATM   12  C   UNL     1     -10.806  12.123  68.171  1.00  0.00    -0.222 C  
HETATM   13  C   UNL     1      -9.290  14.212  67.604  1.00  0.00    -0.209 A  
HETATM   14  C   UNL     1     -11.398  10.455  67.760  1.00  0.00    -0.205 C  
HETATM   15  C   UNL     1     -10.439  11.902  65.400  1.00  0.00    -0.270 C  
HETATM   16  C   UNL     1     -10.170   9.344  67.255  1.00  0.00    -0.308 C  
HETATM   17  N   UNL     1      -9.328  11.384  66.274  1.00  0.00    -0.206 NA 
HETATM   18  C   UNL     1      -9.333   9.953  66.130  1.00  0.00    -0.181 C  
ENDROOT
BRANCH  12  19
HETATM   19  O   UNL     1     -11.055  12.248  69.594  1.00  0.00    -0.111 OA 
HETATM   20  C   UNL     1     -12.346  12.788  69.896  1.00  0.00    -0.070 C  
ENDBRANCH  12  19
BRANCH  16  21
HETATM   21  C   UNL     1     -10.105   7.836  67.014  1.00  0.00    -0.273 C  
BRANCH  21  22
HETATM   22  O   UNL     1     -10.835   7.018  67.884  1.00  0.00    -0.218 OA 
BRANCH  22  23
HETATM   23  C   UNL     1      -9.995   6.418  68.763  1.00  0.00    -0.147 C  
HETATM   24  O   UNL     1      -8.866   6.042  68.538  1.00  0.00    -0.113 OA 
BRANCH  23  25
HETATM   25  C   UNL     1     -10.665   6.218  70.030  1.00  0.00    -0.346 A  
HETATM   26  C   UNL     1     -11.597   7.184  70.371  1.00  0.00    -0.258 A  
HETATM   27  N   UNL     1     -12.326   7.150  71.512  1.00  0.00    -0.350 NA 
HETATM   28  C   UNL     1     -12.089   6.113  72.343  1.00  0.00    -0.135 A  
HETATM   29  C   UNL     1     -11.135   5.114  72.106  1.00  0.00    -0.059 A  
HETATM   30  C   UNL     1     -10.406   5.172  70.926  1.00  0.00    -0.282 A  
HETATM   31 BR   UNL     1     -10.877   3.729  73.346  1.00  0.00    -0.320 Br 
ENDBRANCH  23  25
ENDBRANCH  22  23
ENDBRANCH  21  22
ENDBRANCH  16  21
TORSDOF 5
ENDMDL
MODEL      118
REMARK 921   NORMALIZED FREE ENERGY PREDICTED BY IDOCK:   -4.67 KCAL/MOL
REMARK 922        TOTAL FREE ENERGY PREDICTED BY IDOCK:   -6.46 KCAL/MOL
REMARK 923 INTER-LIGAND FREE ENERGY PREDICTED BY IDOCK:   -5.89 KCAL/MOL
REMARK 924 INTRA-LIGAND FREE ENERGY PREDICTED BY IDOCK:   -0.57 KCAL/MOL
REMARK 927      BINDING AFFINITY PREDICTED BY RF-SCORE:    0.00 PKD
ROOT
HETATM    1  C   UNL     1      -7.532   9.667  67.961  1.00  0.00    -0.082 C  
HETATM    2  C   UNL     1      -6.559   8.639  68.527  1.00  0.00    -0.059 C  
HETATM    3  C   UNL     1      -7.369   7.582  69.044  1.00  0.00    -0.087 A  
HETATM    4  C   UNL     1      -7.174   6.773  70.114  1.00  0.00    -0.076 A  
HETATM    5  N   UNL     1      -8.336   6.068  70.261  1.00  0.00    -0.122 NA 
HETATM    6  C   UNL     1      -8.536   5.215  71.408  1.00  0.00    -0.128 C  
HETATM    7  C   UNL     1      -9.228   6.399  69.256  1.00  0.00    -0.135 A  
HETATM    8  C   UNL     1     -10.515   5.967  68.907  1.00  0.00    -0.325 A  
HETATM    9  C   UNL     1     -11.134   6.623  67.826  1.00  0.00    -0.332 A  
HETATM   10  C   UNL     1     -10.557   7.725  67.129  1.00  0.00    -0.401 A  
HETATM   11  C   UNL     1      -9.275   8.202  67.434  1.00  0.00    -0.159 A  
HETATM   12  C   UNL     1      -8.417   9.394  66.734  1.00  0.00    -0.127 C  
HETATM   13  C   UNL     1      -8.649   7.435  68.494  1.00  0.00    -0.128 A  
HETATM   14  C   UNL     1      -8.368  11.172  66.361  1.00  0.00    -0.167 C  
HETATM   15  C   UNL     1      -9.828  10.599  68.836  1.00  0.00    -0.201 C  
HETATM   16  C   UNL     1      -7.419  12.125  67.450  1.00  0.00    -0.156 C  
HETATM   17  N   UNL     1      -8.334  10.505  68.990  1.00  0.00    -0.146 NA 
HETATM   18  C   UNL     1      -7.831  11.849  68.896  1.00  0.00     0.015 C  
ENDROOT
BRANCH  12  19
HETATM   19  O   UNL     1      -7.736   8.777  65.612  1.00  0.00    -0.088 OA 
HETATM   20  C   UNL     1      -8.624   8.389  64.558  1.00  0.00     0.012 C  
ENDBRANCH  12  19
BRANCH  16  21
HETATM   21  C   UNL     1      -6.900  13.563  67.462  1.00  0.00    -0.143 C  
BRANCH  21  22
HETATM   22  O   UNL     1      -7.569  14.476  68.285  1.00  0.00    -0.106 OA 
BRANCH  22  23
HETATM   23  C   UNL     1      -8.635  14.993  67.624  1.00  0.00    -0.171 C  
HETATM   24  O   UNL     1      -8.608  15.595  66.574  1.00  0.00    -0.264 OA 
BRANCH  23  25
HETATM   25  C   UNL     1      -9.842  14.782  68.393  1.00  0.00    -0.220 A  
HETATM   26  C   UNL     1     -10.783  13.948  67.812  1.00  0.00    -0.246 A  
HETATM   27  N   UNL     1     -11.963  13.630  68.395  1.00  0.00    -0.367 NA 
HETATM   28  C   UNL     1     -12.206  14.191  69.598  1.00  0.00    -0.326 A  
HETATM   29  C   UNL     1     -11.338  15.082  70.244  1.00  0.00    -0.263 A  
HETATM   30  C   UNL     1     -10.133  15.385  69.624  1.00  0.00    -0.275 A  
HETATM   31 BR   UNL     1     -11.792  15.818  71.910  1.00  0.00    -0.622 Br 
ENDBRANCH  23  25
ENDBRANCH  22  23
ENDBRANCH  21  22
ENDBRANCH  16  21
TORSDOF 5
ENDMDL
MODEL      119
REMARK 921   NORMALIZED FREE ENERGY PREDICTED BY IDOCK:   -4.67 KCAL/MOL
REMARK 922        TOTAL FREE ENERGY PREDICTED BY IDOCK:   -6.46 KCAL/MOL
REMARK 923 INTER-LIGAND FREE ENERGY PREDICTED BY IDOCK:   -6.39 KCAL/MOL
REMARK 924 INTRA-LIGAND FREE ENERGY PREDICTED BY IDOCK:   -0.07 KCAL/MOL
REMARK 927      BINDING AFFINITY PREDICTED BY RF-SCORE:    0.00 PKD
ROOT
HETATM    1  C   UNL     1     -10.155  12.271  68.375  1.00  0.00    -0.215 C  
HETATM    2  C   UNL     1     -10.533  13.662  68.869  1.00  0.00    -0.167 C  
HETATM    3  C   UNL     1     -10.802  14.431  67.695  1.00  0.00    -0.276 A  
HETATM    4  C   UNL     1     -10.592  15.747  67.444  1.00  0.00    -0.313 A  
HETATM    5  N   UNL     1     -10.857  15.914  66.113  1.00  0.00    -0.260 NA 
HETATM    6  C   UNL     1     -10.585  17.176  65.465  1.00  0.00    -0.150 C  
HETATM    7  C   UNL     1     -11.278  14.721  65.553  1.00  0.00    -0.346 A  
HETATM    8  C   UNL     1     -11.706  14.337  64.275  1.00  0.00    -0.348 A  
HETATM    9  C   UNL     1     -11.988  12.970  64.084  1.00  0.00    -0.494 A  
HETATM   10  C   UNL     1     -11.798  11.972  65.086  1.00  0.00    -0.278 A  
HETATM   11  C   UNL     1     -11.372  12.297  66.380  1.00  0.00    -0.405 A  
HETATM   12  C   UNL     1     -11.150  11.333  67.672  1.00  0.00    -0.277 C  
HETATM   13  C   UNL     1     -11.182  13.724  66.547  1.00  0.00    -0.319 A  
HETATM   14  C   UNL     1     -10.215   9.922  68.334  1.00  0.00    -0.203 C  
HETATM   15  C   UNL     1      -8.670  11.450  66.369  1.00  0.00    -0.185 C  
HETATM   16  C   UNL     1      -8.864  10.338  69.332  1.00  0.00    -0.177 C  
HETATM   17  N   UNL     1      -8.762  12.125  67.710  1.00  0.00    -0.162 NA 
HETATM   18  C   UNL     1      -7.962  11.342  68.614  1.00  0.00    -0.141 C  
ENDROOT
BRANCH  12  19
HETATM   19  O   UNL     1     -12.448  11.229  68.309  1.00  0.00    -0.317 OA 
HETATM   20  C   UNL     1     -12.371  11.116  69.734  1.00  0.00    -0.246 C  
ENDBRANCH  12  19
BRANCH  16  21
HETATM   21  C   UNL     1      -7.926   9.569  70.262  1.00  0.00    -0.175 C  
BRANCH  21  22
HETATM   22  O   UNL     1      -6.730   9.094  69.711  1.00  0.00    -0.047 OA 
BRANCH  22  23
HETATM   23  C   UNL     1      -6.820   7.755  69.508  1.00  0.00    -0.047 C  
HETATM   24  O   UNL     1      -6.329   6.888  70.196  1.00  0.00    -0.034 OA 
BRANCH  23  25
HETATM   25  C   UNL     1      -7.547   7.489  68.285  1.00  0.00    -0.114 A  
HETATM   26  C   UNL     1      -8.598   6.594  68.399  1.00  0.00    -0.124 A  
HETATM   27  N   UNL     1      -9.393   6.239  67.361  1.00  0.00    -0.115 NA 
HETATM   28  C   UNL     1      -9.100   6.794  66.166  1.00  0.00    -0.109 A  
HETATM   29  C   UNL     1      -8.031   7.672  65.944  1.00  0.00    -0.116 A  
HETATM   30  C   UNL     1      -7.236   8.023  67.028  1.00  0.00    -0.087 A  
HETATM   31 BR   UNL     1      -7.708   8.367  64.231  1.00  0.00    -0.143 Br 
ENDBRANCH  23  25
ENDBRANCH  22  23
ENDBRANCH  21  22
ENDBRANCH  16  21
TORSDOF 5
ENDMDL
MODEL      120
REMARK 921   NORMALIZED FREE ENERGY PREDICTED BY IDOCK:   -4.66 KCAL/MOL
REMARK 922        TOTAL FREE ENERGY PREDICTED BY IDOCK:   -6.45 KCAL/MOL
REMARK 923 INTER-LIGAND FREE ENERGY PREDICTED BY IDOCK:   -6.22 KCAL/MOL
REMARK 924 INTRA-LIGAND FREE ENERGY PREDICTED BY IDOCK:   -0.22 KCAL/MOL
REMARK 927      BINDING AFFINITY PREDICTED BY RF-SCORE:    0.00 PKD
ROOT
HETATM    1  C   UNL     1      -9.060  10.722  67.346  1.00  0.00    -0.143 C  
HETATM    2  C   UNL     1      -8.127  11.640  68.127  1.00  0.00    -0.148 C  
HETATM    3  C   UNL     1      -8.529  12.972  67.799  1.00  0.00    -0.188 A  
HETATM    4  C   UNL     1      -7.793  14.102  67.673  1.00  0.00    -0.179 A  
HETATM    5  N   UNL     1      -8.646  15.044  67.170  1.00  0.00    -0.208 NA 
HETATM    6  C   UNL     1      -8.152  16.339  66.763  1.00  0.00    -0.264 C  
HETATM    7  C   UNL     1      -9.918  14.516  67.034  1.00  0.00    -0.255 A  
HETATM    8  C   UNL     1     -11.153  15.031  66.617  1.00  0.00    -0.326 A  
HETATM    9  C   UNL     1     -12.229  14.125  66.549  1.00  0.00    -0.463 A  
HETATM   10  C   UNL     1     -12.110  12.728  66.812  1.00  0.00    -0.290 A  
HETATM   11  C   UNL     1     -10.901  12.157  67.232  1.00  0.00    -0.286 A  
HETATM   12  C   UNL     1     -10.566  10.617  67.635  1.00  0.00    -0.246 C  
HETATM   13  C   UNL     1      -9.851  13.147  67.370  1.00  0.00    -0.226 A  
HETATM   14  C   UNL     1     -10.513   8.900  67.042  1.00  0.00    -0.326 C  
HETATM   15  C   UNL     1     -10.005  10.829  64.897  1.00  0.00    -0.312 C  
HETATM   16  C   UNL     1      -8.951   8.339  66.553  1.00  0.00    -0.189 C  
HETATM   17  N   UNL     1      -8.829  10.636  65.816  1.00  0.00    -0.178 NA 
HETATM   18  C   UNL     1      -8.324   9.315  65.556  1.00  0.00    -0.133 C  
ENDROOT
BRANCH  12  19
HETATM   19  O   UNL     1     -10.914  10.497  69.038  1.00  0.00    -0.213 OA 
HETATM   20  C   UNL     1     -12.268  10.872  69.318  1.00  0.00    -0.169 C  
ENDBRANCH  12  19
BRANCH  16  21
HETATM   21  C   UNL     1      -8.349   6.980  66.196  1.00  0.00    -0.130 C  
BRANCH  21  22
HETATM   22  O   UNL     1      -8.337   6.004  67.200  1.00  0.00    -0.106 OA 
BRANCH  22  23
HETATM   23  C   UNL     1      -9.486   5.284  67.152  1.00  0.00    -0.127 C  
HETATM   24  O   UNL     1     -10.518   5.535  67.734  1.00  0.00    -0.205 OA 
BRANCH  23  25
HETATM   25  C   UNL     1      -9.294   4.102  66.339  1.00  0.00    -0.178 A  
HETATM   26  C   UNL     1      -8.368   3.191  66.821  1.00  0.00    -0.092 A  
HETATM   27  N   UNL     1      -8.072   2.025  66.197  1.00  0.00    -0.078 NA 
HETATM   28  C   UNL     1      -8.722   1.785  65.038  1.00  0.00    -0.112 A  
HETATM   29  C   UNL     1      -9.639   2.666  64.450  1.00  0.00    -0.134 A  
HETATM   30  C   UNL     1      -9.927   3.851  65.115  1.00  0.00    -0.171 A  
HETATM   31 BR   UNL     1     -10.467   2.234  62.822  1.00  0.00    -0.149 Br 
ENDBRANCH  23  25
ENDBRANCH  22  23
ENDBRANCH  21  22
ENDBRANCH  16  21
TORSDOF 5
ENDMDL
MODEL      121
REMARK 921   NORMALIZED FREE ENERGY PREDICTED BY IDOCK:   -4.62 KCAL/MOL
REMARK 922        TOTAL FREE ENERGY PREDICTED BY IDOCK:   -6.40 KCAL/MOL
REMARK 923 INTER-LIGAND FREE ENERGY PREDICTED BY IDOCK:   -6.42 KCAL/MOL
REMARK 924 INTRA-LIGAND FREE ENERGY PREDICTED BY IDOCK:    0.01 KCAL/MOL
REMARK 927      BINDING AFFINITY PREDICTED BY RF-SCORE:    0.00 PKD
ROOT
HETATM    1  C   UNL     1     -10.191   7.893  69.568  1.00  0.00    -0.208 C  
HETATM    2  C   UNL     1     -10.156   6.816  68.489  1.00  0.00    -0.166 C  
HETATM    3  C   UNL     1      -8.995   6.030  68.763  1.00  0.00    -0.118 A  
HETATM    4  C   UNL     1      -8.149   5.394  67.915  1.00  0.00    -0.100 A  
HETATM    5  N   UNL     1      -7.114   4.952  68.691  1.00  0.00    -0.056 NA 
HETATM    6  C   UNL     1      -5.945   4.359  68.085  1.00  0.00    -0.027 C  
HETATM    7  C   UNL     1      -7.341   5.265  70.020  1.00  0.00    -0.064 A  
HETATM    8  C   UNL     1      -6.650   5.023  71.215  1.00  0.00    -0.038 A  
HETATM    9  C   UNL     1      -7.191   5.587  72.386  1.00  0.00    -0.093 A  
HETATM   10  C   UNL     1      -8.343   6.429  72.405  1.00  0.00    -0.106 A  
HETATM   11  C   UNL     1      -9.073   6.706  71.242  1.00  0.00    -0.151 A  
HETATM   12  C   UNL     1     -10.432   7.582  71.053  1.00  0.00    -0.215 C  
HETATM   13  C   UNL     1      -8.525   6.030  70.083  1.00  0.00    -0.127 A  
HETATM   14  C   UNL     1     -11.177   9.230  71.230  1.00  0.00    -0.425 C  
HETATM   15  C   UNL     1      -8.308   9.367  70.654  1.00  0.00    -0.175 C  
HETATM   16  C   UNL     1     -11.248  10.164  69.774  1.00  0.00    -0.325 C  
HETATM   17  N   UNL     1      -9.142   9.027  69.448  1.00  0.00    -0.143 NA 
HETATM   18  C   UNL     1      -9.872  10.220  69.111  1.00  0.00    -0.216 C  
ENDROOT
BRANCH  12  19
HETATM   19  O   UNL     1     -11.525   6.667  71.319  1.00  0.00    -0.280 OA 
HETATM   20  C   UNL     1     -11.364   5.935  72.539  1.00  0.00    -0.304 C  
ENDBRANCH  12  19
BRANCH  16  21
HETATM   21  C   UNL     1     -11.936  11.461  69.351  1.00  0.00    -0.339 C  
BRANCH  21  22
HETATM   22  O   UNL     1     -11.122  12.585  69.167  1.00  0.00    -0.243 OA 
BRANCH  22  23
HETATM   23  C   UNL     1     -11.289  13.072  67.912  1.00  0.00    -0.288 C  
HETATM   24  O   UNL     1     -11.717  12.465  66.955  1.00  0.00    -0.381 OA 
BRANCH  23  25
HETATM   25  C   UNL     1     -10.813  14.437  67.845  1.00  0.00    -0.256 A  
HETATM   26  C   UNL     1     -11.694  15.400  68.309  1.00  0.00    -0.297 A  
HETATM   27  N   UNL     1     -11.410  16.724  68.332  1.00  0.00    -0.192 NA 
HETATM   28  C   UNL     1     -10.202  17.085  67.852  1.00  0.00    -0.317 A  
HETATM   29  C   UNL     1      -9.264  16.190  67.320  1.00  0.00    -0.208 A  
HETATM   30  C   UNL     1      -9.580  14.838  67.314  1.00  0.00    -0.223 A  
HETATM   31 BR   UNL     1      -7.620  16.811  66.660  1.00  0.00    -0.335 Br 
ENDBRANCH  23  25
ENDBRANCH  22  23
ENDBRANCH  21  22
ENDBRANCH  16  21
TORSDOF 5
ENDMDL
MODEL      122
REMARK 921   NORMALIZED FREE ENERGY PREDICTED BY IDOCK:   -4.59 KCAL/MOL
REMARK 922        TOTAL FREE ENERGY PREDICTED BY IDOCK:   -6.36 KCAL/MOL
REMARK 923 INTER-LIGAND FREE ENERGY PREDICTED BY IDOCK:   -5.87 KCAL/MOL
REMARK 924 INTRA-LIGAND FREE ENERGY PREDICTED BY IDOCK:   -0.49 KCAL/MOL
REMARK 927      BINDING AFFINITY PREDICTED BY RF-SCORE:    0.00 PKD
ROOT
HETATM    1  C   UNL     1      -9.249   7.545  70.164  1.00  0.00    -0.154 C  
HETATM    2  C   UNL     1      -8.546   8.746  69.542  1.00  0.00    -0.130 C  
HETATM    3  C   UNL     1      -9.527   9.783  69.484  1.00  0.00    -0.226 A  
HETATM    4  C   UNL     1      -9.704  10.770  68.571  1.00  0.00    -0.182 A  
HETATM    5  N   UNL     1     -10.891  11.364  68.897  1.00  0.00    -0.205 NA 
HETATM    6  C   UNL     1     -11.471  12.366  68.034  1.00  0.00    -0.322 C  
HETATM    7  C   UNL     1     -11.422  10.784  70.036  1.00  0.00    -0.331 A  
HETATM    8  C   UNL     1     -12.564  11.019  70.814  1.00  0.00    -0.463 A  
HETATM    9  C   UNL     1     -12.795  10.137  71.886  1.00  0.00    -0.526 A  
HETATM   10  C   UNL     1     -11.979   9.002  72.172  1.00  0.00    -0.395 A  
HETATM   11  C   UNL     1     -10.826   8.716  71.429  1.00  0.00    -0.339 A  
HETATM   12  C   UNL     1      -9.737   7.523  71.621  1.00  0.00    -0.161 C  
HETATM   13  C   UNL     1     -10.587   9.705  70.396  1.00  0.00    -0.354 A  
HETATM   14  C   UNL     1      -9.487   5.723  71.629  1.00  0.00    -0.172 C  
HETATM   15  C   UNL     1     -11.650   6.533  69.827  1.00  0.00    -0.327 C  
HETATM   16  C   UNL     1      -8.861   5.061  70.157  1.00  0.00    -0.138 C  
HETATM   17  N   UNL     1     -10.278   6.805  69.271  1.00  0.00    -0.174 NA 
HETATM   18  C   UNL     1      -9.703   5.523  68.967  1.00  0.00    -0.144 C  
ENDROOT
BRANCH  12  19
HETATM   19  O   UNL     1      -8.783   8.018  72.594  1.00  0.00    -0.152 OA 
HETATM   20  C   UNL     1      -9.142   7.707  73.945  1.00  0.00    -0.261 C  
ENDBRANCH  12  19
BRANCH  16  21
HETATM   21  C   UNL     1      -8.296   3.706  69.731  1.00  0.00    -0.052 C  
BRANCH  21  22
HETATM   22  O   UNL     1      -7.003   3.694  69.195  1.00  0.00    -0.044 OA 
BRANCH  22  23
HETATM   23  C   UNL     1      -7.034   3.193  67.934  1.00  0.00    -0.050 C  
HETATM   24  O   UNL     1      -6.894   2.033  67.617  1.00  0.00    -0.038 OA 
BRANCH  23  25
HETATM   25  C   UNL     1      -7.198   4.268  66.980  1.00  0.00    -0.068 A  
HETATM   26  C   UNL     1      -8.092   4.022  65.951  1.00  0.00    -0.101 A  
HETATM   27  N   UNL     1      -8.376   4.920  64.977  1.00  0.00    -0.129 NA 
HETATM   28  C   UNL     1      -7.719   6.098  65.039  1.00  0.00    -0.099 A  
HETATM   29  C   UNL     1      -6.765   6.419  66.012  1.00  0.00    -0.049 A  
HETATM   30  C   UNL     1      -6.497   5.482  67.001  1.00  0.00    -0.044 A  
HETATM   31 BR   UNL     1      -5.898   8.084  65.985  1.00  0.00    -0.038 Br 
ENDBRANCH  23  25
ENDBRANCH  22  23
ENDBRANCH  21  22
ENDBRANCH  16  21
TORSDOF 5
ENDMDL
MODEL      123
REMARK 921   NORMALIZED FREE ENERGY PREDICTED BY IDOCK:   -4.58 KCAL/MOL
REMARK 922        TOTAL FREE ENERGY PREDICTED BY IDOCK:   -6.35 KCAL/MOL
REMARK 923 INTER-LIGAND FREE ENERGY PREDICTED BY IDOCK:   -6.05 KCAL/MOL
REMARK 924 INTRA-LIGAND FREE ENERGY PREDICTED BY IDOCK:   -0.30 KCAL/MOL
REMARK 927      BINDING AFFINITY PREDICTED BY RF-SCORE:    0.00 PKD
ROOT
HETATM    1  C   UNL     1      -9.410   9.671  66.888  1.00  0.00    -0.146 C  
HETATM    2  C   UNL     1      -9.451   9.649  65.364  1.00  0.00    -0.343 C  
HETATM    3  C   UNL     1      -9.988  10.914  64.972  1.00  0.00    -0.356 A  
HETATM    4  C   UNL     1     -10.778  11.242  63.921  1.00  0.00    -0.384 A  
HETATM    5  N   UNL     1     -11.142  12.544  64.125  1.00  0.00    -0.347 NA 
HETATM    6  C   UNL     1     -12.118  13.175  63.268  1.00  0.00    -0.386 C  
HETATM    7  C   UNL     1     -10.539  13.038  65.269  1.00  0.00    -0.304 A  
HETATM    8  C   UNL     1     -10.529  14.284  65.910  1.00  0.00    -0.315 A  
HETATM    9  C   UNL     1      -9.830  14.364  67.130  1.00  0.00    -0.254 A  
HETATM   10  C   UNL     1      -9.205  13.249  67.763  1.00  0.00    -0.209 A  
HETATM   11  C   UNL     1      -9.184  11.979  67.170  1.00  0.00    -0.190 A  
HETATM   12  C   UNL     1      -8.486  10.603  67.687  1.00  0.00    -0.118 C  
HETATM   13  C   UNL     1      -9.840  11.974  65.877  1.00  0.00    -0.259 A  
HETATM   14  C   UNL     1      -8.450   9.358  69.010  1.00  0.00    -0.129 C  
HETATM   15  C   UNL     1     -11.104  10.558  68.690  1.00  0.00    -0.267 C  
HETATM   16  C   UNL     1      -9.350   7.916  68.686  1.00  0.00    -0.145 C  
HETATM   17  N   UNL     1     -10.771   9.553  67.620  1.00  0.00    -0.278 NA 
HETATM   18  C   UNL     1     -10.777   8.265  68.259  1.00  0.00    -0.019 C  
ENDROOT
BRANCH  12  19
HETATM   19  O   UNL     1      -7.116  10.660  67.215  1.00  0.00    -0.085 OA 
HETATM   20  C   UNL     1      -6.359  11.721  67.808  1.00  0.00    -0.067 C  
ENDBRANCH  12  19
BRANCH  16  21
HETATM   21  C   UNL     1      -9.467   6.540  69.342  1.00  0.00    -0.145 C  
BRANCH  21  22
HETATM   22  O   UNL     1      -9.989   5.503  68.561  1.00  0.00    -0.138 OA 
BRANCH  22  23
HETATM   23  C   UNL     1      -9.169   4.424  68.624  1.00  0.00    -0.135 C  
HETATM   24  O   UNL     1      -8.673   3.954  69.624  1.00  0.00    -0.070 OA 
BRANCH  23  25
HETATM   25  C   UNL     1      -8.901   3.929  67.291  1.00  0.00    -0.135 A  
HETATM   26  C   UNL     1      -7.636   3.399  67.094  1.00  0.00    -0.078 A  
HETATM   27  N   UNL     1      -7.218   2.880  65.915  1.00  0.00    -0.065 NA 
HETATM   28  C   UNL     1      -8.105   2.915  64.898  1.00  0.00    -0.086 A  
HETATM   29  C   UNL     1      -9.388   3.471  64.988  1.00  0.00    -0.155 A  
HETATM   30  C   UNL     1      -9.791   3.992  66.211  1.00  0.00    -0.177 A  
HETATM   31 BR   UNL     1     -10.529   3.483  63.498  1.00  0.00    -0.269 Br 
ENDBRANCH  23  25
ENDBRANCH  22  23
ENDBRANCH  21  22
ENDBRANCH  16  21
TORSDOF 5
ENDMDL
MODEL      124
REMARK 921   NORMALIZED FREE ENERGY PREDICTED BY IDOCK:   -4.57 KCAL/MOL
REMARK 922        TOTAL FREE ENERGY PREDICTED BY IDOCK:   -6.34 KCAL/MOL
REMARK 923 INTER-LIGAND FREE ENERGY PREDICTED BY IDOCK:   -6.24 KCAL/MOL
REMARK 924 INTRA-LIGAND FREE ENERGY PREDICTED BY IDOCK:   -0.10 KCAL/MOL
REMARK 927      BINDING AFFINITY PREDICTED BY RF-SCORE:    0.00 PKD
ROOT
HETATM    1  C   UNL     1      -8.867   6.161  69.482  1.00  0.00    -0.130 C  
HETATM    2  C   UNL     1      -8.867   4.683  69.854  1.00  0.00    -0.129 C  
HETATM    3  C   UNL     1      -8.510   3.982  68.662  1.00  0.00    -0.102 A  
HETATM    4  C   UNL     1      -8.905   2.767  68.209  1.00  0.00    -0.123 A  
HETATM    5  N   UNL     1      -8.406   2.666  66.940  1.00  0.00    -0.090 NA 
HETATM    6  C   UNL     1      -8.769   1.552  66.096  1.00  0.00    -0.115 C  
HETATM    7  C   UNL     1      -7.661   3.789  66.626  1.00  0.00    -0.088 A  
HETATM    8  C   UNL     1      -6.913   4.188  65.510  1.00  0.00    -0.062 A  
HETATM    9  C   UNL     1      -6.347   5.476  65.552  1.00  0.00    -0.038 A  
HETATM   10  C   UNL     1      -6.549   6.399  66.621  1.00  0.00    -0.048 A  
HETATM   11  C   UNL     1      -7.289   6.058  67.761  1.00  0.00    -0.077 A  
HETATM   12  C   UNL     1      -7.590   6.928  69.103  1.00  0.00    -0.097 C  
HETATM   13  C   UNL     1      -7.774   4.692  67.705  1.00  0.00    -0.086 A  
HETATM   14  C   UNL     1      -8.359   8.439  69.755  1.00  0.00    -0.125 C  
HETATM   15  C   UNL     1      -9.721   7.449  67.357  1.00  0.00    -0.153 C  
HETATM   16  C   UNL     1      -9.942   8.229  70.423  1.00  0.00    -0.196 C  
HETATM   17  N   UNL     1     -10.039   6.653  68.594  1.00  0.00    -0.154 NA 
HETATM   18  C   UNL     1     -10.847   7.503  69.427  1.00  0.00    -0.150 C  
ENDROOT
BRANCH  12  19
HETATM   19  O   UNL     1      -6.456   6.701  69.977  1.00  0.00    -0.038 OA 
HETATM   20  C   UNL     1      -5.274   7.395  69.561  1.00  0.00    -0.015 C  
ENDBRANCH  12  19
BRANCH  16  21
HETATM   21  C   UNL     1     -10.892   9.091  71.254  1.00  0.00    -0.315 C  
BRANCH  21  22
HETATM   22  O   UNL     1     -11.871   9.812  70.560  1.00  0.00    -0.266 OA 
BRANCH  22  23
HETATM   23  C   UNL     1     -12.692  10.436  71.441  1.00  0.00    -0.446 C  
HETATM   24  O   UNL     1     -13.386   9.904  72.280  1.00  0.00    -0.435 OA 
BRANCH  23  25
HETATM   25  C   UNL     1     -12.683  11.862  71.200  1.00  0.00    -0.384 A  
HETATM   26  C   UNL     1     -11.975  12.274  70.083  1.00  0.00    -0.298 A  
HETATM   27  N   UNL     1     -11.871  13.569  69.699  1.00  0.00    -0.319 NA 
HETATM   28  C   UNL     1     -12.488  14.477  70.485  1.00  0.00    -0.344 A  
HETATM   29  C   UNL     1     -13.187  14.162  71.657  1.00  0.00    -0.353 A  
HETATM   30  C   UNL     1     -13.282  12.825  72.023  1.00  0.00    -0.538 A  
HETATM   31 BR   UNL     1     -13.989  15.514  72.683  1.00  0.00    -0.526 Br 
ENDBRANCH  23  25
ENDBRANCH  22  23
ENDBRANCH  21  22
ENDBRANCH  16  21
TORSDOF 5
ENDMDL
MODEL      125
REMARK 921   NORMALIZED FREE ENERGY PREDICTED BY IDOCK:   -4.55 KCAL/MOL
REMARK 922        TOTAL FREE ENERGY PREDICTED BY IDOCK:   -6.31 KCAL/MOL
REMARK 923 INTER-LIGAND FREE ENERGY PREDICTED BY IDOCK:   -6.12 KCAL/MOL
REMARK 924 INTRA-LIGAND FREE ENERGY PREDICTED BY IDOCK:   -0.19 KCAL/MOL
REMARK 927      BINDING AFFINITY PREDICTED BY RF-SCORE:    0.00 PKD
ROOT
HETATM    1  C   UNL     1      -9.929  10.614  68.429  1.00  0.00    -0.163 C  
HETATM    2  C   UNL     1     -11.364  10.821  68.899  1.00  0.00    -0.349 C  
HETATM    3  C   UNL     1     -11.620  12.220  68.762  1.00  0.00    -0.380 A  
HETATM    4  C   UNL     1     -12.390  13.047  69.512  1.00  0.00    -0.012 A  
HETATM    5  N   UNL     1     -12.133  14.308  69.052  1.00  0.00    -0.315 NA 
HETATM    6  C   UNL     1     -12.672  15.461  69.734  1.00  0.00     0.001 C  
HETATM    7  C   UNL     1     -11.250  14.260  67.987  1.00  0.00    -0.280 A  
HETATM    8  C   UNL     1     -10.691  15.222  67.135  1.00  0.00    -0.316 A  
HETATM    9  C   UNL     1      -9.748  14.766  66.194  1.00  0.00    -0.338 A  
HETATM   10  C   UNL     1      -9.296  13.415  66.112  1.00  0.00    -0.075 A  
HETATM   11  C   UNL     1      -9.818  12.411  66.938  1.00  0.00    -0.219 A  
HETATM   12  C   UNL     1      -9.489  10.818  66.970  1.00  0.00    -0.164 C  
HETATM   13  C   UNL     1     -10.846  12.918  67.826  1.00  0.00    -0.248 A  
HETATM   14  C   UNL     1      -8.194   9.570  67.236  1.00  0.00    -0.114 C  
HETATM   15  C   UNL     1      -7.729  12.001  68.804  1.00  0.00    -0.054 C  
HETATM   16  C   UNL     1      -8.170   8.861  68.814  1.00  0.00    -0.115 C  
HETATM   17  N   UNL     1      -8.810  11.122  69.374  1.00  0.00     0.190 NA 
HETATM   18  C   UNL     1      -8.151   9.951  69.887  1.00  0.00    -0.188 C  
ENDROOT
BRANCH  12  19
HETATM   19  O   UNL     1     -10.360  10.219  65.978  1.00  0.00    -0.237 OA 
HETATM   20  C   UNL     1     -10.016  10.578  64.635  1.00  0.00    -0.347 C  
ENDBRANCH  12  19
BRANCH  16  21
HETATM   21  C   UNL     1      -7.458   7.671  69.458  1.00  0.00    -0.092 C  
BRANCH  21  22
HETATM   22  O   UNL     1      -7.975   6.398  69.192  1.00  0.00    -0.107 OA 
BRANCH  22  23
HETATM   23  C   UNL     1      -9.280   6.498  68.835  1.00  0.00    -0.129 C  
HETATM   24  O   UNL     1      -9.712   6.620  67.710  1.00  0.00    -0.122 OA 
BRANCH  23  25
HETATM   25  C   UNL     1     -10.116   6.507  70.016  1.00  0.00    -0.203 A  
HETATM   26  C   UNL     1      -9.949   5.431  70.873  1.00  0.00    -0.202 A  
HETATM   27  N   UNL     1     -10.638   5.283  72.030  1.00  0.00    -0.222 NA 
HETATM   28  C   UNL     1     -11.538   6.247  72.318  1.00  0.00    -0.309 A  
HETATM   29  C   UNL     1     -11.809   7.345  71.492  1.00  0.00    -0.297 A  
HETATM   30  C   UNL     1     -11.084   7.474  70.315  1.00  0.00    -0.263 A  
HETATM   31 BR   UNL     1     -13.101   8.614  71.987  1.00  0.00    -0.448 Br 
ENDBRANCH  23  25
ENDBRANCH  22  23
ENDBRANCH  21  22
ENDBRANCH  16  21
TORSDOF 5
ENDMDL
MODEL      126
REMARK 921   NORMALIZED FREE ENERGY PREDICTED BY IDOCK:   -4.54 KCAL/MOL
REMARK 922        TOTAL FREE ENERGY PREDICTED BY IDOCK:   -6.30 KCAL/MOL
REMARK 923 INTER-LIGAND FREE ENERGY PREDICTED BY IDOCK:   -6.08 KCAL/MOL
REMARK 924 INTRA-LIGAND FREE ENERGY PREDICTED BY IDOCK:   -0.23 KCAL/MOL
REMARK 927      BINDING AFFINITY PREDICTED BY RF-SCORE:    0.00 PKD
ROOT
HETATM    1  C   UNL     1      -9.571   7.014  68.150  1.00  0.00    -0.129 C  
HETATM    2  C   UNL     1     -10.516   6.077  67.407  1.00  0.00    -0.309 C  
HETATM    3  C   UNL     1      -9.704   5.001  66.934  1.00  0.00    -0.182 A  
HETATM    4  C   UNL     1      -9.803   4.261  65.803  1.00  0.00    -0.223 A  
HETATM    5  N   UNL     1      -8.670   3.498  65.761  1.00  0.00    -0.116 NA 
HETATM    6  C   UNL     1      -8.370   2.694  64.599  1.00  0.00    -0.087 C  
HETATM    7  C   UNL     1      -7.897   3.723  66.887  1.00  0.00    -0.084 A  
HETATM    8  C   UNL     1      -6.690   3.197  67.367  1.00  0.00    -0.045 A  
HETATM    9  C   UNL     1      -6.180   3.759  68.554  1.00  0.00    -0.032 A  
HETATM   10  C   UNL     1      -6.784   4.857  69.237  1.00  0.00    -0.048 A  
HETATM   11  C   UNL     1      -7.989   5.424  68.803  1.00  0.00    -0.087 A  
HETATM   12  C   UNL     1      -8.866   6.627  69.459  1.00  0.00    -0.139 C  
HETATM   13  C   UNL     1      -8.514   4.751  67.631  1.00  0.00    -0.104 A  
HETATM   14  C   UNL     1      -8.869   8.383  69.926  1.00  0.00    -0.137 C  
HETATM   15  C   UNL     1      -7.138   7.852  67.623  1.00  0.00    -0.083 C  
HETATM   16  C   UNL     1      -9.621   9.446  68.786  1.00  0.00    -0.156 C  
HETATM   17  N   UNL     1      -8.603   7.855  67.279  1.00  0.00    -0.127 NA 
HETATM   18  C   UNL     1      -9.042   9.220  67.388  1.00  0.00    -0.126 C  
ENDROOT
BRANCH  12  19
HETATM   19  O   UNL     1      -9.716   5.994  70.449  1.00  0.00    -0.165 OA 
HETATM   20  C   UNL     1      -9.138   5.975  71.759  1.00  0.00    -0.145 C  
ENDBRANCH  12  19
BRANCH  16  21
HETATM   21  C   UNL     1     -10.058  10.910  68.793  1.00  0.00    -0.194 C  
BRANCH  21  22
HETATM   22  O   UNL     1      -9.445  11.764  67.868  1.00  0.00    -0.178 OA 
BRANCH  22  23
HETATM   23  C   UNL     1     -10.328  12.712  67.465  1.00  0.00    -0.218 C  
HETATM   24  O   UNL     1     -10.799  13.594  68.148  1.00  0.00    -0.235 OA 
BRANCH  23  25
HETATM   25  C   UNL     1     -10.697  12.488  66.084  1.00  0.00    -0.290 A  
HETATM   26  C   UNL     1     -11.926  13.001  65.704  1.00  0.00    -0.429 A  
HETATM   27  N   UNL     1     -12.425  12.895  64.449  1.00  0.00    -0.606 NA 
HETATM   28  C   UNL     1     -11.660  12.232  63.556  1.00  0.00    -0.486 A  
HETATM   29  C   UNL     1     -10.427  11.640  63.858  1.00  0.00    -0.382 A  
HETATM   30  C   UNL     1      -9.938  11.769  65.151  1.00  0.00    -0.285 A  
HETATM   31 BR   UNL     1      -9.459  10.723  62.536  1.00  0.00    -0.250 Br 
ENDBRANCH  23  25
ENDBRANCH  22  23
ENDBRANCH  21  22
ENDBRANCH  16  21
TORSDOF 5
ENDMDL
MODEL      127
REMARK 921   NORMALIZED FREE ENERGY PREDICTED BY IDOCK:   -4.53 KCAL/MOL
REMARK 922        TOTAL FREE ENERGY PREDICTED BY IDOCK:   -6.28 KCAL/MOL
REMARK 923 INTER-LIGAND FREE ENERGY PREDICTED BY IDOCK:   -6.24 KCAL/MOL
REMARK 924 INTRA-LIGAND FREE ENERGY PREDICTED BY IDOCK:   -0.04 KCAL/MOL
REMARK 927      BINDING AFFINITY PREDICTED BY RF-SCORE:    0.00 PKD
ROOT
HETATM    1  C   UNL     1     -10.202  13.336  68.342  1.00  0.00    -0.249 C  
HETATM    2  C   UNL     1     -10.867  14.205  69.404  1.00  0.00    -0.169 C  
HETATM    3  C   UNL     1     -10.804  15.543  68.906  1.00  0.00    -0.254 A  
HETATM    4  C   UNL     1     -10.661  16.717  69.568  1.00  0.00    -0.273 A  
HETATM    5  N   UNL     1     -10.479  17.666  68.600  1.00  0.00    -0.347 NA 
HETATM    6  C   UNL     1     -10.138  19.023  68.959  1.00  0.00    -0.271 C  
HETATM    7  C   UNL     1     -10.561  17.092  67.344  1.00  0.00    -0.297 A  
HETATM    8  C   UNL     1     -10.492  17.588  66.035  1.00  0.00    -0.274 A  
HETATM    9  C   UNL     1     -10.549  16.642  64.994  1.00  0.00    -0.114 A  
HETATM   10  C   UNL     1     -10.604  15.231  65.203  1.00  0.00    -0.453 A  
HETATM   11  C   UNL     1     -10.673  14.678  66.488  1.00  0.00    -0.312 A  
HETATM   12  C   UNL     1     -10.799  13.121  66.943  1.00  0.00    -0.265 C  
HETATM   13  C   UNL     1     -10.700  15.699  67.518  1.00  0.00    -0.303 A  
HETATM   14  C   UNL     1      -9.999  11.490  66.903  1.00  0.00    -0.231 C  
HETATM   15  C   UNL     1      -8.052  13.679  66.871  1.00  0.00     0.137 C  
HETATM   16  C   UNL     1      -9.114  11.071  68.330  1.00  0.00    -0.161 C  
HETATM   17  N   UNL     1      -8.659  13.441  68.227  1.00  0.00    -0.173 NA 
HETATM   18  C   UNL     1      -8.133  12.187  68.693  1.00  0.00    -0.048 C  
ENDROOT
BRANCH  12  19
HETATM   19  O   UNL     1     -12.218  12.822  66.921  1.00  0.00    -0.454 OA 
HETATM   20  C   UNL     1     -12.875  13.289  65.737  1.00  0.00    -0.065 C  
ENDBRANCH  12  19
BRANCH  16  21
HETATM   21  C   UNL     1      -8.467   9.795  68.870  1.00  0.00    -0.129 C  
BRANCH  21  22
HETATM   22  O   UNL     1      -8.242   8.758  67.957  1.00  0.00    -0.116 OA 
BRANCH  22  23
HETATM   23  C   UNL     1      -8.366   7.561  68.584  1.00  0.00    -0.129 C  
HETATM   24  O   UNL     1      -7.967   7.284  69.693  1.00  0.00    -0.121 OA 
BRANCH  23  25
HETATM   25  C   UNL     1      -9.000   6.606  67.701  1.00  0.00    -0.111 A  
HETATM   26  C   UNL     1     -10.365   6.764  67.532  1.00  0.00    -0.210 A  
HETATM   27  N   UNL     1     -11.117   5.968  66.734  1.00  0.00    -0.236 NA 
HETATM   28  C   UNL     1     -10.466   4.969  66.101  1.00  0.00    -0.286 A  
HETATM   29  C   UNL     1      -9.098   4.702  66.246  1.00  0.00    -0.122 A  
HETATM   30  C   UNL     1      -8.352   5.538  67.067  1.00  0.00    -0.107 A  
HETATM   31 BR   UNL     1      -8.304   3.269  65.331  1.00  0.00    -0.101 Br 
ENDBRANCH  23  25
ENDBRANCH  22  23
ENDBRANCH  21  22
ENDBRANCH  16  21
TORSDOF 5
ENDMDL
MODEL      128
REMARK 921   NORMALIZED FREE ENERGY PREDICTED BY IDOCK:   -4.48 KCAL/MOL
REMARK 922        TOTAL FREE ENERGY PREDICTED BY IDOCK:   -6.22 KCAL/MOL
REMARK 923 INTER-LIGAND FREE ENERGY PREDICTED BY IDOCK:   -6.02 KCAL/MOL
REMARK 924 INTRA-LIGAND FREE ENERGY PREDICTED BY IDOCK:   -0.19 KCAL/MOL
REMARK 927      BINDING AFFINITY PREDICTED BY RF-SCORE:    0.00 PKD
ROOT
HETATM    1  C   UNL     1      -8.425  10.539  67.383  1.00  0.00    -0.122 C  
HETATM    2  C   UNL     1      -8.476   9.565  66.212  1.00  0.00    -0.122 C  
HETATM    3  C   UNL     1      -7.832   8.374  66.669  1.00  0.00    -0.093 A  
HETATM    4  C   UNL     1      -7.074   7.474  65.995  1.00  0.00    -0.069 A  
HETATM    5  N   UNL     1      -6.563   6.637  66.947  1.00  0.00    -0.046 NA 
HETATM    6  C   UNL     1      -5.577   5.642  66.594  1.00  0.00    -0.017 C  
HETATM    7  C   UNL     1      -7.041   6.982  68.198  1.00  0.00    -0.085 A  
HETATM    8  C   UNL     1      -6.882   6.456  69.487  1.00  0.00    -0.065 A  
HETATM    9  C   UNL     1      -7.495   7.160  70.541  1.00  0.00    -0.087 A  
HETATM   10  C   UNL     1      -8.197   8.390  70.373  1.00  0.00    -0.115 A  
HETATM   11  C   UNL     1      -8.388   8.965  69.109  1.00  0.00    -0.124 A  
HETATM   12  C   UNL     1      -9.196  10.314  68.693  1.00  0.00    -0.159 C  
HETATM   13  C   UNL     1      -7.813   8.154  68.053  1.00  0.00    -0.122 A  
HETATM   14  C   UNL     1      -9.286  12.117  68.896  1.00  0.00     0.195 C  
HETATM   15  C   UNL     1      -6.544  11.113  69.125  1.00  0.00    -0.085 C  
HETATM   16  C   UNL     1      -8.565  13.038  67.620  1.00  0.00    -0.190 C  
HETATM   17  N   UNL     1      -7.043  11.163  67.706  1.00  0.00    -0.083 NA 
HETATM   18  C   UNL     1      -7.137  12.556  67.359  1.00  0.00    -0.146 C  
ENDROOT
BRANCH  12  19
HETATM   19  O   UNL     1     -10.578   9.905  68.529  1.00  0.00    -0.199 OA 
HETATM   20  C   UNL     1     -11.207  10.490  67.384  1.00  0.00    -0.173 C  
ENDBRANCH  12  19
BRANCH  16  21
HETATM   21  C   UNL     1      -8.557  14.512  67.217  1.00  0.00    -0.215 C  
BRANCH  21  22
HETATM   22  O   UNL     1      -9.307  14.870  66.091  1.00  0.00    -0.292 OA 
BRANCH  22  23
HETATM   23  C   UNL     1     -10.611  14.554  66.289  1.00  0.00    -0.304 C  
HETATM   24  O   UNL     1     -11.331  14.983  67.164  1.00  0.00    -0.338 OA 
BRANCH  23  25
HETATM   25  C   UNL     1     -11.029  13.555  65.329  1.00  0.00    -0.303 A  
HETATM   26  C   UNL     1     -12.397  13.369  65.218  1.00  0.00    -0.469 A  
HETATM   27  N   UNL     1     -12.965  12.486  64.362  1.00  0.00    -0.785 NA 
HETATM   28  C   UNL     1     -12.117  11.755  63.608  1.00  0.00    -0.381 A  
HETATM   29  C   UNL     1     -10.721  11.839  63.683  1.00  0.00    -0.440 A  
HETATM   30  C   UNL     1     -10.167  12.757  64.566  1.00  0.00    -0.333 A  
HETATM   31 BR   UNL     1      -9.640  10.753  62.598  1.00  0.00    -0.256 Br 
ENDBRANCH  23  25
ENDBRANCH  22  23
ENDBRANCH  21  22
ENDBRANCH  16  21
TORSDOF 5
ENDMDL
MODEL      129
REMARK 921   NORMALIZED FREE ENERGY PREDICTED BY IDOCK:   -4.46 KCAL/MOL
REMARK 922        TOTAL FREE ENERGY PREDICTED BY IDOCK:   -6.20 KCAL/MOL
REMARK 923 INTER-LIGAND FREE ENERGY PREDICTED BY IDOCK:   -6.24 KCAL/MOL
REMARK 924 INTRA-LIGAND FREE ENERGY PREDICTED BY IDOCK:    0.04 KCAL/MOL
REMARK 927      BINDING AFFINITY PREDICTED BY RF-SCORE:    0.00 PKD
ROOT
HETATM    1  C   UNL     1      -8.802   6.430  67.542  1.00  0.00    -0.111 C  
HETATM    2  C   UNL     1      -7.655   5.440  67.376  1.00  0.00    -0.088 C  
HETATM    3  C   UNL     1      -7.442   4.872  68.670  1.00  0.00    -0.069 A  
HETATM    4  C   UNL     1      -6.298   4.454  69.265  1.00  0.00    -0.032 A  
HETATM    5  N   UNL     1      -6.638   4.172  70.558  1.00  0.00    -0.031 NA 
HETATM    6  C   UNL     1      -5.619   3.843  71.528  1.00  0.00    -0.008 C  
HETATM    7  C   UNL     1      -7.994   4.362  70.752  1.00  0.00    -0.064 A  
HETATM    8  C   UNL     1      -8.863   4.189  71.838  1.00  0.00    -0.141 A  
HETATM    9  C   UNL     1     -10.203   4.576  71.648  1.00  0.00    -0.214 A  
HETATM   10  C   UNL     1     -10.693   5.184  70.454  1.00  0.00    -0.129 A  
HETATM   11  C   UNL     1      -9.872   5.384  69.336  1.00  0.00    -0.252 A  
HETATM   12  C   UNL     1     -10.239   5.998  67.875  1.00  0.00    -0.178 C  
HETATM   13  C   UNL     1      -8.527   4.887  69.555  1.00  0.00    -0.090 A  
HETATM   14  C   UNL     1     -10.837   7.465  66.984  1.00  0.00    -0.307 C  
HETATM   15  C   UNL     1      -9.378   8.170  69.425  1.00  0.00    -0.155 C  
HETATM   16  C   UNL     1      -9.602   8.448  66.274  1.00  0.00    -0.286 C  
HETATM   17  N   UNL     1      -8.479   7.746  68.294  1.00  0.00    -0.124 NA 
HETATM   18  C   UNL     1      -8.538   8.798  67.314  1.00  0.00    -0.121 C  
ENDROOT
BRANCH  12  19
HETATM   19  O   UNL     1     -10.739   4.881  67.097  1.00  0.00    -0.074 OA 
HETATM   20  C   UNL     1     -10.051   4.706  65.853  1.00  0.00    -0.258 C  
ENDBRANCH  12  19
BRANCH  16  21
HETATM   21  C   UNL     1      -9.579   9.615  65.287  1.00  0.00    -0.277 C  
BRANCH  21  22
HETATM   22  O   UNL     1      -9.559  10.906  65.826  1.00  0.00    -0.197 OA 
BRANCH  22  23
HETATM   23  C   UNL     1     -10.749  11.517  65.596  1.00  0.00    -0.267 C  
HETATM   24  O   UNL     1     -11.320  11.603  64.532  1.00  0.00    -0.308 OA 
BRANCH  23  25
HETATM   25  C   UNL     1     -11.233  12.130  66.815  1.00  0.00    -0.375 A  
HETATM   26  C   UNL     1     -11.412  13.502  66.762  1.00  0.00    -0.346 A  
HETATM   27  N   UNL     1     -11.869  14.237  67.804  1.00  0.00    -0.377 NA 
HETATM   28  C   UNL     1     -12.135  13.561  68.942  1.00  0.00    -0.279 A  
HETATM   29  C   UNL     1     -11.941  12.183  69.105  1.00  0.00    -0.255 A  
HETATM   30  C   UNL     1     -11.476  11.454  68.018  1.00  0.00    -0.377 A  
HETATM   31 BR   UNL     1     -12.326  11.353  70.744  1.00  0.00    -0.448 Br 
ENDBRANCH  23  25
ENDBRANCH  22  23
ENDBRANCH  21  22
ENDBRANCH  16  21
TORSDOF 5
ENDMDL
MODEL      130
REMARK 921   NORMALIZED FREE ENERGY PREDICTED BY IDOCK:   -4.46 KCAL/MOL
REMARK 922        TOTAL FREE ENERGY PREDICTED BY IDOCK:   -6.20 KCAL/MOL
REMARK 923 INTER-LIGAND FREE ENERGY PREDICTED BY IDOCK:   -5.57 KCAL/MOL
REMARK 924 INTRA-LIGAND FREE ENERGY PREDICTED BY IDOCK:   -0.63 KCAL/MOL
REMARK 927      BINDING AFFINITY PREDICTED BY RF-SCORE:    0.00 PKD
ROOT
HETATM    1  C   UNL     1      -9.620   8.784  68.982  1.00  0.00    -0.162 C  
HETATM    2  C   UNL     1     -10.266   9.915  69.774  1.00  0.00    -0.278 C  
HETATM    3  C   UNL     1     -11.197   9.288  70.657  1.00  0.00    -0.333 A  
HETATM    4  C   UNL     1     -12.397   9.721  71.115  1.00  0.00    -0.359 A  
HETATM    5  N   UNL     1     -12.945   8.658  71.777  1.00  0.00    -0.343 NA 
HETATM    6  C   UNL     1     -14.303   8.719  72.266  1.00  0.00    -0.380 C  
HETATM    7  C   UNL     1     -12.068   7.587  71.776  1.00  0.00    -0.308 A  
HETATM    8  C   UNL     1     -12.095   6.298  72.325  1.00  0.00    -0.255 A  
HETATM    9  C   UNL     1     -11.005   5.458  72.028  1.00  0.00    -0.244 A  
HETATM   10  C   UNL     1      -9.933   5.824  71.161  1.00  0.00    -0.244 A  
HETATM   11  C   UNL     1      -9.853   7.097  70.582  1.00  0.00    -0.184 A  
HETATM   12  C   UNL     1      -8.702   7.731  69.622  1.00  0.00    -0.135 C  
HETATM   13  C   UNL     1     -10.953   7.949  70.991  1.00  0.00    -0.262 A  
HETATM   14  C   UNL     1      -7.842   7.578  68.029  1.00  0.00    -0.121 C  
HETATM   15  C   UNL     1     -10.601   6.601  67.897  1.00  0.00    -0.247 C  
HETATM   16  C   UNL     1      -8.427   8.619  66.775  1.00  0.00    -0.117 C  
HETATM   17  N   UNL     1     -10.501   8.103  67.902  1.00  0.00    -0.217 NA 
HETATM   18  C   UNL     1      -9.943   8.476  66.631  1.00  0.00    -0.293 C  
ENDROOT
BRANCH  12  19
HETATM   19  O   UNL     1      -7.694   8.261  70.520  1.00  0.00    -0.076 OA 
HETATM   20  C   UNL     1      -7.002   7.245  71.254  1.00  0.00    -0.059 C  
ENDBRANCH  12  19
BRANCH  16  21
HETATM   21  C   UNL     1      -7.940   9.019  65.383  1.00  0.00    -0.111 C  
BRANCH  21  22
HETATM   22  O   UNL     1      -7.032   8.161  64.753  1.00  0.00    -0.071 OA 
BRANCH  22  23
HETATM   23  C   UNL     1      -7.677   7.416  63.820  1.00  0.00    -0.125 C  
HETATM   24  O   UNL     1      -8.233   7.829  62.827  1.00  0.00    -0.140 OA 
BRANCH  23  25
HETATM   25  C   UNL     1      -7.670   6.022  64.211  1.00  0.00    -0.105 A  
HETATM   26  C   UNL     1      -8.577   5.212  63.547  1.00  0.00    -0.082 A  
HETATM   27  N   UNL     1      -8.700   3.883  63.777  1.00  0.00    -0.099 NA 
HETATM   28  C   UNL     1      -7.890   3.362  64.723  1.00  0.00    -0.078 A  
HETATM   29  C   UNL     1      -6.976   4.108  65.478  1.00  0.00    -0.062 A  
HETATM   30  C   UNL     1      -6.868   5.468  65.217  1.00  0.00    -0.052 A  
HETATM   31 BR   UNL     1      -5.915   3.278  66.784  1.00  0.00    -0.024 Br 
ENDBRANCH  23  25
ENDBRANCH  22  23
ENDBRANCH  21  22
ENDBRANCH  16  21
TORSDOF 5
ENDMDL
MODEL      131
REMARK 921   NORMALIZED FREE ENERGY PREDICTED BY IDOCK:   -4.42 KCAL/MOL
REMARK 922        TOTAL FREE ENERGY PREDICTED BY IDOCK:   -6.15 KCAL/MOL
REMARK 923 INTER-LIGAND FREE ENERGY PREDICTED BY IDOCK:   -5.45 KCAL/MOL
REMARK 924 INTRA-LIGAND FREE ENERGY PREDICTED BY IDOCK:   -0.70 KCAL/MOL
REMARK 927      BINDING AFFINITY PREDICTED BY RF-SCORE:    0.00 PKD
ROOT
HETATM    1  C   UNL     1      -9.091   7.715  68.682  1.00  0.00    -0.135 C  
HETATM    2  C   UNL     1      -9.016   9.235  68.769  1.00  0.00    -0.132 C  
HETATM    3  C   UNL     1     -10.021   9.621  69.707  1.00  0.00    -0.252 A  
HETATM    4  C   UNL     1     -10.802  10.729  69.748  1.00  0.00    -0.226 A  
HETATM    5  N   UNL     1     -11.709  10.503  70.745  1.00  0.00    -0.348 NA 
HETATM    6  C   UNL     1     -12.802  11.422  70.963  1.00  0.00    -0.286 C  
HETATM    7  C   UNL     1     -11.461   9.287  71.356  1.00  0.00    -0.369 A  
HETATM    8  C   UNL     1     -12.037   8.593  72.429  1.00  0.00    -0.415 A  
HETATM    9  C   UNL     1     -11.528   7.309  72.702  1.00  0.00    -0.304 A  
HETATM   10  C   UNL     1     -10.524   6.668  71.916  1.00  0.00    -0.224 A  
HETATM   11  C   UNL     1      -9.912   7.312  70.832  1.00  0.00    -0.186 A  
HETATM   12  C   UNL     1      -8.722   6.791  69.853  1.00  0.00    -0.141 C  
HETATM   13  C   UNL     1     -10.411   8.661  70.650  1.00  0.00    -0.241 A  
HETATM   14  C   UNL     1      -8.238   5.526  68.641  1.00  0.00    -0.102 C  
HETATM   15  C   UNL     1     -11.120   6.048  68.606  1.00  0.00    -0.211 C  
HETATM   16  C   UNL     1      -8.396   5.998  66.983  1.00  0.00    -0.105 C  
HETATM   17  N   UNL     1     -10.312   7.123  67.931  1.00  0.00    -0.186 NA 
HETATM   18  C   UNL     1      -9.799   6.545  66.719  1.00  0.00    -0.162 C  
ENDROOT
BRANCH  12  19
HETATM   19  O   UNL     1      -7.485   7.125  70.531  1.00  0.00    -0.083 OA 
HETATM   20  C   UNL     1      -7.260   6.346  71.711  1.00  0.00    -0.087 C  
ENDBRANCH  12  19
BRANCH  16  21
HETATM   21  C   UNL     1      -7.947   5.417  65.643  1.00  0.00    -0.107 C  
BRANCH  21  22
HETATM   22  O   UNL     1      -8.361   6.087  64.486  1.00  0.00    -0.123 OA 
BRANCH  22  23
HETATM   23  C   UNL     1      -7.324   6.795  63.971  1.00  0.00    -0.082 C  
HETATM   24  O   UNL     1      -6.479   6.382  63.209  1.00  0.00    -0.032 OA 
BRANCH  23  25
HETATM   25  C   UNL     1      -7.321   8.135  64.517  1.00  0.00    -0.088 A  
HETATM   26  C   UNL     1      -6.094   8.593  64.967  1.00  0.00    -0.060 A  
HETATM   27  N   UNL     1      -5.904   9.825  65.496  1.00  0.00    -0.060 NA 
HETATM   28  C   UNL     1      -6.997  10.611  65.590  1.00  0.00    -0.078 A  
HETATM   29  C   UNL     1      -8.286  10.219  65.205  1.00  0.00    -0.163 A  
HETATM   30  C   UNL     1      -8.450   8.952  64.661  1.00  0.00    -0.185 A  
HETATM   31 BR   UNL     1      -9.739  11.392  65.402  1.00  0.00    -0.276 Br 
ENDBRANCH  23  25
ENDBRANCH  22  23
ENDBRANCH  21  22
ENDBRANCH  16  21
TORSDOF 5
ENDMDL
MODEL      132
REMARK 921   NORMALIZED FREE ENERGY PREDICTED BY IDOCK:   -4.34 KCAL/MOL
REMARK 922        TOTAL FREE ENERGY PREDICTED BY IDOCK:   -6.04 KCAL/MOL
REMARK 923 INTER-LIGAND FREE ENERGY PREDICTED BY IDOCK:   -5.79 KCAL/MOL
REMARK 924 INTRA-LIGAND FREE ENERGY PREDICTED BY IDOCK:   -0.26 KCAL/MOL
REMARK 927      BINDING AFFINITY PREDICTED BY RF-SCORE:    0.00 PKD
ROOT
HETATM    1  C   UNL     1      -8.918   8.355  69.021  1.00  0.00    -0.147 C  
HETATM    2  C   UNL     1      -7.564   8.557  69.691  1.00  0.00    -0.088 C  
HETATM    3  C   UNL     1      -7.438   7.495  70.639  1.00  0.00    -0.077 A  
HETATM    4  C   UNL     1      -6.833   7.472  71.852  1.00  0.00    -0.061 A  
HETATM    5  N   UNL     1      -7.168   6.269  72.408  1.00  0.00    -0.083 NA 
HETATM    6  C   UNL     1      -6.817   5.970  73.777  1.00  0.00    -0.080 C  
HETATM    7  C   UNL     1      -7.932   5.527  71.524  1.00  0.00    -0.116 A  
HETATM    8  C   UNL     1      -8.499   4.246  71.556  1.00  0.00    -0.106 A  
HETATM    9  C   UNL     1      -9.293   3.875  70.454  1.00  0.00    -0.231 A  
HETATM   10  C   UNL     1      -9.597   4.745  69.364  1.00  0.00    -0.249 A  
HETATM   11  C   UNL     1      -9.061   6.037  69.280  1.00  0.00    -0.126 A  
HETATM   12  C   UNL     1      -9.231   7.156  68.111  1.00  0.00    -0.131 C  
HETATM   13  C   UNL     1      -8.182   6.334  70.394  1.00  0.00    -0.121 A  
HETATM   14  C   UNL     1     -10.414   8.204  67.214  1.00  0.00    -0.379 C  
HETATM   15  C   UNL     1     -11.272   7.667  69.963  1.00  0.00    -0.134 C  
HETATM   16  C   UNL     1     -10.522   9.837  67.777  1.00  0.00    -0.297 C  
HETATM   17  N   UNL     1     -10.170   8.688  69.872  1.00  0.00    -0.198 NA 
HETATM   18  C   UNL     1     -10.756   9.864  69.288  1.00  0.00    -0.224 C  
ENDROOT
BRANCH  12  19
HETATM   19  O   UNL     1      -8.211   6.850  67.127  1.00  0.00    -0.115 OA 
HETATM   20  C   UNL     1      -8.436   5.611  66.446  1.00  0.00    -0.121 C  
ENDBRANCH  12  19
BRANCH  16  21
HETATM   21  C   UNL     1     -11.171  11.122  67.261  1.00  0.00    -0.277 C  
BRANCH  21  22
HETATM   22  O   UNL     1     -11.257  12.196  68.154  1.00  0.00    -0.229 OA 
BRANCH  22  23
HETATM   23  C   UNL     1     -11.478  13.346  67.467  1.00  0.00    -0.323 C  
HETATM   24  O   UNL     1     -12.532  13.712  66.997  1.00  0.00    -0.291 OA 
BRANCH  23  25
HETATM   25  C   UNL     1     -10.236  14.072  67.307  1.00  0.00    -0.260 A  
HETATM   26  C   UNL     1     -10.216  15.001  66.280  1.00  0.00    -0.294 A  
HETATM   27  N   UNL     1      -9.143  15.777  65.995  1.00  0.00    -0.344 NA 
HETATM   28  C   UNL     1      -8.050  15.592  66.764  1.00  0.00    -0.244 A  
HETATM   29  C   UNL     1      -7.960  14.647  67.794  1.00  0.00    -0.156 A  
HETATM   30  C   UNL     1      -9.077  13.869  68.067  1.00  0.00    -0.192 A  
HETATM   31 BR   UNL     1      -6.376  14.465  68.786  1.00  0.00    -0.092 Br 
ENDBRANCH  23  25
ENDBRANCH  22  23
ENDBRANCH  21  22
ENDBRANCH  16  21
TORSDOF 5
ENDMDL
MODEL      133
REMARK 921   NORMALIZED FREE ENERGY PREDICTED BY IDOCK:   -4.31 KCAL/MOL
REMARK 922        TOTAL FREE ENERGY PREDICTED BY IDOCK:   -6.00 KCAL/MOL
REMARK 923 INTER-LIGAND FREE ENERGY PREDICTED BY IDOCK:   -5.63 KCAL/MOL
REMARK 924 INTRA-LIGAND FREE ENERGY PREDICTED BY IDOCK:   -0.37 KCAL/MOL
REMARK 927      BINDING AFFINITY PREDICTED BY RF-SCORE:    0.00 PKD
ROOT
HETATM    1  C   UNL     1      -9.175   8.713  68.724  1.00  0.00    -0.142 C  
HETATM    2  C   UNL     1      -8.109   9.496  69.482  1.00  0.00    -0.117 C  
HETATM    3  C   UNL     1      -8.227  10.848  69.034  1.00  0.00    -0.126 A  
HETATM    4  C   UNL     1      -7.277  11.799  68.862  1.00  0.00    -0.107 A  
HETATM    5  N   UNL     1      -7.908  12.843  68.244  1.00  0.00    -0.136 NA 
HETATM    6  C   UNL     1      -7.153  13.978  67.768  1.00  0.00    -0.173 C  
HETATM    7  C   UNL     1      -9.253  12.562  68.081  1.00  0.00    -0.209 A  
HETATM    8  C   UNL     1     -10.345  13.270  67.560  1.00  0.00    -0.229 A  
HETATM    9  C   UNL     1     -11.575  12.587  67.503  1.00  0.00    -0.424 A  
HETATM   10  C   UNL     1     -11.745  11.221  67.878  1.00  0.00    -0.289 A  
HETATM   11  C   UNL     1     -10.690  10.463  68.403  1.00  0.00    -0.263 A  
HETATM   12  C   UNL     1     -10.681   8.927  68.940  1.00  0.00    -0.106 C  
HETATM   13  C   UNL     1      -9.471  11.240  68.522  1.00  0.00    -0.191 A  
HETATM   14  C   UNL     1     -10.947   7.189  68.481  1.00  0.00    -0.080 C  
HETATM   15  C   UNL     1      -9.987   8.795  66.227  1.00  0.00    -0.245 C  
HETATM   16  C   UNL     1      -9.509   6.296  68.120  1.00  0.00    -0.113 C  
HETATM   17  N   UNL     1      -8.908   8.456  67.219  1.00  0.00    -0.129 NA 
HETATM   18  C   UNL     1      -8.665   7.044  67.087  1.00  0.00    -0.121 C  
ENDROOT
BRANCH  12  19
HETATM   19  O   UNL     1     -11.099   8.997  70.327  1.00  0.00    -0.244 OA 
HETATM   20  C   UNL     1     -11.783  10.213  70.650  1.00  0.00    -0.338 C  
ENDBRANCH  12  19
BRANCH  16  21
HETATM   21  C   UNL     1      -9.175   4.821  67.900  1.00  0.00    -0.122 C  
BRANCH  21  22
HETATM   22  O   UNL     1      -9.599   3.917  68.881  1.00  0.00    -0.171 OA 
BRANCH  22  23
HETATM   23  C   UNL     1      -8.695   3.880  69.892  1.00  0.00    -0.075 C  
HETATM   24  O   UNL     1      -7.542   3.519  69.813  1.00  0.00    -0.048 OA 
BRANCH  23  25
HETATM   25  C   UNL     1      -9.324   4.278  71.132  1.00  0.00    -0.218 A  
HETATM   26  C   UNL     1      -9.850   3.246  71.893  1.00  0.00    -0.168 A  
HETATM   27  N   UNL     1     -10.463   3.434  73.086  1.00  0.00    -0.161 NA 
HETATM   28  C   UNL     1     -10.562   4.711  73.513  1.00  0.00    -0.240 A  
HETATM   29  C   UNL     1     -10.103   5.822  72.793  1.00  0.00    -0.179 A  
HETATM   30  C   UNL     1      -9.474   5.599  71.575  1.00  0.00    -0.177 A  
HETATM   31 BR   UNL     1     -10.316   7.557  73.479  1.00  0.00    -0.294 Br 
ENDBRANCH  23  25
ENDBRANCH  22  23
ENDBRANCH  21  22
ENDBRANCH  16  21
TORSDOF 5
ENDMDL
MODEL      134
REMARK 921   NORMALIZED FREE ENERGY PREDICTED BY IDOCK:   -4.30 KCAL/MOL
REMARK 922        TOTAL FREE ENERGY PREDICTED BY IDOCK:   -5.99 KCAL/MOL
REMARK 923 INTER-LIGAND FREE ENERGY PREDICTED BY IDOCK:   -5.50 KCAL/MOL
REMARK 924 INTRA-LIGAND FREE ENERGY PREDICTED BY IDOCK:   -0.49 KCAL/MOL
REMARK 927      BINDING AFFINITY PREDICTED BY RF-SCORE:    0.00 PKD
ROOT
HETATM    1  C   UNL     1      -9.105  14.654  68.730  1.00  0.00    -0.178 C  
HETATM    2  C   UNL     1      -9.782  15.642  69.673  1.00  0.00    -0.276 C  
HETATM    3  C   UNL     1     -10.114  16.778  68.873  1.00  0.00    -0.285 A  
HETATM    4  C   UNL     1     -10.150  18.095  69.194  1.00  0.00    -0.178 A  
HETATM    5  N   UNL     1     -10.349  18.756  68.015  1.00  0.00    -0.389 NA 
HETATM    6  C   UNL     1     -10.285  20.198  67.964  1.00  0.00    -0.353 C  
HETATM    7  C   UNL     1     -10.488  17.854  66.975  1.00  0.00    -0.340 A  
HETATM    8  C   UNL     1     -10.743  17.974  65.602  1.00  0.00    -0.049 A  
HETATM    9  C   UNL     1     -10.737  16.784  64.849  1.00  0.00    -0.037 A  
HETATM   10  C   UNL     1     -10.426  15.501  65.391  1.00  0.00    -0.429 A  
HETATM   11  C   UNL     1     -10.162  15.321  66.755  1.00  0.00    -0.273 A  
HETATM   12  C   UNL     1      -9.845  13.954  67.579  1.00  0.00    -0.236 C  
HETATM   13  C   UNL     1     -10.268  16.562  67.497  1.00  0.00    -0.283 A  
HETATM   14  C   UNL     1      -8.701  12.554  67.756  1.00  0.00    -0.178 C  
HETATM   15  C   UNL     1      -7.353  14.972  66.798  1.00  0.00     0.553 C  
HETATM   16  C   UNL     1      -7.530  12.717  69.020  1.00  0.00     0.098 C  
HETATM   17  N   UNL     1      -7.668  15.009  68.269  1.00  0.00    -0.107 NA 
HETATM   18  C   UNL     1      -6.795  14.052  68.894  1.00  0.00    -0.108 C  
ENDROOT
BRANCH  12  19
HETATM   19  O   UNL     1     -11.140  13.401  67.929  1.00  0.00    -0.250 OA 
HETATM   20  C   UNL     1     -11.922  13.030  66.789  1.00  0.00    -0.369 C  
ENDBRANCH  12  19
BRANCH  16  21
HETATM   21  C   UNL     1      -6.526  11.783  69.696  1.00  0.00    -0.113 C  
BRANCH  21  22
HETATM   22  O   UNL     1      -6.433  10.478  69.198  1.00  0.00    -0.048 OA 
BRANCH  22  23
HETATM   23  C   UNL     1      -6.771   9.592  70.168  1.00  0.00    -0.089 C  
HETATM   24  O   UNL     1      -6.062   9.208  71.072  1.00  0.00    -0.050 OA 
BRANCH  23  25
HETATM   25  C   UNL     1      -8.112   9.099  69.941  1.00  0.00    -0.122 A  
HETATM   26  C   UNL     1      -8.326   8.498  68.711  1.00  0.00    -0.122 A  
HETATM   27  N   UNL     1      -9.515   7.969  68.334  1.00  0.00    -0.144 NA 
HETATM   28  C   UNL     1     -10.524   8.071  69.225  1.00  0.00    -0.215 A  
HETATM   29  C   UNL     1     -10.416   8.701  70.472  1.00  0.00    -0.206 A  
HETATM   30  C   UNL     1      -9.184   9.229  70.834  1.00  0.00    -0.300 A  
HETATM   31 BR   UNL     1     -11.897   8.800  71.622  1.00  0.00    -0.426 Br 
ENDBRANCH  23  25
ENDBRANCH  22  23
ENDBRANCH  21  22
ENDBRANCH  16  21
TORSDOF 5
ENDMDL
MODEL      135
REMARK 921   NORMALIZED FREE ENERGY PREDICTED BY IDOCK:   -4.28 KCAL/MOL
REMARK 922        TOTAL FREE ENERGY PREDICTED BY IDOCK:   -5.96 KCAL/MOL
REMARK 923 INTER-LIGAND FREE ENERGY PREDICTED BY IDOCK:   -5.77 KCAL/MOL
REMARK 924 INTRA-LIGAND FREE ENERGY PREDICTED BY IDOCK:   -0.19 KCAL/MOL
REMARK 927      BINDING AFFINITY PREDICTED BY RF-SCORE:    0.00 PKD
ROOT
HETATM    1  C   UNL     1      -9.586   6.974  67.301  1.00  0.00    -0.141 C  
HETATM    2  C   UNL     1     -10.890   6.286  66.912  1.00  0.00    -0.428 C  
HETATM    3  C   UNL     1     -10.514   5.173  66.099  1.00  0.00    -0.301 A  
HETATM    4  C   UNL     1     -11.149   4.606  65.044  1.00  0.00     0.186 A  
HETATM    5  N   UNL     1     -10.267   3.697  64.529  1.00  0.00    -0.193 NA 
HETATM    6  C   UNL     1     -10.559   3.013  63.291  1.00  0.00    -0.228 C  
HETATM    7  C   UNL     1      -9.113   3.662  65.292  1.00  0.00    -0.145 A  
HETATM    8  C   UNL     1      -7.932   2.908  65.247  1.00  0.00    -0.082 A  
HETATM    9  C   UNL     1      -6.935   3.234  66.186  1.00  0.00    -0.057 A  
HETATM   10  C   UNL     1      -7.039   4.311  67.115  1.00  0.00    -0.067 A  
HETATM   11  C   UNL     1      -8.194   5.099  67.206  1.00  0.00    -0.107 A  
HETATM   12  C   UNL     1      -8.539   6.324  68.220  1.00  0.00    -0.117 C  
HETATM   13  C   UNL     1      -9.221   4.665  66.278  1.00  0.00    -0.135 A  
HETATM   14  C   UNL     1      -8.052   7.987  68.765  1.00  0.00    -0.125 C  
HETATM   15  C   UNL     1      -7.397   7.508  65.950  1.00  0.00    -0.074 C  
HETATM   16  C   UNL     1      -8.957   9.285  68.063  1.00  0.00    -0.128 C  
HETATM   17  N   UNL     1      -8.861   7.768  66.185  1.00  0.00    -0.157 NA 
HETATM   18  C   UNL     1      -8.973   9.158  66.539  1.00  0.00    -0.148 C  
ENDROOT
BRANCH  12  19
HETATM   19  O   UNL     1      -9.074   5.701  69.415  1.00  0.00    -0.116 OA 
HETATM   20  C   UNL     1      -8.069   5.094  70.234  1.00  0.00    -0.086 C  
ENDBRANCH  12  19
BRANCH  16  21
HETATM   21  C   UNL     1      -9.086  10.785  68.328  1.00  0.00    -0.157 C  
BRANCH  21  22
HETATM   22  O   UNL     1      -8.546  11.651  67.371  1.00  0.00    -0.140 OA 
BRANCH  22  23
HETATM   23  C   UNL     1      -8.786  12.937  67.730  1.00  0.00    -0.188 C  
HETATM   24  O   UNL     1      -8.470  13.466  68.772  1.00  0.00    -0.049 OA 
BRANCH  23  25
HETATM   25  C   UNL     1      -9.553  13.602  66.698  1.00  0.00    -0.289 A  
HETATM   26  C   UNL     1      -9.487  14.986  66.703  1.00  0.00    -0.266 A  
HETATM   27  N   UNL     1     -10.131  15.768  65.804  1.00  0.00    -0.344 NA 
HETATM   28  C   UNL     1     -10.880  15.128  64.882  1.00  0.00    -0.418 A  
HETATM   29  C   UNL     1     -11.045  13.738  64.826  1.00  0.00    -0.377 A  
HETATM   30  C   UNL     1     -10.369  12.960  65.757  1.00  0.00    -0.297 A  
HETATM   31 BR   UNL     1     -12.132  12.959  63.508  1.00  0.00    -0.598 Br 
ENDBRANCH  23  25
ENDBRANCH  22  23
ENDBRANCH  21  22
ENDBRANCH  16  21
TORSDOF 5
ENDMDL
MODEL      136
REMARK 921   NORMALIZED FREE ENERGY PREDICTED BY IDOCK:   -4.28 KCAL/MOL
REMARK 922        TOTAL FREE ENERGY PREDICTED BY IDOCK:   -5.96 KCAL/MOL
REMARK 923 INTER-LIGAND FREE ENERGY PREDICTED BY IDOCK:   -5.79 KCAL/MOL
REMARK 924 INTRA-LIGAND FREE ENERGY PREDICTED BY IDOCK:   -0.17 KCAL/MOL
REMARK 927      BINDING AFFINITY PREDICTED BY RF-SCORE:    0.00 PKD
ROOT
HETATM    1  C   UNL     1      -9.324  11.208  67.533  1.00  0.00    -0.168 C  
HETATM    2  C   UNL     1      -9.851  10.354  66.386  1.00  0.00    -0.266 C  
HETATM    3  C   UNL     1     -10.215   9.101  66.970  1.00  0.00    -0.333 A  
HETATM    4  C   UNL     1     -10.157   7.847  66.459  1.00  0.00    -0.175 A  
HETATM    5  N   UNL     1     -10.450   7.011  67.499  1.00  0.00    -0.220 NA 
HETATM    6  C   UNL     1     -10.327   5.580  67.347  1.00  0.00    -0.225 C  
HETATM    7  C   UNL     1     -10.740   7.743  68.637  1.00  0.00    -0.047 A  
HETATM    8  C   UNL     1     -11.134   7.412  69.941  1.00  0.00    -0.208 A  
HETATM    9  C   UNL     1     -11.262   8.475  70.855  1.00  0.00    -0.304 A  
HETATM   10  C   UNL     1     -10.953   9.833  70.544  1.00  0.00    -0.384 A  
HETATM   11  C   UNL     1     -10.554  10.223  69.258  1.00  0.00    -0.254 A  
HETATM   12  C   UNL     1     -10.214  11.706  68.683  1.00  0.00    -0.206 C  
HETATM   13  C   UNL     1     -10.524   9.105  68.337  1.00  0.00    -0.241 A  
HETATM   14  C   UNL     1      -9.121  13.150  68.841  1.00  0.00     0.293 C  
HETATM   15  C   UNL     1      -7.775  10.656  69.582  1.00  0.00    -0.070 C  
HETATM   16  C   UNL     1      -7.816  13.212  67.705  1.00  0.00    -0.152 C  
HETATM   17  N   UNL     1      -7.929  10.831  68.095  1.00  0.00    -0.110 NA 
HETATM   18  C   UNL     1      -7.039  11.895  67.717  1.00  0.00    -0.103 C  
ENDROOT
BRANCH  12  19
HETATM   19  O   UNL     1     -11.487  12.268  68.274  1.00  0.00    -0.267 OA 
HETATM   20  C   UNL     1     -12.132  13.016  69.310  1.00  0.00    -0.200 C  
ENDBRANCH  12  19
BRANCH  16  21
HETATM   21  C   UNL     1      -6.789  14.265  67.290  1.00  0.00     0.187 C  
BRANCH  21  22
HETATM   22  O   UNL     1      -6.847  15.504  67.939  1.00  0.00    -0.121 OA 
BRANCH  22  23
HETATM   23  C   UNL     1      -6.960  16.497  67.021  1.00  0.00    -0.215 C  
HETATM   24  O   UNL     1      -6.127  16.822  66.205  1.00  0.00    -0.250 OA 
BRANCH  23  25
HETATM   25  C   UNL     1      -8.223  17.184  67.190  1.00  0.00    -0.214 A  
HETATM   26  C   UNL     1      -8.969  16.799  68.292  1.00  0.00    -0.228 A  
HETATM   27  N   UNL     1     -10.167  17.344  68.611  1.00  0.00    -0.342 NA 
HETATM   28  C   UNL     1     -10.632  18.297  67.776  1.00  0.00    -0.393 A  
HETATM   29  C   UNL     1      -9.973  18.718  66.614  1.00  0.00    -0.365 A  
HETATM   30  C   UNL     1      -8.743  18.146  66.315  1.00  0.00    -0.195 A  
HETATM   31 BR   UNL     1     -10.728  20.039  65.515  1.00  0.00    -0.014 Br 
ENDBRANCH  23  25
ENDBRANCH  22  23
ENDBRANCH  21  22
ENDBRANCH  16  21
TORSDOF 5
ENDMDL
MODEL      137
REMARK 921   NORMALIZED FREE ENERGY PREDICTED BY IDOCK:   -4.27 KCAL/MOL
REMARK 922        TOTAL FREE ENERGY PREDICTED BY IDOCK:   -5.95 KCAL/MOL
REMARK 923 INTER-LIGAND FREE ENERGY PREDICTED BY IDOCK:   -5.57 KCAL/MOL
REMARK 924 INTRA-LIGAND FREE ENERGY PREDICTED BY IDOCK:   -0.38 KCAL/MOL
REMARK 927      BINDING AFFINITY PREDICTED BY RF-SCORE:    0.00 PKD
ROOT
HETATM    1  C   UNL     1      -9.695  10.574  67.331  1.00  0.00    -0.164 C  
HETATM    2  C   UNL     1      -9.998  10.149  65.899  1.00  0.00    -0.334 C  
HETATM    3  C   UNL     1     -10.419  11.335  65.222  1.00  0.00    -0.341 A  
HETATM    4  C   UNL     1     -11.327  11.500  64.229  1.00  0.00    -0.242 A  
HETATM    5  N   UNL     1     -11.473  12.852  64.084  1.00  0.00    -0.370 NA 
HETATM    6  C   UNL     1     -12.487  13.390  63.209  1.00  0.00    -0.052 C  
HETATM    7  C   UNL     1     -10.622  13.522  64.946  1.00  0.00    -0.397 A  
HETATM    8  C   UNL     1     -10.335  14.873  65.186  1.00  0.00    -0.431 A  
HETATM    9  C   UNL     1      -9.434  15.155  66.230  1.00  0.00    -0.341 A  
HETATM   10  C   UNL     1      -8.865  14.160  67.080  1.00  0.00    -0.237 A  
HETATM   11  C   UNL     1      -9.116  12.795  66.889  1.00  0.00    -0.221 A  
HETATM   12  C   UNL     1      -8.531  11.509  67.697  1.00  0.00    -0.135 C  
HETATM   13  C   UNL     1      -9.978  12.556  65.748  1.00  0.00    -0.272 A  
HETATM   14  C   UNL     1      -8.437  10.683  69.313  1.00  0.00    -0.102 C  
HETATM   15  C   UNL     1     -10.921  12.203  68.989  1.00  0.00    -0.205 C  
HETATM   16  C   UNL     1      -9.564   9.391  69.544  1.00  0.00    -0.188 C  
HETATM   17  N   UNL     1     -10.914  10.903  68.230  1.00  0.00    -0.219 NA 
HETATM   18  C   UNL     1     -10.983   9.858  69.216  1.00  0.00    -0.211 C  
ENDROOT
BRANCH  12  19
HETATM   19  O   UNL     1      -7.267  11.193  67.062  1.00  0.00    -0.112 OA 
HETATM   20  C   UNL     1      -6.335  12.279  67.087  1.00  0.00    -0.117 C  
ENDBRANCH  12  19
BRANCH  16  21
HETATM   21  C   UNL     1      -9.750   8.287  70.586  1.00  0.00    -0.171 C  
BRANCH  21  22
HETATM   22  O   UNL     1      -8.800   7.260  70.604  1.00  0.00    -0.146 OA 
BRANCH  22  23
HETATM   23  C   UNL     1      -8.956   6.473  69.509  1.00  0.00    -0.137 C  
HETATM   24  O   UNL     1     -10.005   6.156  68.994  1.00  0.00    -0.141 OA 
BRANCH  23  25
HETATM   25  C   UNL     1      -7.667   5.991  69.061  1.00  0.00    -0.092 A  
HETATM   26  C   UNL     1      -6.680   6.955  68.935  1.00  0.00    -0.059 A  
HETATM   27  N   UNL     1      -5.414   6.681  68.539  1.00  0.00    -0.015 NA 
HETATM   28  C   UNL     1      -5.145   5.392  68.244  1.00  0.00    -0.003 A  
HETATM   29  C   UNL     1      -6.088   4.357  68.296  1.00  0.00    -0.031 A  
HETATM   30  C   UNL     1      -7.377   4.666  68.710  1.00  0.00    -0.060 A  
HETATM   31 BR   UNL     1      -5.603   2.601  67.842  1.00  0.00    -0.019 Br 
ENDBRANCH  23  25
ENDBRANCH  22  23
ENDBRANCH  21  22
ENDBRANCH  16  21
TORSDOF 5
ENDMDL
MODEL      138
REMARK 921   NORMALIZED FREE ENERGY PREDICTED BY IDOCK:   -4.27 KCAL/MOL
REMARK 922        TOTAL FREE ENERGY PREDICTED BY IDOCK:   -5.95 KCAL/MOL
REMARK 923 INTER-LIGAND FREE ENERGY PREDICTED BY IDOCK:   -6.47 KCAL/MOL
REMARK 924 INTRA-LIGAND FREE ENERGY PREDICTED BY IDOCK:    0.52 KCAL/MOL
REMARK 927      BINDING AFFINITY PREDICTED BY RF-SCORE:    0.00 PKD
ROOT
HETATM    1  C   UNL     1      -9.333  14.257  67.020  1.00  0.00    -0.241 C  
HETATM    2  C   UNL     1      -9.321  12.795  66.589  1.00  0.00    -0.242 C  
HETATM    3  C   UNL     1      -9.951  12.073  67.649  1.00  0.00    -0.196 A  
HETATM    4  C   UNL     1      -9.714  10.824  68.119  1.00  0.00    -0.159 A  
HETATM    5  N   UNL     1     -10.471  10.706  69.251  1.00  0.00    -0.218 NA 
HETATM    6  C   UNL     1     -10.343   9.545  70.101  1.00  0.00    -0.255 C  
HETATM    7  C   UNL     1     -11.214  11.855  69.454  1.00  0.00    -0.211 A  
HETATM    8  C   UNL     1     -12.160  12.254  70.408  1.00  0.00    -0.385 A  
HETATM    9  C   UNL     1     -12.647  13.571  70.308  1.00  0.00    -0.221 A  
HETATM   10  C   UNL     1     -12.184  14.519  69.347  1.00  0.00    -0.285 A  
HETATM   11  C   UNL     1     -11.239  14.178  68.370  1.00  0.00    -0.289 A  
HETATM   12  C   UNL     1     -10.625  15.078  67.161  1.00  0.00    -0.295 C  
HETATM   13  C   UNL     1     -10.838  12.788  68.464  1.00  0.00    -0.279 A  
HETATM   14  C   UNL     1      -9.669  16.568  66.751  1.00  0.00    -0.268 C  
HETATM   15  C   UNL     1      -8.885  15.423  69.331  1.00  0.00    -0.251 C  
HETATM   16  C   UNL     1      -7.993  16.296  66.416  1.00  0.00    -0.299 C  
HETATM   17  N   UNL     1      -8.352  14.655  68.152  1.00  0.00    -0.137 NA 
HETATM   18  C   UNL     1      -7.350  15.489  67.544  1.00  0.00    -0.189 C  
ENDROOT
BRANCH  12  19
HETATM   19  O   UNL     1     -11.561  14.942  66.061  1.00  0.00    -0.323 OA 
HETATM   20  C   UNL     1     -10.936  15.023  64.775  1.00  0.00    -0.373 C  
ENDBRANCH  12  19
BRANCH  16  21
HETATM   21  C   UNL     1      -6.853  17.135  65.840  1.00  0.00     0.152 C  
BRANCH  21  22
HETATM   22  O   UNL     1      -7.198  18.340  65.217  1.00  0.00    -0.494 OA 
BRANCH  22  23
HETATM   23  C   UNL     1      -6.494  19.360  65.770  1.00  0.00    -0.230 C  
HETATM   24  O   UNL     1      -5.602  19.987  65.244  1.00  0.00    -0.164 OA 
BRANCH  23  25
HETATM   25  C   UNL     1      -6.916  19.566  67.139  1.00  0.00    -0.218 A  
HETATM   26  C   UNL     1      -5.894  19.717  68.062  1.00  0.00    -0.209 A  
HETATM   27  N   UNL     1      -6.106  19.930  69.383  1.00  0.00    -0.283 NA 
HETATM   28  C   UNL     1      -7.394  19.973  69.783  1.00  0.00     0.172 A  
HETATM   29  C   UNL     1      -8.492  19.786  68.933  1.00  0.00    -0.105 A  
HETATM   30  C   UNL     1      -8.245  19.574  67.583  1.00  0.00    -0.332 A  
HETATM   31 BR   UNL     1     -10.242  19.846  69.608  1.00  0.00     0.360 Br 
ENDBRANCH  23  25
ENDBRANCH  22  23
ENDBRANCH  21  22
ENDBRANCH  16  21
TORSDOF 5
ENDMDL
MODEL      139
REMARK 921   NORMALIZED FREE ENERGY PREDICTED BY IDOCK:   -4.21 KCAL/MOL
REMARK 922        TOTAL FREE ENERGY PREDICTED BY IDOCK:   -5.87 KCAL/MOL
REMARK 923 INTER-LIGAND FREE ENERGY PREDICTED BY IDOCK:   -6.05 KCAL/MOL
REMARK 924 INTRA-LIGAND FREE ENERGY PREDICTED BY IDOCK:    0.18 KCAL/MOL
REMARK 927      BINDING AFFINITY PREDICTED BY RF-SCORE:    0.00 PKD
ROOT
HETATM    1  C   UNL     1      -8.889   7.290  68.762  1.00  0.00    -0.127 C  
HETATM    2  C   UNL     1      -7.970   6.141  69.161  1.00  0.00    -0.108 C  
HETATM    3  C   UNL     1      -8.281   5.850  70.524  1.00  0.00    -0.119 A  
HETATM    4  C   UNL     1      -7.482   5.422  71.532  1.00  0.00    -0.101 A  
HETATM    5  N   UNL     1      -8.250   5.482  72.662  1.00  0.00    -0.113 NA 
HETATM    6  C   UNL     1      -7.664   5.241  73.960  1.00  0.00    -0.097 C  
HETATM    7  C   UNL     1      -9.534   5.894  72.349  1.00  0.00    -0.146 A  
HETATM    8  C   UNL     1     -10.708   6.086  73.089  1.00  0.00    -0.285 A  
HETATM    9  C   UNL     1     -11.820   6.600  72.394  1.00  0.00    -0.226 A  
HETATM   10  C   UNL     1     -11.789   6.989  71.022  1.00  0.00    -0.395 A  
HETATM   11  C   UNL     1     -10.644   6.822  70.233  1.00  0.00    -0.251 A  
HETATM   12  C   UNL     1     -10.415   7.142  68.654  1.00  0.00    -0.197 C  
HETATM   13  C   UNL     1      -9.559   6.209  70.974  1.00  0.00    -0.194 A  
HETATM   14  C   UNL     1     -10.405   8.443  67.385  1.00  0.00    -0.355 C  
HETATM   15  C   UNL     1      -9.650   9.465  70.024  1.00  0.00    -0.226 C  
HETATM   16  C   UNL     1      -8.841   9.066  66.984  1.00  0.00    -0.131 C  
HETATM   17  N   UNL     1      -8.553   8.684  69.352  1.00  0.00    -0.126 NA 
HETATM   18  C   UNL     1      -8.097   9.490  68.252  1.00  0.00    -0.102 C  
ENDROOT
BRANCH  12  19
HETATM   19  O   UNL     1     -10.868   5.960  67.947  1.00  0.00    -0.271 OA 
HETATM   20  C   UNL     1     -10.039   5.616  66.832  1.00  0.00    -0.193 C  
ENDBRANCH  12  19
BRANCH  16  21
HETATM   21  C   UNL     1      -8.283   9.972  65.886  1.00  0.00    -0.128 C  
BRANCH  21  22
HETATM   22  O   UNL     1      -8.165  11.335  66.181  1.00  0.00    -0.160 OA 
BRANCH  22  23
HETATM   23  C   UNL     1      -9.356  11.952  65.978  1.00  0.00    -0.206 C  
HETATM   24  O   UNL     1     -10.149  11.713  65.095  1.00  0.00    -0.243 OA 
BRANCH  23  25
HETATM   25  C   UNL     1      -9.533  13.014  66.945  1.00  0.00    -0.242 A  
HETATM   26  C   UNL     1     -10.836  13.451  67.120  1.00  0.00    -0.276 A  
HETATM   27  N   UNL     1     -11.187  14.426  67.991  1.00  0.00    -0.268 NA 
HETATM   28  C   UNL     1     -10.182  14.990  68.695  1.00  0.00    -0.231 A  
HETATM   29  C   UNL     1      -8.831  14.648  68.553  1.00  0.00    -0.182 A  
HETATM   30  C   UNL     1      -8.501  13.641  67.656  1.00  0.00    -0.183 A  
HETATM   31 BR   UNL     1      -7.515  15.517  69.572  1.00  0.00    -0.164 Br 
ENDBRANCH  23  25
ENDBRANCH  22  23
ENDBRANCH  21  22
ENDBRANCH  16  21
TORSDOF 5
ENDMDL
MODEL      140
REMARK 921   NORMALIZED FREE ENERGY PREDICTED BY IDOCK:   -4.17 KCAL/MOL
REMARK 922        TOTAL FREE ENERGY PREDICTED BY IDOCK:   -5.82 KCAL/MOL
REMARK 923 INTER-LIGAND FREE ENERGY PREDICTED BY IDOCK:   -6.40 KCAL/MOL
REMARK 924 INTRA-LIGAND FREE ENERGY PREDICTED BY IDOCK:    0.58 KCAL/MOL
REMARK 927      BINDING AFFINITY PREDICTED BY RF-SCORE:    0.00 PKD
ROOT
HETATM    1  C   UNL     1      -9.355   7.236  69.761  1.00  0.00    -0.150 C  
HETATM    2  C   UNL     1     -10.424   7.422  70.830  1.00  0.00    -0.225 C  
HETATM    3  C   UNL     1     -10.276   6.318  71.725  1.00  0.00    -0.224 A  
HETATM    4  C   UNL     1     -11.207   5.634  72.434  1.00  0.00    -0.280 A  
HETATM    5  N   UNL     1     -10.547   4.568  72.977  1.00  0.00    -0.192 NA 
HETATM    6  C   UNL     1     -11.274   3.534  73.675  1.00  0.00    -0.184 C  
HETATM    7  C   UNL     1      -9.203   4.617  72.650  1.00  0.00    -0.126 A  
HETATM    8  C   UNL     1      -8.089   3.826  72.963  1.00  0.00    -0.083 A  
HETATM    9  C   UNL     1      -6.869   4.179  72.356  1.00  0.00    -0.046 A  
HETATM   10  C   UNL     1      -6.729   5.237  71.409  1.00  0.00    -0.048 A  
HETATM   11  C   UNL     1      -7.806   6.060  71.057  1.00  0.00    -0.111 A  
HETATM   12  C   UNL     1      -7.850   7.341  70.055  1.00  0.00    -0.111 C  
HETATM   13  C   UNL     1      -9.015   5.709  71.776  1.00  0.00    -0.142 A  
HETATM   14  C   UNL     1      -7.601   7.903  68.344  1.00  0.00    -0.108 C  
HETATM   15  C   UNL     1      -8.488   5.114  68.478  1.00  0.00    -0.088 C  
HETATM   16  C   UNL     1      -9.045   8.044  67.400  1.00  0.00    -0.147 C  
HETATM   17  N   UNL     1      -9.594   6.103  68.730  1.00  0.00    -0.124 NA 
HETATM   18  C   UNL     1      -9.855   6.749  67.472  1.00  0.00    -0.132 C  
ENDROOT
BRANCH  12  19
HETATM   19  O   UNL     1      -7.461   8.481  70.863  1.00  0.00    -0.059 OA 
HETATM   20  C   UNL     1      -7.745   9.738  70.239  1.00  0.00    -0.172 C  
ENDBRANCH  12  19
BRANCH  16  21
HETATM   21  C   UNL     1      -9.398   8.647  66.041  1.00  0.00    -0.218 C  
BRANCH  21  22
HETATM   22  O   UNL     1     -10.528   9.470  65.982  1.00  0.00    -0.146 OA 
BRANCH  22  23
HETATM   23  C   UNL     1     -10.362  10.408  65.016  1.00  0.00    -0.179 C  
HETATM   24  O   UNL     1      -9.661  10.313  64.033  1.00  0.00    -0.306 OA 
BRANCH  23  25
HETATM   25  C   UNL     1     -11.103  11.604  65.356  1.00  0.00    -0.299 A  
HETATM   26  C   UNL     1     -11.730  12.239  64.297  1.00  0.00    -0.381 A  
HETATM   27  N   UNL     1     -12.475  13.362  64.433  1.00  0.00    -0.620 NA 
HETATM   28  C   UNL     1     -12.573  13.866  65.681  1.00  0.00    -0.517 A  
HETATM   29  C   UNL     1     -11.939  13.321  66.805  1.00  0.00    -0.382 A  
HETATM   30  C   UNL     1     -11.185  12.167  66.636  1.00  0.00    -0.375 A  
HETATM   31 BR   UNL     1     -12.131  14.123  68.492  1.00  0.00    -0.225 Br 
ENDBRANCH  23  25
ENDBRANCH  22  23
ENDBRANCH  21  22
ENDBRANCH  16  21
TORSDOF 5
ENDMDL
MODEL      141
REMARK 921   NORMALIZED FREE ENERGY PREDICTED BY IDOCK:   -4.11 KCAL/MOL
REMARK 922        TOTAL FREE ENERGY PREDICTED BY IDOCK:   -5.74 KCAL/MOL
REMARK 923 INTER-LIGAND FREE ENERGY PREDICTED BY IDOCK:   -5.62 KCAL/MOL
REMARK 924 INTRA-LIGAND FREE ENERGY PREDICTED BY IDOCK:   -0.12 KCAL/MOL
REMARK 927      BINDING AFFINITY PREDICTED BY RF-SCORE:    0.00 PKD
ROOT
HETATM    1  C   UNL     1     -11.172  13.765  67.883  1.00  0.00    -0.274 C  
HETATM    2  C   UNL     1     -11.962  14.746  68.742  1.00  0.00    -0.292 C  
HETATM    3  C   UNL     1     -11.294  16.002  68.609  1.00  0.00    -0.383 A  
HETATM    4  C   UNL     1     -11.132  17.006  69.505  1.00  0.00     0.218 A  
HETATM    5  N   UNL     1     -10.264  17.886  68.921  1.00  0.00    -0.373 NA 
HETATM    6  C   UNL     1      -9.745  19.009  69.666  1.00  0.00     0.290 C  
HETATM    7  C   UNL     1      -9.930  17.457  67.648  1.00  0.00    -0.300 A  
HETATM    8  C   UNL     1      -9.135  17.976  66.617  1.00  0.00    -0.290 A  
HETATM    9  C   UNL     1      -8.986  17.177  65.467  1.00  0.00     0.749 A  
HETATM   10  C   UNL     1      -9.537  15.868  65.331  1.00  0.00    -0.015 A  
HETATM   11  C   UNL     1     -10.339  15.298  66.328  1.00  0.00    -0.303 A  
HETATM   12  C   UNL     1     -11.104  13.862  66.350  1.00  0.00    -0.309 C  
HETATM   13  C   UNL     1     -10.532  16.196  67.450  1.00  0.00    -0.310 A  
HETATM   14  C   UNL     1     -10.886  12.058  66.292  1.00  0.00    -0.316 C  
HETATM   15  C   UNL     1      -8.595  13.411  67.517  1.00  0.00    -0.200 C  
HETATM   16  C   UNL     1     -10.908  11.266  67.830  1.00  0.00    -0.278 C  
HETATM   17  N   UNL     1      -9.790  13.322  68.427  1.00  0.00    -0.235 NA 
HETATM   18  C   UNL     1      -9.922  11.936  68.788  1.00  0.00    -0.092 C  
ENDROOT
BRANCH  12  19
HETATM   19  O   UNL     1     -12.376  14.087  65.692  1.00  0.00    -0.427 OA 
HETATM   20  C   UNL     1     -12.240  14.514  64.332  1.00  0.00    -0.458 C  
ENDBRANCH  12  19
BRANCH  16  21
HETATM   21  C   UNL     1     -10.979   9.813  68.301  1.00  0.00    -0.164 C  
BRANCH  21  22
HETATM   22  O   UNL     1     -10.058   9.412  69.276  1.00  0.00    -0.182 OA 
BRANCH  22  23
HETATM   23  C   UNL     1      -9.733   8.108  69.090  1.00  0.00    -0.163 C  
HETATM   24  O   UNL     1      -9.269   7.618  68.084  1.00  0.00    -0.138 OA 
BRANCH  23  25
HETATM   25  C   UNL     1     -10.083   7.340  70.265  1.00  0.00    -0.196 A  
HETATM   26  C   UNL     1     -11.090   6.406  70.090  1.00  0.00    -0.365 A  
HETATM   27  N   UNL     1     -11.536   5.592  71.077  1.00  0.00     0.048 NA 
HETATM   28  C   UNL     1     -10.954   5.744  72.285  1.00  0.00    -0.262 A  
HETATM   29  C   UNL     1      -9.962   6.691  72.571  1.00  0.00    -0.170 A  
HETATM   30  C   UNL     1      -9.521   7.508  71.538  1.00  0.00    -0.166 A  
HETATM   31 BR   UNL     1      -9.239   6.825  74.298  1.00  0.00    -0.263 Br 
ENDBRANCH  23  25
ENDBRANCH  22  23
ENDBRANCH  21  22
ENDBRANCH  16  21
TORSDOF 5
ENDMDL
MODEL      142
REMARK 921   NORMALIZED FREE ENERGY PREDICTED BY IDOCK:   -4.03 KCAL/MOL
REMARK 922        TOTAL FREE ENERGY PREDICTED BY IDOCK:   -5.64 KCAL/MOL
REMARK 923 INTER-LIGAND FREE ENERGY PREDICTED BY IDOCK:   -5.73 KCAL/MOL
REMARK 924 INTRA-LIGAND FREE ENERGY PREDICTED BY IDOCK:    0.09 KCAL/MOL
REMARK 927      BINDING AFFINITY PREDICTED BY RF-SCORE:    0.00 PKD
ROOT
HETATM    1  C   UNL     1      -7.103  15.423  68.841  1.00  0.00    -0.131 C  
HETATM    2  C   UNL     1      -6.245  16.003  69.959  1.00  0.00    -0.117 C  
HETATM    3  C   UNL     1      -5.785  14.882  70.716  1.00  0.00    -0.120 A  
HETATM    4  C   UNL     1      -5.539  14.764  72.044  1.00  0.00     0.131 A  
HETATM    5  N   UNL     1      -5.299  13.436  72.258  1.00  0.00    -0.388 NA 
HETATM    6  C   UNL     1      -5.150  12.925  73.601  1.00  0.00     0.179 C  
HETATM    7  C   UNL     1      -5.343  12.740  71.063  1.00  0.00    -0.173 A  
HETATM    8  C   UNL     1      -5.137  11.403  70.699  1.00  0.00    -0.107 A  
HETATM    9  C   UNL     1      -5.354  11.071  69.348  1.00  0.00    -0.041 A  
HETATM   10  C   UNL     1      -5.827  11.994  68.369  1.00  0.00    -0.049 A  
HETATM   11  C   UNL     1      -6.051  13.343  68.674  1.00  0.00    -0.086 A  
HETATM   12  C   UNL     1      -6.529  14.561  67.706  1.00  0.00    -0.164 C  
HETATM   13  C   UNL     1      -5.729  13.648  70.054  1.00  0.00    -0.128 A  
HETATM   14  C   UNL     1      -7.859  15.173  66.630  1.00  0.00     0.178 C  
HETATM   15  C   UNL     1      -8.876  13.484  68.797  1.00  0.00     0.105 C  
HETATM   16  C   UNL     1      -8.933  16.313  67.365  1.00  0.00    -0.197 C  
HETATM   17  N   UNL     1      -8.492  14.867  69.249  1.00  0.00    -0.156 NA 
HETATM   18  C   UNL     1      -9.467  15.763  68.688  1.00  0.00    -0.208 C  
ENDROOT
BRANCH  12  19
HETATM   19  O   UNL     1      -5.316  15.074  67.099  1.00  0.00    -0.207 OA 
HETATM   20  C   UNL     1      -5.164  16.490  67.252  1.00  0.00    -0.118 C  
ENDBRANCH  12  19
BRANCH  16  21
HETATM   21  C   UNL     1     -10.033  17.248  66.862  1.00  0.00    -0.294 C  
BRANCH  21  22
HETATM   22  O   UNL     1     -11.281  16.677  66.591  1.00  0.00     0.145 OA 
BRANCH  22  23
HETATM   23  C   UNL     1     -11.303  16.206  65.319  1.00  0.00     0.060 C  
HETATM   24  O   UNL     1     -11.162  16.856  64.307  1.00  0.00    -1.204 OA 
BRANCH  23  25
HETATM   25  C   UNL     1     -11.592  14.787  65.323  1.00  0.00    -0.338 A  
HETATM   26  C   UNL     1     -12.130  14.285  64.149  1.00  0.00    -0.393 A  
HETATM   27  N   UNL     1     -12.449  12.980  63.972  1.00  0.00    -0.640 NA 
HETATM   28  C   UNL     1     -12.233  12.163  65.025  1.00  0.00    -0.192 A  
HETATM   29  C   UNL     1     -11.737  12.587  66.264  1.00  0.00    -0.404 A  
HETATM   30  C   UNL     1     -11.414  13.929  66.416  1.00  0.00    -0.354 A  
HETATM   31 BR   UNL     1     -11.497  11.361  67.666  1.00  0.00    -0.318 Br 
ENDBRANCH  23  25
ENDBRANCH  22  23
ENDBRANCH  21  22
ENDBRANCH  16  21
TORSDOF 5
ENDMDL
MODEL      143
REMARK 921   NORMALIZED FREE ENERGY PREDICTED BY IDOCK:   -4.02 KCAL/MOL
REMARK 922        TOTAL FREE ENERGY PREDICTED BY IDOCK:   -5.63 KCAL/MOL
REMARK 923 INTER-LIGAND FREE ENERGY PREDICTED BY IDOCK:   -5.26 KCAL/MOL
REMARK 924 INTRA-LIGAND FREE ENERGY PREDICTED BY IDOCK:   -0.37 KCAL/MOL
REMARK 927      BINDING AFFINITY PREDICTED BY RF-SCORE:    0.00 PKD
ROOT
HETATM    1  C   UNL     1      -7.392  12.254  68.675  1.00  0.00    -0.106 C  
HETATM    2  C   UNL     1      -7.373  11.130  69.705  1.00  0.00     0.034 C  
HETATM    3  C   UNL     1      -8.299  10.152  69.229  1.00  0.00    -0.160 A  
HETATM    4  C   UNL     1      -9.118   9.317  69.914  1.00  0.00    -0.191 A  
HETATM    5  N   UNL     1      -9.915   8.728  68.972  1.00  0.00    -0.186 NA 
HETATM    6  C   UNL     1     -11.020   7.887  69.369  1.00  0.00    -0.020 C  
HETATM    7  C   UNL     1      -9.558   9.156  67.706  1.00  0.00    -0.146 A  
HETATM    8  C   UNL     1      -9.998   8.854  66.410  1.00  0.00    -0.354 A  
HETATM    9  C   UNL     1      -9.411   9.579  65.355  1.00  0.00    -0.336 A  
HETATM   10  C   UNL     1      -8.461  10.627  65.542  1.00  0.00    -0.177 A  
HETATM   11  C   UNL     1      -7.985  10.973  66.813  1.00  0.00    -0.152 A  
HETATM   12  C   UNL     1      -6.873  12.082  67.239  1.00  0.00    -0.150 C  
HETATM   13  C   UNL     1      -8.555  10.137  67.852  1.00  0.00    -0.118 A  
HETATM   14  C   UNL     1      -6.454  13.850  67.227  1.00  0.00     0.312 C  
HETATM   15  C   UNL     1      -9.346  13.397  67.343  1.00  0.00    -0.221 C  
HETATM   16  C   UNL     1      -6.791  14.695  68.700  1.00  0.00    -0.094 C  
HETATM   17  N   UNL     1      -8.653  13.156  68.656  1.00  0.00    -0.038 NA 
HETATM   18  C   UNL     1      -8.235  14.446  69.137  1.00  0.00     0.037 C  
ENDROOT
BRANCH  12  19
HETATM   19  O   UNL     1      -5.592  11.413  67.126  1.00  0.00    -0.061 OA 
HETATM   20  C   UNL     1      -5.344  10.885  65.818  1.00  0.00    -0.141 C  
ENDBRANCH  12  19
BRANCH  16  21
HETATM   21  C   UNL     1      -6.448  16.074  69.261  1.00  0.00    -0.169 C  
BRANCH  21  22
HETATM   22  O   UNL     1      -6.259  17.110  68.339  1.00  0.00    -0.142 OA 
BRANCH  22  23
HETATM   23  C   UNL     1      -6.875  18.235  68.781  1.00  0.00    -0.260 C  
HETATM   24  O   UNL     1      -6.466  18.993  69.633  1.00  0.00    -0.279 OA 
BRANCH  23  25
HETATM   25  C   UNL     1      -8.158  18.385  68.128  1.00  0.00    -0.305 A  
HETATM   26  C   UNL     1      -8.971  19.386  68.634  1.00  0.00    -0.372 A  
HETATM   27  N   UNL     1     -10.198  19.675  68.137  1.00  0.00    -0.443 NA 
HETATM   28  C   UNL     1     -10.621  18.911  67.107  1.00  0.00    -0.458 A  
HETATM   29  C   UNL     1      -9.890  17.849  66.560  1.00  0.00    -0.343 A  
HETATM   30  C   UNL     1      -8.633  17.579  67.086  1.00  0.00    -0.238 A  
HETATM   31 BR   UNL     1     -10.590  16.841  65.140  1.00  0.00     0.020 Br 
ENDBRANCH  23  25
ENDBRANCH  22  23
ENDBRANCH  21  22
ENDBRANCH  16  21
TORSDOF 5
ENDMDL
MODEL      144
REMARK 921   NORMALIZED FREE ENERGY PREDICTED BY IDOCK:   -3.99 KCAL/MOL
REMARK 922        TOTAL FREE ENERGY PREDICTED BY IDOCK:   -5.58 KCAL/MOL
REMARK 923 INTER-LIGAND FREE ENERGY PREDICTED BY IDOCK:   -5.23 KCAL/MOL
REMARK 924 INTRA-LIGAND FREE ENERGY PREDICTED BY IDOCK:   -0.36 KCAL/MOL
REMARK 927      BINDING AFFINITY PREDICTED BY RF-SCORE:    0.00 PKD
ROOT
HETATM    1  C   UNL     1      -8.174  10.671  66.591  1.00  0.00    -0.134 C  
HETATM    2  C   UNL     1      -8.336  10.466  65.089  1.00  0.00    -0.165 C  
HETATM    3  C   UNL     1      -7.795   9.172  64.814  1.00  0.00    -0.119 A  
HETATM    4  C   UNL     1      -7.135   8.714  63.722  1.00  0.00    -0.092 A  
HETATM    5  N   UNL     1      -6.684   7.468  64.060  1.00  0.00    -0.052 NA 
HETATM    6  C   UNL     1      -5.801   6.744  63.176  1.00  0.00    -0.035 C  
HETATM    7  C   UNL     1      -7.106   7.134  65.335  1.00  0.00    -0.064 A  
HETATM    8  C   UNL     1      -6.970   5.998  66.145  1.00  0.00    -0.062 A  
HETATM    9  C   UNL     1      -7.496   6.082  67.448  1.00  0.00    -0.081 A  
HETATM   10  C   UNL     1      -8.087   7.260  67.994  1.00  0.00    -0.120 A  
HETATM   11  C   UNL     1      -8.248   8.425  67.232  1.00  0.00    -0.112 A  
HETATM   12  C   UNL     1      -8.938   9.843  67.636  1.00  0.00    -0.128 C  
HETATM   13  C   UNL     1      -7.770   8.256  65.874  1.00  0.00    -0.087 A  
HETATM   14  C   UNL     1      -8.859  11.270  68.758  1.00  0.00    -0.106 C  
HETATM   15  C   UNL     1      -6.216  10.113  68.251  1.00  0.00    -0.049 C  
HETATM   16  C   UNL     1      -8.081  12.673  68.108  1.00  0.00    -0.164 C  
HETATM   17  N   UNL     1      -6.735  10.937  67.104  1.00  0.00    -0.082 NA 
HETATM   18  C   UNL     1      -6.709  12.306  67.543  1.00  0.00    -0.138 C  
ENDROOT
BRANCH  12  19
HETATM   19  O   UNL     1     -10.354   9.676  67.372  1.00  0.00    -0.215 OA 
HETATM   20  C   UNL     1     -10.725   8.316  67.120  1.00  0.00    -0.170 C  
ENDBRANCH  12  19
BRANCH  16  21
HETATM   21  C   UNL     1      -7.946  14.134  68.536  1.00  0.00    -0.145 C  
BRANCH  21  22
HETATM   22  O   UNL     1      -8.555  15.097  67.722  1.00  0.00    -0.146 OA 
BRANCH  22  23
HETATM   23  C   UNL     1      -9.900  15.060  67.897  1.00  0.00    -0.217 C  
HETATM   24  O   UNL     1     -10.490  15.105  68.954  1.00  0.00    -0.225 OA 
BRANCH  23  25
HETATM   25  C   UNL     1     -10.560  14.889  66.621  1.00  0.00    -0.305 A  
HETATM   26  C   UNL     1     -10.683  16.037  65.854  1.00  0.00    -0.280 A  
HETATM   27  N   UNL     1     -11.261  16.059  64.629  1.00  0.00    -0.506 NA 
HETATM   28  C   UNL     1     -11.746  14.884  64.175  1.00  0.00    -0.128 A  
HETATM   29  C   UNL     1     -11.710  13.683  64.897  1.00  0.00    -0.360 A  
HETATM   30  C   UNL     1     -11.106  13.689  66.147  1.00  0.00    -0.299 A  
HETATM   31 BR   UNL     1     -12.437  12.112  64.171  1.00  0.00    -0.444 Br 
ENDBRANCH  23  25
ENDBRANCH  22  23
ENDBRANCH  21  22
ENDBRANCH  16  21
TORSDOF 5
ENDMDL
MODEL      145
REMARK 921   NORMALIZED FREE ENERGY PREDICTED BY IDOCK:   -3.98 KCAL/MOL
REMARK 922        TOTAL FREE ENERGY PREDICTED BY IDOCK:   -5.57 KCAL/MOL
REMARK 923 INTER-LIGAND FREE ENERGY PREDICTED BY IDOCK:   -5.25 KCAL/MOL
REMARK 924 INTRA-LIGAND FREE ENERGY PREDICTED BY IDOCK:   -0.31 KCAL/MOL
REMARK 927      BINDING AFFINITY PREDICTED BY RF-SCORE:    0.00 PKD
ROOT
HETATM    1  C   UNL     1      -9.262  10.811  68.297  1.00  0.00    -0.157 C  
HETATM    2  C   UNL     1     -10.449  10.461  69.187  1.00  0.00    -0.248 C  
HETATM    3  C   UNL     1     -11.180  11.677  69.354  1.00  0.00    -0.311 A  
HETATM    4  C   UNL     1     -11.890  12.133  70.416  1.00  0.00    -0.187 A  
HETATM    5  N   UNL     1     -12.226  13.421  70.108  1.00  0.00    -0.332 NA 
HETATM    6  C   UNL     1     -12.861  14.268  71.091  1.00  0.00    -0.359 C  
HETATM    7  C   UNL     1     -11.774  13.747  68.841  1.00  0.00    -0.336 A  
HETATM    8  C   UNL     1     -11.872  14.885  68.029  1.00  0.00    -0.296 A  
HETATM    9  C   UNL     1     -11.193  14.845  66.796  1.00  0.00    -0.338 A  
HETATM   10  C   UNL     1     -10.375  13.755  66.374  1.00  0.00    -0.290 A  
HETATM   11  C   UNL     1     -10.239  12.593  67.144  1.00  0.00    -0.230 A  
HETATM   12  C   UNL     1      -9.413  11.228  66.826  1.00  0.00    -0.179 C  
HETATM   13  C   UNL     1     -11.028  12.651  68.359  1.00  0.00    -0.284 A  
HETATM   14  C   UNL     1      -7.769  10.523  66.505  1.00  0.00    -0.131 C  
HETATM   15  C   UNL     1      -7.644  12.881  68.240  1.00  0.00    -0.134 C  
HETATM   16  C   UNL     1      -7.000   9.797  67.876  1.00  0.00    -0.078 C  
HETATM   17  N   UNL     1      -8.128  11.644  68.949  1.00  0.00    -0.064 NA 
HETATM   18  C   UNL     1      -6.993  10.768  69.057  1.00  0.00    -0.085 C  
ENDROOT
BRANCH  12  19
HETATM   19  O   UNL     1     -10.312  10.402  66.043  1.00  0.00    -0.241 OA 
HETATM   20  C   UNL     1      -9.979  10.367  64.651  1.00  0.00    -0.338 C  
ENDBRANCH  12  19
BRANCH  16  21
HETATM   21  C   UNL     1      -5.769   8.917  68.089  1.00  0.00    -0.039 C  
BRANCH  21  22
HETATM   22  O   UNL     1      -5.869   7.575  67.706  1.00  0.00    -0.033 OA 
BRANCH  22  23
HETATM   23  C   UNL     1      -6.025   6.795  68.805  1.00  0.00    -0.022 C  
HETATM   24  O   UNL     1      -5.147   6.227  69.416  1.00  0.00    -0.011 OA 
BRANCH  23  25
HETATM   25  C   UNL     1      -7.430   6.672  69.129  1.00  0.00    -0.095 A  
HETATM   26  C   UNL     1      -7.744   6.774  70.474  1.00  0.00    -0.104 A  
HETATM   27  N   UNL     1      -9.008   6.696  70.955  1.00  0.00    -0.146 NA 
HETATM   28  C   UNL     1      -9.983   6.488  70.044  1.00  0.00    -0.169 A  
HETATM   29  C   UNL     1      -9.758   6.327  68.671  1.00  0.00    -0.127 A  
HETATM   30  C   UNL     1      -8.453   6.417  68.206  1.00  0.00    -0.115 A  
HETATM   31 BR   UNL     1     -11.193   6.021  67.499  1.00  0.00     0.226 Br 
ENDBRANCH  23  25
ENDBRANCH  22  23
ENDBRANCH  21  22
ENDBRANCH  16  21
TORSDOF 5
ENDMDL
MODEL      146
REMARK 921   NORMALIZED FREE ENERGY PREDICTED BY IDOCK:   -3.96 KCAL/MOL
REMARK 922        TOTAL FREE ENERGY PREDICTED BY IDOCK:   -5.55 KCAL/MOL
REMARK 923 INTER-LIGAND FREE ENERGY PREDICTED BY IDOCK:   -4.97 KCAL/MOL
REMARK 924 INTRA-LIGAND FREE ENERGY PREDICTED BY IDOCK:   -0.57 KCAL/MOL
REMARK 927      BINDING AFFINITY PREDICTED BY RF-SCORE:    0.00 PKD
ROOT
HETATM    1  C   UNL     1     -10.425   6.240  68.582  1.00  0.00    -0.231 C  
HETATM    2  C   UNL     1     -11.569   6.223  69.589  1.00  0.00    -0.287 C  
HETATM    3  C   UNL     1     -10.999   6.638  70.832  1.00  0.00    -0.315 A  
HETATM    4  C   UNL     1     -11.299   6.266  72.101  1.00  0.00    -0.297 A  
HETATM    5  N   UNL     1     -10.332   6.826  72.887  1.00  0.00    -0.206 NA 
HETATM    6  C   UNL     1     -10.254   6.505  74.293  1.00  0.00    -0.350 C  
HETATM    7  C   UNL     1      -9.466   7.584  72.118  1.00  0.00    -0.147 A  
HETATM    8  C   UNL     1      -8.351   8.385  72.401  1.00  0.00    -0.219 A  
HETATM    9  C   UNL     1      -7.678   8.947  71.299  1.00  0.00    -0.145 A  
HETATM   10  C   UNL     1      -8.027   8.692  69.939  1.00  0.00    -0.105 A  
HETATM   11  C   UNL     1      -9.130   7.899  69.597  1.00  0.00    -0.153 A  
HETATM   12  C   UNL     1      -9.729   7.533  68.129  1.00  0.00    -0.154 C  
HETATM   13  C   UNL     1      -9.838   7.419  70.767  1.00  0.00    -0.178 A  
HETATM   14  C   UNL     1      -9.379   6.731  66.536  1.00  0.00    -0.197 C  
HETATM   15  C   UNL     1      -7.914   5.488  68.747  1.00  0.00    -0.095 C  
HETATM   16  C   UNL     1      -9.986   5.118  66.376  1.00  0.00    -0.236 C  
HETATM   17  N   UNL     1      -9.370   5.112  68.712  1.00  0.00    -0.119 NA 
HETATM   18  C   UNL     1      -9.542   4.263  67.563  1.00  0.00    -0.173 C  
ENDROOT
BRANCH  12  19
HETATM   19  O   UNL     1     -10.621   8.624  67.789  1.00  0.00    -0.236 OA 
HETATM   20  C   UNL     1      -9.932   9.833  67.452  1.00  0.00    -0.191 C  
ENDBRANCH  12  19
BRANCH  16  21
HETATM   21  C   UNL     1     -10.144   4.128  65.222  1.00  0.00    -0.202 C  
BRANCH  21  22
HETATM   22  O   UNL     1      -9.516   4.451  64.014  1.00  0.00    -0.150 OA 
BRANCH  22  23
HETATM   23  C   UNL     1      -8.196   4.148  64.088  1.00  0.00    -0.093 C  
HETATM   24  O   UNL     1      -7.715   3.121  64.512  1.00  0.00    -0.075 OA 
BRANCH  23  25
HETATM   25  C   UNL     1      -7.405   5.275  63.642  1.00  0.00    -0.052 A  
HETATM   26  C   UNL     1      -6.054   5.024  63.466  1.00  0.00    -0.022 A  
HETATM   27  N   UNL     1      -5.169   5.957  63.041  1.00  0.00    -0.016 NA 
HETATM   28  C   UNL     1      -5.667   7.190  62.806  1.00  0.00    -0.041 A  
HETATM   29  C   UNL     1      -7.006   7.551  63.000  1.00  0.00    -0.068 A  
HETATM   30  C   UNL     1      -7.892   6.572  63.430  1.00  0.00    -0.106 A  
HETATM   31 BR   UNL     1      -7.581   9.305  62.659  1.00  0.00    -0.113 Br 
ENDBRANCH  23  25
ENDBRANCH  22  23
ENDBRANCH  21  22
ENDBRANCH  16  21
TORSDOF 5
ENDMDL
MODEL      147
REMARK 921   NORMALIZED FREE ENERGY PREDICTED BY IDOCK:   -3.79 KCAL/MOL
REMARK 922        TOTAL FREE ENERGY PREDICTED BY IDOCK:   -5.33 KCAL/MOL
REMARK 923 INTER-LIGAND FREE ENERGY PREDICTED BY IDOCK:   -5.00 KCAL/MOL
REMARK 924 INTRA-LIGAND FREE ENERGY PREDICTED BY IDOCK:   -0.34 KCAL/MOL
REMARK 927      BINDING AFFINITY PREDICTED BY RF-SCORE:    0.00 PKD
ROOT
HETATM    1  C   UNL     1      -8.244   9.974  69.129  1.00  0.00    -0.137 C  
HETATM    2  C   UNL     1      -8.301   9.278  70.484  1.00  0.00    -0.237 C  
HETATM    3  C   UNL     1      -9.374   8.339  70.394  1.00  0.00    -0.162 A  
HETATM    4  C   UNL     1     -10.246   7.913  71.341  1.00  0.00    -0.190 A  
HETATM    5  N   UNL     1     -11.172   7.160  70.675  1.00  0.00    -0.270 NA 
HETATM    6  C   UNL     1     -12.347   6.670  71.359  1.00  0.00    -0.294 C  
HETATM    7  C   UNL     1     -10.848   7.074  69.333  1.00  0.00    -0.227 A  
HETATM    8  C   UNL     1     -11.409   6.416  68.230  1.00  0.00    -0.116 A  
HETATM    9  C   UNL     1     -10.805   6.646  66.979  1.00  0.00    -0.467 A  
HETATM   10  C   UNL     1      -9.718   7.547  66.774  1.00  0.00    -0.283 A  
HETATM   11  C   UNL     1      -9.118   8.234  67.838  1.00  0.00    -0.137 A  
HETATM   12  C   UNL     1      -7.848   9.251  67.833  1.00  0.00    -0.092 C  
HETATM   13  C   UNL     1      -9.721   7.893  69.112  1.00  0.00    -0.162 A  
HETATM   14  C   UNL     1      -7.209  10.830  67.201  1.00  0.00    -0.100 C  
HETATM   15  C   UNL     1     -10.121  10.862  67.519  1.00  0.00    -0.184 C  
HETATM   16  C   UNL     1      -7.336  12.165  68.296  1.00  0.00    -0.100 C  
HETATM   17  N   UNL     1      -9.378  10.986  68.822  1.00  0.00    -0.192 NA 
HETATM   18  C   UNL     1      -8.768  12.288  68.818  1.00  0.00     0.140 C  
ENDROOT
BRANCH  12  19
HETATM   19  O   UNL     1      -6.673   8.407  67.936  1.00  0.00    -0.063 OA 
HETATM   20  C   UNL     1      -6.467   7.584  66.782  1.00  0.00    -0.056 C  
ENDBRANCH  12  19
BRANCH  16  21
HETATM   21  C   UNL     1      -6.783  13.589  68.339  1.00  0.00    -0.097 C  
BRANCH  21  22
HETATM   22  O   UNL     1      -7.185  14.460  67.319  1.00  0.00    -0.170 OA 
BRANCH  22  23
HETATM   23  C   UNL     1      -7.550  15.653  67.853  1.00  0.00    -0.131 C  
HETATM   24  O   UNL     1      -6.854  16.388  68.517  1.00  0.00    -0.135 OA 
BRANCH  23  25
HETATM   25  C   UNL     1      -8.946  15.912  67.574  1.00  0.00    -0.201 A  
HETATM   26  C   UNL     1      -9.430  17.128  68.029  1.00  0.00    -0.262 A  
HETATM   27  N   UNL     1     -10.707  17.540  67.845  1.00  0.00    -0.380 NA 
HETATM   28  C   UNL     1     -11.524  16.684  67.194  1.00  0.00     0.574 A  
HETATM   29  C   UNL     1     -11.139  15.417  66.738  1.00  0.00    -0.244 A  
HETATM   30  C   UNL     1      -9.822  15.023  66.936  1.00  0.00    -0.244 A  
HETATM   31 BR   UNL     1     -12.370  14.303  65.863  1.00  0.00    -0.379 Br 
ENDBRANCH  23  25
ENDBRANCH  22  23
ENDBRANCH  21  22
ENDBRANCH  16  21
TORSDOF 5
ENDMDL
MODEL      148
REMARK 921   NORMALIZED FREE ENERGY PREDICTED BY IDOCK:   -3.77 KCAL/MOL
REMARK 922        TOTAL FREE ENERGY PREDICTED BY IDOCK:   -5.30 KCAL/MOL
REMARK 923 INTER-LIGAND FREE ENERGY PREDICTED BY IDOCK:   -5.22 KCAL/MOL
REMARK 924 INTRA-LIGAND FREE ENERGY PREDICTED BY IDOCK:   -0.08 KCAL/MOL
REMARK 927      BINDING AFFINITY PREDICTED BY RF-SCORE:    0.00 PKD
ROOT
HETATM    1  C   UNL     1      -9.742   9.134  69.236  1.00  0.00    -0.164 C  
HETATM    2  C   UNL     1     -10.455  10.114  70.161  1.00  0.00    -0.311 C  
HETATM    3  C   UNL     1     -11.342   9.323  70.954  1.00  0.00    -0.373 A  
HETATM    4  C   UNL     1     -12.566   9.619  71.457  1.00  0.00    -0.391 A  
HETATM    5  N   UNL     1     -13.043   8.449  71.978  1.00  0.00    -0.348 NA 
HETATM    6  C   UNL     1     -14.400   8.362  72.464  1.00  0.00    -0.187 C  
HETATM    7  C   UNL     1     -12.100   7.445  71.847  1.00  0.00    -0.307 A  
HETATM    8  C   UNL     1     -12.043   6.098  72.231  1.00  0.00    -0.237 A  
HETATM    9  C   UNL     1     -10.903   5.372  71.836  1.00  0.00    -0.253 A  
HETATM   10  C   UNL     1      -9.859   5.910  71.026  1.00  0.00    -0.225 A  
HETATM   11  C   UNL     1      -9.862   7.249  70.611  1.00  0.00    -0.179 A  
HETATM   12  C   UNL     1      -8.757   8.069  69.744  1.00  0.00    -0.136 C  
HETATM   13  C   UNL     1     -11.012   7.972  71.119  1.00  0.00    -0.271 A  
HETATM   14  C   UNL     1      -7.894   8.172  68.148  1.00  0.00    -0.122 C  
HETATM   15  C   UNL     1     -10.586   7.047  67.882  1.00  0.00    -0.218 C  
HETATM   16  C   UNL     1      -8.548   9.322  67.032  1.00  0.00    -0.128 C  
HETATM   17  N   UNL     1     -10.581   8.539  68.076  1.00  0.00    -0.180 NA 
HETATM   18  C   UNL     1     -10.052   9.103  66.863  1.00  0.00    -0.258 C  
ENDROOT
BRANCH  12  19
HETATM   19  O   UNL     1      -7.782   8.545  70.706  1.00  0.00    -0.071 OA 
HETATM   20  C   UNL     1      -6.965   7.501  71.246  1.00  0.00    -0.050 C  
ENDBRANCH  12  19
BRANCH  16  21
HETATM   21  C   UNL     1      -8.092   9.924  65.703  1.00  0.00    -0.128 C  
BRANCH  21  22
HETATM   22  O   UNL     1      -7.236  11.029  65.763  1.00  0.00    -0.045 OA 
BRANCH  22  23
HETATM   23  C   UNL     1      -6.229  10.782  66.638  1.00  0.00    -0.092 C  
HETATM   24  O   UNL     1      -5.542   9.785  66.683  1.00  0.00    -0.045 OA 
BRANCH  23  25
HETATM   25  C   UNL     1      -6.119  11.871  67.585  1.00  0.00    -0.084 A  
HETATM   26  C   UNL     1      -6.333  11.532  68.911  1.00  0.00    -0.059 A  
HETATM   27  N   UNL     1      -6.258  12.421  69.931  1.00  0.00    -0.130 NA 
HETATM   28  C   UNL     1      -5.976  13.697  69.593  1.00  0.00    -0.115 A  
HETATM   29  C   UNL     1      -5.790  14.142  68.278  1.00  0.00    -0.116 A  
HETATM   30  C   UNL     1      -5.867  13.208  67.253  1.00  0.00     0.163 A  
HETATM   31 BR   UNL     1      -5.421  15.949  67.926  1.00  0.00    -0.158 Br 
ENDBRANCH  23  25
ENDBRANCH  22  23
ENDBRANCH  21  22
ENDBRANCH  16  21
TORSDOF 5
ENDMDL
MODEL      149
REMARK 921   NORMALIZED FREE ENERGY PREDICTED BY IDOCK:   -3.71 KCAL/MOL
REMARK 922        TOTAL FREE ENERGY PREDICTED BY IDOCK:   -5.22 KCAL/MOL
REMARK 923 INTER-LIGAND FREE ENERGY PREDICTED BY IDOCK:   -4.73 KCAL/MOL
REMARK 924 INTRA-LIGAND FREE ENERGY PREDICTED BY IDOCK:   -0.50 KCAL/MOL
REMARK 927      BINDING AFFINITY PREDICTED BY RF-SCORE:    0.00 PKD
ROOT
HETATM    1  C   UNL     1      -9.132   7.509  69.164  1.00  0.00    -0.138 C  
HETATM    2  C   UNL     1      -7.914   8.222  69.739  1.00  0.00    -0.106 C  
HETATM    3  C   UNL     1      -8.127   9.613  69.496  1.00  0.00    -0.129 A  
HETATM    4  C   UNL     1      -7.239  10.600  69.221  1.00  0.00    -0.113 A  
HETATM    5  N   UNL     1      -7.992  11.694  68.898  1.00  0.00    -0.080 NA 
HETATM    6  C   UNL     1      -7.364  12.894  68.397  1.00  0.00    -0.119 C  
HETATM    7  C   UNL     1      -9.340  11.404  69.022  1.00  0.00     0.053 A  
HETATM    8  C   UNL     1     -10.520  12.142  68.861  1.00  0.00    -0.142 A  
HETATM    9  C   UNL     1     -11.732  11.443  69.012  1.00  0.00    -0.409 A  
HETATM   10  C   UNL     1     -11.816  10.039  69.249  1.00  0.00     0.113 A  
HETATM   11  C   UNL     1     -10.671   9.249  69.418  1.00  0.00    -0.222 A  
HETATM   12  C   UNL     1     -10.545   7.661  69.750  1.00  0.00    -0.244 C  
HETATM   13  C   UNL     1      -9.454  10.034  69.341  1.00  0.00    -0.237 A  
HETATM   14  C   UNL     1     -10.920   5.983  69.162  1.00  0.00    -0.429 C  
HETATM   15  C   UNL     1     -10.509   7.865  66.954  1.00  0.00    -0.318 C  
HETATM   16  C   UNL     1      -9.612   5.173  68.370  1.00  0.00    -0.185 C  
HETATM   17  N   UNL     1      -9.228   7.436  67.618  1.00  0.00    -0.127 NA 
HETATM   18  C   UNL     1      -9.031   6.056  67.265  1.00  0.00    -0.109 C  
ENDROOT
BRANCH  12  19
HETATM   19  O   UNL     1     -10.624   7.558  71.194  1.00  0.00    -0.220 OA 
HETATM   20  C   UNL     1     -11.955   7.711  71.700  1.00  0.00    -0.299 C  
ENDBRANCH  12  19
BRANCH  16  21
HETATM   21  C   UNL     1      -9.346   3.742  67.903  1.00  0.00    -0.186 C  
BRANCH  21  22
HETATM   22  O   UNL     1      -9.523   2.720  68.843  1.00  0.00    -0.171 OA 
BRANCH  22  23
HETATM   23  C   UNL     1      -8.391   2.571  69.575  1.00  0.00    -0.045 C  
HETATM   24  O   UNL     1      -7.334   2.127  69.184  1.00  0.00    -0.043 OA 
BRANCH  23  25
HETATM   25  C   UNL     1      -8.635   2.961  70.947  1.00  0.00    -0.111 A  
HETATM   26  C   UNL     1      -7.998   4.120  71.360  1.00  0.00    -0.077 A  
HETATM   27  N   UNL     1      -8.123   4.639  72.605  1.00  0.00    -0.098 NA 
HETATM   28  C   UNL     1      -8.904   3.950  73.464  1.00  0.00    -0.093 A  
HETATM   29  C   UNL     1      -9.550   2.747  73.153  1.00  0.00    -0.095 A  
HETATM   30  C   UNL     1      -9.408   2.241  71.867  1.00  0.00    -0.172 A  
HETATM   31 BR   UNL     1     -10.595   1.865  74.439  1.00  0.00    -0.176 Br 
ENDBRANCH  23  25
ENDBRANCH  22  23
ENDBRANCH  21  22
ENDBRANCH  16  21
TORSDOF 5
ENDMDL
MODEL      150
REMARK 921   NORMALIZED FREE ENERGY PREDICTED BY IDOCK:   -3.69 KCAL/MOL
REMARK 922        TOTAL FREE ENERGY PREDICTED BY IDOCK:   -5.20 KCAL/MOL
REMARK 923 INTER-LIGAND FREE ENERGY PREDICTED BY IDOCK:   -5.04 KCAL/MOL
REMARK 924 INTRA-LIGAND FREE ENERGY PREDICTED BY IDOCK:   -0.16 KCAL/MOL
REMARK 927      BINDING AFFINITY PREDICTED BY RF-SCORE:    0.00 PKD
ROOT
HETATM    1  C   UNL     1      -9.024  13.658  66.967  1.00  0.00    -0.236 C  
HETATM    2  C   UNL     1      -9.451  12.779  65.798  1.00  0.00    -0.023 C  
HETATM    3  C   UNL     1     -10.032  11.611  66.382  1.00  0.00    -0.235 A  
HETATM    4  C   UNL     1     -10.026  10.324  65.955  1.00  0.00    -0.245 A  
HETATM    5  N   UNL     1     -10.565   9.595  66.978  1.00  0.00    -0.226 NA 
HETATM    6  C   UNL     1     -10.571   8.152  66.926  1.00  0.00    -0.241 C  
HETATM    7  C   UNL     1     -10.952  10.430  68.012  1.00  0.00    -0.291 A  
HETATM    8  C   UNL     1     -11.577  10.230  69.250  1.00  0.00    -0.186 A  
HETATM    9  C   UNL     1     -11.735  11.363  70.072  1.00  0.00    -0.416 A  
HETATM   10  C   UNL     1     -11.240  12.660  69.742  1.00  0.00     0.005 A  
HETATM   11  C   UNL     1     -10.605  12.918  68.520  1.00  0.00    -0.270 A  
HETATM   12  C   UNL     1     -10.025  14.318  67.928  1.00  0.00    -0.230 C  
HETATM   13  C   UNL     1     -10.549  11.740  67.677  1.00  0.00    -0.237 A  
HETATM   14  C   UNL     1      -8.825  15.659  68.183  1.00  0.00    -0.174 C  
HETATM   15  C   UNL     1      -7.882  13.106  69.268  1.00  0.00     0.523 C  
HETATM   16  C   UNL     1      -7.359  15.516  67.274  1.00  0.00    -0.249 C  
HETATM   17  N   UNL     1      -7.782  13.190  67.769  1.00  0.00    -0.138 NA 
HETATM   18  C   UNL     1      -6.736  14.136  67.484  1.00  0.00    -0.105 C  
ENDROOT
BRANCH  12  19
HETATM   19  O   UNL     1     -11.152  14.968  67.287  1.00  0.00    -0.318 OA 
HETATM   20  C   UNL     1     -11.576  16.158  67.962  1.00  0.00    -0.070 C  
ENDBRANCH  12  19
BRANCH  16  21
HETATM   21  C   UNL     1      -6.175  16.435  66.975  1.00  0.00    -0.120 C  
BRANCH  21  22
HETATM   22  O   UNL     1      -6.331  17.794  67.269  1.00  0.00    -0.149 OA 
BRANCH  22  23
HETATM   23  C   UNL     1      -6.997  18.408  66.259  1.00  0.00    -0.243 C  
HETATM   24  O   UNL     1      -6.575  18.621  65.143  1.00  0.00    -0.472 OA 
BRANCH  23  25
HETATM   25  C   UNL     1      -8.296  18.850  66.719  1.00  0.00    -0.289 A  
HETATM   26  C   UNL     1      -9.343  18.647  65.835  1.00  0.00     0.179 A  
HETATM   27  N   UNL     1     -10.626  18.987  66.106  1.00  0.00    -0.442 NA 
HETATM   28  C   UNL     1     -10.851  19.568  67.303  1.00  0.00    -0.437 A  
HETATM   29  C   UNL     1      -9.851  19.855  68.242  1.00  0.00    -0.399 A  
HETATM   30  C   UNL     1      -8.546  19.491  67.940  1.00  0.00    -0.357 A  
HETATM   31 BR   UNL     1     -10.281  20.687  69.869  1.00  0.00     1.046 Br 
ENDBRANCH  23  25
ENDBRANCH  22  23
ENDBRANCH  21  22
ENDBRANCH  16  21
TORSDOF 5
ENDMDL
MODEL      151
REMARK 921   NORMALIZED FREE ENERGY PREDICTED BY IDOCK:   -3.59 KCAL/MOL
REMARK 922        TOTAL FREE ENERGY PREDICTED BY IDOCK:   -5.08 KCAL/MOL
REMARK 923 INTER-LIGAND FREE ENERGY PREDICTED BY IDOCK:   -5.77 KCAL/MOL
REMARK 924 INTRA-LIGAND FREE ENERGY PREDICTED BY IDOCK:    0.69 KCAL/MOL
REMARK 927      BINDING AFFINITY PREDICTED BY RF-SCORE:    0.00 PKD
ROOT
HETATM    1  C   UNL     1     -10.333  15.014  67.237  1.00  0.00    -0.249 C  
HETATM    2  C   UNL     1     -11.325  16.092  67.660  1.00  0.00    -0.109 C  
HETATM    3  C   UNL     1     -10.539  17.245  67.966  1.00  0.00    -0.394 A  
HETATM    4  C   UNL     1     -10.732  18.214  68.894  1.00  0.00     0.318 A  
HETATM    5  N   UNL     1      -9.591  18.967  68.882  1.00  0.00    -0.379 NA 
HETATM    6  C   UNL     1      -9.388  20.006  69.865  1.00  0.00     0.748 C  
HETATM    7  C   UNL     1      -8.717  18.501  67.916  1.00  0.00    -0.284 A  
HETATM    8  C   UNL     1      -7.457  18.908  67.457  1.00  0.00    -0.244 A  
HETATM    9  C   UNL     1      -6.846  18.100  66.478  1.00  0.00    -0.255 A  
HETATM   10  C   UNL     1      -7.404  16.880  65.993  1.00  0.00     0.013 A  
HETATM   11  C   UNL     1      -8.659  16.422  66.417  1.00  0.00    -0.358 A  
HETATM   12  C   UNL     1      -9.494  15.105  65.953  1.00  0.00    -0.299 C  
HETATM   13  C   UNL     1      -9.281  17.336  67.356  1.00  0.00    -0.231 A  
HETATM   14  C   UNL     1      -9.490  13.289  65.881  1.00  0.00    -0.045 C  
HETATM   15  C   UNL     1      -7.982  14.310  68.176  1.00  0.00    -0.140 C  
HETATM   16  C   UNL     1     -10.374  12.502  67.144  1.00  0.00    -0.230 C  
HETATM   17  N   UNL     1      -9.473  14.383  68.363  1.00  0.00    -0.203 NA 
HETATM   18  C   UNL     1      -9.930  13.028  68.510  1.00  0.00    -0.172 C  
ENDROOT
BRANCH  12  19
HETATM   19  O   UNL     1     -10.228  15.506  64.768  1.00  0.00    -0.343 OA 
HETATM   20  C   UNL     1     -11.613  15.144  64.813  1.00  0.00    -0.364 C  
ENDBRANCH  12  19
BRANCH  16  21
HETATM   21  C   UNL     1     -10.842  11.072  67.412  1.00  0.00    -0.274 C  
BRANCH  21  22
HETATM   22  O   UNL     1      -9.875  10.153  67.836  1.00  0.00    -0.148 OA 
BRANCH  22  23
HETATM   23  C   UNL     1     -10.096   8.951  67.248  1.00  0.00    -0.239 C  
HETATM   24  O   UNL     1     -10.701   8.016  67.725  1.00  0.00    -0.198 OA 
BRANCH  23  25
HETATM   25  C   UNL     1      -9.438   8.902  65.960  1.00  0.00    -0.320 A  
HETATM   26  C   UNL     1      -8.612   7.810  65.752  1.00  0.00    -0.143 A  
HETATM   27  N   UNL     1      -7.929   7.597  64.602  1.00  0.00    -0.139 NA 
HETATM   28  C   UNL     1      -8.073   8.532  63.639  1.00  0.00    -0.154 A  
HETATM   29  C   UNL     1      -8.848   9.691  63.774  1.00  0.00    -0.231 A  
HETATM   30  C   UNL     1      -9.542   9.880  64.962  1.00  0.00    -0.364 A  
HETATM   31 BR   UNL     1      -8.958  10.933  62.371  1.00  0.00    -0.334 Br 
ENDBRANCH  23  25
ENDBRANCH  22  23
ENDBRANCH  21  22
ENDBRANCH  16  21
TORSDOF 5
ENDMDL
MODEL      152
REMARK 921   NORMALIZED FREE ENERGY PREDICTED BY IDOCK:   -3.56 KCAL/MOL
REMARK 922        TOTAL FREE ENERGY PREDICTED BY IDOCK:   -5.03 KCAL/MOL
REMARK 923 INTER-LIGAND FREE ENERGY PREDICTED BY IDOCK:   -5.28 KCAL/MOL
REMARK 924 INTRA-LIGAND FREE ENERGY PREDICTED BY IDOCK:    0.25 KCAL/MOL
REMARK 927      BINDING AFFINITY PREDICTED BY RF-SCORE:    0.00 PKD
ROOT
HETATM    1  C   UNL     1      -9.410  13.019  66.479  1.00  0.00    -0.217 C  
HETATM    2  C   UNL     1      -8.350  14.093  66.260  1.00  0.00     0.833 C  
HETATM    3  C   UNL     1      -8.937  15.315  66.709  1.00  0.00    -0.291 A  
HETATM    4  C   UNL     1      -8.779  16.582  66.252  1.00  0.00    -0.333 A  
HETATM    5  N   UNL     1      -9.708  17.332  66.918  1.00  0.00    -0.263 NA 
HETATM    6  C   UNL     1      -9.925  18.715  66.562  1.00  0.00    -0.380 C  
HETATM    7  C   UNL     1     -10.402  16.547  67.821  1.00  0.00    -0.291 A  
HETATM    8  C   UNL     1     -11.408  16.796  68.766  1.00  0.00    -0.038 A  
HETATM    9  C   UNL     1     -11.918  15.682  69.459  1.00  0.00    -0.363 A  
HETATM   10  C   UNL     1     -11.519  14.336  69.205  1.00  0.00    -0.330 A  
HETATM   11  C   UNL     1     -10.520  14.026  68.272  1.00  0.00    -0.245 A  
HETATM   12  C   UNL     1      -9.882  12.583  67.875  1.00  0.00    -0.207 C  
HETATM   13  C   UNL     1      -9.968  15.215  67.652  1.00  0.00    -0.229 A  
HETATM   14  C   UNL     1     -10.235  10.937  67.190  1.00  0.00    -0.249 C  
HETATM   15  C   UNL     1     -12.009  12.996  66.096  1.00  0.00    -0.427 C  
HETATM   16  C   UNL     1      -9.856  10.742  65.513  1.00  0.00    -0.309 C  
HETATM   17  N   UNL     1     -10.622  13.033  65.513  1.00  0.00    -0.277 NA 
HETATM   18  C   UNL     1     -10.497  11.860  64.690  1.00  0.00    -0.295 C  
ENDROOT
BRANCH  12  19
HETATM   19  O   UNL     1      -8.822  12.348  68.836  1.00  0.00     0.092 OA 
HETATM   20  C   UNL     1      -7.586  11.956  68.228  1.00  0.00    -0.116 C  
ENDBRANCH  12  19
BRANCH  16  21
HETATM   21  C   UNL     1      -9.764   9.556  64.552  1.00  0.00     0.259 C  
BRANCH  21  22
HETATM   22  O   UNL     1      -8.500   8.987  64.360  1.00  0.00    -0.173 OA 
BRANCH  22  23
HETATM   23  C   UNL     1      -7.967   8.640  65.558  1.00  0.00    -0.108 C  
HETATM   24  O   UNL     1      -7.064   9.205  66.135  1.00  0.00    -0.084 OA 
BRANCH  23  25
HETATM   25  C   UNL     1      -8.592   7.429  66.045  1.00  0.00    -0.162 A  
HETATM   26  C   UNL     1      -8.468   6.321  65.223  1.00  0.00    -0.111 A  
HETATM   27  N   UNL     1      -8.980   5.104  65.526  1.00  0.00    -0.155 NA 
HETATM   28  C   UNL     1      -9.655   5.012  66.691  1.00  0.00    -0.158 A  
HETATM   29  C   UNL     1      -9.871   6.086  67.565  1.00  0.00    -0.125 A  
HETATM   30  C   UNL     1      -9.331   7.321  67.231  1.00  0.00    -0.156 A  
HETATM   31 BR   UNL     1     -10.846   5.844  69.151  1.00  0.00    -0.373 Br 
ENDBRANCH  23  25
ENDBRANCH  22  23
ENDBRANCH  21  22
ENDBRANCH  16  21
TORSDOF 5
ENDMDL
MODEL      153
REMARK 921   NORMALIZED FREE ENERGY PREDICTED BY IDOCK:   -3.49 KCAL/MOL
REMARK 922        TOTAL FREE ENERGY PREDICTED BY IDOCK:   -4.94 KCAL/MOL
REMARK 923 INTER-LIGAND FREE ENERGY PREDICTED BY IDOCK:   -4.95 KCAL/MOL
REMARK 924 INTRA-LIGAND FREE ENERGY PREDICTED BY IDOCK:    0.01 KCAL/MOL
REMARK 927      BINDING AFFINITY PREDICTED BY RF-SCORE:    0.00 PKD
ROOT
HETATM    1  C   UNL     1      -9.295  14.622  66.384  1.00  0.00    -0.284 C  
HETATM    2  C   UNL     1      -8.238  15.681  66.094  1.00  0.00     0.251 C  
HETATM    3  C   UNL     1      -8.704  16.877  66.722  1.00  0.00    -0.261 A  
HETATM    4  C   UNL     1      -8.565  18.173  66.349  1.00  0.00    -0.229 A  
HETATM    5  N   UNL     1      -9.355  18.889  67.205  1.00  0.00    -0.295 NA 
HETATM    6  C   UNL     1      -9.568  20.302  66.996  1.00  0.00    -0.435 C  
HETATM    7  C   UNL     1      -9.940  18.049  68.136  1.00  0.00    -0.353 A  
HETATM    8  C   UNL     1     -10.784  18.245  69.237  1.00  0.00     0.702 A  
HETATM    9  C   UNL     1     -11.230  17.090  69.908  1.00  0.00     0.511 A  
HETATM   10  C   UNL     1     -10.926  15.760  69.491  1.00  0.00    -0.295 A  
HETATM   11  C   UNL     1     -10.089  15.503  68.397  1.00  0.00    -0.214 A  
HETATM   12  C   UNL     1      -9.574  14.082  67.795  1.00  0.00    -0.216 C  
HETATM   13  C   UNL     1      -9.588  16.725  67.798  1.00  0.00    -0.241 A  
HETATM   14  C   UNL     1     -10.088  12.510  67.042  1.00  0.00    -0.222 C  
HETATM   15  C   UNL     1     -11.921  14.702  66.393  1.00  0.00    -0.261 C  
HETATM   16  C   UNL     1      -9.967  12.447  65.317  1.00  0.00    -0.234 C  
HETATM   17  N   UNL     1     -10.634  14.750  65.614  1.00  0.00    -0.318 NA 
HETATM   18  C   UNL     1     -10.678  13.648  64.691  1.00  0.00    -0.421 C  
ENDROOT
BRANCH  12  19
HETATM   19  O   UNL     1      -8.394  13.738  68.564  1.00  0.00    -0.155 OA 
HETATM   20  C   UNL     1      -8.006  14.759  69.491  1.00  0.00    -0.014 C  
ENDBRANCH  12  19
BRANCH  16  21
HETATM   21  C   UNL     1     -10.065  11.346  64.262  1.00  0.00    -0.297 C  
BRANCH  21  22
HETATM   22  O   UNL     1     -10.023  10.022  64.716  1.00  0.00    -0.321 OA 
BRANCH  22  23
HETATM   23  C   UNL     1      -8.769   9.723  65.140  1.00  0.00    -0.168 C  
HETATM   24  O   UNL     1      -7.739   9.916  64.533  1.00  0.00    -0.132 OA 
BRANCH  23  25
HETATM   25  C   UNL     1      -8.827   9.063  66.426  1.00  0.00    -0.172 A  
HETATM   26  C   UNL     1      -9.647   7.947  66.488  1.00  0.00    -0.212 A  
HETATM   27  N   UNL     1      -9.811   7.201  67.606  1.00  0.00    -0.141 NA 
HETATM   28  C   UNL     1      -9.137   7.610  68.702  1.00  0.00    -0.135 A  
HETATM   29  C   UNL     1      -8.323   8.749  68.749  1.00  0.00    -0.124 A  
HETATM   30  C   UNL     1      -8.169   9.492  67.586  1.00  0.00    -0.121 A  
HETATM   31 BR   UNL     1      -7.450   9.233  70.339  1.00  0.00    -0.143 Br 
ENDBRANCH  23  25
ENDBRANCH  22  23
ENDBRANCH  21  22
ENDBRANCH  16  21
TORSDOF 5
ENDMDL
MODEL      154
REMARK 921   NORMALIZED FREE ENERGY PREDICTED BY IDOCK:   -3.49 KCAL/MOL
REMARK 922        TOTAL FREE ENERGY PREDICTED BY IDOCK:   -4.94 KCAL/MOL
REMARK 923 INTER-LIGAND FREE ENERGY PREDICTED BY IDOCK:   -4.87 KCAL/MOL
REMARK 924 INTRA-LIGAND FREE ENERGY PREDICTED BY IDOCK:   -0.07 KCAL/MOL
REMARK 927      BINDING AFFINITY PREDICTED BY RF-SCORE:    0.00 PKD
ROOT
HETATM    1  C   UNL     1      -8.912  12.251  67.960  1.00  0.00    -0.190 C  
HETATM    2  C   UNL     1      -8.040  13.232  68.734  1.00  0.00     0.063 C  
HETATM    3  C   UNL     1      -8.072  14.451  67.990  1.00  0.00    -0.142 A  
HETATM    4  C   UNL     1      -7.116  15.396  67.816  1.00  0.00    -0.165 A  
HETATM    5  N   UNL     1      -7.610  16.251  66.871  1.00  0.00    -0.221 NA 
HETATM    6  C   UNL     1      -6.781  17.301  66.327  1.00  0.00    -0.234 C  
HETATM    7  C   UNL     1      -8.887  15.869  66.498  1.00  0.00    -0.305 A  
HETATM    8  C   UNL     1      -9.849  16.391  65.623  1.00  0.00    -0.222 A  
HETATM    9  C   UNL     1     -11.032  15.645  65.462  1.00  0.00    -0.307 A  
HETATM   10  C   UNL     1     -11.265  14.380  66.079  1.00  0.00    -0.333 A  
HETATM   11  C   UNL     1     -10.340  13.808  66.963  1.00  0.00    -0.260 A  
HETATM   12  C   UNL     1     -10.432  12.422  67.809  1.00  0.00    -0.218 C  
HETATM   13  C   UNL     1      -9.182  14.658  67.160  1.00  0.00    -0.231 A  
HETATM   14  C   UNL     1     -10.578  10.614  67.693  1.00  0.00    -0.288 C  
HETATM   15  C   UNL     1      -9.173  11.762  65.392  1.00  0.00    -0.013 C  
HETATM   16  C   UNL     1      -9.087   9.746  67.838  1.00  0.00    -0.126 C  
HETATM   17  N   UNL     1      -8.327  11.698  66.635  1.00  0.00    -0.170 NA 
HETATM   18  C   UNL     1      -8.049  10.306  66.865  1.00  0.00    -0.119 C  
ENDROOT
BRANCH  12  19
HETATM   19  O   UNL     1     -11.137  12.757  69.031  1.00  0.00    -0.251 OA 
HETATM   20  C   UNL     1     -12.120  13.782  68.852  1.00  0.00    -0.313 C  
ENDBRANCH  12  19
BRANCH  16  21
HETATM   21  C   UNL     1      -8.700   8.278  68.016  1.00  0.00    -0.135 C  
BRANCH  21  22
HETATM   22  O   UNL     1      -8.857   7.438  66.908  1.00  0.00    -0.124 OA 
BRANCH  22  23
HETATM   23  C   UNL     1      -7.947   6.433  66.962  1.00  0.00    -0.109 C  
HETATM   24  O   UNL     1      -7.589   5.837  67.954  1.00  0.00    -0.083 OA 
BRANCH  23  25
HETATM   25  C   UNL     1      -7.390   6.201  65.647  1.00  0.00    -0.080 A  
HETATM   26  C   UNL     1      -7.356   4.878  65.238  1.00  0.00    -0.072 A  
HETATM   27  N   UNL     1      -6.881   4.480  64.034  1.00  0.00    -0.044 NA 
HETATM   28  C   UNL     1      -6.407   5.452  63.226  1.00  0.00    -0.022 A  
HETATM   29  C   UNL     1      -6.356   6.809  63.570  1.00  0.00    -0.042 A  
HETATM   30  C   UNL     1      -6.856   7.189  64.809  1.00  0.00    -0.050 A  
HETATM   31 BR   UNL     1      -5.654   8.072  62.371  1.00  0.00    -0.066 Br 
ENDBRANCH  23  25
ENDBRANCH  22  23
ENDBRANCH  21  22
ENDBRANCH  16  21
TORSDOF 5
ENDMDL
MODEL      155
REMARK 921   NORMALIZED FREE ENERGY PREDICTED BY IDOCK:   -3.25 KCAL/MOL
REMARK 922        TOTAL FREE ENERGY PREDICTED BY IDOCK:   -4.63 KCAL/MOL
REMARK 923 INTER-LIGAND FREE ENERGY PREDICTED BY IDOCK:   -4.59 KCAL/MOL
REMARK 924 INTRA-LIGAND FREE ENERGY PREDICTED BY IDOCK:   -0.03 KCAL/MOL
REMARK 927      BINDING AFFINITY PREDICTED BY RF-SCORE:    0.00 PKD
ROOT
HETATM    1  C   UNL     1      -7.471  10.297  66.316  1.00  0.00    -0.118 C  
HETATM    2  C   UNL     1      -7.298   9.699  64.924  1.00  0.00    -0.118 C  
HETATM    3  C   UNL     1      -7.433   8.286  65.088  1.00  0.00    -0.085 A  
HETATM    4  C   UNL     1      -6.826   7.267  64.432  1.00  0.00    -0.047 A  
HETATM    5  N   UNL     1      -7.179   6.132  65.109  1.00  0.00    -0.068 NA 
HETATM    6  C   UNL     1      -6.580   4.862  64.771  1.00  0.00    -0.043 C  
HETATM    7  C   UNL     1      -8.041   6.439  66.146  1.00  0.00    -0.117 A  
HETATM    8  C   UNL     1      -8.725   5.683  67.108  1.00  0.00    -0.108 A  
HETATM    9  C   UNL     1      -9.470   6.398  68.066  1.00  0.00    -0.116 A  
HETATM   10  C   UNL     1      -9.506   7.822  68.144  1.00  0.00    -0.152 A  
HETATM   11  C   UNL     1      -8.841   8.629  67.212  1.00  0.00    -0.141 A  
HETATM   12  C   UNL     1      -8.800  10.251  67.086  1.00  0.00    -0.136 C  
HETATM   13  C   UNL     1      -8.165   7.844  66.198  1.00  0.00    -0.117 A  
HETATM   14  C   UNL     1      -8.321  11.797  67.913  1.00  0.00    -0.149 C  
HETATM   15  C   UNL     1      -6.604   9.551  68.681  1.00  0.00    -0.052 C  
HETATM   16  C   UNL     1      -6.798  12.453  67.418  1.00  0.00    -0.147 C  
HETATM   17  N   UNL     1      -6.299  10.092  67.310  1.00  0.00    -0.066 NA 
HETATM   18  C   UNL     1      -5.706  11.387  67.508  1.00  0.00    -0.056 C  
ENDROOT
BRANCH  12  19
HETATM   19  O   UNL     1      -9.972  10.611  66.311  1.00  0.00    -0.206 OA 
HETATM   20  C   UNL     1      -9.677  11.489  65.218  1.00  0.00    -0.238 C  
ENDBRANCH  12  19
BRANCH  16  21
HETATM   21  C   UNL     1      -6.066  13.778  67.634  1.00  0.00    -0.084 C  
BRANCH  21  22
HETATM   22  O   UNL     1      -6.557  14.622  68.637  1.00  0.00    -0.080 OA 
BRANCH  22  23
HETATM   23  C   UNL     1      -7.243  15.649  68.076  1.00  0.00    -0.129 C  
HETATM   24  O   UNL     1      -6.768  16.640  67.567  1.00  0.00    -0.131 OA 
BRANCH  23  25
HETATM   25  C   UNL     1      -8.666  15.432  68.226  1.00  0.00    -0.164 A  
HETATM   26  C   UNL     1      -9.396  15.421  67.048  1.00  0.00    -0.224 A  
HETATM   27  N   UNL     1     -10.735  15.220  67.000  1.00  0.00    -0.308 NA 
HETATM   28  C   UNL     1     -11.356  15.042  68.185  1.00  0.00    -0.330 A  
HETATM   29  C   UNL     1     -10.711  15.082  69.428  1.00  0.00    -0.261 A  
HETATM   30  C   UNL     1      -9.338  15.285  69.447  1.00  0.00    -0.228 A  
HETATM   31 BR   UNL     1     -11.684  14.842  71.016  1.00  0.00    -0.375 Br 
ENDBRANCH  23  25
ENDBRANCH  22  23
ENDBRANCH  21  22
ENDBRANCH  16  21
TORSDOF 5
ENDMDL
MODEL      156
REMARK 921   NORMALIZED FREE ENERGY PREDICTED BY IDOCK:   -3.21 KCAL/MOL
REMARK 922        TOTAL FREE ENERGY PREDICTED BY IDOCK:   -4.58 KCAL/MOL
REMARK 923 INTER-LIGAND FREE ENERGY PREDICTED BY IDOCK:   -5.46 KCAL/MOL
REMARK 924 INTRA-LIGAND FREE ENERGY PREDICTED BY IDOCK:    0.88 KCAL/MOL
REMARK 927      BINDING AFFINITY PREDICTED BY RF-SCORE:    0.00 PKD
ROOT
HETATM    1  C   UNL     1      -9.884  11.452  67.841  1.00  0.00    -0.179 C  
HETATM    2  C   UNL     1      -8.466  12.012  67.859  1.00  0.00    -0.160 C  
HETATM    3  C   UNL     1      -7.839  11.519  66.674  1.00  0.00    -0.112 A  
HETATM    4  C   UNL     1      -6.549  11.168  66.447  1.00  0.00    -0.108 A  
HETATM    5  N   UNL     1      -6.535  10.595  65.206  1.00  0.00    -0.062 NA 
HETATM    6  C   UNL     1      -5.338   9.961  64.705  1.00  0.00    -0.074 C  
HETATM    7  C   UNL     1      -7.799  10.638  64.643  1.00  0.00     0.089 A  
HETATM    8  C   UNL     1      -8.336  10.243  63.410  1.00  0.00    -0.169 A  
HETATM    9  C   UNL     1      -9.726  10.394  63.245  1.00  0.00    -0.308 A  
HETATM   10  C   UNL     1     -10.603  10.855  64.272  1.00  0.00    -0.336 A  
HETATM   11  C   UNL     1     -10.124  11.263  65.524  1.00  0.00    -0.306 A  
HETATM   12  C   UNL     1     -10.934  11.867  66.798  1.00  0.00    -0.292 C  
HETATM   13  C   UNL     1      -8.680  11.170  65.609  1.00  0.00    -0.126 A  
HETATM   14  C   UNL     1     -12.224  11.537  68.035  1.00  0.00     0.286 C  
HETATM   15  C   UNL     1     -10.845   9.093  67.194  1.00  0.00    -0.024 C  
HETATM   16  C   UNL     1     -11.645  11.021  69.582  1.00  0.00    -0.390 C  
HETATM   17  N   UNL     1     -10.036   9.938  68.141  1.00  0.00    -0.147 NA 
HETATM   18  C   UNL     1     -10.682   9.843  69.422  1.00  0.00    -0.232 C  
ENDROOT
BRANCH  12  19
HETATM   19  O   UNL     1     -11.029  13.294  66.559  1.00  0.00    -0.282 OA 
HETATM   20  C   UNL     1     -11.384  13.618  65.210  1.00  0.00    -0.296 C  
ENDBRANCH  12  19
BRANCH  16  21
HETATM   21  C   UNL     1     -12.267  10.828  70.964  1.00  0.00    -0.380 C  
BRANCH  21  22
HETATM   22  O   UNL     1     -11.587   9.996  71.860  1.00  0.00    -0.114 OA 
BRANCH  22  23
HETATM   23  C   UNL     1     -12.246   8.816  71.981  1.00  0.00    -0.377 C  
HETATM   24  O   UNL     1     -13.256   8.617  72.619  1.00  0.00    -0.341 OA 
BRANCH  23  25
HETATM   25  C   UNL     1     -11.526   7.775  71.279  1.00  0.00    -0.294 A  
HETATM   26  C   UNL     1     -12.292   6.983  70.438  1.00  0.00    -0.009 A  
HETATM   27  N   UNL     1     -11.783   5.972  69.695  1.00  0.00     0.050 NA 
HETATM   28  C   UNL     1     -10.458   5.744  69.823  1.00  0.00    -0.292 A  
HETATM   29  C   UNL     1      -9.613   6.460  70.680  1.00  0.00    -0.172 A  
HETATM   30  C   UNL     1     -10.162   7.495  71.426  1.00  0.00    -0.201 A  
HETATM   31 BR   UNL     1      -7.787   6.038  70.791  1.00  0.00    -0.104 Br 
ENDBRANCH  23  25
ENDBRANCH  22  23
ENDBRANCH  21  22
ENDBRANCH  16  21
TORSDOF 5
ENDMDL
MODEL      157
REMARK 921   NORMALIZED FREE ENERGY PREDICTED BY IDOCK:   -3.20 KCAL/MOL
REMARK 922        TOTAL FREE ENERGY PREDICTED BY IDOCK:   -4.57 KCAL/MOL
REMARK 923 INTER-LIGAND FREE ENERGY PREDICTED BY IDOCK:   -5.14 KCAL/MOL
REMARK 924 INTRA-LIGAND FREE ENERGY PREDICTED BY IDOCK:    0.57 KCAL/MOL
REMARK 927      BINDING AFFINITY PREDICTED BY RF-SCORE:    0.00 PKD
ROOT
HETATM    1  C   UNL     1      -8.873  10.872  66.644  1.00  0.00    -0.159 C  
HETATM    2  C   UNL     1      -9.345  10.529  65.236  1.00  0.00    -0.258 C  
HETATM    3  C   UNL     1      -8.496   9.470  64.789  1.00  0.00    -0.170 A  
HETATM    4  C   UNL     1      -8.033   9.184  63.547  1.00  0.00    -0.145 A  
HETATM    5  N   UNL     1      -7.121   8.180  63.716  1.00  0.00    -0.076 NA 
HETATM    6  C   UNL     1      -6.312   7.731  62.608  1.00  0.00    -0.076 C  
HETATM    7  C   UNL     1      -7.057   7.808  65.048  1.00  0.00    -0.060 A  
HETATM    8  C   UNL     1      -6.343   6.834  65.759  1.00  0.00    -0.046 A  
HETATM    9  C   UNL     1      -6.505   6.824  67.158  1.00  0.00    -0.046 A  
HETATM   10  C   UNL     1      -7.289   7.776  67.875  1.00  0.00    -0.102 A  
HETATM   11  C   UNL     1      -8.023   8.772  67.218  1.00  0.00    -0.097 A  
HETATM   12  C   UNL     1      -9.013   9.907  67.832  1.00  0.00    -0.128 C  
HETATM   13  C   UNL     1      -7.890   8.683  65.777  1.00  0.00    -0.100 A  
HETATM   14  C   UNL     1      -9.123  11.350  68.931  1.00  0.00    -0.022 C  
HETATM   15  C   UNL     1      -6.477  11.094  67.700  1.00  0.00    -0.065 C  
HETATM   16  C   UNL     1      -9.057  12.886  68.136  1.00  0.00    -0.207 C  
HETATM   17  N   UNL     1      -7.523  11.627  66.758  1.00  0.00    -0.125 NA 
HETATM   18  C   UNL     1      -7.840  12.954  67.213  1.00  0.00    -0.131 C  
ENDROOT
BRANCH  12  19
HETATM   19  O   UNL     1     -10.310   9.269  67.954  1.00  0.00    -0.202 OA 
HETATM   20  C   UNL     1     -11.361  10.000  67.313  1.00  0.00     0.388 C  
ENDBRANCH  12  19
BRANCH  16  21
HETATM   21  C   UNL     1      -9.309  14.335  68.553  1.00  0.00    -0.200 C  
BRANCH  21  22
HETATM   22  O   UNL     1     -10.592  14.849  68.331  1.00  0.00    -0.235 OA 
BRANCH  22  23
HETATM   23  C   UNL     1     -11.512  13.863  68.480  1.00  0.00    -0.311 C  
HETATM   24  O   UNL     1     -12.000  13.194  67.596  1.00  0.00    -0.357 OA 
BRANCH  23  25
HETATM   25  C   UNL     1     -11.898  13.754  69.870  1.00  0.00    -0.394 A  
HETATM   26  C   UNL     1     -12.258  12.484  70.291  1.00  0.00    -0.267 A  
HETATM   27  N   UNL     1     -12.634  12.196  71.560  1.00  0.00    -0.226 NA 
HETATM   28  C   UNL     1     -12.665  13.232  72.425  1.00  0.00     0.032 A  
HETATM   29  C   UNL     1     -12.364  14.556  72.081  1.00  0.00    -0.260 A  
HETATM   30  C   UNL     1     -11.976  14.821  70.774  1.00  0.00    -0.371 A  
HETATM   31 BR   UNL     1     -12.461  15.921  73.366  1.00  0.00    -0.721 Br 
ENDBRANCH  23  25
ENDBRANCH  22  23
ENDBRANCH  21  22
ENDBRANCH  16  21
TORSDOF 5
ENDMDL
MODEL      158
REMARK 921   NORMALIZED FREE ENERGY PREDICTED BY IDOCK:   -2.96 KCAL/MOL
REMARK 922        TOTAL FREE ENERGY PREDICTED BY IDOCK:   -4.26 KCAL/MOL
REMARK 923 INTER-LIGAND FREE ENERGY PREDICTED BY IDOCK:   -4.45 KCAL/MOL
REMARK 924 INTRA-LIGAND FREE ENERGY PREDICTED BY IDOCK:    0.20 KCAL/MOL
REMARK 927      BINDING AFFINITY PREDICTED BY RF-SCORE:    0.00 PKD
ROOT
HETATM    1  C   UNL     1     -10.703   6.540  68.741  1.00  0.00    -0.272 C  
HETATM    2  C   UNL     1     -11.750   6.547  69.850  1.00  0.00    -0.349 C  
HETATM    3  C   UNL     1     -11.033   6.803  71.059  1.00  0.00    -0.297 A  
HETATM    4  C   UNL     1     -11.256   6.357  72.320  1.00  0.00    -0.276 A  
HETATM    5  N   UNL     1     -10.171   6.757  73.049  1.00  0.00    -0.198 NA 
HETATM    6  C   UNL     1     -10.003   6.315  74.414  1.00  0.00    -0.332 C  
HETATM    7  C   UNL     1      -9.305   7.491  72.259  1.00  0.00    -0.145 A  
HETATM    8  C   UNL     1      -8.095   8.158  72.491  1.00  0.00    -0.204 A  
HETATM    9  C   UNL     1      -7.468   8.744  71.374  1.00  0.00    -0.126 A  
HETATM   10  C   UNL     1      -7.959   8.636  70.039  1.00  0.00    -0.106 A  
HETATM   11  C   UNL     1      -9.163   7.981  69.746  1.00  0.00    -0.149 A  
HETATM   12  C   UNL     1      -9.923   7.795  68.320  1.00  0.00    -0.178 C  
HETATM   13  C   UNL     1      -9.809   7.474  70.941  1.00  0.00    -0.177 A  
HETATM   14  C   UNL     1      -9.797   7.098  66.646  1.00  0.00    -0.237 C  
HETATM   15  C   UNL     1      -8.275   5.545  68.609  1.00  0.00    -0.102 C  
HETATM   16  C   UNL     1     -10.576   5.568  66.427  1.00  0.00    -0.291 C  
HETATM   17  N   UNL     1      -9.760   5.311  68.686  1.00  0.00    -0.136 NA 
HETATM   18  C   UNL     1     -10.117   4.580  67.500  1.00  0.00    -0.039 C  
ENDROOT
BRANCH  12  19
HETATM   19  O   UNL     1     -10.727   8.989  68.148  1.00  0.00    -0.195 OA 
HETATM   20  C   UNL     1     -10.534   9.954  69.189  1.00  0.00    -0.217 C  
ENDBRANCH  12  19
BRANCH  16  21
HETATM   21  C   UNL     1     -10.934   4.696  65.223  1.00  0.00     0.045 C  
BRANCH  21  22
HETATM   22  O   UNL     1      -9.990   4.611  64.193  1.00  0.00     0.077 OA 
BRANCH  22  23
HETATM   23  C   UNL     1      -9.492   3.351  64.131  1.00  0.00    -0.139 C  
HETATM   24  O   UNL     1     -10.123   2.337  63.927  1.00  0.00    -0.144 OA 
BRANCH  23  25
HETATM   25  C   UNL     1      -8.073   3.366  64.411  1.00  0.00    -0.086 A  
HETATM   26  C   UNL     1      -7.286   2.622  63.548  1.00  0.00    -0.048 A  
HETATM   27  N   UNL     1      -5.938   2.533  63.653  1.00  0.00    -0.010 NA 
HETATM   28  C   UNL     1      -5.373   3.205  64.679  1.00  0.00    -0.009 A  
HETATM   29  C   UNL     1      -6.089   3.945  65.628  1.00  0.00    -0.024 A  
HETATM   30  C   UNL     1      -7.469   4.023  65.492  1.00  0.00    -0.081 A  
HETATM   31 BR   UNL     1      -5.196   4.822  67.026  1.00  0.00    -0.009 Br 
ENDBRANCH  23  25
ENDBRANCH  22  23
ENDBRANCH  21  22
ENDBRANCH  16  21
TORSDOF 5
ENDMDL
MODEL      159
REMARK 921   NORMALIZED FREE ENERGY PREDICTED BY IDOCK:   -2.73 KCAL/MOL
REMARK 922        TOTAL FREE ENERGY PREDICTED BY IDOCK:   -3.96 KCAL/MOL
REMARK 923 INTER-LIGAND FREE ENERGY PREDICTED BY IDOCK:   -3.37 KCAL/MOL
REMARK 924 INTRA-LIGAND FREE ENERGY PREDICTED BY IDOCK:   -0.59 KCAL/MOL
REMARK 927      BINDING AFFINITY PREDICTED BY RF-SCORE:    0.00 PKD
ROOT
HETATM    1  C   UNL     1      -8.492   6.237  70.497  1.00  0.00    -0.138 C  
HETATM    2  C   UNL     1      -8.763   6.536  71.967  1.00  0.00    -0.132 C  
HETATM    3  C   UNL     1      -7.836   7.561  72.332  1.00  0.00    -0.112 A  
HETATM    4  C   UNL     1      -7.204   7.790  73.509  1.00  0.00    -0.108 A  
HETATM    5  N   UNL     1      -6.299   8.782  73.253  1.00  0.00    -0.269 NA 
HETATM    6  C   UNL     1      -5.337   9.173  74.258  1.00  0.00    -0.119 C  
HETATM    7  C   UNL     1      -6.405   9.203  71.939  1.00  0.00     0.023 A  
HETATM    8  C   UNL     1      -5.770  10.189  71.172  1.00  0.00    -0.054 A  
HETATM    9  C   UNL     1      -6.118  10.256  69.810  1.00  0.00    -0.054 A  
HETATM   10  C   UNL     1      -7.013   9.347  69.172  1.00  0.00    -0.058 A  
HETATM   11  C   UNL     1      -7.677   8.341  69.887  1.00  0.00    -0.097 A  
HETATM   12  C   UNL     1      -8.768   7.249  69.373  1.00  0.00    -0.137 C  
HETATM   13  C   UNL     1      -7.350   8.373  71.299  1.00  0.00    -0.088 A  
HETATM   14  C   UNL     1      -9.059   5.851  68.249  1.00  0.00    -0.118 C  
HETATM   15  C   UNL     1      -6.266   6.009  69.120  1.00  0.00    -0.036 C  
HETATM   16  C   UNL     1      -8.924   4.285  68.974  1.00  0.00    -0.157 C  
HETATM   17  N   UNL     1      -7.189   5.461  70.175  1.00  0.00    -0.065 NA 
HETATM   18  C   UNL     1      -7.596   4.158  69.722  1.00  0.00    -0.053 C  
ENDROOT
BRANCH  12  19
HETATM   19  O   UNL     1     -10.053   7.916  69.450  1.00  0.00    -0.186 OA 
HETATM   20  C   UNL     1     -10.231   8.916  68.441  1.00  0.00    -0.199 C  
ENDBRANCH  12  19
BRANCH  16  21
HETATM   21  C   UNL     1      -9.265   2.858  68.544  1.00  0.00    -0.181 C  
BRANCH  21  22
HETATM   22  O   UNL     1      -9.659   2.669  67.215  1.00  0.00    -0.087 OA 
BRANCH  22  23
HETATM   23  C   UNL     1      -8.569   2.433  66.443  1.00  0.00    -0.114 C  
HETATM   24  O   UNL     1      -7.622   1.734  66.727  1.00  0.00    -0.062 OA 
BRANCH  23  25
HETATM   25  C   UNL     1      -8.655   3.203  65.220  1.00  0.00    -0.109 A  
HETATM   26  C   UNL     1      -9.282   2.570  64.159  1.00  0.00    -0.122 A  
HETATM   27  N   UNL     1      -9.462   3.145  62.946  1.00  0.00    -0.093 NA 
HETATM   28  C   UNL     1      -8.973   4.395  62.798  1.00  0.00    -0.123 A  
HETATM   29  C   UNL     1      -8.285   5.096  63.796  1.00  0.00    -0.126 A  
HETATM   30  C   UNL     1      -8.120   4.484  65.032  1.00  0.00    -0.100 A  
HETATM   31 BR   UNL     1      -7.630   6.825  63.468  1.00  0.00    -0.096 Br 
ENDBRANCH  23  25
ENDBRANCH  22  23
ENDBRANCH  21  22
ENDBRANCH  16  21
TORSDOF 5
ENDMDL
MODEL      160
REMARK 921   NORMALIZED FREE ENERGY PREDICTED BY IDOCK:   -2.46 KCAL/MOL
REMARK 922        TOTAL FREE ENERGY PREDICTED BY IDOCK:   -3.62 KCAL/MOL
REMARK 923 INTER-LIGAND FREE ENERGY PREDICTED BY IDOCK:   -3.30 KCAL/MOL
REMARK 924 INTRA-LIGAND FREE ENERGY PREDICTED BY IDOCK:   -0.32 KCAL/MOL
REMARK 927      BINDING AFFINITY PREDICTED BY RF-SCORE:    0.00 PKD
ROOT
HETATM    1  C   UNL     1      -9.051   7.343  68.739  1.00  0.00    -0.131 C  
HETATM    2  C   UNL     1      -9.600   7.603  70.137  1.00  0.00    -0.168 C  
HETATM    3  C   UNL     1      -8.547   8.250  70.853  1.00  0.00    -0.152 A  
HETATM    4  C   UNL     1      -8.207   8.180  72.164  1.00  0.00    -0.149 A  
HETATM    5  N   UNL     1      -7.020   8.848  72.273  1.00  0.00    -0.311 NA 
HETATM    6  C   UNL     1      -6.285   8.839  73.516  1.00  0.00    -0.040 C  
HETATM    7  C   UNL     1      -6.651   9.376  71.048  1.00  0.00    -0.081 A  
HETATM    8  C   UNL     1      -5.580  10.164  70.604  1.00  0.00    -0.078 A  
HETATM    9  C   UNL     1      -5.523  10.438  69.224  1.00  0.00    -0.038 A  
HETATM   10  C   UNL     1      -6.444   9.910  68.270  1.00  0.00    -0.055 A  
HETATM   11  C   UNL     1      -7.532   9.117  68.655  1.00  0.00    -0.080 A  
HETATM   12  C   UNL     1      -8.718   8.470  67.748  1.00  0.00    -0.137 C  
HETATM   13  C   UNL     1      -7.593   8.940  70.093  1.00  0.00    -0.074 A  
HETATM   14  C   UNL     1      -9.095   7.323  66.389  1.00  0.00    -0.192 C  
HETATM   15  C   UNL     1      -6.707   6.521  67.884  1.00  0.00    -0.068 C  
HETATM   16  C   UNL     1      -9.613   5.747  66.880  1.00  0.00    -0.153 C  
HETATM   17  N   UNL     1      -7.992   6.219  68.607  1.00  0.00    -0.104 NA 
HETATM   18  C   UNL     1      -8.624   5.150  67.882  1.00  0.00    -0.103 C  
ENDROOT
BRANCH  12  19
HETATM   19  O   UNL     1      -9.728   9.503  67.632  1.00  0.00    -0.146 OA 
HETATM   20  C   UNL     1      -9.222  10.729  67.092  1.00  0.00    -0.147 C  
ENDBRANCH  12  19
BRANCH  16  21
HETATM   21  C   UNL     1     -10.227   4.538  66.174  1.00  0.00    -0.254 C  
BRANCH  21  22
HETATM   22  O   UNL     1     -10.316   4.591  64.778  1.00  0.00    -0.082 OA 
BRANCH  22  23
HETATM   23  C   UNL     1      -9.745   3.484  64.240  1.00  0.00    -0.171 C  
HETATM   24  O   UNL     1     -10.198   2.361  64.256  1.00  0.00    -0.041 OA 
BRANCH  23  25
HETATM   25  C   UNL     1      -8.452   3.817  63.682  1.00  0.00    -0.092 A  
HETATM   26  C   UNL     1      -7.832   2.805  62.969  1.00  0.00    -0.068 A  
HETATM   27  N   UNL     1      -6.625   2.944  62.369  1.00  0.00    -0.018 NA 
HETATM   28  C   UNL     1      -6.020   4.142  62.513  1.00  0.00    -0.017 A  
HETATM   29  C   UNL     1      -6.547   5.209  63.253  1.00  0.00    -0.026 A  
HETATM   30  C   UNL     1      -7.788   5.039  63.853  1.00  0.00    -0.088 A  
HETATM   31 BR   UNL     1      -5.604   6.825  63.401  1.00  0.00    -0.036 Br 
ENDBRANCH  23  25
ENDBRANCH  22  23
ENDBRANCH  21  22
ENDBRANCH  16  21
TORSDOF 5
ENDMDL
MODEL      161
REMARK 921   NORMALIZED FREE ENERGY PREDICTED BY IDOCK:   -2.41 KCAL/MOL
REMARK 922        TOTAL FREE ENERGY PREDICTED BY IDOCK:   -3.54 KCAL/MOL
REMARK 923 INTER-LIGAND FREE ENERGY PREDICTED BY IDOCK:   -4.30 KCAL/MOL
REMARK 924 INTRA-LIGAND FREE ENERGY PREDICTED BY IDOCK:    0.75 KCAL/MOL
REMARK 927      BINDING AFFINITY PREDICTED BY RF-SCORE:    0.00 PKD
ROOT
HETATM    1  C   UNL     1      -8.682   9.071  69.256  1.00  0.00    -0.138 C  
HETATM    2  C   UNL     1      -9.992   9.309  69.998  1.00  0.00    -0.238 C  
HETATM    3  C   UNL     1     -10.111   8.233  70.931  1.00  0.00    -0.224 A  
HETATM    4  C   UNL     1     -11.212   7.587  71.386  1.00  0.00    -0.242 A  
HETATM    5  N   UNL     1     -10.744   6.529  72.114  1.00  0.00    -0.215 NA 
HETATM    6  C   UNL     1     -11.654   5.529  72.624  1.00  0.00    -0.232 C  
HETATM    7  C   UNL     1      -9.361   6.547  72.154  1.00  0.00    -0.142 A  
HETATM    8  C   UNL     1      -8.388   5.750  72.773  1.00  0.00    -0.119 A  
HETATM    9  C   UNL     1      -7.043   6.065  72.501  1.00  0.00    -0.084 A  
HETATM   10  C   UNL     1      -6.632   7.088  71.596  1.00  0.00    -0.048 A  
HETATM   11  C   UNL     1      -7.559   7.916  70.948  1.00  0.00    -0.078 A  
HETATM   12  C   UNL     1      -7.307   9.164  69.935  1.00  0.00    -0.064 C  
HETATM   13  C   UNL     1      -8.923   7.606  71.331  1.00  0.00    -0.144 A  
HETATM   14  C   UNL     1      -6.602   9.664  68.337  1.00  0.00    -0.053 C  
HETATM   15  C   UNL     1      -7.557   6.895  68.308  1.00  0.00    -0.107 C  
HETATM   16  C   UNL     1      -7.741   9.795  67.040  1.00  0.00    -0.095 C  
HETATM   17  N   UNL     1      -8.667   7.908  68.231  1.00  0.00    -0.130 NA 
HETATM   18  C   UNL     1      -8.571   8.516  66.931  1.00  0.00    -0.117 C  
ENDROOT
BRANCH  12  19
HETATM   19  O   UNL     1      -7.119  10.324  70.785  1.00  0.00    -0.315 OA 
HETATM   20  C   UNL     1      -5.742  10.616  71.045  1.00  0.00    -0.031 C  
ENDBRANCH  12  19
BRANCH  16  21
HETATM   21  C   UNL     1      -7.708  10.359  65.620  1.00  0.00    -0.150 C  
BRANCH  21  22
HETATM   22  O   UNL     1      -8.938  10.662  65.024  1.00  0.00    -0.188 OA 
BRANCH  22  23
HETATM   23  C   UNL     1      -8.845  10.511  63.679  1.00  0.00    -0.203 C  
HETATM   24  O   UNL     1      -9.511  11.080  62.843  1.00  0.00    -0.304 OA 
BRANCH  23  25
HETATM   25  C   UNL     1      -7.859   9.500  63.362  1.00  0.00    -0.132 A  
HETATM   26  C   UNL     1      -6.632   9.977  62.932  1.00  0.00    -0.127 A  
HETATM   27  N   UNL     1      -5.591   9.175  62.605  1.00  0.00    -0.085 NA 
HETATM   28  C   UNL     1      -5.807   7.846  62.700  1.00  0.00    -0.068 A  
HETATM   29  C   UNL     1      -7.025   7.269  63.080  1.00  0.00    -0.059 A  
HETATM   30  C   UNL     1      -8.074   8.116  63.415  1.00  0.00    -0.116 A  
HETATM   31 BR   UNL     1      -7.216   5.403  63.156  1.00  0.00    -0.046 Br 
ENDBRANCH  23  25
ENDBRANCH  22  23
ENDBRANCH  21  22
ENDBRANCH  16  21
TORSDOF 5
ENDMDL
MODEL      162
REMARK 921   NORMALIZED FREE ENERGY PREDICTED BY IDOCK:   -2.23 KCAL/MOL
REMARK 922        TOTAL FREE ENERGY PREDICTED BY IDOCK:   -3.31 KCAL/MOL
REMARK 923 INTER-LIGAND FREE ENERGY PREDICTED BY IDOCK:   -3.85 KCAL/MOL
REMARK 924 INTRA-LIGAND FREE ENERGY PREDICTED BY IDOCK:    0.54 KCAL/MOL
REMARK 927      BINDING AFFINITY PREDICTED BY RF-SCORE:    0.00 PKD
ROOT
HETATM    1  C   UNL     1      -7.847  13.225  67.272  1.00  0.00    -0.108 C  
HETATM    2  C   UNL     1      -7.408  11.837  66.821  1.00  0.00    -0.052 C  
HETATM    3  C   UNL     1      -8.381  10.932  67.347  1.00  0.00    -0.117 A  
HETATM    4  C   UNL     1      -8.242   9.659  67.792  1.00  0.00    -0.114 A  
HETATM    5  N   UNL     1      -9.445   9.331  68.352  1.00  0.00    -0.138 NA 
HETATM    6  C   UNL     1      -9.604   8.087  69.068  1.00  0.00    -0.156 C  
HETATM    7  C   UNL     1     -10.342  10.374  68.209  1.00  0.00    -0.171 A  
HETATM    8  C   UNL     1     -11.688  10.562  68.551  1.00  0.00    -0.125 A  
HETATM    9  C   UNL     1     -12.237  11.833  68.294  1.00  0.00     0.174 A  
HETATM   10  C   UNL     1     -11.489  12.933  67.779  1.00  0.00    -0.369 A  
HETATM   11  C   UNL     1     -10.141  12.805  67.420  1.00  0.00    -0.219 A  
HETATM   12  C   UNL     1      -9.131  13.903  66.769  1.00  0.00    -0.223 C  
HETATM   13  C   UNL     1      -9.651  11.456  67.622  1.00  0.00    -0.176 A  
HETATM   14  C   UNL     1      -8.323  15.512  67.014  1.00  0.00    -0.265 C  
HETATM   15  C   UNL     1      -8.812  14.122  69.546  1.00  0.00     0.692 C  
HETATM   16  C   UNL     1      -6.692  15.436  67.587  1.00  0.00    -0.198 C  
HETATM   17  N   UNL     1      -7.649  13.561  68.773  1.00  0.00    -0.103 NA 
HETATM   18  C   UNL     1      -6.608  14.551  68.832  1.00  0.00    -0.095 C  
ENDROOT
BRANCH  12  19
HETATM   19  O   UNL     1      -9.344  13.826  65.337  1.00  0.00     0.148 OA 
HETATM   20  C   UNL     1     -10.557  14.456  64.912  1.00  0.00    -0.434 C  
ENDBRANCH  12  19
BRANCH  16  21
HETATM   21  C   UNL     1      -5.550  16.440  67.746  1.00  0.00    -0.134 C  
BRANCH  21  22
HETATM   22  O   UNL     1      -5.234  17.227  66.634  1.00  0.00    -0.151 OA 
BRANCH  22  23
HETATM   23  C   UNL     1      -6.267  18.060  66.353  1.00  0.00    -0.201 C  
HETATM   24  O   UNL     1      -6.807  18.200  65.278  1.00  0.00    -0.465 OA 
BRANCH  23  25
HETATM   25  C   UNL     1      -6.612  18.833  67.526  1.00  0.00    -0.202 A  
HETATM   26  C   UNL     1      -7.886  19.375  67.531  1.00  0.00    -0.258 A  
HETATM   27  N   UNL     1      -8.380  20.115  68.552  1.00  0.00    -0.016 NA 
HETATM   28  C   UNL     1      -7.548  20.328  69.594  1.00  0.00     0.517 A  
HETATM   29  C   UNL     1      -6.229  19.860  69.659  1.00  0.00    -0.342 A  
HETATM   30  C   UNL     1      -5.752  19.100  68.600  1.00  0.00    -0.222 A  
HETATM   31 BR   UNL     1      -5.157  20.237  71.153  1.00  0.00    -0.324 Br 
ENDBRANCH  23  25
ENDBRANCH  22  23
ENDBRANCH  21  22
ENDBRANCH  16  21
TORSDOF 5
ENDMDL
MODEL      163
REMARK 921   NORMALIZED FREE ENERGY PREDICTED BY IDOCK:   -2.01 KCAL/MOL
REMARK 922        TOTAL FREE ENERGY PREDICTED BY IDOCK:   -3.03 KCAL/MOL
REMARK 923 INTER-LIGAND FREE ENERGY PREDICTED BY IDOCK:   -3.84 KCAL/MOL
REMARK 924 INTRA-LIGAND FREE ENERGY PREDICTED BY IDOCK:    0.80 KCAL/MOL
REMARK 927      BINDING AFFINITY PREDICTED BY RF-SCORE:    0.00 PKD
ROOT
HETATM    1  C   UNL     1     -10.983  14.534  70.451  1.00  0.00     0.090 C  
HETATM    2  C   UNL     1      -9.568  14.903  70.883  1.00  0.00     1.790 C  
HETATM    3  C   UNL     1      -8.952  15.489  69.735  1.00  0.00    -0.035 A  
HETATM    4  C   UNL     1      -7.663  15.449  69.317  1.00  0.00    -0.221 A  
HETATM    5  N   UNL     1      -7.661  16.018  68.074  1.00  0.00    -0.126 NA 
HETATM    6  C   UNL     1      -6.466  16.001  67.263  1.00  0.00    -0.165 C  
HETATM    7  C   UNL     1      -8.931  16.457  67.744  1.00  0.00    -0.198 A  
HETATM    8  C   UNL     1      -9.480  17.129  66.644  1.00  0.00    -0.279 A  
HETATM    9  C   UNL     1     -10.873  17.335  66.656  1.00  0.00     0.049 A  
HETATM   10  C   UNL     1     -11.740  16.846  67.677  1.00  0.00     0.825 A  
HETATM   11  C   UNL     1     -11.249  16.167  68.800  1.00  0.00    -0.365 A  
HETATM   12  C   UNL     1     -12.048  15.583  70.091  1.00  0.00    -0.378 C  
HETATM   13  C   UNL     1      -9.803  16.060  68.780  1.00  0.00    -0.223 A  
HETATM   14  C   UNL     1     -13.321  14.413  70.650  1.00  0.00    -0.107 C  
HETATM   15  C   UNL     1     -11.938  13.478  68.243  1.00  0.00    -0.342 C  
HETATM   16  C   UNL     1     -12.721  12.910  71.263  1.00  0.00    -0.371 C  
HETATM   17  N   UNL     1     -11.123  13.319  69.498  1.00  0.00    -0.097 NA 
HETATM   18  C   UNL     1     -11.753  12.277  70.262  1.00  0.00    -0.137 C  
ENDROOT
BRANCH  12  19
HETATM   19  O   UNL     1     -12.153  16.693  71.019  1.00  0.00     0.269 OA 
HETATM   20  C   UNL     1     -12.105  16.288  72.391  1.00  0.00    -0.513 C  
ENDBRANCH  12  19
BRANCH  16  21
HETATM   21  C   UNL     1     -13.326  11.728  72.020  1.00  0.00    -0.312 C  
BRANCH  21  22
HETATM   22  O   UNL     1     -13.443  10.518  71.325  1.00  0.00    -0.263 OA 
BRANCH  22  23
HETATM   23  C   UNL     1     -13.427   9.483  72.201  1.00  0.00    -0.456 C  
HETATM   24  O   UNL     1     -14.238   9.265  73.074  1.00  0.00    -0.387 OA 
BRANCH  23  25
HETATM   25  C   UNL     1     -12.241   8.679  71.995  1.00  0.00    -0.439 A  
HETATM   26  C   UNL     1     -11.227   9.287  71.273  1.00  0.00    -0.355 A  
HETATM   27  N   UNL     1     -10.044   8.688  70.997  1.00  0.00    -0.201 NA 
HETATM   28  C   UNL     1      -9.892   7.426  71.450  1.00  0.00    -0.185 A  
HETATM   29  C   UNL     1     -10.876   6.714  72.148  1.00  0.00    -0.229 A  
HETATM   30  C   UNL     1     -12.077   7.355  72.421  1.00  0.00    -0.187 A  
HETATM   31 BR   UNL     1     -10.559   4.952  72.712  1.00  0.00    -0.290 Br 
ENDBRANCH  23  25
ENDBRANCH  22  23
ENDBRANCH  21  22
ENDBRANCH  16  21
TORSDOF 5
ENDMDL
MODEL      164
REMARK 921   NORMALIZED FREE ENERGY PREDICTED BY IDOCK:   -1.88 KCAL/MOL
REMARK 922        TOTAL FREE ENERGY PREDICTED BY IDOCK:   -2.87 KCAL/MOL
REMARK 923 INTER-LIGAND FREE ENERGY PREDICTED BY IDOCK:   -2.61 KCAL/MOL
REMARK 924 INTRA-LIGAND FREE ENERGY PREDICTED BY IDOCK:   -0.25 KCAL/MOL
REMARK 927      BINDING AFFINITY PREDICTED BY RF-SCORE:    0.00 PKD
ROOT
HETATM    1  C   UNL     1      -8.298  13.998  67.536  1.00  0.00    -0.192 C  
HETATM    2  C   UNL     1      -7.666  14.943  66.521  1.00  0.00     0.771 C  
HETATM    3  C   UNL     1      -7.144  16.035  67.279  1.00  0.00    -0.238 A  
HETATM    4  C   UNL     1      -7.041  17.350  66.964  1.00  0.00    -0.183 A  
HETATM    5  N   UNL     1      -6.642  17.974  68.113  1.00  0.00    -0.195 NA 
HETATM    6  C   UNL     1      -6.580  19.415  68.180  1.00  0.00    -0.246 C  
HETATM    7  C   UNL     1      -6.448  17.046  69.122  1.00  0.00    -0.221 A  
HETATM    8  C   UNL     1      -6.015  17.123  70.452  1.00  0.00     0.108 A  
HETATM    9  C   UNL     1      -6.025  15.925  71.193  1.00  0.00     0.605 A  
HETATM   10  C   UNL     1      -6.506  14.681  70.687  1.00  0.00     0.014 A  
HETATM   11  C   UNL     1      -6.952  14.545  69.365  1.00  0.00    -0.151 A  
HETATM   12  C   UNL     1      -7.480  13.222  68.580  1.00  0.00    -0.115 C  
HETATM   13  C   UNL     1      -6.838  15.785  68.624  1.00  0.00    -0.122 A  
HETATM   14  C   UNL     1      -8.749  11.921  68.540  1.00  0.00    -0.108 C  
HETATM   15  C   UNL     1      -9.763  14.425  69.674  1.00  0.00     0.441 C  
HETATM   16  C   UNL     1     -10.051  12.199  67.434  1.00  0.00    -0.208 C  
HETATM   17  N   UNL     1      -9.633  14.460  68.175  1.00  0.00    -0.212 NA 
HETATM   18  C   UNL     1     -10.652  13.587  67.659  1.00  0.00    -0.241 C  
ENDROOT
BRANCH  12  19
HETATM   19  O   UNL     1      -6.290  12.572  68.066  1.00  0.00    -0.068 OA 
HETATM   20  C   UNL     1      -5.512  11.932  69.084  1.00  0.00    -0.052 C  
ENDBRANCH  12  19
BRANCH  16  21
HETATM   21  C   UNL     1     -11.205  11.361  66.884  1.00  0.00    -0.264 C  
BRANCH  21  22
HETATM   22  O   UNL     1     -11.256  10.016  67.269  1.00  0.00    -0.167 OA 
BRANCH  22  23
HETATM   23  C   UNL     1     -10.361   9.298  66.545  1.00  0.00    -0.200 C  
HETATM   24  O   UNL     1      -9.895   9.603  65.470  1.00  0.00    -0.302 OA 
BRANCH  23  25
HETATM   25  C   UNL     1     -10.074   8.048  67.214  1.00  0.00    -0.309 A  
HETATM   26  C   UNL     1     -10.756   7.836  68.401  1.00  0.00    -0.036 A  
HETATM   27  N   UNL     1     -10.620   6.717  69.153  1.00  0.00    -0.224 NA 
HETATM   28  C   UNL     1      -9.750   5.792  68.695  1.00  0.00    -0.131 A  
HETATM   29  C   UNL     1      -8.982   5.937  67.532  1.00  0.00    -0.107 A  
HETATM   30  C   UNL     1      -9.146   7.092  66.779  1.00  0.00    -0.162 A  
HETATM   31 BR   UNL     1      -7.786   4.589  67.005  1.00  0.00    -0.098 Br 
ENDBRANCH  23  25
ENDBRANCH  22  23
ENDBRANCH  21  22
ENDBRANCH  16  21
TORSDOF 5
ENDMDL
MODEL      165
REMARK 921   NORMALIZED FREE ENERGY PREDICTED BY IDOCK:   -1.80 KCAL/MOL
REMARK 922        TOTAL FREE ENERGY PREDICTED BY IDOCK:   -2.76 KCAL/MOL
REMARK 923 INTER-LIGAND FREE ENERGY PREDICTED BY IDOCK:   -4.72 KCAL/MOL
REMARK 924 INTRA-LIGAND FREE ENERGY PREDICTED BY IDOCK:    1.96 KCAL/MOL
REMARK 927      BINDING AFFINITY PREDICTED BY RF-SCORE:    0.00 PKD
ROOT
HETATM    1  C   UNL     1     -10.347  14.184  68.507  1.00  0.00    -0.249 C  
HETATM    2  C   UNL     1     -10.712  12.732  68.220  1.00  0.00    -0.257 C  
HETATM    3  C   UNL     1     -11.557  12.325  69.298  1.00  0.00    -0.383 A  
HETATM    4  C   UNL     1     -11.687  11.117  69.900  1.00  0.00    -0.355 A  
HETATM    5  N   UNL     1     -12.493  11.330  70.983  1.00  0.00    -0.402 NA 
HETATM    6  C   UNL     1     -12.719  10.279  71.947  1.00  0.00    -0.379 C  
HETATM    7  C   UNL     1     -12.905  12.651  71.023  1.00  0.00    -0.166 A  
HETATM    8  C   UNL     1     -13.748  13.389  71.866  1.00  0.00    -0.444 A  
HETATM    9  C   UNL     1     -13.855  14.768  71.606  1.00  0.00    -0.535 A  
HETATM   10  C   UNL     1     -13.114  15.447  70.594  1.00  0.00    -0.405 A  
HETATM   11  C   UNL     1     -12.257  14.762  69.722  1.00  0.00    -0.337 A  
HETATM   12  C   UNL     1     -11.373  15.327  68.478  1.00  0.00    -0.327 C  
HETATM   13  C   UNL     1     -12.251  13.335  69.977  1.00  0.00    -0.345 A  
HETATM   14  C   UNL     1     -10.034  16.456  67.995  1.00  0.00    -0.242 C  
HETATM   15  C   UNL     1      -9.696  15.439  70.721  1.00  0.00     1.116 C  
HETATM   16  C   UNL     1      -8.481  15.716  67.805  1.00  0.00    -0.158 C  
HETATM   17  N   UNL     1      -9.342  14.431  69.661  1.00  0.00     0.423 NA 
HETATM   18  C   UNL     1      -8.127  14.898  69.047  1.00  0.00    -0.165 C  
ENDROOT
BRANCH  12  19
HETATM   19  O   UNL     1     -12.264  15.323  67.334  1.00  0.00     0.149 OA 
HETATM   20  C   UNL     1     -11.916  14.342  66.351  1.00  0.00    -0.419 C  
ENDBRANCH  12  19
BRANCH  16  21
HETATM   21  C   UNL     1      -7.134  16.154  67.232  1.00  0.00    -0.196 C  
BRANCH  21  22
HETATM   22  O   UNL     1      -6.192  15.150  66.977  1.00  0.00    -0.201 OA 
BRANCH  22  23
HETATM   23  C   UNL     1      -5.622  14.750  68.141  1.00  0.00    -0.122 C  
HETATM   24  O   UNL     1      -5.167  15.467  69.004  1.00  0.00    -0.095 OA 
BRANCH  23  25
HETATM   25  C   UNL     1      -5.568  13.305  68.193  1.00  0.00    -0.100 A  
HETATM   26  C   UNL     1      -5.457  12.667  66.968  1.00  0.00     0.222 A  
HETATM   27  N   UNL     1      -5.381  11.322  66.829  1.00  0.00    -0.092 NA 
HETATM   28  C   UNL     1      -5.439  10.599  67.968  1.00  0.00    -0.036 A  
HETATM   29  C   UNL     1      -5.597  11.151  69.246  1.00  0.00    -0.041 A  
HETATM   30  C   UNL     1      -5.667  12.533  69.358  1.00  0.00    -0.086 A  
HETATM   31 BR   UNL     1      -5.686  10.043  70.759  1.00  0.00    -0.092 Br 
ENDBRANCH  23  25
ENDBRANCH  22  23
ENDBRANCH  21  22
ENDBRANCH  16  21
TORSDOF 5
ENDMDL
MODEL      166
REMARK 921   NORMALIZED FREE ENERGY PREDICTED BY IDOCK:   -1.45 KCAL/MOL
REMARK 922        TOTAL FREE ENERGY PREDICTED BY IDOCK:   -2.31 KCAL/MOL
REMARK 923 INTER-LIGAND FREE ENERGY PREDICTED BY IDOCK:   -3.24 KCAL/MOL
REMARK 924 INTRA-LIGAND FREE ENERGY PREDICTED BY IDOCK:    0.94 KCAL/MOL
REMARK 927      BINDING AFFINITY PREDICTED BY RF-SCORE:    0.00 PKD
ROOT
HETATM    1  C   UNL     1     -10.078   8.215  69.365  1.00  0.00    -0.194 C  
HETATM    2  C   UNL     1      -9.539   8.992  68.169  1.00  0.00    -0.164 C  
HETATM    3  C   UNL     1     -10.325  10.183  68.093  1.00  0.00    -0.217 A  
HETATM    4  C   UNL     1     -10.728  10.898  67.015  1.00  0.00    -0.271 A  
HETATM    5  N   UNL     1     -11.603  11.831  67.497  1.00  0.00    -0.506 NA 
HETATM    6  C   UNL     1     -12.350  12.672  66.592  1.00  0.00     0.213 C  
HETATM    7  C   UNL     1     -11.702  11.730  68.874  1.00  0.00    -0.323 A  
HETATM    8  C   UNL     1     -12.401  12.439  69.860  1.00  0.00    -0.117 A  
HETATM    9  C   UNL     1     -12.292  11.964  71.181  1.00  0.00    -0.303 A  
HETATM   10  C   UNL     1     -11.576  10.785  71.546  1.00  0.00     0.585 A  
HETATM   11  C   UNL     1     -10.860  10.035  70.604  1.00  0.00    -0.367 A  
HETATM   12  C   UNL     1      -9.942   8.708  70.814  1.00  0.00    -0.197 C  
HETATM   13  C   UNL     1     -10.934  10.617  69.278  1.00  0.00    -0.294 A  
HETATM   14  C   UNL     1      -9.935   6.974  71.355  1.00  0.00    -0.190 C  
HETATM   15  C   UNL     1     -12.519   7.772  70.229  1.00  0.00     0.644 C  
HETATM   16  C   UNL     1     -10.035   5.806  70.081  1.00  0.00    -0.258 C  
HETATM   17  N   UNL     1     -11.461   7.538  69.185  1.00  0.00     0.372 NA 
HETATM   18  C   UNL     1     -11.218   6.120  69.165  1.00  0.00    -0.339 C  
ENDROOT
BRANCH  12  19
HETATM   19  O   UNL     1      -8.626   9.199  71.174  1.00  0.00    -0.232 OA 
HETATM   20  C   UNL     1      -7.822   9.543  70.040  1.00  0.00    -0.151 C  
ENDBRANCH  12  19
BRANCH  16  21
HETATM   21  C   UNL     1      -9.860   4.291  69.983  1.00  0.00    -0.205 C  
BRANCH  21  22
HETATM   22  O   UNL     1      -8.613   3.768  70.343  1.00  0.00    -0.066 OA 
BRANCH  22  23
HETATM   23  C   UNL     1      -7.640   4.347  69.595  1.00  0.00    -0.054 C  
HETATM   24  O   UNL     1      -6.866   5.204  69.959  1.00  0.00    -0.048 OA 
BRANCH  23  25
HETATM   25  C   UNL     1      -7.689   3.839  68.241  1.00  0.00    -0.065 A  
HETATM   26  C   UNL     1      -7.505   2.472  68.109  1.00  0.00    -0.055 A  
HETATM   27  N   UNL     1      -7.533   1.825  66.920  1.00  0.00    -0.059 NA 
HETATM   28  C   UNL     1      -7.735   2.592  65.827  1.00  0.00    -0.077 A  
HETATM   29  C   UNL     1      -7.884   3.984  65.855  1.00  0.00    -0.090 A  
HETATM   30  C   UNL     1      -7.857   4.620  67.090  1.00  0.00    -0.094 A  
HETATM   31 BR   UNL     1      -8.139   4.949  64.266  1.00  0.00    -0.121 Br 
ENDBRANCH  23  25
ENDBRANCH  22  23
ENDBRANCH  21  22
ENDBRANCH  16  21
TORSDOF 5
ENDMDL
MODEL      167
REMARK 921   NORMALIZED FREE ENERGY PREDICTED BY IDOCK:   -0.47 KCAL/MOL
REMARK 922        TOTAL FREE ENERGY PREDICTED BY IDOCK:   -1.03 KCAL/MOL
REMARK 923 INTER-LIGAND FREE ENERGY PREDICTED BY IDOCK:   -2.87 KCAL/MOL
REMARK 924 INTRA-LIGAND FREE ENERGY PREDICTED BY IDOCK:    1.83 KCAL/MOL
REMARK 927      BINDING AFFINITY PREDICTED BY RF-SCORE:    0.00 PKD
ROOT
HETATM    1  C   UNL     1     -11.151  13.181  67.122  1.00  0.00    -0.279 C  
HETATM    2  C   UNL     1     -12.421  13.849  67.636  1.00  0.00     0.146 C  
HETATM    3  C   UNL     1     -11.988  14.841  68.569  1.00  0.00    -0.284 A  
HETATM    4  C   UNL     1     -12.574  15.288  69.707  1.00  0.00    -0.115 A  
HETATM    5  N   UNL     1     -11.650  16.100  70.303  1.00  0.00    -0.314 NA 
HETATM    6  C   UNL     1     -11.885  16.630  71.625  1.00  0.00     0.137 C  
HETATM    7  C   UNL     1     -10.517  16.199  69.514  1.00  0.00    -0.295 A  
HETATM    8  C   UNL     1      -9.312  16.908  69.615  1.00  0.00     0.477 A  
HETATM    9  C   UNL     1      -8.354  16.677  68.610  1.00  0.00    -0.246 A  
HETATM   10  C   UNL     1      -8.518  15.728  67.557  1.00  0.00    -0.183 A  
HETATM   11  C   UNL     1      -9.699  14.990  67.406  1.00  0.00    -0.216 A  
HETATM   12  C   UNL     1     -10.111  13.913  66.259  1.00  0.00    -0.300 C  
HETATM   13  C   UNL     1     -10.685  15.331  68.414  1.00  0.00    -0.250 A  
HETATM   14  C   UNL     1      -9.692  12.319  65.494  1.00  0.00    -0.174 C  
HETATM   15  C   UNL     1      -8.942  12.421  68.324  1.00  0.00    -0.178 C  
HETATM   16  C   UNL     1     -10.616  10.968  66.057  1.00  0.00    -0.275 C  
HETATM   17  N   UNL     1     -10.419  12.233  68.106  1.00  0.00    -0.210 NA 
HETATM   18  C   UNL     1     -10.585  10.903  67.584  1.00  0.00    -0.224 C  
ENDROOT
BRANCH  12  19
HETATM   19  O   UNL     1     -10.661  14.696  65.169  1.00  0.00    -0.363 OA 
HETATM   20  C   UNL     1     -10.397  16.098  65.292  1.00  0.00    -0.252 C  
ENDBRANCH  12  19
BRANCH  16  21
HETATM   21  C   UNL     1     -10.800   9.518  65.610  1.00  0.00     1.413 C  
BRANCH  21  22
HETATM   22  O   UNL     1      -9.650   8.725  65.527  1.00  0.00    -0.138 OA 
BRANCH  22  23
HETATM   23  C   UNL     1      -8.564   9.512  65.321  1.00  0.00    -0.157 C  
HETATM   24  O   UNL     1      -8.384  10.259  64.385  1.00  0.00    -0.163 OA 
BRANCH  23  25
HETATM   25  C   UNL     1      -7.587   9.289  66.364  1.00  0.00    -0.093 A  
HETATM   26  C   UNL     1      -6.265   9.269  65.950  1.00  0.00    -0.056 A  
HETATM   27  N   UNL     1      -5.220   9.085  66.792  1.00  0.00    -0.038 NA 
HETATM   28  C   UNL     1      -5.527   8.897  68.093  1.00  0.00    -0.035 A  
HETATM   29  C   UNL     1      -6.832   8.855  68.599  1.00  0.00    -0.063 A  
HETATM   30  C   UNL     1      -7.884   9.052  67.713  1.00  0.00    -0.101 A  
HETATM   31 BR   UNL     1      -7.138   8.566  70.428  1.00  0.00    -0.042 Br 
ENDBRANCH  23  25
ENDBRANCH  22  23
ENDBRANCH  21  22
ENDBRANCH  16  21
TORSDOF 5
ENDMDL
MODEL      168
REMARK 921   NORMALIZED FREE ENERGY PREDICTED BY IDOCK:   -0.05 KCAL/MOL
REMARK 922        TOTAL FREE ENERGY PREDICTED BY IDOCK:   -0.50 KCAL/MOL
REMARK 923 INTER-LIGAND FREE ENERGY PREDICTED BY IDOCK:   -1.05 KCAL/MOL
REMARK 924 INTRA-LIGAND FREE ENERGY PREDICTED BY IDOCK:    0.55 KCAL/MOL
REMARK 927      BINDING AFFINITY PREDICTED BY RF-SCORE:    0.00 PKD
ROOT
HETATM    1  C   UNL     1      -9.851  15.070  67.961  1.00  0.00    -0.218 C  
HETATM    2  C   UNL     1      -9.978  15.558  69.399  1.00  0.00    -0.277 C  
HETATM    3  C   UNL     1      -8.645  15.617  69.909  1.00  0.00     0.238 A  
HETATM    4  C   UNL     1      -8.174  15.388  71.159  1.00  0.00     3.295 A  
HETATM    5  N   UNL     1      -6.812  15.404  71.049  1.00  0.00     0.906 NA 
HETATM    6  C   UNL     1      -5.981  15.038  72.173  1.00  0.00     0.732 C  
HETATM    7  C   UNL     1      -6.438  15.693  69.748  1.00  0.00    -0.169 A  
HETATM    8  C   UNL     1      -5.209  15.870  69.099  1.00  0.00    -0.105 A  
HETATM    9  C   UNL     1      -5.251  16.088  67.708  1.00  0.00    -0.148 A  
HETATM   10  C   UNL     1      -6.451  16.070  66.936  1.00  0.00     0.081 A  
HETATM   11  C   UNL     1      -7.708  15.896  67.530  1.00  0.00    -0.183 A  
HETATM   12  C   UNL     1      -9.186  15.901  66.851  1.00  0.00    -0.226 C  
HETATM   13  C   UNL     1      -7.614  15.765  68.971  1.00  0.00    -0.191 A  
HETATM   14  C   UNL     1     -10.275  15.081  65.649  1.00  0.00    -0.386 C  
HETATM   15  C   UNL     1      -8.349  13.226  66.845  1.00  0.00    -0.003 C  
HETATM   16  C   UNL     1     -11.393  13.946  66.325  1.00  0.00    -0.329 C  
HETATM   17  N   UNL     1      -9.489  13.576  67.764  1.00  0.00    -0.208 NA 
HETATM   18  C   UNL     1     -10.659  12.944  67.217  1.00  0.00    -0.234 C  
ENDROOT
BRANCH  12  19
HETATM   19  O   UNL     1      -9.589  17.293  66.803  1.00  0.00    -0.252 OA 
HETATM   20  C   UNL     1     -10.832  17.545  67.469  1.00  0.00    -0.203 C  
ENDBRANCH  12  19
BRANCH  16  21
HETATM   21  C   UNL     1     -12.611  13.183  65.805  1.00  0.00    -0.284 C  
BRANCH  21  22
HETATM   22  O   UNL     1     -12.386  11.908  65.273  1.00  0.00    -0.344 OA 
BRANCH  22  23
HETATM   23  C   UNL     1     -11.517  11.992  64.234  1.00  0.00    -0.361 C  
HETATM   24  O   UNL     1     -11.602  12.734  63.282  1.00  0.00    -0.498 OA 
BRANCH  23  25
HETATM   25  C   UNL     1     -10.473  11.000  64.384  1.00  0.00    -0.422 A  
HETATM   26  C   UNL     1      -9.571  10.921  63.335  1.00  0.00    -0.332 A  
HETATM   27  N   UNL     1      -8.525  10.061  63.312  1.00  0.00    -0.167 NA 
HETATM   28  C   UNL     1      -8.401   9.241  64.378  1.00  0.00    -0.171 A  
HETATM   29  C   UNL     1      -9.289   9.215  65.461  1.00  0.00    -0.221 A  
HETATM   30  C   UNL     1     -10.349  10.113  65.460  1.00  0.00    -0.196 A  
HETATM   31 BR   UNL     1      -9.027   8.015  66.880  1.00  0.00    -0.174 Br 
ENDBRANCH  23  25
ENDBRANCH  22  23
ENDBRANCH  21  22
ENDBRANCH  16  21
TORSDOF 5
ENDMDL
MODEL      169
REMARK 921   NORMALIZED FREE ENERGY PREDICTED BY IDOCK:    0.45 KCAL/MOL
REMARK 922        TOTAL FREE ENERGY PREDICTED BY IDOCK:    0.15 KCAL/MOL
REMARK 923 INTER-LIGAND FREE ENERGY PREDICTED BY IDOCK:   -3.17 KCAL/MOL
REMARK 924 INTRA-LIGAND FREE ENERGY PREDICTED BY IDOCK:    3.33 KCAL/MOL
REMARK 927      BINDING AFFINITY PREDICTED BY RF-SCORE:    0.00 PKD
ROOT
HETATM    1  C   UNL     1      -7.396  15.048  69.027  1.00  0.00    -0.151 C  
HETATM    2  C   UNL     1      -6.452  15.158  70.219  1.00  0.00    -0.065 C  
HETATM    3  C   UNL     1      -5.954  13.837  70.444  1.00  0.00    -0.156 A  
HETATM    4  C   UNL     1      -5.616  13.214  71.599  1.00  0.00     0.060 A  
HETATM    5  N   UNL     1      -5.379  11.911  71.259  1.00  0.00    -0.335 NA 
HETATM    6  C   UNL     1      -5.141  10.919  72.281  1.00  0.00     0.176 C  
HETATM    7  C   UNL     1      -5.517  11.738  69.893  1.00  0.00    -0.094 A  
HETATM    8  C   UNL     1      -5.356  10.652  69.023  1.00  0.00    -0.041 A  
HETATM    9  C   UNL     1      -5.674  10.871  67.669  1.00  0.00    -0.043 A  
HETATM   10  C   UNL     1      -6.203  12.096  67.164  1.00  0.00    -0.143 A  
HETATM   11  C   UNL     1      -6.387  13.215  67.987  1.00  0.00    -0.127 A  
HETATM   12  C   UNL     1      -6.916  14.706  67.608  1.00  0.00    -0.184 C  
HETATM   13  C   UNL     1      -5.962  12.962  69.350  1.00  0.00    -0.103 A  
HETATM   14  C   UNL     1      -8.312  15.669  66.954  1.00  0.00    -0.287 C  
HETATM   15  C   UNL     1      -9.193  13.253  68.356  1.00  0.00    -0.145 C  
HETATM   16  C   UNL     1      -9.315  16.415  68.151  1.00  0.00    -0.209 C  
HETATM   17  N   UNL     1      -8.759  14.355  69.284  1.00  0.00     0.099 NA 
HETATM   18  C   UNL     1      -9.760  15.383  69.189  1.00  0.00    -0.252 C  
ENDROOT
BRANCH  12  19
HETATM   19  O   UNL     1      -5.743  15.435  67.165  1.00  0.00    -0.304 OA 
HETATM   20  C   UNL     1      -5.865  16.852  67.328  1.00  0.00    -0.167 C  
ENDBRANCH  12  19
BRANCH  16  21
HETATM   21  C   UNL     1     -10.435  17.455  68.133  1.00  0.00    -0.389 C  
BRANCH  21  22
HETATM   22  O   UNL     1     -11.668  17.074  68.674  1.00  0.00     0.254 OA 
BRANCH  22  23
HETATM   23  C   UNL     1     -11.993  15.829  68.242  1.00  0.00     0.046 C  
HETATM   24  O   UNL     1     -11.888  15.409  67.111  1.00  0.00    -0.081 OA 
BRANCH  23  25
HETATM   25  C   UNL     1     -12.562  15.063  69.329  1.00  0.00     0.101 A  
HETATM   26  C   UNL     1     -13.330  15.783  70.230  1.00  0.00     0.674 A  
HETATM   27  N   UNL     1     -13.947  15.226  71.299  1.00  0.00    -0.491 NA 
HETATM   28  C   UNL     1     -13.766  13.900  71.471  1.00  0.00    -0.247 A  
HETATM   29  C   UNL     1     -12.972  13.098  70.641  1.00  0.00     0.080 A  
HETATM   30  C   UNL     1     -12.355  13.695  69.549  1.00  0.00    -0.232 A  
HETATM   31 BR   UNL     1     -12.776  11.264  70.991  1.00  0.00    -0.419 Br 
ENDBRANCH  23  25
ENDBRANCH  22  23
ENDBRANCH  21  22
ENDBRANCH  16  21
TORSDOF 5
ENDMDL
MODEL      170
REMARK 921   NORMALIZED FREE ENERGY PREDICTED BY IDOCK:    2.12 KCAL/MOL
REMARK 922        TOTAL FREE ENERGY PREDICTED BY IDOCK:    2.31 KCAL/MOL
REMARK 923 INTER-LIGAND FREE ENERGY PREDICTED BY IDOCK:    1.92 KCAL/MOL
REMARK 924 INTRA-LIGAND FREE ENERGY PREDICTED BY IDOCK:    0.39 KCAL/MOL
REMARK 927      BINDING AFFINITY PREDICTED BY RF-SCORE:    0.00 PKD
ROOT
HETATM    1  C   UNL     1      -9.257  15.077  68.357  1.00  0.00    -0.193 C  
HETATM    2  C   UNL     1      -8.945  15.816  69.654  1.00  0.00    -0.084 C  
HETATM    3  C   UNL     1      -7.877  15.091  70.267  1.00  0.00     0.618 A  
HETATM    4  C   UNL     1      -7.602  14.879  71.577  1.00  0.00     3.109 A  
HETATM    5  N   UNL     1      -6.578  13.974  71.597  1.00  0.00     0.605 NA 
HETATM    6  C   UNL     1      -6.132  13.401  72.845  1.00  0.00     1.570 C  
HETATM    7  C   UNL     1      -6.184  13.666  70.307  1.00  0.00    -0.071 A  
HETATM    8  C   UNL     1      -5.185  12.851  69.757  1.00  0.00    -0.082 A  
HETATM    9  C   UNL     1      -5.155  12.745  68.353  1.00  0.00    -0.066 A  
HETATM   10  C   UNL     1      -6.111  13.356  67.488  1.00  0.00    -0.074 A  
HETATM   11  C   UNL     1      -7.132  14.180  67.981  1.00  0.00    -0.148 A  
HETATM   12  C   UNL     1      -8.276  15.010  67.176  1.00  0.00    -0.222 C  
HETATM   13  C   UNL     1      -7.063  14.326  69.422  1.00  0.00    -0.086 A  
HETATM   14  C   UNL     1      -9.703  14.877  66.059  1.00  0.00    -0.358 C  
HETATM   15  C   UNL     1      -9.416  12.520  67.775  1.00  0.00    -0.197 C  
HETATM   16  C   UNL     1     -11.250  14.929  66.833  1.00  0.00    -0.343 C  
HETATM   17  N   UNL     1      -9.983  13.714  68.493  1.00  0.00    -0.229 NA 
HETATM   18  C   UNL     1     -11.309  13.909  67.971  1.00  0.00    -0.288 C  
ENDROOT
BRANCH  12  19
HETATM   19  O   UNL     1      -7.661  16.273  66.817  1.00  0.00    -0.219 OA 
HETATM   20  C   UNL     1      -6.449  16.535  67.534  1.00  0.00    -0.154 C  
ENDBRANCH  12  19
BRANCH  16  21
HETATM   21  C   UNL     1     -12.697  15.066  66.359  1.00  0.00     0.991 C  
BRANCH  21  22
HETATM   22  O   UNL     1     -13.226  14.006  65.614  1.00  0.00    -0.634 OA 
BRANCH  22  23
HETATM   23  C   UNL     1     -12.596  13.928  64.415  1.00  0.00    -0.168 C  
HETATM   24  O   UNL     1     -12.739  14.679  63.476  1.00  0.00    -0.670 OA 
BRANCH  23  25
HETATM   25  C   UNL     1     -11.750  12.754  64.377  1.00  0.00    -0.426 A  
HETATM   26  C   UNL     1     -12.046  11.775  65.311  1.00  0.00     0.274 A  
HETATM   27  N   UNL     1     -11.366  10.608  65.411  1.00  0.00     0.544 NA 
HETATM   28  C   UNL     1     -10.342  10.436  64.548  1.00  0.00    -0.085 A  
HETATM   29  C   UNL     1      -9.940  11.387  63.602  1.00  0.00    -0.364 A  
HETATM   30  C   UNL     1     -10.658  12.572  63.518  1.00  0.00    -0.394 A  
HETATM   31 BR   UNL     1      -8.484  11.045  62.466  1.00  0.00    -0.240 Br 
ENDBRANCH  23  25
ENDBRANCH  22  23
ENDBRANCH  21  22
ENDBRANCH  16  21
TORSDOF 5
ENDMDL
MODEL      171
REMARK 921   NORMALIZED FREE ENERGY PREDICTED BY IDOCK:    5.97 KCAL/MOL
REMARK 922        TOTAL FREE ENERGY PREDICTED BY IDOCK:    7.29 KCAL/MOL
REMARK 923 INTER-LIGAND FREE ENERGY PREDICTED BY IDOCK:    4.14 KCAL/MOL
REMARK 924 INTRA-LIGAND FREE ENERGY PREDICTED BY IDOCK:    3.15 KCAL/MOL
REMARK 927      BINDING AFFINITY PREDICTED BY RF-SCORE:    0.00 PKD
ROOT
HETATM    1  C   UNL     1      -8.808   9.875  70.061  1.00  0.00    -0.160 C  
HETATM    2  C   UNL     1      -9.941   9.755  71.074  1.00  0.00     0.014 C  
HETATM    3  C   UNL     1      -9.592   8.657  71.918  1.00  0.00    -0.377 A  
HETATM    4  C   UNL     1     -10.380   7.743  72.536  1.00  0.00    -0.268 A  
HETATM    5  N   UNL     1      -9.526   6.815  73.062  1.00  0.00    -0.138 NA 
HETATM    6  C   UNL     1     -10.037   5.606  73.664  1.00  0.00    -0.200 C  
HETATM    7  C   UNL     1      -8.213   7.178  72.818  1.00  0.00    -0.106 A  
HETATM    8  C   UNL     1      -6.967   6.631  73.155  1.00  0.00    -0.076 A  
HETATM    9  C   UNL     1      -5.829   7.280  72.640  1.00  0.00    -0.041 A  
HETATM   10  C   UNL     1      -5.883   8.400  71.757  1.00  0.00    -0.043 A  
HETATM   11  C   UNL     1      -7.099   8.988  71.385  1.00  0.00    -0.069 A  
HETATM   12  C   UNL     1      -7.379  10.288  70.448  1.00  0.00     0.108 C  
HETATM   13  C   UNL     1      -8.232   8.336  72.013  1.00  0.00    -0.211 A  
HETATM   14  C   UNL     1      -7.183  10.995  68.785  1.00  0.00    -0.091 C  
HETATM   15  C   UNL     1      -7.434   8.077  68.725  1.00  0.00    -0.091 C  
HETATM   16  C   UNL     1      -8.577  10.875  67.766  1.00  0.00    -0.128 C  
HETATM   17  N   UNL     1      -8.742   8.783  68.962  1.00  0.00    -0.132 NA 
HETATM   18  C   UNL     1      -9.082   9.432  67.725  1.00  0.00    -0.125 C  
ENDROOT
BRANCH  12  19
HETATM   19  O   UNL     1      -7.291  11.433  71.333  1.00  0.00     3.576 OA 
HETATM   20  C   UNL     1      -6.091  11.451  72.114  1.00  0.00     2.292 C  
ENDBRANCH  12  19
BRANCH  16  21
HETATM   21  C   UNL     1      -8.991  11.470  66.421  1.00  0.00    -0.197 C  
BRANCH  21  22
HETATM   22  O   UNL     1     -10.129  12.284  66.406  1.00  0.00    -0.218 OA 
BRANCH  22  23
HETATM   23  C   UNL     1     -10.658  12.311  65.157  1.00  0.00    -0.285 C  
HETATM   24  O   UNL     1     -11.508  13.072  64.751  1.00  0.00    -0.309 OA 
BRANCH  23  25
HETATM   25  C   UNL     1     -10.103  11.236  64.363  1.00  0.00    -0.357 A  
HETATM   26  C   UNL     1     -10.831  10.890  63.236  1.00  0.00     0.280 A  
HETATM   27  N   UNL     1     -10.454   9.916  62.373  1.00  0.00     1.662 NA 
HETATM   28  C   UNL     1      -9.313   9.259  62.673  1.00  0.00     0.350 A  
HETATM   29  C   UNL     1      -8.536   9.506  63.812  1.00  0.00    -0.211 A  
HETATM   30  C   UNL     1      -8.944  10.514  64.676  1.00  0.00    -0.229 A  
HETATM   31 BR   UNL     1      -6.977   8.514  64.137  1.00  0.00    -0.079 Br 
ENDBRANCH  23  25
ENDBRANCH  22  23
ENDBRANCH  21  22
ENDBRANCH  16  21
TORSDOF 5
ENDMDL
MODEL      172
REMARK 921   NORMALIZED FREE ENERGY PREDICTED BY IDOCK:   10.32 KCAL/MOL
REMARK 922        TOTAL FREE ENERGY PREDICTED BY IDOCK:   12.91 KCAL/MOL
REMARK 923 INTER-LIGAND FREE ENERGY PREDICTED BY IDOCK:    8.91 KCAL/MOL
REMARK 924 INTRA-LIGAND FREE ENERGY PREDICTED BY IDOCK:    4.00 KCAL/MOL
REMARK 927      BINDING AFFINITY PREDICTED BY RF-SCORE:    0.00 PKD
ROOT
HETATM    1  C   UNL     1     -11.214  13.081  67.041  1.00  0.00    -0.289 C  
HETATM    2  C   UNL     1     -12.348  14.001  67.477  1.00  0.00    -0.112 C  
HETATM    3  C   UNL     1     -12.093  14.309  68.849  1.00  0.00    -0.314 A  
HETATM    4  C   UNL     1     -12.954  14.530  69.872  1.00  0.00     0.215 A  
HETATM    5  N   UNL     1     -12.181  14.598  70.997  1.00  0.00    -0.310 NA 
HETATM    6  C   UNL     1     -12.792  14.673  72.303  1.00  0.00    -0.340 C  
HETATM    7  C   UNL     1     -10.842  14.473  70.668  1.00  0.00     0.349 A  
HETATM    8  C   UNL     1      -9.647  14.509  71.399  1.00  0.00     3.990 A  
HETATM    9  C   UNL     1      -8.459  14.259  70.686  1.00  0.00     2.948 A  
HETATM   10  C   UNL     1      -8.420  13.913  69.302  1.00  0.00     0.468 A  
HETATM   11  C   UNL     1      -9.582  13.860  68.521  1.00  0.00    -0.185 A  
HETATM   12  C   UNL     1      -9.753  13.547  66.934  1.00  0.00    -0.261 C  
HETATM   13  C   UNL     1     -10.764  14.212  69.284  1.00  0.00    -0.170 A  
HETATM   14  C   UNL     1      -9.503  12.312  65.625  1.00  0.00    -0.078 C  
HETATM   15  C   UNL     1     -10.005  11.076  68.233  1.00  0.00    -0.179 C  
HETATM   16  C   UNL     1     -10.906  11.388  65.209  1.00  0.00    -0.297 C  
HETATM   17  N   UNL     1     -11.246  11.631  67.588  1.00  0.00    -0.260 NA 
HETATM   18  C   UNL     1     -11.534  10.781  66.464  1.00  0.00     0.547 C  
ENDROOT
BRANCH  12  19
HETATM   19  O   UNL     1      -9.563  14.819  66.263  1.00  0.00    -0.280 OA 
HETATM   20  C   UNL     1      -9.421  14.693  64.844  1.00  0.00     0.949 C  
ENDBRANCH  12  19
BRANCH  16  21
HETATM   21  C   UNL     1     -11.273  10.419  64.084  1.00  0.00     2.044 C  
BRANCH  21  22
HETATM   22  O   UNL     1     -10.231   9.676  63.518  1.00  0.00     1.159 OA 
BRANCH  22  23
HETATM   23  C   UNL     1      -9.037  10.198  63.895  1.00  0.00    -0.260 C  
HETATM   24  O   UNL     1      -8.717  11.365  63.856  1.00  0.00     0.172 OA 
BRANCH  23  25
HETATM   25  C   UNL     1      -8.141   9.138  64.302  1.00  0.00    -0.148 A  
HETATM   26  C   UNL     1      -6.801   9.348  64.021  1.00  0.00    -0.096 A  
HETATM   27  N   UNL     1      -5.823   8.467  64.342  1.00  0.00    -0.064 NA 
HETATM   28  C   UNL     1      -6.218   7.329  64.952  1.00  0.00    -0.038 A  
HETATM   29  C   UNL     1      -7.552   7.008  65.235  1.00  0.00    -0.099 A  
HETATM   30  C   UNL     1      -8.533   7.932  64.899  1.00  0.00    -0.045 A  
HETATM   31 BR   UNL     1      -7.986   5.383  66.068  1.00  0.00    -0.107 Br 
ENDBRANCH  23  25
ENDBRANCH  22  23
ENDBRANCH  21  22
ENDBRANCH  16  21
TORSDOF 5
ENDMDL
MODEL      173
REMARK 921   NORMALIZED FREE ENERGY PREDICTED BY IDOCK:   11.13 KCAL/MOL
REMARK 922        TOTAL FREE ENERGY PREDICTED BY IDOCK:   13.95 KCAL/MOL
REMARK 923 INTER-LIGAND FREE ENERGY PREDICTED BY IDOCK:   12.04 KCAL/MOL
REMARK 924 INTRA-LIGAND FREE ENERGY PREDICTED BY IDOCK:    1.91 KCAL/MOL
REMARK 927      BINDING AFFINITY PREDICTED BY RF-SCORE:    0.00 PKD
ROOT
HETATM    1  C   UNL     1      -8.839   8.824  67.583  1.00  0.00    -0.135 C  
HETATM    2  C   UNL     1      -9.908   9.579  66.801  1.00  0.00    -0.277 C  
HETATM    3  C   UNL     1      -9.293   9.953  65.566  1.00  0.00    -0.280 A  
HETATM    4  C   UNL     1      -9.475  11.054  64.796  1.00  0.00    -0.230 A  
HETATM    5  N   UNL     1      -8.509  10.992  63.832  1.00  0.00     0.119 NA 
HETATM    6  C   UNL     1      -8.309  12.096  62.922  1.00  0.00     2.264 C  
HETATM    7  C   UNL     1      -7.765   9.833  63.970  1.00  0.00    -0.134 A  
HETATM    8  C   UNL     1      -6.707   9.257  63.253  1.00  0.00    -0.091 A  
HETATM    9  C   UNL     1      -6.160   8.068  63.774  1.00  0.00    -0.063 A  
HETATM   10  C   UNL     1      -6.576   7.473  65.002  1.00  0.00    -0.044 A  
HETATM   11  C   UNL     1      -7.627   8.005  65.761  1.00  0.00    -0.083 A  
HETATM   12  C   UNL     1      -8.289   7.458  67.143  1.00  0.00    -0.118 C  
HETATM   13  C   UNL     1      -8.211   9.175  65.136  1.00  0.00    -0.147 A  
HETATM   14  C   UNL     1      -7.979   7.072  68.892  1.00  0.00    -0.120 C  
HETATM   15  C   UNL     1      -6.267   9.239  67.916  1.00  0.00    -0.050 C  
HETATM   16  C   UNL     1      -8.454   8.302  70.012  1.00  0.00    -0.123 C  
HETATM   17  N   UNL     1      -7.684   9.671  68.176  1.00  0.00    -0.086 NA 
HETATM   18  C   UNL     1      -7.859   9.651  69.603  1.00  0.00    -0.129 C  
ENDROOT
BRANCH  12  19
HETATM   19  O   UNL     1      -9.293   6.493  66.739  1.00  0.00    -0.146 OA 
HETATM   20  C   UNL     1      -9.328   5.331  67.575  1.00  0.00    -0.117 C  
ENDBRANCH  12  19
BRANCH  16  21
HETATM   21  C   UNL     1      -8.602   8.388  71.531  1.00  0.00    -0.167 C  
BRANCH  21  22
HETATM   22  O   UNL     1      -9.408   9.415  72.036  1.00  0.00    -0.098 OA 
BRANCH  22  23
HETATM   23  C   UNL     1     -10.710   9.038  71.997  1.00  0.00    -0.263 C  
HETATM   24  O   UNL     1     -11.673   9.772  71.988  1.00  0.00    -0.212 OA 
BRANCH  23  25
HETATM   25  C   UNL     1     -10.807   7.594  72.033  1.00  0.00    -0.282 A  
HETATM   26  C   UNL     1     -10.218   6.984  73.128  1.00  0.00    -0.255 A  
HETATM   27  N   UNL     1     -10.224   5.644  73.330  1.00  0.00    -0.192 NA 
HETATM   28  C   UNL     1     -10.830   4.899  72.382  1.00  0.00    -0.137 A  
HETATM   29  C   UNL     1     -11.413   5.421  71.220  1.00  0.00     0.424 A  
HETATM   30  C   UNL     1     -11.396   6.798  71.042  1.00  0.00    -0.356 A  
HETATM   31 BR   UNL     1     -12.211   4.283  69.959  1.00  0.00    13.560 Br 
ENDBRANCH  23  25
ENDBRANCH  22  23
ENDBRANCH  21  22
ENDBRANCH  16  21
TORSDOF 5
ENDMDL
MODEL      174
REMARK 921   NORMALIZED FREE ENERGY PREDICTED BY IDOCK:   15.64 KCAL/MOL
REMARK 922        TOTAL FREE ENERGY PREDICTED BY IDOCK:   19.79 KCAL/MOL
REMARK 923 INTER-LIGAND FREE ENERGY PREDICTED BY IDOCK:   15.80 KCAL/MOL
REMARK 924 INTRA-LIGAND FREE ENERGY PREDICTED BY IDOCK:    3.99 KCAL/MOL
REMARK 927      BINDING AFFINITY PREDICTED BY RF-SCORE:    0.00 PKD
ROOT
HETATM    1  C   UNL     1     -11.931  13.698  67.810  1.00  0.00    -0.352 C  
HETATM    2  C   UNL     1     -12.942  14.836  67.732  1.00  0.00     2.098 C  
HETATM    3  C   UNL     1     -12.968  15.422  69.035  1.00  0.00     1.050 A  
HETATM    4  C   UNL     1     -13.991  15.990  69.719  1.00  0.00     3.545 A  
HETATM    5  N   UNL     1     -13.511  16.218  70.979  1.00  0.00     0.873 NA 
HETATM    6  C   UNL     1     -14.391  16.678  72.027  1.00  0.00     3.439 C  
HETATM    7  C   UNL     1     -12.181  15.843  71.061  1.00  0.00    -0.375 A  
HETATM    8  C   UNL     1     -11.211  15.891  72.071  1.00  0.00    -0.081 A  
HETATM    9  C   UNL     1      -9.956  15.326  71.774  1.00  0.00     2.463 A  
HETATM   10  C   UNL     1      -9.654  14.662  70.548  1.00  0.00     1.452 A  
HETATM   11  C   UNL     1     -10.584  14.581  69.503  1.00  0.00    -0.126 A  
HETATM   12  C   UNL     1     -10.426  13.929  68.021  1.00  0.00    -0.243 C  
HETATM   13  C   UNL     1     -11.825  15.255  69.829  1.00  0.00    -0.357 A  
HETATM   14  C   UNL     1     -10.108  12.398  67.094  1.00  0.00    -0.221 C  
HETATM   15  C   UNL     1     -11.444  11.888  69.651  1.00  0.00    -0.266 C  
HETATM   16  C   UNL     1     -11.520  11.596  66.495  1.00  0.00    -0.260 C  
HETATM   17  N   UNL     1     -12.367  12.435  68.596  1.00  0.00     0.019 NA 
HETATM   18  C   UNL     1     -12.533  11.390  67.622  1.00  0.00     1.734 C  
ENDROOT
BRANCH  12  19
HETATM   19  O   UNL     1      -9.844  14.970  67.197  1.00  0.00    -0.229 OA 
HETATM   20  C   UNL     1     -10.421  15.043  65.888  1.00  0.00    -0.328 C  
ENDBRANCH  12  19
BRANCH  16  21
HETATM   21  C   UNL     1     -11.784  10.447  65.521  1.00  0.00     2.605 C  
BRANCH  21  22
HETATM   22  O   UNL     1     -10.779   9.483  65.385  1.00  0.00     0.689 OA 
BRANCH  22  23
HETATM   23  C   UNL     1      -9.642   9.918  65.984  1.00  0.00    -0.225 C  
HETATM   24  O   UNL     1      -9.155  11.023  65.888  1.00  0.00    -0.186 OA 
BRANCH  23  25
HETATM   25  C   UNL     1      -9.029   8.837  66.725  1.00  0.00    -0.161 A  
HETATM   26  C   UNL     1      -8.165   9.222  67.737  1.00  0.00    -0.115 A  
HETATM   27  N   UNL     1      -7.515   8.344  68.539  1.00  0.00    -0.093 NA 
HETATM   28  C   UNL     1      -7.732   7.035  68.293  1.00  0.00    -0.117 A  
HETATM   29  C   UNL     1      -8.550   6.550  67.265  1.00  0.00    -0.111 A  
HETATM   30  C   UNL     1      -9.209   7.472  66.462  1.00  0.00    -0.217 A  
HETATM   31 BR   UNL     1      -8.761   4.703  67.005  1.00  0.00    -0.104 Br 
ENDBRANCH  23  25
ENDBRANCH  22  23
ENDBRANCH  21  22
ENDBRANCH  16  21
TORSDOF 5
ENDMDL
MODEL      175
REMARK 921   NORMALIZED FREE ENERGY PREDICTED BY IDOCK:   35.99 KCAL/MOL
REMARK 922        TOTAL FREE ENERGY PREDICTED BY IDOCK:   46.08 KCAL/MOL
REMARK 923 INTER-LIGAND FREE ENERGY PREDICTED BY IDOCK:   46.28 KCAL/MOL
REMARK 924 INTRA-LIGAND FREE ENERGY PREDICTED BY IDOCK:   -0.20 KCAL/MOL
REMARK 927      BINDING AFFINITY PREDICTED BY RF-SCORE:    0.00 PKD
ROOT
HETATM    1  C   UNL     1     -11.242   7.007  67.535  1.00  0.00    -0.044 C  
HETATM    2  C   UNL     1     -11.537   6.786  66.056  1.00  0.00     3.320 C  
HETATM    3  C   UNL     1     -10.923   5.541  65.719  1.00  0.00     0.500 A  
HETATM    4  C   UNL     1     -10.343   5.135  64.563  1.00  0.00     1.085 A  
HETATM    5  N   UNL     1      -9.761   3.931  64.845  1.00  0.00    -0.178 NA 
HETATM    6  C   UNL     1      -8.915   3.280  63.873  1.00  0.00    -0.093 C  
HETATM    7  C   UNL     1     -10.023   3.566  66.154  1.00  0.00     0.205 A  
HETATM    8  C   UNL     1      -9.716   2.446  66.939  1.00  0.00     0.443 A  
HETATM    9  C   UNL     1     -10.113   2.489  68.289  1.00  0.00     1.120 A  
HETATM   10  C   UNL     1     -10.738   3.617  68.899  1.00  0.00     2.927 A  
HETATM   11  C   UNL     1     -11.069   4.764  68.165  1.00  0.00     1.839 A  
HETATM   12  C   UNL     1     -11.826   6.121  68.646  1.00  0.00     1.419 C  
HETATM   13  C   UNL     1     -10.718   4.632  66.765  1.00  0.00     0.276 A  
HETATM   14  C   UNL     1     -11.750   7.552  69.764  1.00  0.00     0.298 C  
HETATM   15  C   UNL     1      -9.087   6.612  68.985  1.00  0.00    -0.133 C  
HETATM   16  C   UNL     1     -11.158   9.012  69.048  1.00  0.00     0.104 C  
HETATM   17  N   UNL     1      -9.785   7.389  67.902  1.00  0.00    -0.140 NA 
HETATM   18  C   UNL     1      -9.824   8.756  68.345  1.00  0.00    -0.171 C  
ENDROOT
BRANCH  12  19
HETATM   19  O   UNL     1     -13.244   5.840  68.524  1.00  0.00     9.941 OA 
HETATM   20  C   UNL     1     -13.672   4.737  69.331  1.00  0.00    22.732 C  
ENDBRANCH  12  19
BRANCH  16  21
HETATM   21  C   UNL     1     -11.099  10.480  69.470  1.00  0.00    -0.268 C  
BRANCH  21  22
HETATM   22  O   UNL     1     -12.021  11.352  68.878  1.00  0.00    -0.347 OA 
BRANCH  22  23
HETATM   23  C   UNL     1     -11.453  12.572  68.708  1.00  0.00    -0.310 C  
HETATM   24  O   UNL     1     -10.928  13.248  69.564  1.00  0.00    -0.096 OA 
BRANCH  23  25
HETATM   25  C   UNL     1     -11.619  13.007  67.337  1.00  0.00    -0.407 A  
HETATM   26  C   UNL     1     -10.712  12.481  66.431  1.00  0.00    -0.249 A  
HETATM   27  N   UNL     1     -10.727  12.769  65.107  1.00  0.00    -0.287 NA 
HETATM   28  C   UNL     1     -11.679  13.631  64.693  1.00  0.00    -0.388 A  
HETATM   29  C   UNL     1     -12.608  14.248  65.540  1.00  0.00    -0.413 A  
HETATM   30  C   UNL     1     -12.573  13.930  66.892  1.00  0.00    -0.029 A  
HETATM   31 BR   UNL     1     -13.876  15.449  64.852  1.00  0.00     3.626 Br 
ENDBRANCH  23  25
ENDBRANCH  22  23
ENDBRANCH  21  22
ENDBRANCH  16  21
TORSDOF 5
ENDMDL
MODEL      176
REMARK 921   NORMALIZED FREE ENERGY PREDICTED BY IDOCK:   54.37 KCAL/MOL
REMARK 922        TOTAL FREE ENERGY PREDICTED BY IDOCK:   69.83 KCAL/MOL
REMARK 923 INTER-LIGAND FREE ENERGY PREDICTED BY IDOCK:   66.83 KCAL/MOL
REMARK 924 INTRA-LIGAND FREE ENERGY PREDICTED BY IDOCK:    3.00 KCAL/MOL
REMARK 927      BINDING AFFINITY PREDICTED BY RF-SCORE:    0.00 PKD
ROOT
HETATM    1  C   UNL     1      -9.719  15.069  69.704  1.00  0.00    -0.054 C  
HETATM    2  C   UNL     1      -9.703  16.472  69.106  1.00  0.00    -0.241 C  
HETATM    3  C   UNL     1     -10.406  17.298  70.035  1.00  0.00     0.452 A  
HETATM    4  C   UNL     1     -11.199  18.377  69.822  1.00  0.00     3.020 A  
HETATM    5  N   UNL     1     -11.759  18.669  71.034  1.00  0.00     6.415 NA 
HETATM    6  C   UNL     1     -12.787  19.677  71.143  1.00  0.00    22.864 C  
HETATM    7  C   UNL     1     -11.276  17.809  72.006  1.00  0.00     2.439 A  
HETATM    8  C   UNL     1     -11.473  17.684  73.388  1.00  0.00     1.222 A  
HETATM    9  C   UNL     1     -10.838  16.601  74.024  1.00  0.00     4.291 A  
HETATM   10  C   UNL     1     -10.076  15.610  73.336  1.00  0.00     6.566 A  
HETATM   11  C   UNL     1      -9.847  15.682  71.955  1.00  0.00     3.872 A  
HETATM   12  C   UNL     1      -8.972  14.702  70.996  1.00  0.00     3.317 C  
HETATM   13  C   UNL     1     -10.449  16.862  71.366  1.00  0.00     2.379 A  
HETATM   14  C   UNL     1      -8.798  13.009  70.359  1.00  0.00     5.491 C  
HETATM   15  C   UNL     1     -11.587  13.695  70.937  1.00  0.00     0.407 C  
HETATM   16  C   UNL     1      -9.463  12.745  68.783  1.00  0.00     0.113 C  
HETATM   17  N   UNL     1     -11.072  14.315  69.666  1.00  0.00    -0.217 NA 
HETATM   18  C   UNL     1     -10.909  13.238  68.727  1.00  0.00    -0.243 C  
ENDROOT
BRANCH  12  19
HETATM   19  O   UNL     1      -7.609  15.192  71.077  1.00  0.00     1.243 OA 
HETATM   20  C   UNL     1      -7.510  16.612  70.921  1.00  0.00     3.993 C  
ENDBRANCH  12  19
BRANCH  16  21
HETATM   21  C   UNL     1      -9.398  11.617  67.753  1.00  0.00    -0.178 C  
BRANCH  21  22
HETATM   22  O   UNL     1     -10.020  11.842  66.520  1.00  0.00    -0.198 OA 
BRANCH  22  23
HETATM   23  C   UNL     1      -9.263  11.321  65.522  1.00  0.00    -0.202 C  
HETATM   24  O   UNL     1      -8.813  11.921  64.571  1.00  0.00     0.476 OA 
BRANCH  23  25
HETATM   25  C   UNL     1      -9.110   9.894  65.712  1.00  0.00    -0.208 A  
HETATM   26  C   UNL     1      -9.189   9.455  67.023  1.00  0.00    -0.142 A  
HETATM   27  N   UNL     1      -9.081   8.153  67.383  1.00  0.00    -0.133 NA 
HETATM   28  C   UNL     1      -8.867   7.272  66.383  1.00  0.00    -0.149 A  
HETATM   29  C   UNL     1      -8.726   7.626  65.035  1.00  0.00     0.167 A  
HETATM   30  C   UNL     1      -8.847   8.967  64.695  1.00  0.00    -0.139 A  
HETATM   31 BR   UNL     1      -8.409   6.313  63.732  1.00  0.00     0.204 Br 
ENDBRANCH  23  25
ENDBRANCH  22  23
ENDBRANCH  21  22
ENDBRANCH  16  21
TORSDOF 5
ENDMDL
