MODEL        1
REMARK 921   NORMALIZED FREE ENERGY PREDICTED BY IDOCK:   -4.60 KCAL/MOL
REMARK 922        TOTAL FREE ENERGY PREDICTED BY IDOCK:   -5.00 KCAL/MOL
REMARK 923 INTER-LIGAND FREE ENERGY PREDICTED BY IDOCK:   -4.87 KCAL/MOL
REMARK 924 INTRA-LIGAND FREE ENERGY PREDICTED BY IDOCK:   -0.13 KCAL/MOL
REMARK 927      BINDING AFFINITY PREDICTED BY RF-SCORE:    0.00 PKD
ROOT
HETATM    1  C   UNL     1     -10.127  13.365  67.986  1.00  0.00    -0.241 C  
HETATM    2  N   UNL     1     -10.061  14.709  67.452  1.00  0.00    -0.232 NA 
HETATM    3  C   UNL     1      -8.729  15.131  67.040  1.00  0.00    -0.238 C  
HETATM    4  C   UNL     1      -9.022  16.481  66.416  1.00  0.00    -0.340 C  
HETATM    5  C   UNL     1     -10.358  16.288  65.708  1.00  0.00    -0.393 C  
HETATM    6  C   UNL     1     -11.011  15.069  66.386  1.00  0.00    -0.336 C  
ENDROOT
BRANCH   6   7
HETATM    7  C   UNL     1     -11.393  13.981  65.402  1.00  0.00    -0.315 A  
HETATM    8  C   UNL     1     -12.691  13.475  65.403  1.00  0.00    -0.442 A  
HETATM    9  N   UNL     1     -13.140  12.500  64.577  1.00  0.00    -0.839 NA 
HETATM   10  C   UNL     1     -12.251  11.994  63.698  1.00  0.00    -0.538 A  
HETATM   11  C   UNL     1     -10.940  12.425  63.602  1.00  0.00    -0.525 A  
HETATM   12  C   UNL     1     -10.511  13.434  64.462  1.00  0.00    -0.431 A  
ENDBRANCH   6   7
TORSDOF 1
ENDMDL
MODEL        2
REMARK 921   NORMALIZED FREE ENERGY PREDICTED BY IDOCK:   -4.50 KCAL/MOL
REMARK 922        TOTAL FREE ENERGY PREDICTED BY IDOCK:   -4.90 KCAL/MOL
REMARK 923 INTER-LIGAND FREE ENERGY PREDICTED BY IDOCK:   -4.82 KCAL/MOL
REMARK 924 INTRA-LIGAND FREE ENERGY PREDICTED BY IDOCK:   -0.07 KCAL/MOL
REMARK 927      BINDING AFFINITY PREDICTED BY RF-SCORE:    0.00 PKD
ROOT
HETATM    1  C   UNL     1     -10.150  15.855  65.915  1.00  0.00    -0.352 C  
HETATM    2  N   UNL     1     -10.268  15.041  67.107  1.00  0.00    -0.247 NA 
HETATM    3  C   UNL     1     -11.355  15.426  67.996  1.00  0.00    -0.341 C  
HETATM    4  C   UNL     1     -11.295  14.325  69.037  1.00  0.00    -0.303 C  
HETATM    5  C   UNL     1     -10.948  13.072  68.241  1.00  0.00    -0.285 C  
HETATM    6  C   UNL     1     -10.307  13.579  66.935  1.00  0.00    -0.265 C  
ENDROOT
BRANCH   6   7
HETATM    7  C   UNL     1     -10.996  13.044  65.695  1.00  0.00    -0.296 A  
HETATM    8  C   UNL     1     -12.388  13.041  65.625  1.00  0.00    -0.446 A  
HETATM    9  N   UNL     1     -13.107  12.581  64.574  1.00  0.00    -0.839 NA 
HETATM   10  C   UNL     1     -12.408  12.093  63.530  1.00  0.00    -0.574 A  
HETATM   11  C   UNL     1     -11.025  12.054  63.485  1.00  0.00    -0.514 A  
HETATM   12  C   UNL     1     -10.315  12.541  64.580  1.00  0.00    -0.362 A  
ENDBRANCH   6   7
TORSDOF 1
ENDMDL
MODEL        3
REMARK 921   NORMALIZED FREE ENERGY PREDICTED BY IDOCK:   -4.44 KCAL/MOL
REMARK 922        TOTAL FREE ENERGY PREDICTED BY IDOCK:   -4.83 KCAL/MOL
REMARK 923 INTER-LIGAND FREE ENERGY PREDICTED BY IDOCK:   -4.78 KCAL/MOL
REMARK 924 INTRA-LIGAND FREE ENERGY PREDICTED BY IDOCK:   -0.06 KCAL/MOL
REMARK 927      BINDING AFFINITY PREDICTED BY RF-SCORE:    0.00 PKD
ROOT
HETATM    1  C   UNL     1      -9.708  14.563  65.747  1.00  0.00    -0.274 C  
HETATM    2  N   UNL     1     -10.793  14.036  64.945  1.00  0.00    -0.387 NA 
HETATM    3  C   UNL     1     -10.422  12.925  64.080  1.00  0.00    -0.406 C  
HETATM    4  C   UNL     1     -11.768  12.529  63.507  1.00  0.00    -0.595 C  
HETATM    5  C   UNL     1     -12.741  12.713  64.665  1.00  0.00    -0.458 C  
HETATM    6  C   UNL     1     -12.046  13.686  65.635  1.00  0.00    -0.425 C  
ENDROOT
BRANCH   6   7
HETATM    7  C   UNL     1     -11.931  13.134  67.043  1.00  0.00    -0.412 A  
HETATM    8  C   UNL     1     -11.768  11.764  67.235  1.00  0.00    -0.217 A  
HETATM    9  N   UNL     1     -11.665  11.162  68.444  1.00  0.00    -0.485 NA 
HETATM   10  C   UNL     1     -11.726  11.962  69.527  1.00  0.00    -0.345 A  
HETATM   11  C   UNL     1     -11.877  13.336  69.456  1.00  0.00    -0.388 A  
HETATM   12  C   UNL     1     -11.976  13.925  68.198  1.00  0.00    -0.385 A  
ENDBRANCH   6   7
TORSDOF 1
ENDMDL
MODEL        4
REMARK 921   NORMALIZED FREE ENERGY PREDICTED BY IDOCK:   -4.39 KCAL/MOL
REMARK 922        TOTAL FREE ENERGY PREDICTED BY IDOCK:   -4.77 KCAL/MOL
REMARK 923 INTER-LIGAND FREE ENERGY PREDICTED BY IDOCK:   -4.71 KCAL/MOL
REMARK 924 INTRA-LIGAND FREE ENERGY PREDICTED BY IDOCK:   -0.06 KCAL/MOL
REMARK 927      BINDING AFFINITY PREDICTED BY RF-SCORE:    0.00 PKD
ROOT
HETATM    1  C   UNL     1     -12.335  12.177  63.468  1.00  0.00    -0.574 C  
HETATM    2  N   UNL     1     -11.539  13.329  63.838  1.00  0.00    -0.409 NA 
HETATM    3  C   UNL     1     -12.312  14.486  64.267  1.00  0.00    -0.369 C  
HETATM    4  C   UNL     1     -11.214  15.434  64.706  1.00  0.00    -0.404 C  
HETATM    5  C   UNL     1     -10.175  14.531  65.360  1.00  0.00    -0.415 C  
HETATM    6  C   UNL     1     -10.444  13.122  64.801  1.00  0.00    -0.372 C  
ENDROOT
BRANCH   6   7
HETATM    7  C   UNL     1     -10.663  12.088  65.889  1.00  0.00    -0.314 A  
HETATM    8  C   UNL     1     -11.530  12.369  66.943  1.00  0.00    -0.360 A  
HETATM    9  N   UNL     1     -11.794  11.527  67.970  1.00  0.00    -0.601 NA 
HETATM   10  C   UNL     1     -11.161  10.336  67.955  1.00  0.00    -0.276 A  
HETATM   11  C   UNL     1     -10.287   9.947  66.956  1.00  0.00    -0.303 A  
HETATM   12  C   UNL     1     -10.041  10.834  65.910  1.00  0.00    -0.314 A  
ENDBRANCH   6   7
TORSDOF 1
ENDMDL
MODEL        5
REMARK 921   NORMALIZED FREE ENERGY PREDICTED BY IDOCK:   -4.37 KCAL/MOL
REMARK 922        TOTAL FREE ENERGY PREDICTED BY IDOCK:   -4.76 KCAL/MOL
REMARK 923 INTER-LIGAND FREE ENERGY PREDICTED BY IDOCK:   -4.61 KCAL/MOL
REMARK 924 INTRA-LIGAND FREE ENERGY PREDICTED BY IDOCK:   -0.14 KCAL/MOL
REMARK 927      BINDING AFFINITY PREDICTED BY RF-SCORE:    0.00 PKD
ROOT
HETATM    1  C   UNL     1      -9.577  14.392  66.143  1.00  0.00    -0.283 C  
HETATM    2  N   UNL     1     -10.723  14.083  65.312  1.00  0.00    -0.336 NA 
HETATM    3  C   UNL     1     -10.462  13.110  64.261  1.00  0.00    -0.389 C  
HETATM    4  C   UNL     1     -11.851  12.909  63.687  1.00  0.00    -0.599 C  
HETATM    5  C   UNL     1     -12.771  12.962  64.901  1.00  0.00    -0.474 C  
HETATM    6  C   UNL     1     -11.976  13.709  65.988  1.00  0.00    -0.413 C  
ENDROOT
BRANCH   6   7
HETATM    7  C   UNL     1     -11.861  12.923  67.279  1.00  0.00    -0.416 A  
HETATM    8  C   UNL     1     -12.029  13.573  68.500  1.00  0.00    -0.344 A  
HETATM    9  N   UNL     1     -11.940  12.974  69.711  1.00  0.00    -0.322 NA 
HETATM   10  C   UNL     1     -11.666  11.654  69.716  1.00  0.00    -0.352 A  
HETATM   11  C   UNL     1     -11.488  10.905  68.566  1.00  0.00    -0.380 A  
HETATM   12  C   UNL     1     -11.591  11.550  67.335  1.00  0.00    -0.307 A  
ENDBRANCH   6   7
TORSDOF 1
ENDMDL
MODEL        6
REMARK 921   NORMALIZED FREE ENERGY PREDICTED BY IDOCK:   -4.32 KCAL/MOL
REMARK 922        TOTAL FREE ENERGY PREDICTED BY IDOCK:   -4.70 KCAL/MOL
REMARK 923 INTER-LIGAND FREE ENERGY PREDICTED BY IDOCK:   -4.68 KCAL/MOL
REMARK 924 INTRA-LIGAND FREE ENERGY PREDICTED BY IDOCK:   -0.02 KCAL/MOL
REMARK 927      BINDING AFFINITY PREDICTED BY RF-SCORE:    0.00 PKD
ROOT
HETATM    1  C   UNL     1     -11.254  16.456  68.650  1.00  0.00    -0.332 C  
HETATM    2  N   UNL     1     -11.289  15.016  68.496  1.00  0.00    -0.288 NA 
HETATM    3  C   UNL     1      -9.991  14.365  68.601  1.00  0.00    -0.241 C  
HETATM    4  C   UNL     1     -10.384  12.902  68.542  1.00  0.00    -0.239 C  
HETATM    5  C   UNL     1     -11.690  12.830  69.323  1.00  0.00    -0.376 C  
HETATM    6  C   UNL     1     -12.251  14.265  69.320  1.00  0.00    -0.252 C  
ENDROOT
BRANCH   6   7
HETATM    7  C   UNL     1     -12.531  14.792  70.714  1.00  0.00    -0.402 A  
HETATM    8  C   UNL     1     -13.838  15.102  71.084  1.00  0.00    -0.419 A  
HETATM    9  N   UNL     1     -14.203  15.585  72.296  1.00  0.00    -0.558 NA 
HETATM   10  C   UNL     1     -13.216  15.775  73.194  1.00  0.00    -0.591 A  
HETATM   11  C   UNL     1     -11.885  15.493  72.940  1.00  0.00    -0.565 A  
HETATM   12  C   UNL     1     -11.543  14.992  71.686  1.00  0.00    -0.416 A  
ENDBRANCH   6   7
TORSDOF 1
ENDMDL
MODEL        7
REMARK 921   NORMALIZED FREE ENERGY PREDICTED BY IDOCK:   -4.31 KCAL/MOL
REMARK 922        TOTAL FREE ENERGY PREDICTED BY IDOCK:   -4.69 KCAL/MOL
REMARK 923 INTER-LIGAND FREE ENERGY PREDICTED BY IDOCK:   -4.55 KCAL/MOL
REMARK 924 INTRA-LIGAND FREE ENERGY PREDICTED BY IDOCK:   -0.14 KCAL/MOL
REMARK 927      BINDING AFFINITY PREDICTED BY RF-SCORE:    0.00 PKD
ROOT
HETATM    1  C   UNL     1      -7.899  17.539  68.555  1.00  0.00    -0.274 C  
HETATM    2  N   UNL     1      -8.810  18.631  68.280  1.00  0.00    -0.317 NA 
HETATM    3  C   UNL     1      -8.379  19.523  67.213  1.00  0.00    -0.293 C  
HETATM    4  C   UNL     1      -9.580  20.439  67.085  1.00  0.00    -0.587 C  
HETATM    5  C   UNL     1     -10.778  19.522  67.303  1.00  0.00    -0.604 C  
HETATM    6  C   UNL     1     -10.228  18.300  68.061  1.00  0.00    -0.385 C  
ENDROOT
BRANCH   6   7
HETATM    7  C   UNL     1     -10.535  16.987  67.366  1.00  0.00    -0.322 A  
HETATM    8  C   UNL     1     -11.070  15.928  68.096  1.00  0.00    -0.338 A  
HETATM    9  N   UNL     1     -11.373  14.713  67.582  1.00  0.00    -0.321 NA 
HETATM   10  C   UNL     1     -11.133  14.534  66.268  1.00  0.00    -0.332 A  
HETATM   11  C   UNL     1     -10.612  15.516  65.444  1.00  0.00    -0.428 A  
HETATM   12  C   UNL     1     -10.315  16.757  66.002  1.00  0.00    -0.346 A  
ENDBRANCH   6   7
TORSDOF 1
ENDMDL
MODEL        8
REMARK 921   NORMALIZED FREE ENERGY PREDICTED BY IDOCK:   -4.30 KCAL/MOL
REMARK 922        TOTAL FREE ENERGY PREDICTED BY IDOCK:   -4.68 KCAL/MOL
REMARK 923 INTER-LIGAND FREE ENERGY PREDICTED BY IDOCK:   -4.60 KCAL/MOL
REMARK 924 INTRA-LIGAND FREE ENERGY PREDICTED BY IDOCK:   -0.08 KCAL/MOL
REMARK 927      BINDING AFFINITY PREDICTED BY RF-SCORE:    0.00 PKD
ROOT
HETATM    1  C   UNL     1     -12.016  13.113  67.236  1.00  0.00    -0.335 C  
HETATM    2  N   UNL     1     -11.688  12.602  65.921  1.00  0.00    -0.398 NA 
HETATM    3  C   UNL     1     -12.785  12.646  64.964  1.00  0.00    -0.324 C  
HETATM    4  C   UNL     1     -12.093  12.191  63.694  1.00  0.00    -0.648 C  
HETATM    5  C   UNL     1     -10.707  12.821  63.773  1.00  0.00    -0.397 C  
HETATM    6  C   UNL     1     -10.480  13.131  65.264  1.00  0.00    -0.307 C  
ENDROOT
BRANCH   6   7
HETATM    7  C   UNL     1     -10.132  14.585  65.518  1.00  0.00    -0.394 A  
HETATM    8  C   UNL     1     -10.850  15.589  64.873  1.00  0.00    -0.427 A  
HETATM    9  N   UNL     1     -10.621  16.915  65.017  1.00  0.00    -0.698 NA 
HETATM   10  C   UNL     1      -9.621  17.270  65.848  1.00  0.00    -0.046 A  
HETATM   11  C   UNL     1      -8.848  16.361  66.547  1.00  0.00    -0.316 A  
HETATM   12  C   UNL     1      -9.112  15.003  66.382  1.00  0.00    -0.312 A  
ENDBRANCH   6   7
TORSDOF 1
ENDMDL
MODEL        9
REMARK 921   NORMALIZED FREE ENERGY PREDICTED BY IDOCK:   -4.25 KCAL/MOL
REMARK 922        TOTAL FREE ENERGY PREDICTED BY IDOCK:   -4.62 KCAL/MOL
REMARK 923 INTER-LIGAND FREE ENERGY PREDICTED BY IDOCK:   -4.55 KCAL/MOL
REMARK 924 INTRA-LIGAND FREE ENERGY PREDICTED BY IDOCK:   -0.07 KCAL/MOL
REMARK 927      BINDING AFFINITY PREDICTED BY RF-SCORE:    0.00 PKD
ROOT
HETATM    1  C   UNL     1     -10.345  16.282  68.054  1.00  0.00    -0.279 C  
HETATM    2  N   UNL     1     -10.766  15.175  68.889  1.00  0.00    -0.232 NA 
HETATM    3  C   UNL     1     -12.034  15.384  69.574  1.00  0.00    -0.334 C  
HETATM    4  C   UNL     1     -12.249  14.031  70.224  1.00  0.00    -0.430 C  
HETATM    5  C   UNL     1     -11.732  13.032  69.195  1.00  0.00    -0.378 C  
HETATM    6  C   UNL     1     -10.782  13.832  68.285  1.00  0.00    -0.253 C  
ENDROOT
BRANCH   6   7
HETATM    7  C   UNL     1     -11.149  13.735  66.817  1.00  0.00    -0.316 A  
HETATM    8  C   UNL     1     -12.481  13.867  66.429  1.00  0.00    -0.370 A  
HETATM    9  N   UNL     1     -12.923  13.789  65.152  1.00  0.00    -0.762 NA 
HETATM   10  C   UNL     1     -11.994  13.566  64.201  1.00  0.00    -0.448 A  
HETATM   11  C   UNL     1     -10.643  13.428  64.469  1.00  0.00    -0.441 A  
HETATM   12  C   UNL     1     -10.219  13.518  65.792  1.00  0.00    -0.305 A  
ENDBRANCH   6   7
TORSDOF 1
ENDMDL
MODEL       10
REMARK 921   NORMALIZED FREE ENERGY PREDICTED BY IDOCK:   -4.20 KCAL/MOL
REMARK 922        TOTAL FREE ENERGY PREDICTED BY IDOCK:   -4.58 KCAL/MOL
REMARK 923 INTER-LIGAND FREE ENERGY PREDICTED BY IDOCK:   -4.43 KCAL/MOL
REMARK 924 INTRA-LIGAND FREE ENERGY PREDICTED BY IDOCK:   -0.15 KCAL/MOL
REMARK 927      BINDING AFFINITY PREDICTED BY RF-SCORE:    0.00 PKD
ROOT
HETATM    1  C   UNL     1     -12.536  12.089  63.473  1.00  0.00    -0.507 C  
HETATM    2  N   UNL     1     -11.692  13.200  63.863  1.00  0.00    -0.440 NA 
HETATM    3  C   UNL     1     -12.394  14.286  64.531  1.00  0.00    -0.410 C  
HETATM    4  C   UNL     1     -11.242  15.191  64.923  1.00  0.00    -0.424 C  
HETATM    5  C   UNL     1     -10.124  14.231  65.312  1.00  0.00    -0.378 C  
HETATM    6  C   UNL     1     -10.474  12.894  64.631  1.00  0.00    -0.363 C  
ENDROOT
BRANCH   6   7
HETATM    7  C   UNL     1     -10.540  11.735  65.607  1.00  0.00    -0.314 A  
HETATM    8  C   UNL     1      -9.930  10.525  65.283  1.00  0.00    -0.299 A  
HETATM    9  N   UNL     1      -9.933   9.424  66.071  1.00  0.00    -0.300 NA 
HETATM   10  C   UNL     1     -10.580   9.525  67.249  1.00  0.00    -0.248 A  
HETATM   11  C   UNL     1     -11.214  10.678  67.678  1.00  0.00    -0.361 A  
HETATM   12  C   UNL     1     -11.188  11.795  66.847  1.00  0.00    -0.387 A  
ENDBRANCH   6   7
TORSDOF 1
ENDMDL
MODEL       11
REMARK 921   NORMALIZED FREE ENERGY PREDICTED BY IDOCK:   -4.14 KCAL/MOL
REMARK 922        TOTAL FREE ENERGY PREDICTED BY IDOCK:   -4.52 KCAL/MOL
REMARK 923 INTER-LIGAND FREE ENERGY PREDICTED BY IDOCK:   -4.43 KCAL/MOL
REMARK 924 INTRA-LIGAND FREE ENERGY PREDICTED BY IDOCK:   -0.09 KCAL/MOL
REMARK 927      BINDING AFFINITY PREDICTED BY RF-SCORE:    0.00 PKD
ROOT
HETATM    1  C   UNL     1      -9.222  13.366  66.632  1.00  0.00    -0.214 C  
HETATM    2  N   UNL     1     -10.451  13.452  65.871  1.00  0.00    -0.282 NA 
HETATM    3  C   UNL     1     -11.062  12.167  65.561  1.00  0.00    -0.316 C  
HETATM    4  C   UNL     1     -12.359  12.602  64.907  1.00  0.00    -0.563 C  
HETATM    5  C   UNL     1     -12.785  13.834  65.697  1.00  0.00    -0.523 C  
HETATM    6  C   UNL     1     -11.502  14.355  66.370  1.00  0.00    -0.360 C  
ENDROOT
BRANCH   6   7
HETATM    7  C   UNL     1     -11.640  14.495  67.874  1.00  0.00    -0.371 A  
HETATM    8  C   UNL     1     -11.416  15.732  68.475  1.00  0.00    -0.379 A  
HETATM    9  N   UNL     1     -11.502  15.970  69.805  1.00  0.00    -0.326 NA 
HETATM   10  C   UNL     1     -11.828  14.921  70.588  1.00  0.00    -0.301 A  
HETATM   11  C   UNL     1     -12.080  13.651  70.101  1.00  0.00    -0.431 A  
HETATM   12  C   UNL     1     -11.989  13.440  68.727  1.00  0.00    -0.359 A  
ENDBRANCH   6   7
TORSDOF 1
ENDMDL
MODEL       12
REMARK 921   NORMALIZED FREE ENERGY PREDICTED BY IDOCK:   -4.14 KCAL/MOL
REMARK 922        TOTAL FREE ENERGY PREDICTED BY IDOCK:   -4.51 KCAL/MOL
REMARK 923 INTER-LIGAND FREE ENERGY PREDICTED BY IDOCK:   -4.56 KCAL/MOL
REMARK 924 INTRA-LIGAND FREE ENERGY PREDICTED BY IDOCK:    0.05 KCAL/MOL
REMARK 927      BINDING AFFINITY PREDICTED BY RF-SCORE:    0.00 PKD
ROOT
HETATM    1  C   UNL     1     -11.795  12.288  69.690  1.00  0.00    -0.324 C  
HETATM    2  N   UNL     1     -11.326  13.399  68.888  1.00  0.00    -0.270 NA 
HETATM    3  C   UNL     1     -12.117  13.658  67.693  1.00  0.00    -0.293 C  
HETATM    4  C   UNL     1     -11.469  14.927  67.174  1.00  0.00    -0.344 C  
HETATM    5  C   UNL     1     -11.126  15.717  68.432  1.00  0.00    -0.341 C  
HETATM    6  C   UNL     1     -11.085  14.681  69.571  1.00  0.00    -0.266 C  
ENDROOT
BRANCH   6   7
HETATM    7  C   UNL     1     -12.002  15.036  70.725  1.00  0.00    -0.371 A  
HETATM    8  C   UNL     1     -13.369  15.180  70.500  1.00  0.00    -0.160 A  
HETATM    9  N   UNL     1     -14.277  15.502  71.451  1.00  0.00    -0.548 NA 
HETATM   10  C   UNL     1     -13.805  15.695  72.699  1.00  0.00    -0.564 A  
HETATM   11  C   UNL     1     -12.470  15.570  73.040  1.00  0.00    -0.553 A  
HETATM   12  C   UNL     1     -11.561  15.232  72.040  1.00  0.00    -0.529 A  
ENDBRANCH   6   7
TORSDOF 1
ENDMDL
MODEL       13
REMARK 921   NORMALIZED FREE ENERGY PREDICTED BY IDOCK:   -4.12 KCAL/MOL
REMARK 922        TOTAL FREE ENERGY PREDICTED BY IDOCK:   -4.49 KCAL/MOL
REMARK 923 INTER-LIGAND FREE ENERGY PREDICTED BY IDOCK:   -4.38 KCAL/MOL
REMARK 924 INTRA-LIGAND FREE ENERGY PREDICTED BY IDOCK:   -0.12 KCAL/MOL
REMARK 927      BINDING AFFINITY PREDICTED BY RF-SCORE:    0.00 PKD
ROOT
HETATM    1  C   UNL     1     -11.659  15.722  68.779  1.00  0.00    -0.395 C  
HETATM    2  N   UNL     1     -10.787  15.208  67.743  1.00  0.00    -0.283 NA 
HETATM    3  C   UNL     1     -11.472  14.800  66.524  1.00  0.00    -0.327 C  
HETATM    4  C   UNL     1     -10.302  14.461  65.623  1.00  0.00    -0.360 C  
HETATM    5  C   UNL     1      -9.245  15.504  65.966  1.00  0.00    -0.361 C  
HETATM    6  C   UNL     1      -9.621  16.024  67.367  1.00  0.00    -0.225 C  
ENDROOT
BRANCH   6   7
HETATM    7  C   UNL     1      -9.782  17.531  67.413  1.00  0.00    -0.274 A  
HETATM    8  C   UNL     1      -9.365  18.235  68.541  1.00  0.00    -0.319 A  
HETATM    9  N   UNL     1      -9.469  19.576  68.694  1.00  0.00    -0.392 NA 
HETATM   10  C   UNL     1     -10.019  20.262  67.673  1.00  0.00    -0.410 A  
HETATM   11  C   UNL     1     -10.460  19.670  66.502  1.00  0.00    -0.612 A  
HETATM   12  C   UNL     1     -10.334  18.289  66.373  1.00  0.00    -0.418 A  
ENDBRANCH   6   7
TORSDOF 1
ENDMDL
MODEL       14
REMARK 921   NORMALIZED FREE ENERGY PREDICTED BY IDOCK:   -4.12 KCAL/MOL
REMARK 922        TOTAL FREE ENERGY PREDICTED BY IDOCK:   -4.49 KCAL/MOL
REMARK 923 INTER-LIGAND FREE ENERGY PREDICTED BY IDOCK:   -4.52 KCAL/MOL
REMARK 924 INTRA-LIGAND FREE ENERGY PREDICTED BY IDOCK:    0.03 KCAL/MOL
REMARK 927      BINDING AFFINITY PREDICTED BY RF-SCORE:    0.00 PKD
ROOT
HETATM    1  C   UNL     1      -9.929  14.174  67.603  1.00  0.00    -0.233 C  
HETATM    2  N   UNL     1     -10.405  12.941  68.196  1.00  0.00    -0.234 NA 
HETATM    3  C   UNL     1     -11.590  13.090  69.029  1.00  0.00    -0.318 C  
HETATM    4  C   UNL     1     -11.901  11.645  69.366  1.00  0.00    -0.408 C  
HETATM    5  C   UNL     1     -11.571  10.880  68.090  1.00  0.00    -0.317 C  
HETATM    6  C   UNL     1     -10.608  11.789  67.303  1.00  0.00    -0.224 C  
ENDROOT
BRANCH   6   7
HETATM    7  C   UNL     1     -11.089  12.078  65.894  1.00  0.00    -0.369 A  
HETATM    8  C   UNL     1     -12.336  12.670  65.699  1.00  0.00    -0.323 A  
HETATM    9  N   UNL     1     -12.868  12.964  64.490  1.00  0.00    -0.729 NA 
HETATM   10  C   UNL     1     -12.125  12.654  63.408  1.00  0.00    -0.525 A  
HETATM   11  C   UNL     1     -10.872  12.073  63.482  1.00  0.00    -0.509 A  
HETATM   12  C   UNL     1     -10.349  11.787  64.742  1.00  0.00    -0.333 A  
ENDBRANCH   6   7
TORSDOF 1
ENDMDL
MODEL       15
REMARK 921   NORMALIZED FREE ENERGY PREDICTED BY IDOCK:   -4.12 KCAL/MOL
REMARK 922        TOTAL FREE ENERGY PREDICTED BY IDOCK:   -4.48 KCAL/MOL
REMARK 923 INTER-LIGAND FREE ENERGY PREDICTED BY IDOCK:   -4.42 KCAL/MOL
REMARK 924 INTRA-LIGAND FREE ENERGY PREDICTED BY IDOCK:   -0.06 KCAL/MOL
REMARK 927      BINDING AFFINITY PREDICTED BY RF-SCORE:    0.00 PKD
ROOT
HETATM    1  C   UNL     1     -11.738  15.721  68.881  1.00  0.00    -0.394 C  
HETATM    2  N   UNL     1     -10.827  15.158  67.906  1.00  0.00    -0.282 NA 
HETATM    3  C   UNL     1     -11.469  14.646  66.704  1.00  0.00    -0.357 C  
HETATM    4  C   UNL     1     -10.268  14.274  65.857  1.00  0.00    -0.338 C  
HETATM    5  C   UNL     1      -9.247  15.366  66.151  1.00  0.00    -0.362 C  
HETATM    6  C   UNL     1      -9.671  15.974  67.501  1.00  0.00    -0.228 C  
ENDROOT
BRANCH   6   7
HETATM    7  C   UNL     1      -9.870  17.476  67.435  1.00  0.00    -0.297 A  
HETATM    8  C   UNL     1     -10.352  18.057  66.263  1.00  0.00    -0.382 A  
HETATM    9  N   UNL     1     -10.560  19.383  66.089  1.00  0.00    -0.480 NA 
HETATM   10  C   UNL     1     -10.273  20.184  67.135  1.00  0.00    -0.414 A  
HETATM   11  C   UNL     1      -9.798  19.718  68.348  1.00  0.00    -0.522 A  
HETATM   12  C   UNL     1      -9.600  18.347  68.498  1.00  0.00    -0.368 A  
ENDBRANCH   6   7
TORSDOF 1
ENDMDL
MODEL       16
REMARK 921   NORMALIZED FREE ENERGY PREDICTED BY IDOCK:   -4.09 KCAL/MOL
REMARK 922        TOTAL FREE ENERGY PREDICTED BY IDOCK:   -4.46 KCAL/MOL
REMARK 923 INTER-LIGAND FREE ENERGY PREDICTED BY IDOCK:   -4.38 KCAL/MOL
REMARK 924 INTRA-LIGAND FREE ENERGY PREDICTED BY IDOCK:   -0.08 KCAL/MOL
REMARK 927      BINDING AFFINITY PREDICTED BY RF-SCORE:    0.00 PKD
ROOT
HETATM    1  C   UNL     1      -9.904  15.046  67.272  1.00  0.00    -0.228 C  
HETATM    2  N   UNL     1     -11.033  14.932  66.372  1.00  0.00    -0.332 NA 
HETATM    3  C   UNL     1     -10.678  14.625  64.993  1.00  0.00    -0.430 C  
HETATM    4  C   UNL     1     -12.046  14.438  64.367  1.00  0.00    -0.491 C  
HETATM    5  C   UNL     1     -12.864  13.742  65.448  1.00  0.00    -0.455 C  
HETATM    6  C   UNL     1     -12.139  14.047  66.772  1.00  0.00    -0.447 C  
ENDROOT
BRANCH   6   7
HETATM    7  C   UNL     1     -11.780  12.795  67.550  1.00  0.00    -0.422 A  
HETATM    8  C   UNL     1     -11.331  11.666  66.869  1.00  0.00    -0.295 A  
HETATM    9  N   UNL     1     -10.992  10.495  67.458  1.00  0.00    -0.303 NA 
HETATM   10  C   UNL     1     -11.105  10.437  68.801  1.00  0.00    -0.250 A  
HETATM   11  C   UNL     1     -11.531  11.497  69.579  1.00  0.00    -0.378 A  
HETATM   12  C   UNL     1     -11.868  12.691  68.944  1.00  0.00    -0.345 A  
ENDBRANCH   6   7
TORSDOF 1
ENDMDL
MODEL       17
REMARK 921   NORMALIZED FREE ENERGY PREDICTED BY IDOCK:   -4.06 KCAL/MOL
REMARK 922        TOTAL FREE ENERGY PREDICTED BY IDOCK:   -4.43 KCAL/MOL
REMARK 923 INTER-LIGAND FREE ENERGY PREDICTED BY IDOCK:   -4.30 KCAL/MOL
REMARK 924 INTRA-LIGAND FREE ENERGY PREDICTED BY IDOCK:   -0.13 KCAL/MOL
REMARK 927      BINDING AFFINITY PREDICTED BY RF-SCORE:    0.00 PKD
ROOT
HETATM    1  C   UNL     1     -12.281  13.089  63.563  1.00  0.00    -0.501 C  
HETATM    2  N   UNL     1     -11.554  11.980  64.147  1.00  0.00    -0.371 NA 
HETATM    3  C   UNL     1     -10.345  11.606  63.428  1.00  0.00    -0.435 C  
HETATM    4  C   UNL     1      -9.765  10.548  64.347  1.00  0.00    -0.388 C  
HETATM    5  C   UNL     1     -10.069  11.061  65.750  1.00  0.00    -0.305 C  
HETATM    6  C   UNL     1     -11.236  12.052  65.582  1.00  0.00    -0.327 C  
ENDROOT
BRANCH   6   7
HETATM    7  C   UNL     1     -10.933  13.422  66.158  1.00  0.00    -0.285 A  
HETATM    8  C   UNL     1     -11.818  13.998  67.068  1.00  0.00    -0.428 A  
HETATM    9  N   UNL     1     -11.653  15.215  67.638  1.00  0.00    -0.318 NA 
HETATM   10  C   UNL     1     -10.549  15.905  67.286  1.00  0.00    -0.314 A  
HETATM   11  C   UNL     1      -9.600  15.429  66.400  1.00  0.00    -0.319 A  
HETATM   12  C   UNL     1      -9.795  14.170  65.835  1.00  0.00    -0.312 A  
ENDBRANCH   6   7
TORSDOF 1
ENDMDL
MODEL       18
REMARK 921   NORMALIZED FREE ENERGY PREDICTED BY IDOCK:   -4.05 KCAL/MOL
REMARK 922        TOTAL FREE ENERGY PREDICTED BY IDOCK:   -4.42 KCAL/MOL
REMARK 923 INTER-LIGAND FREE ENERGY PREDICTED BY IDOCK:   -4.34 KCAL/MOL
REMARK 924 INTRA-LIGAND FREE ENERGY PREDICTED BY IDOCK:   -0.08 KCAL/MOL
REMARK 927      BINDING AFFINITY PREDICTED BY RF-SCORE:    0.00 PKD
ROOT
HETATM    1  C   UNL     1     -11.666  13.948  69.273  1.00  0.00    -0.334 C  
HETATM    2  N   UNL     1     -11.109  12.665  68.895  1.00  0.00    -0.257 NA 
HETATM    3  C   UNL     1     -12.022  11.542  69.044  1.00  0.00    -0.311 C  
HETATM    4  C   UNL     1     -11.206  10.411  68.448  1.00  0.00    -0.318 C  
HETATM    5  C   UNL     1     -10.471  11.053  67.277  1.00  0.00    -0.270 C  
HETATM    6  C   UNL     1     -10.462  12.564  67.576  1.00  0.00    -0.219 C  
ENDROOT
BRANCH   6   7
HETATM    7  C   UNL     1     -11.050  13.391  66.449  1.00  0.00    -0.312 A  
HETATM    8  C   UNL     1     -12.203  12.954  65.801  1.00  0.00    -0.439 A  
HETATM    9  N   UNL     1     -12.808  13.605  64.780  1.00  0.00    -0.701 NA 
HETATM   10  C   UNL     1     -12.238  14.757  64.374  1.00  0.00    -0.428 A  
HETATM   11  C   UNL     1     -11.099  15.292  64.949  1.00  0.00    -0.435 A  
HETATM   12  C   UNL     1     -10.503  14.600  66.001  1.00  0.00    -0.313 A  
ENDBRANCH   6   7
TORSDOF 1
ENDMDL
MODEL       19
REMARK 921   NORMALIZED FREE ENERGY PREDICTED BY IDOCK:   -4.05 KCAL/MOL
REMARK 922        TOTAL FREE ENERGY PREDICTED BY IDOCK:   -4.41 KCAL/MOL
REMARK 923 INTER-LIGAND FREE ENERGY PREDICTED BY IDOCK:   -4.27 KCAL/MOL
REMARK 924 INTRA-LIGAND FREE ENERGY PREDICTED BY IDOCK:   -0.14 KCAL/MOL
REMARK 927      BINDING AFFINITY PREDICTED BY RF-SCORE:    0.00 PKD
ROOT
HETATM    1  C   UNL     1     -12.160  14.077  67.355  1.00  0.00    -0.349 C  
HETATM    2  N   UNL     1     -10.959  14.678  67.897  1.00  0.00    -0.269 NA 
HETATM    3  C   UNL     1     -10.811  16.098  67.610  1.00  0.00    -0.297 C  
HETATM    4  C   UNL     1      -9.570  16.438  68.412  1.00  0.00    -0.219 C  
HETATM    5  C   UNL     1      -9.701  15.603  69.681  1.00  0.00    -0.276 C  
HETATM    6  C   UNL     1     -10.672  14.462  69.325  1.00  0.00    -0.206 C  
ENDROOT
BRANCH   6   7
HETATM    7  C   UNL     1     -11.857  14.381  70.267  1.00  0.00    -0.382 A  
HETATM    8  C   UNL     1     -12.216  13.153  70.819  1.00  0.00    -0.290 A  
HETATM    9  N   UNL     1     -13.259  12.962  71.662  1.00  0.00    -0.371 NA 
HETATM   10  C   UNL     1     -13.990  14.049  71.978  1.00  0.00    -0.506 A  
HETATM   11  C   UNL     1     -13.720  15.318  71.497  1.00  0.00    -0.610 A  
HETATM   12  C   UNL     1     -12.638  15.483  70.636  1.00  0.00    -0.493 A  
ENDBRANCH   6   7
TORSDOF 1
ENDMDL
MODEL       20
REMARK 921   NORMALIZED FREE ENERGY PREDICTED BY IDOCK:   -4.04 KCAL/MOL
REMARK 922        TOTAL FREE ENERGY PREDICTED BY IDOCK:   -4.41 KCAL/MOL
REMARK 923 INTER-LIGAND FREE ENERGY PREDICTED BY IDOCK:   -4.26 KCAL/MOL
REMARK 924 INTRA-LIGAND FREE ENERGY PREDICTED BY IDOCK:   -0.15 KCAL/MOL
REMARK 927      BINDING AFFINITY PREDICTED BY RF-SCORE:    0.00 PKD
ROOT
HETATM    1  C   UNL     1      -9.675  14.553  67.360  1.00  0.00    -0.222 C  
HETATM    2  N   UNL     1     -10.802  14.487  66.452  1.00  0.00    -0.312 NA 
HETATM    3  C   UNL     1     -10.445  14.224  65.065  1.00  0.00    -0.435 C  
HETATM    4  C   UNL     1     -11.813  14.078  64.426  1.00  0.00    -0.453 C  
HETATM    5  C   UNL     1     -12.646  13.356  65.480  1.00  0.00    -0.520 C  
HETATM    6  C   UNL     1     -11.922  13.604  66.817  1.00  0.00    -0.414 C  
ENDROOT
BRANCH   6   7
HETATM    7  C   UNL     1     -11.585  12.321  67.551  1.00  0.00    -0.422 A  
HETATM    8  C   UNL     1     -11.868  12.211  68.911  1.00  0.00    -0.304 A  
HETATM    9  N   UNL     1     -11.602  11.120  69.668  1.00  0.00    -0.295 NA 
HETATM   10  C   UNL     1     -11.022  10.076  69.042  1.00  0.00    -0.212 A  
HETATM   11  C   UNL     1     -10.704  10.070  67.696  1.00  0.00    -0.340 A  
HETATM   12  C   UNL     1     -10.995  11.206  66.944  1.00  0.00    -0.333 A  
ENDBRANCH   6   7
TORSDOF 1
ENDMDL
MODEL       21
REMARK 921   NORMALIZED FREE ENERGY PREDICTED BY IDOCK:   -4.04 KCAL/MOL
REMARK 922        TOTAL FREE ENERGY PREDICTED BY IDOCK:   -4.41 KCAL/MOL
REMARK 923 INTER-LIGAND FREE ENERGY PREDICTED BY IDOCK:   -4.29 KCAL/MOL
REMARK 924 INTRA-LIGAND FREE ENERGY PREDICTED BY IDOCK:   -0.11 KCAL/MOL
REMARK 927      BINDING AFFINITY PREDICTED BY RF-SCORE:    0.00 PKD
ROOT
HETATM    1  C   UNL     1      -9.564  14.054  67.135  1.00  0.00    -0.245 C  
HETATM    2  N   UNL     1     -10.821  14.181  66.428  1.00  0.00    -0.301 NA 
HETATM    3  C   UNL     1     -10.700  14.669  65.062  1.00  0.00    -0.430 C  
HETATM    4  C   UNL     1     -12.130  14.551  64.573  1.00  0.00    -0.501 C  
HETATM    5  C   UNL     1     -12.644  13.269  65.217  1.00  0.00    -0.528 C  
HETATM    6  C   UNL     1     -11.723  13.017  66.425  1.00  0.00    -0.390 C  
ENDROOT
BRANCH   6   7
HETATM    7  C   UNL     1     -11.083  11.642  66.402  1.00  0.00    -0.347 A  
HETATM    8  C   UNL     1     -11.222  10.798  67.502  1.00  0.00    -0.274 A  
HETATM    9  N   UNL     1     -10.688   9.557  67.594  1.00  0.00    -0.278 NA 
HETATM   10  C   UNL     1      -9.972   9.126  66.536  1.00  0.00    -0.288 A  
HETATM   11  C   UNL     1      -9.775   9.874  65.389  1.00  0.00    -0.375 A  
HETATM   12  C   UNL     1     -10.342  11.145  65.323  1.00  0.00    -0.336 A  
ENDBRANCH   6   7
TORSDOF 1
ENDMDL
MODEL       22
REMARK 921   NORMALIZED FREE ENERGY PREDICTED BY IDOCK:   -4.03 KCAL/MOL
REMARK 922        TOTAL FREE ENERGY PREDICTED BY IDOCK:   -4.39 KCAL/MOL
REMARK 923 INTER-LIGAND FREE ENERGY PREDICTED BY IDOCK:   -4.25 KCAL/MOL
REMARK 924 INTRA-LIGAND FREE ENERGY PREDICTED BY IDOCK:   -0.15 KCAL/MOL
REMARK 927      BINDING AFFINITY PREDICTED BY RF-SCORE:    0.00 PKD
ROOT
HETATM    1  C   UNL     1     -10.419  11.762  63.228  1.00  0.00    -0.388 C  
HETATM    2  N   UNL     1     -10.829  11.354  64.556  1.00  0.00    -0.325 NA 
HETATM    3  C   UNL     1      -9.735  10.948  65.427  1.00  0.00    -0.238 C  
HETATM    4  C   UNL     1     -10.463  10.728  66.739  1.00  0.00    -0.305 C  
HETATM    5  C   UNL     1     -11.517  11.829  66.775  1.00  0.00    -0.352 C  
HETATM    6  C   UNL     1     -11.707  12.264  65.310  1.00  0.00    -0.361 C  
ENDROOT
BRANCH   6   7
HETATM    7  C   UNL     1     -11.505  13.752  65.105  1.00  0.00    -0.329 A  
HETATM    8  C   UNL     1     -12.392  14.465  64.301  1.00  0.00    -0.373 A  
HETATM    9  N   UNL     1     -12.303  15.791  64.042  1.00  0.00    -0.635 NA 
HETATM   10  C   UNL     1     -11.275  16.452  64.611  1.00  0.00    -0.192 A  
HETATM   11  C   UNL     1     -10.340  15.850  65.434  1.00  0.00    -0.399 A  
HETATM   12  C   UNL     1     -10.462  14.485  65.685  1.00  0.00    -0.351 A  
ENDBRANCH   6   7
TORSDOF 1
ENDMDL
MODEL       23
REMARK 921   NORMALIZED FREE ENERGY PREDICTED BY IDOCK:   -4.02 KCAL/MOL
REMARK 922        TOTAL FREE ENERGY PREDICTED BY IDOCK:   -4.38 KCAL/MOL
REMARK 923 INTER-LIGAND FREE ENERGY PREDICTED BY IDOCK:   -4.24 KCAL/MOL
REMARK 924 INTRA-LIGAND FREE ENERGY PREDICTED BY IDOCK:   -0.14 KCAL/MOL
REMARK 927      BINDING AFFINITY PREDICTED BY RF-SCORE:    0.00 PKD
ROOT
HETATM    1  C   UNL     1     -10.766  16.469  68.797  1.00  0.00    -0.339 C  
HETATM    2  N   UNL     1     -11.028  15.220  69.483  1.00  0.00    -0.260 NA 
HETATM    3  C   UNL     1     -12.322  15.156  70.147  1.00  0.00    -0.341 C  
HETATM    4  C   UNL     1     -12.342  13.718  70.627  1.00  0.00    -0.445 C  
HETATM    5  C   UNL     1     -11.667  12.937  69.506  1.00  0.00    -0.387 C  
HETATM    6  C   UNL     1     -10.834  13.972  68.726  1.00  0.00    -0.263 C  
ENDROOT
BRANCH   6   7
HETATM    7  C   UNL     1     -11.163  13.999  67.246  1.00  0.00    -0.328 A  
HETATM    8  C   UNL     1     -10.134  14.124  66.314  1.00  0.00    -0.300 A  
HETATM    9  N   UNL     1     -10.311  14.168  64.972  1.00  0.00    -0.413 NA 
HETATM   10  C   UNL     1     -11.580  14.084  64.525  1.00  0.00    -0.391 A  
HETATM   11  C   UNL     1     -12.677  13.949  65.357  1.00  0.00    -0.525 A  
HETATM   12  C   UNL     1     -12.462  13.902  66.733  1.00  0.00    -0.254 A  
ENDBRANCH   6   7
TORSDOF 1
ENDMDL
MODEL       24
REMARK 921   NORMALIZED FREE ENERGY PREDICTED BY IDOCK:   -4.01 KCAL/MOL
REMARK 922        TOTAL FREE ENERGY PREDICTED BY IDOCK:   -4.38 KCAL/MOL
REMARK 923 INTER-LIGAND FREE ENERGY PREDICTED BY IDOCK:   -4.34 KCAL/MOL
REMARK 924 INTRA-LIGAND FREE ENERGY PREDICTED BY IDOCK:   -0.03 KCAL/MOL
REMARK 927      BINDING AFFINITY PREDICTED BY RF-SCORE:    0.00 PKD
ROOT
HETATM    1  C   UNL     1     -11.769  12.026  68.403  1.00  0.00    -0.332 C  
HETATM    2  N   UNL     1     -11.520  13.449  68.296  1.00  0.00    -0.293 NA 
HETATM    3  C   UNL     1     -10.175  13.857  68.677  1.00  0.00    -0.218 C  
HETATM    4  C   UNL     1     -10.198  15.331  68.324  1.00  0.00    -0.226 C  
HETATM    5  C   UNL     1     -11.022  15.401  67.044  1.00  0.00    -0.306 C  
HETATM    6  C   UNL     1     -11.860  14.109  67.025  1.00  0.00    -0.429 C  
ENDROOT
BRANCH   6   7
HETATM    7  C   UNL     1     -11.674  13.304  65.753  1.00  0.00    -0.395 A  
HETATM    8  C   UNL     1     -10.388  12.983  65.323  1.00  0.00    -0.304 A  
HETATM    9  N   UNL     1     -10.103  12.279  64.201  1.00  0.00    -0.319 NA 
HETATM   10  C   UNL     1     -11.153  11.869  63.461  1.00  0.00    -0.428 A  
HETATM   11  C   UNL     1     -12.471  12.122  63.795  1.00  0.00    -0.620 A  
HETATM   12  C   UNL     1     -12.731  12.844  64.958  1.00  0.00    -0.474 A  
ENDBRANCH   6   7
TORSDOF 1
ENDMDL
MODEL       25
REMARK 921   NORMALIZED FREE ENERGY PREDICTED BY IDOCK:   -4.00 KCAL/MOL
REMARK 922        TOTAL FREE ENERGY PREDICTED BY IDOCK:   -4.36 KCAL/MOL
REMARK 923 INTER-LIGAND FREE ENERGY PREDICTED BY IDOCK:   -4.29 KCAL/MOL
REMARK 924 INTRA-LIGAND FREE ENERGY PREDICTED BY IDOCK:   -0.07 KCAL/MOL
REMARK 927      BINDING AFFINITY PREDICTED BY RF-SCORE:    0.00 PKD
ROOT
HETATM    1  C   UNL     1      -9.694  14.140  67.075  1.00  0.00    -0.258 C  
HETATM    2  N   UNL     1     -10.918  14.224  66.307  1.00  0.00    -0.312 NA 
HETATM    3  C   UNL     1     -10.752  14.754  64.961  1.00  0.00    -0.433 C  
HETATM    4  C   UNL     1     -12.148  14.579  64.396  1.00  0.00    -0.492 C  
HETATM    5  C   UNL     1     -12.630  13.257  64.980  1.00  0.00    -0.483 C  
HETATM    6  C   UNL     1     -11.759  13.018  66.229  1.00  0.00    -0.387 C  
ENDROOT
BRANCH   6   7
HETATM    7  C   UNL     1     -11.050  11.677  66.205  1.00  0.00    -0.345 A  
HETATM    8  C   UNL     1     -10.414  11.254  65.040  1.00  0.00    -0.298 A  
HETATM    9  N   UNL     1      -9.760  10.076  64.903  1.00  0.00    -0.313 NA 
HETATM   10  C   UNL     1      -9.734   9.269  65.982  1.00  0.00    -0.289 A  
HETATM   11  C   UNL     1     -10.323   9.589  67.192  1.00  0.00    -0.320 A  
HETATM   12  C   UNL     1     -10.984  10.810  67.303  1.00  0.00    -0.359 A  
ENDBRANCH   6   7
TORSDOF 1
ENDMDL
MODEL       26
REMARK 921   NORMALIZED FREE ENERGY PREDICTED BY IDOCK:   -3.99 KCAL/MOL
REMARK 922        TOTAL FREE ENERGY PREDICTED BY IDOCK:   -4.35 KCAL/MOL
REMARK 923 INTER-LIGAND FREE ENERGY PREDICTED BY IDOCK:   -4.32 KCAL/MOL
REMARK 924 INTRA-LIGAND FREE ENERGY PREDICTED BY IDOCK:   -0.04 KCAL/MOL
REMARK 927      BINDING AFFINITY PREDICTED BY RF-SCORE:    0.00 PKD
ROOT
HETATM    1  C   UNL     1      -7.777  17.709  68.695  1.00  0.00    -0.281 C  
HETATM    2  N   UNL     1      -8.703  18.705  68.198  1.00  0.00    -0.302 NA 
HETATM    3  C   UNL     1      -8.566  19.002  66.779  1.00  0.00    -0.304 C  
HETATM    4  C   UNL     1      -9.735  19.941  66.555  1.00  0.00    -0.547 C  
HETATM    5  C   UNL     1     -10.845  19.377  67.435  1.00  0.00    -0.555 C  
HETATM    6  C   UNL     1     -10.133  18.516  68.494  1.00  0.00    -0.378 C  
ENDROOT
BRANCH   6   7
HETATM    7  C   UNL     1     -10.650  17.091  68.541  1.00  0.00    -0.370 A  
HETATM    8  C   UNL     1     -10.730  16.348  67.366  1.00  0.00    -0.278 A  
HETATM    9  N   UNL     1     -11.183  15.074  67.288  1.00  0.00    -0.335 NA 
HETATM   10  C   UNL     1     -11.582  14.501  68.442  1.00  0.00    -0.326 A  
HETATM   11  C   UNL     1     -11.538  15.140  69.668  1.00  0.00    -0.335 A  
HETATM   12  C   UNL     1     -11.062  16.449  69.715  1.00  0.00    -0.305 A  
ENDBRANCH   6   7
TORSDOF 1
ENDMDL
MODEL       27
REMARK 921   NORMALIZED FREE ENERGY PREDICTED BY IDOCK:   -3.98 KCAL/MOL
REMARK 922        TOTAL FREE ENERGY PREDICTED BY IDOCK:   -4.34 KCAL/MOL
REMARK 923 INTER-LIGAND FREE ENERGY PREDICTED BY IDOCK:   -4.20 KCAL/MOL
REMARK 924 INTRA-LIGAND FREE ENERGY PREDICTED BY IDOCK:   -0.14 KCAL/MOL
REMARK 927      BINDING AFFINITY PREDICTED BY RF-SCORE:    0.00 PKD
ROOT
HETATM    1  C   UNL     1      -8.486  15.495  66.649  1.00  0.00    -0.279 C  
HETATM    2  N   UNL     1      -9.692  15.133  67.366  1.00  0.00    -0.209 NA 
HETATM    3  C   UNL     1      -9.473  14.709  68.741  1.00  0.00    -0.199 C  
HETATM    4  C   UNL     1     -10.897  14.547  69.234  1.00  0.00    -0.270 C  
HETATM    5  C   UNL     1     -11.660  15.685  68.567  1.00  0.00    -0.378 C  
HETATM    6  C   UNL     1     -10.809  16.092  67.349  1.00  0.00    -0.277 C  
ENDROOT
BRANCH   6   7
HETATM    7  C   UNL     1     -10.459  17.567  67.341  1.00  0.00    -0.342 A  
HETATM    8  C   UNL     1     -10.509  18.281  66.145  1.00  0.00    -0.383 A  
HETATM    9  N   UNL     1     -10.209  19.595  66.019  1.00  0.00    -0.482 NA 
HETATM   10  C   UNL     1      -9.837  20.242  67.141  1.00  0.00    -0.466 A  
HETATM   11  C   UNL     1      -9.761  19.638  68.383  1.00  0.00    -0.497 A  
HETATM   12  C   UNL     1     -10.080  18.286  68.481  1.00  0.00    -0.419 A  
ENDBRANCH   6   7
TORSDOF 1
ENDMDL
MODEL       28
REMARK 921   NORMALIZED FREE ENERGY PREDICTED BY IDOCK:   -3.95 KCAL/MOL
REMARK 922        TOTAL FREE ENERGY PREDICTED BY IDOCK:   -4.31 KCAL/MOL
REMARK 923 INTER-LIGAND FREE ENERGY PREDICTED BY IDOCK:   -4.17 KCAL/MOL
REMARK 924 INTRA-LIGAND FREE ENERGY PREDICTED BY IDOCK:   -0.14 KCAL/MOL
REMARK 927      BINDING AFFINITY PREDICTED BY RF-SCORE:    0.00 PKD
ROOT
HETATM    1  C   UNL     1     -10.469  18.331  66.315  1.00  0.00    -0.376 C  
HETATM    2  N   UNL     1      -9.254  17.599  66.606  1.00  0.00    -0.263 NA 
HETATM    3  C   UNL     1      -8.888  17.571  68.015  1.00  0.00    -0.258 C  
HETATM    4  C   UNL     1      -7.694  16.637  67.996  1.00  0.00    -0.168 C  
HETATM    5  C   UNL     1      -8.055  15.583  66.956  1.00  0.00    -0.272 C  
HETATM    6  C   UNL     1      -9.134  16.233  66.070  1.00  0.00    -0.297 C  
ENDROOT
BRANCH   6   7
HETATM    7  C   UNL     1     -10.403  15.407  65.984  1.00  0.00    -0.339 A  
HETATM    8  C   UNL     1     -11.066  15.285  64.765  1.00  0.00    -0.394 A  
HETATM    9  N   UNL     1     -12.208  14.583  64.574  1.00  0.00    -0.521 NA 
HETATM   10  C   UNL     1     -12.726  13.965  65.654  1.00  0.00    -0.495 A  
HETATM   11  C   UNL     1     -12.150  14.009  66.911  1.00  0.00    -0.465 A  
HETATM   12  C   UNL     1     -10.972  14.736  67.073  1.00  0.00    -0.324 A  
ENDBRANCH   6   7
TORSDOF 1
ENDMDL
MODEL       29
REMARK 921   NORMALIZED FREE ENERGY PREDICTED BY IDOCK:   -3.95 KCAL/MOL
REMARK 922        TOTAL FREE ENERGY PREDICTED BY IDOCK:   -4.31 KCAL/MOL
REMARK 923 INTER-LIGAND FREE ENERGY PREDICTED BY IDOCK:   -4.22 KCAL/MOL
REMARK 924 INTRA-LIGAND FREE ENERGY PREDICTED BY IDOCK:   -0.09 KCAL/MOL
REMARK 927      BINDING AFFINITY PREDICTED BY RF-SCORE:    0.00 PKD
ROOT
HETATM    1  C   UNL     1     -11.624  12.075  65.217  1.00  0.00    -0.279 C  
HETATM    2  N   UNL     1     -12.009  12.118  66.613  1.00  0.00    -0.629 NA 
HETATM    3  C   UNL     1     -11.337  11.139  67.455  1.00  0.00    -0.278 C  
HETATM    4  C   UNL     1     -11.838  11.533  68.831  1.00  0.00    -0.406 C  
HETATM    5  C   UNL     1     -11.900  13.055  68.788  1.00  0.00    -0.355 C  
HETATM    6  C   UNL     1     -11.964  13.423  67.294  1.00  0.00    -0.347 C  
ENDROOT
BRANCH   6   7
HETATM    7  C   UNL     1     -10.871  14.387  66.876  1.00  0.00    -0.301 A  
HETATM    8  C   UNL     1     -11.125  15.330  65.882  1.00  0.00    -0.287 A  
HETATM    9  N   UNL     1     -10.224  16.231  65.425  1.00  0.00    -0.568 NA 
HETATM   10  C   UNL     1      -8.997  16.197  65.983  1.00  0.00    -0.298 A  
HETATM   11  C   UNL     1      -8.635  15.312  66.982  1.00  0.00    -0.256 A  
HETATM   12  C   UNL     1      -9.587  14.400  67.435  1.00  0.00    -0.216 A  
ENDBRANCH   6   7
TORSDOF 1
ENDMDL
MODEL       30
REMARK 921   NORMALIZED FREE ENERGY PREDICTED BY IDOCK:   -3.93 KCAL/MOL
REMARK 922        TOTAL FREE ENERGY PREDICTED BY IDOCK:   -4.29 KCAL/MOL
REMARK 923 INTER-LIGAND FREE ENERGY PREDICTED BY IDOCK:   -4.15 KCAL/MOL
REMARK 924 INTRA-LIGAND FREE ENERGY PREDICTED BY IDOCK:   -0.15 KCAL/MOL
REMARK 927      BINDING AFFINITY PREDICTED BY RF-SCORE:    0.00 PKD
ROOT
HETATM    1  C   UNL     1      -8.916  11.115  62.662  1.00  0.00    -0.308 C  
HETATM    2  N   UNL     1      -9.145  10.403  63.902  1.00  0.00    -0.223 NA 
HETATM    3  C   UNL     1      -8.033  10.452  64.841  1.00  0.00    -0.115 C  
HETATM    4  C   UNL     1      -8.630   9.758  66.049  1.00  0.00    -0.146 C  
HETATM    5  C   UNL     1     -10.081  10.225  66.073  1.00  0.00    -0.311 C  
HETATM    6  C   UNL     1     -10.386  10.696  64.639  1.00  0.00    -0.283 C  
ENDROOT
BRANCH   6   7
HETATM    7  C   UNL     1     -10.906  12.119  64.584  1.00  0.00    -0.351 A  
HETATM    8  C   UNL     1     -12.002  12.422  63.778  1.00  0.00    -0.514 A  
HETATM    9  N   UNL     1     -12.544  13.655  63.645  1.00  0.00    -0.744 NA 
HETATM   10  C   UNL     1     -11.968  14.649  64.350  1.00  0.00    -0.437 A  
HETATM   11  C   UNL     1     -10.883  14.464  65.188  1.00  0.00    -0.397 A  
HETATM   12  C   UNL     1     -10.351  13.182  65.307  1.00  0.00    -0.319 A  
ENDBRANCH   6   7
TORSDOF 1
ENDMDL
MODEL       31
REMARK 921   NORMALIZED FREE ENERGY PREDICTED BY IDOCK:   -3.92 KCAL/MOL
REMARK 922        TOTAL FREE ENERGY PREDICTED BY IDOCK:   -4.28 KCAL/MOL
REMARK 923 INTER-LIGAND FREE ENERGY PREDICTED BY IDOCK:   -4.14 KCAL/MOL
REMARK 924 INTRA-LIGAND FREE ENERGY PREDICTED BY IDOCK:   -0.13 KCAL/MOL
REMARK 927      BINDING AFFINITY PREDICTED BY RF-SCORE:    0.00 PKD
ROOT
HETATM    1  C   UNL     1     -14.219   8.769  72.300  1.00  0.00    -0.420 C  
HETATM    2  N   UNL     1     -13.305   9.342  71.334  1.00  0.00    -0.348 NA 
HETATM    3  C   UNL     1     -12.826  10.675  71.673  1.00  0.00    -0.465 C  
HETATM    4  C   UNL     1     -11.813  10.918  70.571  1.00  0.00    -0.457 C  
HETATM    5  C   UNL     1     -11.155   9.559  70.357  1.00  0.00    -0.330 C  
HETATM    6  C   UNL     1     -12.150   8.527  70.920  1.00  0.00    -0.139 C  
ENDROOT
BRANCH   6   7
HETATM    7  C   UNL     1     -11.531   7.619  71.964  1.00  0.00    -0.327 A  
HETATM    8  C   UNL     1     -11.859   6.265  71.982  1.00  0.00    -0.318 A  
HETATM    9  N   UNL     1     -11.374   5.366  72.872  1.00  0.00    -0.310 NA 
HETATM   10  C   UNL     1     -10.515   5.834  73.799  1.00  0.00    -0.271 A  
HETATM   11  C   UNL     1     -10.112   7.156  73.871  1.00  0.00    -0.359 A  
HETATM   12  C   UNL     1     -10.624   8.055  72.939  1.00  0.00    -0.399 A  
ENDBRANCH   6   7
TORSDOF 1
ENDMDL
MODEL       32
REMARK 921   NORMALIZED FREE ENERGY PREDICTED BY IDOCK:   -3.91 KCAL/MOL
REMARK 922        TOTAL FREE ENERGY PREDICTED BY IDOCK:   -4.27 KCAL/MOL
REMARK 923 INTER-LIGAND FREE ENERGY PREDICTED BY IDOCK:   -4.20 KCAL/MOL
REMARK 924 INTRA-LIGAND FREE ENERGY PREDICTED BY IDOCK:   -0.07 KCAL/MOL
REMARK 927      BINDING AFFINITY PREDICTED BY RF-SCORE:    0.00 PKD
ROOT
HETATM    1  C   UNL     1      -9.610  13.157  67.016  1.00  0.00    -0.241 C  
HETATM    2  N   UNL     1     -10.955  13.279  66.492  1.00  0.00    -0.284 NA 
HETATM    3  C   UNL     1     -11.197  14.495  65.728  1.00  0.00    -0.334 C  
HETATM    4  C   UNL     1     -12.604  14.252  65.218  1.00  0.00    -0.405 C  
HETATM    5  C   UNL     1     -12.642  12.760  64.909  1.00  0.00    -0.541 C  
HETATM    6  C   UNL     1     -11.499  12.140  65.735  1.00  0.00    -0.361 C  
ENDROOT
BRANCH   6   7
HETATM    7  C   UNL     1     -10.527  11.341  64.889  1.00  0.00    -0.375 A  
HETATM    8  C   UNL     1     -10.222  11.769  63.598  1.00  0.00    -0.428 A  
HETATM    9  N   UNL     1      -9.377  11.131  62.754  1.00  0.00    -0.350 NA 
HETATM   10  C   UNL     1      -8.800  10.002  63.212  1.00  0.00    -0.237 A  
HETATM   11  C   UNL     1      -9.022   9.488  64.477  1.00  0.00    -0.256 A  
HETATM   12  C   UNL     1      -9.892  10.171  65.324  1.00  0.00    -0.388 A  
ENDBRANCH   6   7
TORSDOF 1
ENDMDL
MODEL       33
REMARK 921   NORMALIZED FREE ENERGY PREDICTED BY IDOCK:   -3.91 KCAL/MOL
REMARK 922        TOTAL FREE ENERGY PREDICTED BY IDOCK:   -4.26 KCAL/MOL
REMARK 923 INTER-LIGAND FREE ENERGY PREDICTED BY IDOCK:   -4.21 KCAL/MOL
REMARK 924 INTRA-LIGAND FREE ENERGY PREDICTED BY IDOCK:   -0.05 KCAL/MOL
REMARK 927      BINDING AFFINITY PREDICTED BY RF-SCORE:    0.00 PKD
ROOT
HETATM    1  C   UNL     1     -10.500  14.309  68.616  1.00  0.00    -0.249 C  
HETATM    2  N   UNL     1     -10.763  13.760  67.302  1.00  0.00    -0.281 NA 
HETATM    3  C   UNL     1     -12.159  13.815  66.892  1.00  0.00    -0.413 C  
HETATM    4  C   UNL     1     -12.072  13.313  65.464  1.00  0.00    -0.480 C  
HETATM    5  C   UNL     1     -10.770  13.904  64.935  1.00  0.00    -0.422 C  
HETATM    6  C   UNL     1      -9.934  14.240  66.184  1.00  0.00    -0.314 C  
ENDROOT
BRANCH   6   7
HETATM    7  C   UNL     1      -9.487  15.688  66.222  1.00  0.00    -0.351 A  
HETATM    8  C   UNL     1     -10.416  16.703  66.003  1.00  0.00    -0.298 A  
HETATM    9  N   UNL     1     -10.129  18.026  66.005  1.00  0.00    -0.553 NA 
HETATM   10  C   UNL     1      -8.845  18.366  66.236  1.00  0.00    -0.188 A  
HETATM   11  C   UNL     1      -7.840  17.446  66.475  1.00  0.00    -0.320 A  
HETATM   12  C   UNL     1      -8.169  16.092  66.471  1.00  0.00    -0.343 A  
ENDBRANCH   6   7
TORSDOF 1
ENDMDL
MODEL       34
REMARK 921   NORMALIZED FREE ENERGY PREDICTED BY IDOCK:   -3.90 KCAL/MOL
REMARK 922        TOTAL FREE ENERGY PREDICTED BY IDOCK:   -4.25 KCAL/MOL
REMARK 923 INTER-LIGAND FREE ENERGY PREDICTED BY IDOCK:   -4.16 KCAL/MOL
REMARK 924 INTRA-LIGAND FREE ENERGY PREDICTED BY IDOCK:   -0.09 KCAL/MOL
REMARK 927      BINDING AFFINITY PREDICTED BY RF-SCORE:    0.00 PKD
ROOT
HETATM    1  C   UNL     1     -12.133  14.133  64.872  1.00  0.00    -0.428 C  
HETATM    2  N   UNL     1     -12.213  13.701  66.252  1.00  0.00    -0.438 NA 
HETATM    3  C   UNL     1     -11.683  12.367  66.498  1.00  0.00    -0.379 C  
HETATM    4  C   UNL     1     -11.781  12.281  68.009  1.00  0.00    -0.417 C  
HETATM    5  C   UNL     1     -11.432  13.684  68.491  1.00  0.00    -0.347 C  
HETATM    6  C   UNL     1     -11.683  14.607  67.283  1.00  0.00    -0.385 C  
ENDROOT
BRANCH   6   7
HETATM    7  C   UNL     1     -10.470  15.442  66.918  1.00  0.00    -0.295 A  
HETATM    8  C   UNL     1     -10.646  16.730  66.416  1.00  0.00    -0.192 A  
HETATM    9  N   UNL     1      -9.639  17.558  66.049  1.00  0.00    -0.509 NA 
HETATM   10  C   UNL     1      -8.384  17.084  66.187  1.00  0.00    -0.241 A  
HETATM   11  C   UNL     1      -8.091  15.826  66.682  1.00  0.00    -0.282 A  
HETATM   12  C   UNL     1      -9.149  15.000  67.055  1.00  0.00    -0.249 A  
ENDBRANCH   6   7
TORSDOF 1
ENDMDL
MODEL       35
REMARK 921   NORMALIZED FREE ENERGY PREDICTED BY IDOCK:   -3.89 KCAL/MOL
REMARK 922        TOTAL FREE ENERGY PREDICTED BY IDOCK:   -4.25 KCAL/MOL
REMARK 923 INTER-LIGAND FREE ENERGY PREDICTED BY IDOCK:   -4.18 KCAL/MOL
REMARK 924 INTRA-LIGAND FREE ENERGY PREDICTED BY IDOCK:   -0.06 KCAL/MOL
REMARK 927      BINDING AFFINITY PREDICTED BY RF-SCORE:    0.00 PKD
ROOT
HETATM    1  C   UNL     1     -14.341   8.101  71.339  1.00  0.00    -0.365 C  
HETATM    2  N   UNL     1     -13.110   7.729  72.004  1.00  0.00    -0.251 NA 
HETATM    3  C   UNL     1     -12.328   6.718  71.307  1.00  0.00    -0.344 C  
HETATM    4  C   UNL     1     -11.078   6.663  72.162  1.00  0.00    -0.288 C  
HETATM    5  C   UNL     1     -10.841   8.110  72.577  1.00  0.00    -0.431 C  
HETATM    6  C   UNL     1     -12.202   8.813  72.416  1.00  0.00    -0.326 C  
ENDROOT
BRANCH   6   7
HETATM    7  C   UNL     1     -12.132  10.037  71.524  1.00  0.00    -0.475 A  
HETATM    8  C   UNL     1     -11.251  10.054  70.444  1.00  0.00    -0.323 A  
HETATM    9  N   UNL     1     -11.098  11.093  69.590  1.00  0.00    -0.250 NA 
HETATM   10  C   UNL     1     -11.862  12.181  69.816  1.00  0.00    -0.327 A  
HETATM   11  C   UNL     1     -12.776  12.272  70.851  1.00  0.00    -0.277 A  
HETATM   12  C   UNL     1     -12.913  11.184  71.710  1.00  0.00    -0.526 A  
ENDBRANCH   6   7
TORSDOF 1
ENDMDL
MODEL       36
REMARK 921   NORMALIZED FREE ENERGY PREDICTED BY IDOCK:   -3.88 KCAL/MOL
REMARK 922        TOTAL FREE ENERGY PREDICTED BY IDOCK:   -4.23 KCAL/MOL
REMARK 923 INTER-LIGAND FREE ENERGY PREDICTED BY IDOCK:   -4.09 KCAL/MOL
REMARK 924 INTRA-LIGAND FREE ENERGY PREDICTED BY IDOCK:   -0.14 KCAL/MOL
REMARK 927      BINDING AFFINITY PREDICTED BY RF-SCORE:    0.00 PKD
ROOT
HETATM    1  C   UNL     1     -14.341   8.101  71.339  1.00  0.00    -0.365 C  
HETATM    2  N   UNL     1     -13.110   7.729  72.004  1.00  0.00    -0.251 NA 
HETATM    3  C   UNL     1     -12.328   6.718  71.307  1.00  0.00    -0.344 C  
HETATM    4  C   UNL     1     -11.078   6.663  72.162  1.00  0.00    -0.288 C  
HETATM    5  C   UNL     1     -10.841   8.110  72.577  1.00  0.00    -0.431 C  
HETATM    6  C   UNL     1     -12.202   8.813  72.416  1.00  0.00    -0.326 C  
ENDROOT
BRANCH   6   7
HETATM    7  C   UNL     1     -12.132  10.037  71.524  1.00  0.00    -0.475 A  
HETATM    8  C   UNL     1     -12.831  11.189  71.878  1.00  0.00    -0.294 A  
HETATM    9  N   UNL     1     -12.847  12.334  71.154  1.00  0.00    -0.279 NA 
HETATM   10  C   UNL     1     -12.131  12.339  70.012  1.00  0.00    -0.273 A  
HETATM   11  C   UNL     1     -11.393  11.257  69.567  1.00  0.00    -0.362 A  
HETATM   12  C   UNL     1     -11.392  10.096  70.337  1.00  0.00    -0.401 A  
ENDBRANCH   6   7
TORSDOF 1
ENDMDL
MODEL       37
REMARK 921   NORMALIZED FREE ENERGY PREDICTED BY IDOCK:   -3.87 KCAL/MOL
REMARK 922        TOTAL FREE ENERGY PREDICTED BY IDOCK:   -4.23 KCAL/MOL
REMARK 923 INTER-LIGAND FREE ENERGY PREDICTED BY IDOCK:   -4.15 KCAL/MOL
REMARK 924 INTRA-LIGAND FREE ENERGY PREDICTED BY IDOCK:   -0.08 KCAL/MOL
REMARK 927      BINDING AFFINITY PREDICTED BY RF-SCORE:    0.00 PKD
ROOT
HETATM    1  C   UNL     1     -12.097  13.007  63.504  1.00  0.00    -0.542 C  
HETATM    2  N   UNL     1     -11.411  11.807  63.938  1.00  0.00    -0.401 NA 
HETATM    3  C   UNL     1     -10.140  11.564  63.271  1.00  0.00    -0.406 C  
HETATM    4  C   UNL     1      -9.630  10.355  64.031  1.00  0.00    -0.376 C  
HETATM    5  C   UNL     1     -10.059  10.606  65.472  1.00  0.00    -0.343 C  
HETATM    6  C   UNL     1     -11.218  11.617  65.385  1.00  0.00    -0.199 C  
ENDROOT
BRANCH   6   7
HETATM    7  C   UNL     1     -10.981  12.859  66.223  1.00  0.00    -0.305 A  
HETATM    8  C   UNL     1      -9.696  13.390  66.322  1.00  0.00    -0.272 A  
HETATM    9  N   UNL     1      -9.368  14.486  67.046  1.00  0.00    -0.228 NA 
HETATM   10  C   UNL     1     -10.370  15.092  67.715  1.00  0.00    -0.245 A  
HETATM   11  C   UNL     1     -11.683  14.659  67.683  1.00  0.00    -0.389 A  
HETATM   12  C   UNL     1     -11.989  13.531  66.924  1.00  0.00    -0.447 A  
ENDBRANCH   6   7
TORSDOF 1
ENDMDL
MODEL       38
REMARK 921   NORMALIZED FREE ENERGY PREDICTED BY IDOCK:   -3.87 KCAL/MOL
REMARK 922        TOTAL FREE ENERGY PREDICTED BY IDOCK:   -4.22 KCAL/MOL
REMARK 923 INTER-LIGAND FREE ENERGY PREDICTED BY IDOCK:   -4.16 KCAL/MOL
REMARK 924 INTRA-LIGAND FREE ENERGY PREDICTED BY IDOCK:   -0.07 KCAL/MOL
REMARK 927      BINDING AFFINITY PREDICTED BY RF-SCORE:    0.00 PKD
ROOT
HETATM    1  C   UNL     1     -10.042  12.377  68.207  1.00  0.00    -0.227 C  
HETATM    2  N   UNL     1      -9.695  11.346  67.251  1.00  0.00    -0.184 NA 
HETATM    3  C   UNL     1     -10.509  10.142  67.338  1.00  0.00    -0.256 C  
HETATM    4  C   UNL     1     -10.002   9.351  66.148  1.00  0.00    -0.351 C  
HETATM    5  C   UNL     1      -9.748  10.404  65.075  1.00  0.00    -0.362 C  
HETATM    6  C   UNL     1      -9.595  11.735  65.834  1.00  0.00    -0.230 C  
ENDROOT
BRANCH   6   7
HETATM    7  C   UNL     1     -10.547  12.808  65.340  1.00  0.00    -0.309 A  
HETATM    8  C   UNL     1     -11.818  12.451  64.895  1.00  0.00    -0.386 A  
HETATM    9  N   UNL     1     -12.743  13.321  64.426  1.00  0.00    -0.667 NA 
HETATM   10  C   UNL     1     -12.390  14.621  64.393  1.00  0.00    -0.398 A  
HETATM   11  C   UNL     1     -11.160  15.092  64.817  1.00  0.00    -0.388 A  
HETATM   12  C   UNL     1     -10.232  14.172  65.300  1.00  0.00    -0.400 A  
ENDBRANCH   6   7
TORSDOF 1
ENDMDL
MODEL       39
REMARK 921   NORMALIZED FREE ENERGY PREDICTED BY IDOCK:   -3.86 KCAL/MOL
REMARK 922        TOTAL FREE ENERGY PREDICTED BY IDOCK:   -4.22 KCAL/MOL
REMARK 923 INTER-LIGAND FREE ENERGY PREDICTED BY IDOCK:   -4.23 KCAL/MOL
REMARK 924 INTRA-LIGAND FREE ENERGY PREDICTED BY IDOCK:    0.01 KCAL/MOL
REMARK 927      BINDING AFFINITY PREDICTED BY RF-SCORE:    0.00 PKD
ROOT
HETATM    1  C   UNL     1      -9.417  12.117  65.766  1.00  0.00    -0.147 C  
HETATM    2  N   UNL     1     -10.329  12.604  64.752  1.00  0.00    -0.309 NA 
HETATM    3  C   UNL     1     -11.466  11.731  64.492  1.00  0.00    -0.250 C  
HETATM    4  C   UNL     1     -12.272  12.570  63.520  1.00  0.00    -0.652 C  
HETATM    5  C   UNL     1     -12.104  13.998  64.026  1.00  0.00    -0.413 C  
HETATM    6  C   UNL     1     -10.827  13.983  64.886  1.00  0.00    -0.410 C  
ENDROOT
BRANCH   6   7
HETATM    7  C   UNL     1     -11.055  14.505  66.291  1.00  0.00    -0.332 A  
HETATM    8  C   UNL     1     -10.447  15.693  66.693  1.00  0.00    -0.301 A  
HETATM    9  N   UNL     1     -10.574  16.246  67.922  1.00  0.00    -0.309 NA 
HETATM   10  C   UNL     1     -11.346  15.585  68.808  1.00  0.00    -0.334 A  
HETATM   11  C   UNL     1     -12.004  14.403  68.517  1.00  0.00    -0.333 A  
HETATM   12  C   UNL     1     -11.858  13.862  67.242  1.00  0.00    -0.442 A  
ENDBRANCH   6   7
TORSDOF 1
ENDMDL
MODEL       40
REMARK 921   NORMALIZED FREE ENERGY PREDICTED BY IDOCK:   -3.86 KCAL/MOL
REMARK 922        TOTAL FREE ENERGY PREDICTED BY IDOCK:   -4.22 KCAL/MOL
REMARK 923 INTER-LIGAND FREE ENERGY PREDICTED BY IDOCK:   -4.11 KCAL/MOL
REMARK 924 INTRA-LIGAND FREE ENERGY PREDICTED BY IDOCK:   -0.10 KCAL/MOL
REMARK 927      BINDING AFFINITY PREDICTED BY RF-SCORE:    0.00 PKD
ROOT
HETATM    1  C   UNL     1      -9.127  15.359  69.402  1.00  0.00    -0.258 C  
HETATM    2  N   UNL     1      -9.567  16.686  69.024  1.00  0.00    -0.261 NA 
HETATM    3  C   UNL     1      -8.521  17.536  68.474  1.00  0.00    -0.280 C  
HETATM    4  C   UNL     1      -9.315  18.760  68.061  1.00  0.00    -0.340 C  
HETATM    5  C   UNL     1     -10.631  18.196  67.537  1.00  0.00    -0.419 C  
HETATM    6  C   UNL     1     -10.752  16.791  68.156  1.00  0.00    -0.361 C  
ENDROOT
BRANCH   6   7
HETATM    7  C   UNL     1     -10.951  15.704  67.118  1.00  0.00    -0.270 A  
HETATM    8  C   UNL     1     -11.765  14.612  67.410  1.00  0.00    -0.390 A  
HETATM    9  N   UNL     1     -12.006  13.582  66.565  1.00  0.00    -0.400 NA 
HETATM   10  C   UNL     1     -11.405  13.634  65.359  1.00  0.00    -0.301 A  
HETATM   11  C   UNL     1     -10.584  14.672  64.958  1.00  0.00    -0.461 A  
HETATM   12  C   UNL     1     -10.360  15.720  65.848  1.00  0.00    -0.372 A  
ENDBRANCH   6   7
TORSDOF 1
ENDMDL
MODEL       41
REMARK 921   NORMALIZED FREE ENERGY PREDICTED BY IDOCK:   -3.84 KCAL/MOL
REMARK 922        TOTAL FREE ENERGY PREDICTED BY IDOCK:   -4.20 KCAL/MOL
REMARK 923 INTER-LIGAND FREE ENERGY PREDICTED BY IDOCK:   -4.34 KCAL/MOL
REMARK 924 INTRA-LIGAND FREE ENERGY PREDICTED BY IDOCK:    0.14 KCAL/MOL
REMARK 927      BINDING AFFINITY PREDICTED BY RF-SCORE:    0.00 PKD
ROOT
HETATM    1  C   UNL     1      -9.514  15.325  68.838  1.00  0.00    -0.218 C  
HETATM    2  N   UNL     1     -10.220  15.468  67.581  1.00  0.00    -0.252 NA 
HETATM    3  C   UNL     1      -9.424  15.154  66.403  1.00  0.00    -0.296 C  
HETATM    4  C   UNL     1     -10.462  15.259  65.303  1.00  0.00    -0.436 C  
HETATM    5  C   UNL     1     -11.732  14.692  65.928  1.00  0.00    -0.301 C  
HETATM    6  C   UNL     1     -11.524  14.798  67.450  1.00  0.00    -0.363 C  
ENDROOT
BRANCH   6   7
HETATM    7  C   UNL     1     -11.698  13.471  68.163  1.00  0.00    -0.396 A  
HETATM    8  C   UNL     1     -11.706  12.288  67.426  1.00  0.00    -0.335 A  
HETATM    9  N   UNL     1     -11.862  11.052  67.954  1.00  0.00    -0.608 NA 
HETATM   10  C   UNL     1     -12.021  10.980  69.291  1.00  0.00    -0.339 A  
HETATM   11  C   UNL     1     -12.020  12.085  70.122  1.00  0.00    -0.401 A  
HETATM   12  C   UNL     1     -11.852  13.343  69.549  1.00  0.00    -0.391 A  
ENDBRANCH   6   7
TORSDOF 1
ENDMDL
MODEL       42
REMARK 921   NORMALIZED FREE ENERGY PREDICTED BY IDOCK:   -3.84 KCAL/MOL
REMARK 922        TOTAL FREE ENERGY PREDICTED BY IDOCK:   -4.19 KCAL/MOL
REMARK 923 INTER-LIGAND FREE ENERGY PREDICTED BY IDOCK:   -4.06 KCAL/MOL
REMARK 924 INTRA-LIGAND FREE ENERGY PREDICTED BY IDOCK:   -0.14 KCAL/MOL
REMARK 927      BINDING AFFINITY PREDICTED BY RF-SCORE:    0.00 PKD
ROOT
HETATM    1  C   UNL     1      -9.222   8.587  72.126  1.00  0.00    -0.266 C  
HETATM    2  N   UNL     1     -10.214   7.589  71.782  1.00  0.00    -0.187 NA 
HETATM    3  C   UNL     1     -10.849   6.950  72.926  1.00  0.00    -0.285 C  
HETATM    4  C   UNL     1     -11.899   6.094  72.246  1.00  0.00    -0.326 C  
HETATM    5  C   UNL     1     -12.387   6.950  71.082  1.00  0.00    -0.419 C  
HETATM    6  C   UNL     1     -11.264   7.972  70.824  1.00  0.00    -0.265 C  
ENDROOT
BRANCH   6   7
HETATM    7  C   UNL     1     -11.752   9.407  70.865  1.00  0.00    -0.378 A  
HETATM    8  C   UNL     1     -11.271  10.326  69.935  1.00  0.00    -0.299 A  
HETATM    9  N   UNL     1     -11.630  11.630  69.883  1.00  0.00    -0.302 NA 
HETATM   10  C   UNL     1     -12.516  12.052  70.808  1.00  0.00    -0.279 A  
HETATM   11  C   UNL     1     -13.066  11.228  71.773  1.00  0.00    -0.527 A  
HETATM   12  C   UNL     1     -12.681   9.889  71.796  1.00  0.00    -0.523 A  
ENDBRANCH   6   7
TORSDOF 1
ENDMDL
MODEL       43
REMARK 921   NORMALIZED FREE ENERGY PREDICTED BY IDOCK:   -3.82 KCAL/MOL
REMARK 922        TOTAL FREE ENERGY PREDICTED BY IDOCK:   -4.17 KCAL/MOL
REMARK 923 INTER-LIGAND FREE ENERGY PREDICTED BY IDOCK:   -4.14 KCAL/MOL
REMARK 924 INTRA-LIGAND FREE ENERGY PREDICTED BY IDOCK:   -0.03 KCAL/MOL
REMARK 927      BINDING AFFINITY PREDICTED BY RF-SCORE:    0.00 PKD
ROOT
HETATM    1  C   UNL     1      -9.354  12.537  66.467  1.00  0.00    -0.233 C  
HETATM    2  N   UNL     1     -10.394  12.802  65.495  1.00  0.00    -0.281 NA 
HETATM    3  C   UNL     1     -11.653  12.119  65.755  1.00  0.00    -0.355 C  
HETATM    4  C   UNL     1     -12.540  12.703  64.673  1.00  0.00    -0.517 C  
HETATM    5  C   UNL     1     -12.106  14.161  64.576  1.00  0.00    -0.489 C  
HETATM    6  C   UNL     1     -10.688  14.209  65.176  1.00  0.00    -0.388 C  
ENDROOT
BRANCH   6   7
HETATM    7  C   UNL     1     -10.557  15.218  66.300  1.00  0.00    -0.312 A  
HETATM    8  C   UNL     1     -11.458  15.187  67.363  1.00  0.00    -0.277 A  
HETATM    9  N   UNL     1     -11.441  16.042  68.413  1.00  0.00    -0.362 NA 
HETATM   10  C   UNL     1     -10.477  16.984  68.411  1.00  0.00    -0.370 A  
HETATM   11  C   UNL     1      -9.525  17.104  67.415  1.00  0.00    -0.247 A  
HETATM   12  C   UNL     1      -9.566  16.206  66.351  1.00  0.00    -0.312 A  
ENDBRANCH   6   7
TORSDOF 1
ENDMDL
MODEL       44
REMARK 921   NORMALIZED FREE ENERGY PREDICTED BY IDOCK:   -3.80 KCAL/MOL
REMARK 922        TOTAL FREE ENERGY PREDICTED BY IDOCK:   -4.15 KCAL/MOL
REMARK 923 INTER-LIGAND FREE ENERGY PREDICTED BY IDOCK:   -4.09 KCAL/MOL
REMARK 924 INTRA-LIGAND FREE ENERGY PREDICTED BY IDOCK:   -0.06 KCAL/MOL
REMARK 927      BINDING AFFINITY PREDICTED BY RF-SCORE:    0.00 PKD
ROOT
HETATM    1  C   UNL     1     -10.550  19.408  65.832  1.00  0.00    -0.459 C  
HETATM    2  N   UNL     1      -9.393  19.262  66.691  1.00  0.00    -0.325 NA 
HETATM    3  C   UNL     1      -9.533  19.876  68.003  1.00  0.00    -0.351 C  
HETATM    4  C   UNL     1      -8.251  19.432  68.680  1.00  0.00    -0.399 C  
HETATM    5  C   UNL     1      -8.029  18.012  68.174  1.00  0.00    -0.270 C  
HETATM    6  C   UNL     1      -8.842  17.908  66.870  1.00  0.00    -0.253 C  
ENDROOT
BRANCH   6   7
HETATM    7  C   UNL     1      -9.825  16.754  66.878  1.00  0.00    -0.269 A  
HETATM    8  C   UNL     1     -10.650  16.558  67.984  1.00  0.00    -0.328 A  
HETATM    9  N   UNL     1     -11.556  15.559  68.103  1.00  0.00    -0.341 NA 
HETATM   10  C   UNL     1     -11.651  14.701  67.067  1.00  0.00    -0.371 A  
HETATM   11  C   UNL     1     -10.890  14.803  65.916  1.00  0.00    -0.331 A  
HETATM   12  C   UNL     1      -9.971  15.845  65.822  1.00  0.00    -0.391 A  
ENDBRANCH   6   7
TORSDOF 1
ENDMDL
MODEL       45
REMARK 921   NORMALIZED FREE ENERGY PREDICTED BY IDOCK:   -3.77 KCAL/MOL
REMARK 922        TOTAL FREE ENERGY PREDICTED BY IDOCK:   -4.12 KCAL/MOL
REMARK 923 INTER-LIGAND FREE ENERGY PREDICTED BY IDOCK:   -3.99 KCAL/MOL
REMARK 924 INTRA-LIGAND FREE ENERGY PREDICTED BY IDOCK:   -0.14 KCAL/MOL
REMARK 927      BINDING AFFINITY PREDICTED BY RF-SCORE:    0.00 PKD
ROOT
HETATM    1  C   UNL     1      -9.323  10.776  65.802  1.00  0.00    -0.203 C  
HETATM    2  N   UNL     1     -10.118  10.747  67.012  1.00  0.00    -0.200 NA 
HETATM    3  C   UNL     1      -9.421  11.211  68.204  1.00  0.00    -0.180 C  
HETATM    4  C   UNL     1     -10.537  11.192  69.230  1.00  0.00    -0.212 C  
HETATM    5  C   UNL     1     -11.769  11.647  68.456  1.00  0.00    -0.378 C  
HETATM    6  C   UNL     1     -11.444  11.385  66.974  1.00  0.00    -0.156 C  
ENDROOT
BRANCH   6   7
HETATM    7  C   UNL     1     -11.595  12.622  66.109  1.00  0.00    -0.445 A  
HETATM    8  C   UNL     1     -12.350  12.557  64.940  1.00  0.00    -0.470 A  
HETATM    9  N   UNL     1     -12.545  13.593  64.090  1.00  0.00    -0.674 NA 
HETATM   10  C   UNL     1     -11.957  14.762  64.415  1.00  0.00    -0.417 A  
HETATM   11  C   UNL     1     -11.193  14.944  65.554  1.00  0.00    -0.348 A  
HETATM   12  C   UNL     1     -11.016  13.860  66.411  1.00  0.00    -0.303 A  
ENDBRANCH   6   7
TORSDOF 1
ENDMDL
MODEL       46
REMARK 921   NORMALIZED FREE ENERGY PREDICTED BY IDOCK:   -3.77 KCAL/MOL
REMARK 922        TOTAL FREE ENERGY PREDICTED BY IDOCK:   -4.12 KCAL/MOL
REMARK 923 INTER-LIGAND FREE ENERGY PREDICTED BY IDOCK:   -4.00 KCAL/MOL
REMARK 924 INTRA-LIGAND FREE ENERGY PREDICTED BY IDOCK:   -0.12 KCAL/MOL
REMARK 927      BINDING AFFINITY PREDICTED BY RF-SCORE:    0.00 PKD
ROOT
HETATM    1  C   UNL     1     -12.510  13.643  66.001  1.00  0.00    -0.426 C  
HETATM    2  N   UNL     1     -12.016  12.388  66.527  1.00  0.00    -0.605 NA 
HETATM    3  C   UNL     1     -10.814  11.890  65.873  1.00  0.00    -0.297 C  
HETATM    4  C   UNL     1     -10.489  10.679  66.726  1.00  0.00    -0.303 C  
HETATM    5  C   UNL     1     -10.842  11.111  68.144  1.00  0.00    -0.266 C  
HETATM    6  C   UNL     1     -11.826  12.285  67.984  1.00  0.00    -0.305 C  
ENDROOT
BRANCH   6   7
HETATM    7  C   UNL     1     -11.376  13.535  68.715  1.00  0.00    -0.329 A  
HETATM    8  C   UNL     1     -12.236  14.149  69.624  1.00  0.00    -0.326 A  
HETATM    9  N   UNL     1     -11.944  15.270  70.325  1.00  0.00    -0.304 NA 
HETATM   10  C   UNL     1     -10.730  15.818  70.113  1.00  0.00    -0.344 A  
HETATM   11  C   UNL     1      -9.794  15.291  69.242  1.00  0.00    -0.255 A  
HETATM   12  C   UNL     1     -10.122  14.133  68.540  1.00  0.00    -0.243 A  
ENDBRANCH   6   7
TORSDOF 1
ENDMDL
MODEL       47
REMARK 921   NORMALIZED FREE ENERGY PREDICTED BY IDOCK:   -3.76 KCAL/MOL
REMARK 922        TOTAL FREE ENERGY PREDICTED BY IDOCK:   -4.11 KCAL/MOL
REMARK 923 INTER-LIGAND FREE ENERGY PREDICTED BY IDOCK:   -4.04 KCAL/MOL
REMARK 924 INTRA-LIGAND FREE ENERGY PREDICTED BY IDOCK:   -0.07 KCAL/MOL
REMARK 927      BINDING AFFINITY PREDICTED BY RF-SCORE:    0.00 PKD
ROOT
HETATM    1  C   UNL     1     -12.418  14.088  65.877  1.00  0.00    -0.481 C  
HETATM    2  N   UNL     1     -11.057  14.572  65.985  1.00  0.00    -0.323 NA 
HETATM    3  C   UNL     1     -10.881  15.968  65.610  1.00  0.00    -0.266 C  
HETATM    4  C   UNL     1      -9.424  16.191  65.962  1.00  0.00    -0.374 C  
HETATM    5  C   UNL     1      -9.216  15.384  67.238  1.00  0.00    -0.217 C  
HETATM    6  C   UNL     1     -10.349  14.341  67.254  1.00  0.00    -0.260 C  
ENDROOT
BRANCH   6   7
HETATM    7  C   UNL     1     -11.172  14.384  68.527  1.00  0.00    -0.286 A  
HETATM    8  C   UNL     1     -11.595  15.611  69.034  1.00  0.00    -0.386 A  
HETATM    9  N   UNL     1     -12.324  15.769  70.163  1.00  0.00    -0.353 NA 
HETATM   10  C   UNL     1     -12.656  14.647  70.832  1.00  0.00    -0.342 A  
HETATM   11  C   UNL     1     -12.299  13.376  70.419  1.00  0.00    -0.382 A  
HETATM   12  C   UNL     1     -11.553  13.246  69.249  1.00  0.00    -0.370 A  
ENDBRANCH   6   7
TORSDOF 1
ENDMDL
MODEL       48
REMARK 921   NORMALIZED FREE ENERGY PREDICTED BY IDOCK:   -3.76 KCAL/MOL
REMARK 922        TOTAL FREE ENERGY PREDICTED BY IDOCK:   -4.10 KCAL/MOL
REMARK 923 INTER-LIGAND FREE ENERGY PREDICTED BY IDOCK:   -3.99 KCAL/MOL
REMARK 924 INTRA-LIGAND FREE ENERGY PREDICTED BY IDOCK:   -0.11 KCAL/MOL
REMARK 927      BINDING AFFINITY PREDICTED BY RF-SCORE:    0.00 PKD
ROOT
HETATM    1  C   UNL     1     -11.570   6.448  70.173  1.00  0.00    -0.381 C  
HETATM    2  N   UNL     1     -12.401   7.547  70.620  1.00  0.00    -0.070 NA 
HETATM    3  C   UNL     1     -13.522   7.152  71.463  1.00  0.00    -0.332 C  
HETATM    4  C   UNL     1     -14.085   8.502  71.863  1.00  0.00    -0.519 C  
HETATM    5  C   UNL     1     -12.855   9.384  72.049  1.00  0.00    -0.496 C  
HETATM    6  C   UNL     1     -11.732   8.697  71.249  1.00  0.00    -0.289 C  
ENDROOT
BRANCH   6   7
HETATM    7  C   UNL     1     -10.501   8.412  72.088  1.00  0.00    -0.396 A  
HETATM    8  C   UNL     1      -9.258   8.884  71.671  1.00  0.00    -0.231 A  
HETATM    9  N   UNL     1      -8.095   8.682  72.333  1.00  0.00    -0.367 NA 
HETATM   10  C   UNL     1      -8.164   7.969  73.475  1.00  0.00    -0.214 A  
HETATM   11  C   UNL     1      -9.343   7.459  73.989  1.00  0.00    -0.282 A  
HETATM   12  C   UNL     1     -10.524   7.689  73.287  1.00  0.00    -0.414 A  
ENDBRANCH   6   7
TORSDOF 1
ENDMDL
MODEL       49
REMARK 921   NORMALIZED FREE ENERGY PREDICTED BY IDOCK:   -3.76 KCAL/MOL
REMARK 922        TOTAL FREE ENERGY PREDICTED BY IDOCK:   -4.10 KCAL/MOL
REMARK 923 INTER-LIGAND FREE ENERGY PREDICTED BY IDOCK:   -3.97 KCAL/MOL
REMARK 924 INTRA-LIGAND FREE ENERGY PREDICTED BY IDOCK:   -0.14 KCAL/MOL
REMARK 927      BINDING AFFINITY PREDICTED BY RF-SCORE:    0.00 PKD
ROOT
HETATM    1  C   UNL     1     -10.026   8.515  72.320  1.00  0.00    -0.315 C  
HETATM    2  N   UNL     1     -11.463   8.338  72.371  1.00  0.00    -0.382 NA 
HETATM    3  C   UNL     1     -12.225   9.403  71.734  1.00  0.00    -0.390 C  
HETATM    4  C   UNL     1     -13.637   8.860  71.833  1.00  0.00    -0.474 C  
HETATM    5  C   UNL     1     -13.482   7.361  71.603  1.00  0.00    -0.437 C  
HETATM    6  C   UNL     1     -12.008   7.047  71.923  1.00  0.00    -0.320 C  
ENDROOT
BRANCH   6   7
HETATM    7  C   UNL     1     -11.293   6.349  70.782  1.00  0.00    -0.411 A  
HETATM    8  C   UNL     1     -10.410   5.307  71.056  1.00  0.00    -0.228 A  
HETATM    9  N   UNL     1      -9.712   4.622  70.120  1.00  0.00    -0.196 NA 
HETATM   10  C   UNL     1      -9.899   4.988  68.836  1.00  0.00    -0.175 A  
HETATM   11  C   UNL     1     -10.757   6.001  68.446  1.00  0.00    -0.351 A  
HETATM   12  C   UNL     1     -11.464   6.684  69.433  1.00  0.00    -0.288 A  
ENDBRANCH   6   7
TORSDOF 1
ENDMDL
MODEL       50
REMARK 921   NORMALIZED FREE ENERGY PREDICTED BY IDOCK:   -3.71 KCAL/MOL
REMARK 922        TOTAL FREE ENERGY PREDICTED BY IDOCK:   -4.05 KCAL/MOL
REMARK 923 INTER-LIGAND FREE ENERGY PREDICTED BY IDOCK:   -3.93 KCAL/MOL
REMARK 924 INTRA-LIGAND FREE ENERGY PREDICTED BY IDOCK:   -0.12 KCAL/MOL
REMARK 927      BINDING AFFINITY PREDICTED BY RF-SCORE:    0.00 PKD
ROOT
HETATM    1  C   UNL     1     -12.359  12.649  65.393  1.00  0.00    -0.436 C  
HETATM    2  N   UNL     1     -11.216  13.538  65.418  1.00  0.00    -0.288 NA 
HETATM    3  C   UNL     1     -11.521  14.923  65.085  1.00  0.00    -0.357 C  
HETATM    4  C   UNL     1     -10.184  15.592  65.336  1.00  0.00    -0.401 C  
HETATM    5  C   UNL     1      -9.627  14.877  66.561  1.00  0.00    -0.297 C  
HETATM    6  C   UNL     1     -10.368  13.527  66.621  1.00  0.00    -0.271 C  
ENDROOT
BRANCH   6   7
HETATM    7  C   UNL     1     -11.055  13.291  67.952  1.00  0.00    -0.287 A  
HETATM    8  C   UNL     1     -11.070  12.011  68.503  1.00  0.00    -0.244 A  
HETATM    9  N   UNL     1     -11.659  11.683  69.677  1.00  0.00    -0.313 NA 
HETATM   10  C   UNL     1     -12.271  12.680  70.347  1.00  0.00    -0.288 A  
HETATM   11  C   UNL     1     -12.312  13.989  69.901  1.00  0.00    -0.367 A  
HETATM   12  C   UNL     1     -11.692  14.295  68.692  1.00  0.00    -0.380 A  
ENDBRANCH   6   7
TORSDOF 1
ENDMDL
MODEL       51
REMARK 921   NORMALIZED FREE ENERGY PREDICTED BY IDOCK:   -3.68 KCAL/MOL
REMARK 922        TOTAL FREE ENERGY PREDICTED BY IDOCK:   -4.03 KCAL/MOL
REMARK 923 INTER-LIGAND FREE ENERGY PREDICTED BY IDOCK:   -3.90 KCAL/MOL
REMARK 924 INTRA-LIGAND FREE ENERGY PREDICTED BY IDOCK:   -0.13 KCAL/MOL
REMARK 927      BINDING AFFINITY PREDICTED BY RF-SCORE:    0.00 PKD
ROOT
HETATM    1  C   UNL     1      -8.243  13.248  67.257  1.00  0.00    -0.158 C  
HETATM    2  N   UNL     1      -9.540  12.635  67.056  1.00  0.00    -0.213 NA 
HETATM    3  C   UNL     1     -10.111  12.025  68.249  1.00  0.00    -0.201 C  
HETATM    4  C   UNL     1     -11.483  11.617  67.748  1.00  0.00    -0.373 C  
HETATM    5  C   UNL     1     -11.896  12.748  66.813  1.00  0.00    -0.452 C  
HETATM    6  C   UNL     1     -10.583  13.443  66.404  1.00  0.00    -0.285 C  
ENDROOT
BRANCH   6   7
HETATM    7  C   UNL     1     -10.590  14.932  66.691  1.00  0.00    -0.305 A  
HETATM    8  C   UNL     1     -10.278  15.832  65.674  1.00  0.00    -0.380 A  
HETATM    9  N   UNL     1     -10.245  17.177  65.819  1.00  0.00    -0.572 NA 
HETATM   10  C   UNL     1     -10.536  17.662  67.042  1.00  0.00    -0.305 A  
HETATM   11  C   UNL     1     -10.867  16.865  68.123  1.00  0.00    -0.351 A  
HETATM   12  C   UNL     1     -10.898  15.484  67.940  1.00  0.00    -0.307 A  
ENDBRANCH   6   7
TORSDOF 1
ENDMDL
MODEL       52
REMARK 921   NORMALIZED FREE ENERGY PREDICTED BY IDOCK:   -3.68 KCAL/MOL
REMARK 922        TOTAL FREE ENERGY PREDICTED BY IDOCK:   -4.03 KCAL/MOL
REMARK 923 INTER-LIGAND FREE ENERGY PREDICTED BY IDOCK:   -3.88 KCAL/MOL
REMARK 924 INTRA-LIGAND FREE ENERGY PREDICTED BY IDOCK:   -0.14 KCAL/MOL
REMARK 927      BINDING AFFINITY PREDICTED BY RF-SCORE:    0.00 PKD
ROOT
HETATM    1  C   UNL     1     -12.374  14.233  69.965  1.00  0.00    -0.346 C  
HETATM    2  N   UNL     1     -11.805  15.473  69.479  1.00  0.00    -0.355 NA 
HETATM    3  C   UNL     1     -10.515  15.815  70.062  1.00  0.00    -0.306 C  
HETATM    4  C   UNL     1     -10.142  17.047  69.262  1.00  0.00    -0.208 C  
HETATM    5  C   UNL     1     -10.642  16.748  67.854  1.00  0.00    -0.350 C  
HETATM    6  C   UNL     1     -11.717  15.658  68.021  1.00  0.00    -0.153 C  
ENDROOT
BRANCH   6   7
HETATM    7  C   UNL     1     -11.445  14.427  67.179  1.00  0.00    -0.379 A  
HETATM    8  C   UNL     1     -12.466  13.882  66.404  1.00  0.00    -0.370 A  
HETATM    9  N   UNL     1     -12.339  12.783  65.623  1.00  0.00    -0.594 NA 
HETATM   10  C   UNL     1     -11.130  12.186  65.610  1.00  0.00    -0.316 A  
HETATM   11  C   UNL     1     -10.043  12.644  66.332  1.00  0.00    -0.263 A  
HETATM   12  C   UNL     1     -10.204  13.780  67.121  1.00  0.00    -0.244 A  
ENDBRANCH   6   7
TORSDOF 1
ENDMDL
MODEL       53
REMARK 921   NORMALIZED FREE ENERGY PREDICTED BY IDOCK:   -3.63 KCAL/MOL
REMARK 922        TOTAL FREE ENERGY PREDICTED BY IDOCK:   -3.97 KCAL/MOL
REMARK 923 INTER-LIGAND FREE ENERGY PREDICTED BY IDOCK:   -3.89 KCAL/MOL
REMARK 924 INTRA-LIGAND FREE ENERGY PREDICTED BY IDOCK:   -0.07 KCAL/MOL
REMARK 927      BINDING AFFINITY PREDICTED BY RF-SCORE:    0.00 PKD
ROOT
HETATM    1  C   UNL     1     -12.019  13.568  70.115  1.00  0.00    -0.329 C  
HETATM    2  N   UNL     1     -11.697  13.007  68.819  1.00  0.00    -0.305 NA 
HETATM    3  C   UNL     1     -10.347  13.295  68.355  1.00  0.00    -0.251 C  
HETATM    4  C   UNL     1     -10.287  12.473  67.083  1.00  0.00    -0.230 C  
HETATM    5  C   UNL     1     -11.064  11.204  67.416  1.00  0.00    -0.370 C  
HETATM    6  C   UNL     1     -11.963  11.574  68.610  1.00  0.00    -0.246 C  
ENDROOT
BRANCH   6   7
HETATM    7  C   UNL     1     -11.773  10.652  69.799  1.00  0.00    -0.385 A  
HETATM    8  C   UNL     1     -12.851  10.379  70.638  1.00  0.00    -0.313 A  
HETATM    9  N   UNL     1     -12.795   9.580  71.730  1.00  0.00    -0.374 NA 
HETATM   10  C   UNL     1     -11.602   9.019  72.009  1.00  0.00    -0.343 A  
HETATM   11  C   UNL     1     -10.467   9.212  71.242  1.00  0.00    -0.398 A  
HETATM   12  C   UNL     1     -10.558  10.035  70.122  1.00  0.00    -0.350 A  
ENDBRANCH   6   7
TORSDOF 1
ENDMDL
MODEL       54
REMARK 921   NORMALIZED FREE ENERGY PREDICTED BY IDOCK:   -3.62 KCAL/MOL
REMARK 922        TOTAL FREE ENERGY PREDICTED BY IDOCK:   -3.96 KCAL/MOL
REMARK 923 INTER-LIGAND FREE ENERGY PREDICTED BY IDOCK:   -3.82 KCAL/MOL
REMARK 924 INTRA-LIGAND FREE ENERGY PREDICTED BY IDOCK:   -0.15 KCAL/MOL
REMARK 927      BINDING AFFINITY PREDICTED BY RF-SCORE:    0.00 PKD
ROOT
HETATM    1  C   UNL     1     -10.291  19.808  68.427  1.00  0.00    -0.391 C  
HETATM    2  N   UNL     1      -9.905  18.527  67.872  1.00  0.00    -0.311 NA 
HETATM    3  C   UNL     1     -10.406  18.276  66.528  1.00  0.00    -0.392 C  
HETATM    4  C   UNL     1      -9.727  16.961  66.196  1.00  0.00    -0.296 C  
HETATM    5  C   UNL     1      -8.344  17.082  66.825  1.00  0.00    -0.267 C  
HETATM    6  C   UNL     1      -8.478  18.169  67.909  1.00  0.00    -0.254 C  
ENDROOT
BRANCH   6   7
HETATM    7  C   UNL     1      -7.475  19.294  67.742  1.00  0.00    -0.289 A  
HETATM    8  C   UNL     1      -6.747  19.738  68.844  1.00  0.00    -0.326 A  
HETATM    9  N   UNL     1      -5.835  20.738  68.814  1.00  0.00    -0.346 NA 
HETATM   10  C   UNL     1      -5.631  21.336  67.623  1.00  0.00    -0.334 A  
HETATM   11  C   UNL     1      -6.289  20.973  66.462  1.00  0.00    -0.338 A  
HETATM   12  C   UNL     1      -7.218  19.937  66.525  1.00  0.00    -0.275 A  
ENDBRANCH   6   7
TORSDOF 1
ENDMDL
MODEL       55
REMARK 921   NORMALIZED FREE ENERGY PREDICTED BY IDOCK:   -3.61 KCAL/MOL
REMARK 922        TOTAL FREE ENERGY PREDICTED BY IDOCK:   -3.95 KCAL/MOL
REMARK 923 INTER-LIGAND FREE ENERGY PREDICTED BY IDOCK:   -3.93 KCAL/MOL
REMARK 924 INTRA-LIGAND FREE ENERGY PREDICTED BY IDOCK:   -0.03 KCAL/MOL
REMARK 927      BINDING AFFINITY PREDICTED BY RF-SCORE:    0.00 PKD
ROOT
HETATM    1  C   UNL     1      -9.721  10.653  68.899  1.00  0.00    -0.202 C  
HETATM    2  N   UNL     1     -10.877  10.130  69.596  1.00  0.00    -0.245 NA 
HETATM    3  C   UNL     1     -10.641   9.798  70.994  1.00  0.00    -0.225 C  
HETATM    4  C   UNL     1     -12.037   9.427  71.454  1.00  0.00    -0.442 C  
HETATM    5  C   UNL     1     -12.948  10.403  70.718  1.00  0.00    -0.422 C  
HETATM    6  C   UNL     1     -12.132  10.895  69.508  1.00  0.00    -0.309 C  
ENDROOT
BRANCH   6   7
HETATM    7  C   UNL     1     -12.021  12.406  69.447  1.00  0.00    -0.319 A  
HETATM    8  C   UNL     1     -11.866  13.036  68.214  1.00  0.00    -0.343 A  
HETATM    9  N   UNL     1     -11.748  14.374  68.041  1.00  0.00    -0.329 NA 
HETATM   10  C   UNL     1     -11.785  15.134  69.155  1.00  0.00    -0.325 A  
HETATM   11  C   UNL     1     -11.944  14.618  70.428  1.00  0.00    -0.375 A  
HETATM   12  C   UNL     1     -12.068  13.238  70.572  1.00  0.00    -0.391 A  
ENDBRANCH   6   7
TORSDOF 1
ENDMDL
MODEL       56
REMARK 921   NORMALIZED FREE ENERGY PREDICTED BY IDOCK:   -3.61 KCAL/MOL
REMARK 922        TOTAL FREE ENERGY PREDICTED BY IDOCK:   -3.95 KCAL/MOL
REMARK 923 INTER-LIGAND FREE ENERGY PREDICTED BY IDOCK:   -4.05 KCAL/MOL
REMARK 924 INTRA-LIGAND FREE ENERGY PREDICTED BY IDOCK:    0.10 KCAL/MOL
REMARK 927      BINDING AFFINITY PREDICTED BY RF-SCORE:    0.00 PKD
ROOT
HETATM    1  C   UNL     1     -11.934  13.783  68.111  1.00  0.00    -0.358 C  
HETATM    2  N   UNL     1     -11.554  13.579  66.728  1.00  0.00    -0.345 NA 
HETATM    3  C   UNL     1     -12.608  13.861  65.764  1.00  0.00    -0.494 C  
HETATM    4  C   UNL     1     -11.866  13.694  64.453  1.00  0.00    -0.460 C  
HETATM    5  C   UNL     1     -10.479  14.262  64.729  1.00  0.00    -0.421 C  
HETATM    6  C   UNL     1     -10.314  14.219  66.259  1.00  0.00    -0.294 C  
ENDROOT
BRANCH   6   7
HETATM    7  C   UNL     1      -9.963  15.570  66.853  1.00  0.00    -0.251 A  
HETATM    8  C   UNL     1      -9.395  15.639  68.123  1.00  0.00    -0.194 A  
HETATM    9  N   UNL     1      -9.051  16.787  68.753  1.00  0.00    -0.259 NA 
HETATM   10  C   UNL     1      -9.283  17.936  68.087  1.00  0.00    -0.278 A  
HETATM   11  C   UNL     1      -9.834  17.988  66.819  1.00  0.00    -0.335 A  
HETATM   12  C   UNL     1     -10.172  16.789  66.196  1.00  0.00    -0.363 A  
ENDBRANCH   6   7
TORSDOF 1
ENDMDL
MODEL       57
REMARK 921   NORMALIZED FREE ENERGY PREDICTED BY IDOCK:   -3.60 KCAL/MOL
REMARK 922        TOTAL FREE ENERGY PREDICTED BY IDOCK:   -3.94 KCAL/MOL
REMARK 923 INTER-LIGAND FREE ENERGY PREDICTED BY IDOCK:   -3.80 KCAL/MOL
REMARK 924 INTRA-LIGAND FREE ENERGY PREDICTED BY IDOCK:   -0.15 KCAL/MOL
REMARK 927      BINDING AFFINITY PREDICTED BY RF-SCORE:    0.00 PKD
ROOT
HETATM    1  C   UNL     1     -10.416  17.339  65.634  1.00  0.00    -0.181 C  
HETATM    2  N   UNL     1      -9.925  18.646  66.020  1.00  0.00    -0.534 NA 
HETATM    3  C   UNL     1     -10.746  19.332  67.008  1.00  0.00    -0.464 C  
HETATM    4  C   UNL     1      -9.907  20.563  67.291  1.00  0.00    -0.581 C  
HETATM    5  C   UNL     1      -8.470  20.059  67.249  1.00  0.00    -0.390 C  
HETATM    6  C   UNL     1      -8.516  18.751  66.436  1.00  0.00    -0.284 C  
ENDROOT
BRANCH   6   7
HETATM    7  C   UNL     1      -7.922  17.572  67.181  1.00  0.00    -0.229 A  
HETATM    8  C   UNL     1      -7.038  16.717  66.526  1.00  0.00    -0.219 A  
HETATM    9  N   UNL     1      -6.456  15.632  67.088  1.00  0.00    -0.302 NA 
HETATM   10  C   UNL     1      -6.768  15.375  68.374  1.00  0.00    -0.116 A  
HETATM   11  C   UNL     1      -7.626  16.159  69.125  1.00  0.00    -0.230 A  
HETATM   12  C   UNL     1      -8.204  17.272  68.519  1.00  0.00    -0.267 A  
ENDBRANCH   6   7
TORSDOF 1
ENDMDL
MODEL       58
REMARK 921   NORMALIZED FREE ENERGY PREDICTED BY IDOCK:   -3.59 KCAL/MOL
REMARK 922        TOTAL FREE ENERGY PREDICTED BY IDOCK:   -3.93 KCAL/MOL
REMARK 923 INTER-LIGAND FREE ENERGY PREDICTED BY IDOCK:   -4.39 KCAL/MOL
REMARK 924 INTRA-LIGAND FREE ENERGY PREDICTED BY IDOCK:    0.46 KCAL/MOL
REMARK 927      BINDING AFFINITY PREDICTED BY RF-SCORE:    0.00 PKD
ROOT
HETATM    1  C   UNL     1     -13.069  14.481  73.064  1.00  0.00    -0.510 C  
HETATM    2  N   UNL     1     -12.781  15.010  71.747  1.00  0.00    -0.318 NA 
HETATM    3  C   UNL     1     -11.481  15.654  71.626  1.00  0.00    -0.429 C  
HETATM    4  C   UNL     1     -11.433  15.958  70.142  1.00  0.00    -0.366 C  
HETATM    5  C   UNL     1     -12.103  14.755  69.489  1.00  0.00    -0.328 C  
HETATM    6  C   UNL     1     -12.960  14.110  70.595  1.00  0.00    -0.228 C  
ENDROOT
BRANCH   6   7
HETATM    7  C   UNL     1     -12.644  12.642  70.806  1.00  0.00    -0.302 A  
HETATM    8  C   UNL     1     -13.329  11.923  71.782  1.00  0.00    -0.232 A  
HETATM    9  N   UNL     1     -13.124  10.614  72.062  1.00  0.00    -0.472 NA 
HETATM   10  C   UNL     1     -12.184   9.979  71.333  1.00  0.00    -0.416 A  
HETATM   11  C   UNL     1     -11.449  10.589  70.333  1.00  0.00    -0.427 A  
HETATM   12  C   UNL     1     -11.688  11.936  70.065  1.00  0.00    -0.366 A  
ENDBRANCH   6   7
TORSDOF 1
ENDMDL
MODEL       59
REMARK 921   NORMALIZED FREE ENERGY PREDICTED BY IDOCK:   -3.59 KCAL/MOL
REMARK 922        TOTAL FREE ENERGY PREDICTED BY IDOCK:   -3.93 KCAL/MOL
REMARK 923 INTER-LIGAND FREE ENERGY PREDICTED BY IDOCK:   -3.85 KCAL/MOL
REMARK 924 INTRA-LIGAND FREE ENERGY PREDICTED BY IDOCK:   -0.07 KCAL/MOL
REMARK 927      BINDING AFFINITY PREDICTED BY RF-SCORE:    0.00 PKD
ROOT
HETATM    1  C   UNL     1      -9.947  14.208  68.575  1.00  0.00    -0.235 C  
HETATM    2  N   UNL     1     -10.302  14.323  67.175  1.00  0.00    -0.261 NA 
HETATM    3  C   UNL     1     -11.733  14.293  66.911  1.00  0.00    -0.408 C  
HETATM    4  C   UNL     1     -11.768  14.572  65.421  1.00  0.00    -0.354 C  
HETATM    5  C   UNL     1     -10.654  15.589  65.201  1.00  0.00    -0.455 C  
HETATM    6  C   UNL     1      -9.714  15.436  66.412  1.00  0.00    -0.288 C  
ENDROOT
BRANCH   6   7
HETATM    7  C   UNL     1      -9.487  16.741  67.150  1.00  0.00    -0.237 A  
HETATM    8  C   UNL     1     -10.529  17.659  67.264  1.00  0.00    -0.338 A  
HETATM    9  N   UNL     1     -10.437  18.856  67.891  1.00  0.00    -0.398 NA 
HETATM   10  C   UNL     1      -9.243  19.164  68.437  1.00  0.00    -0.356 A  
HETATM   11  C   UNL     1      -8.142  18.327  68.392  1.00  0.00    -0.322 A  
HETATM   12  C   UNL     1      -8.271  17.101  67.744  1.00  0.00    -0.200 A  
ENDBRANCH   6   7
TORSDOF 1
ENDMDL
MODEL       60
REMARK 921   NORMALIZED FREE ENERGY PREDICTED BY IDOCK:   -3.58 KCAL/MOL
REMARK 922        TOTAL FREE ENERGY PREDICTED BY IDOCK:   -3.92 KCAL/MOL
REMARK 923 INTER-LIGAND FREE ENERGY PREDICTED BY IDOCK:   -3.87 KCAL/MOL
REMARK 924 INTRA-LIGAND FREE ENERGY PREDICTED BY IDOCK:   -0.06 KCAL/MOL
REMARK 927      BINDING AFFINITY PREDICTED BY RF-SCORE:    0.00 PKD
ROOT
HETATM    1  C   UNL     1     -10.323  11.070  65.410  1.00  0.00    -0.268 C  
HETATM    2  N   UNL     1     -10.856  12.390  65.676  1.00  0.00    -0.269 NA 
HETATM    3  C   UNL     1     -12.235  12.583  65.248  1.00  0.00    -0.433 C  
HETATM    4  C   UNL     1     -12.523  13.971  65.784  1.00  0.00    -0.523 C  
HETATM    5  C   UNL     1     -11.794  14.020  67.121  1.00  0.00    -0.444 C  
HETATM    6  C   UNL     1     -10.717  12.921  67.042  1.00  0.00    -0.257 C  
ENDROOT
BRANCH   6   7
HETATM    7  C   UNL     1     -10.803  11.928  68.185  1.00  0.00    -0.259 A  
HETATM    8  C   UNL     1      -9.644  11.305  68.646  1.00  0.00    -0.190 A  
HETATM    9  N   UNL     1      -9.604  10.399  69.650  1.00  0.00    -0.165 NA 
HETATM   10  C   UNL     1     -10.779  10.088  70.234  1.00  0.00    -0.309 A  
HETATM   11  C   UNL     1     -11.989  10.649  69.865  1.00  0.00    -0.385 A  
HETATM   12  C   UNL     1     -11.996  11.583  68.831  1.00  0.00    -0.364 A  
ENDBRANCH   6   7
TORSDOF 1
ENDMDL
MODEL       61
REMARK 921   NORMALIZED FREE ENERGY PREDICTED BY IDOCK:   -3.58 KCAL/MOL
REMARK 922        TOTAL FREE ENERGY PREDICTED BY IDOCK:   -3.92 KCAL/MOL
REMARK 923 INTER-LIGAND FREE ENERGY PREDICTED BY IDOCK:   -3.84 KCAL/MOL
REMARK 924 INTRA-LIGAND FREE ENERGY PREDICTED BY IDOCK:   -0.08 KCAL/MOL
REMARK 927      BINDING AFFINITY PREDICTED BY RF-SCORE:    0.00 PKD
ROOT
HETATM    1  C   UNL     1      -8.653   8.297  71.375  1.00  0.00    -0.149 C  
HETATM    2  N   UNL     1      -9.364   7.316  70.581  1.00  0.00    -0.158 NA 
HETATM    3  C   UNL     1      -9.670   6.078  71.282  1.00  0.00    -0.172 C  
HETATM    4  C   UNL     1     -10.514   5.351  70.253  1.00  0.00    -0.355 C  
HETATM    5  C   UNL     1     -11.342   6.451  69.599  1.00  0.00    -0.479 C  
HETATM    6  C   UNL     1     -10.577   7.760  69.874  1.00  0.00    -0.239 C  
ENDROOT
BRANCH   6   7
HETATM    7  C   UNL     1     -11.433   8.810  70.556  1.00  0.00    -0.222 A  
HETATM    8  C   UNL     1     -12.323   8.430  71.559  1.00  0.00    -0.309 A  
HETATM    9  N   UNL     1     -13.140   9.278  72.227  1.00  0.00    -0.433 NA 
HETATM   10  C   UNL     1     -13.074  10.580  71.883  1.00  0.00    -0.462 A  
HETATM   11  C   UNL     1     -12.223  11.072  70.910  1.00  0.00    -0.471 A  
HETATM   12  C   UNL     1     -11.391  10.174  70.244  1.00  0.00    -0.387 A  
ENDBRANCH   6   7
TORSDOF 1
ENDMDL
MODEL       62
REMARK 921   NORMALIZED FREE ENERGY PREDICTED BY IDOCK:   -3.57 KCAL/MOL
REMARK 922        TOTAL FREE ENERGY PREDICTED BY IDOCK:   -3.91 KCAL/MOL
REMARK 923 INTER-LIGAND FREE ENERGY PREDICTED BY IDOCK:   -3.79 KCAL/MOL
REMARK 924 INTRA-LIGAND FREE ENERGY PREDICTED BY IDOCK:   -0.12 KCAL/MOL
REMARK 927      BINDING AFFINITY PREDICTED BY RF-SCORE:    0.00 PKD
ROOT
HETATM    1  C   UNL     1     -10.869   5.907  69.663  1.00  0.00    -0.374 C  
HETATM    2  N   UNL     1     -10.541   5.566  71.032  1.00  0.00    -0.242 NA 
HETATM    3  C   UNL     1      -9.186   5.914  71.434  1.00  0.00    -0.146 C  
HETATM    4  C   UNL     1      -9.213   5.569  72.910  1.00  0.00    -0.137 C  
HETATM    5  C   UNL     1     -10.609   5.975  73.366  1.00  0.00    -0.277 C  
HETATM    6  C   UNL     1     -11.466   6.013  72.087  1.00  0.00    -0.302 C  
ENDROOT
BRANCH   6   7
HETATM    7  C   UNL     1     -12.161   7.345  71.882  1.00  0.00    -0.344 A  
HETATM    8  C   UNL     1     -13.541   7.380  71.691  1.00  0.00    -0.366 A  
HETATM    9  N   UNL     1     -14.263   8.508  71.491  1.00  0.00    -0.409 NA 
HETATM   10  C   UNL     1     -13.579   9.670  71.477  1.00  0.00    -0.300 A  
HETATM   11  C   UNL     1     -12.211   9.756  71.665  1.00  0.00    -0.488 A  
HETATM   12  C   UNL     1     -11.498   8.578  71.874  1.00  0.00    -0.405 A  
ENDBRANCH   6   7
TORSDOF 1
ENDMDL
MODEL       63
REMARK 921   NORMALIZED FREE ENERGY PREDICTED BY IDOCK:   -3.55 KCAL/MOL
REMARK 922        TOTAL FREE ENERGY PREDICTED BY IDOCK:   -3.88 KCAL/MOL
REMARK 923 INTER-LIGAND FREE ENERGY PREDICTED BY IDOCK:   -4.71 KCAL/MOL
REMARK 924 INTRA-LIGAND FREE ENERGY PREDICTED BY IDOCK:    0.82 KCAL/MOL
REMARK 927      BINDING AFFINITY PREDICTED BY RF-SCORE:    0.00 PKD
ROOT
HETATM    1  C   UNL     1     -14.008  13.110  72.434  1.00  0.00    -0.397 C  
HETATM    2  N   UNL     1     -13.487  14.460  72.373  1.00  0.00    -0.422 NA 
HETATM    3  C   UNL     1     -12.564  14.800  73.447  1.00  0.00    -0.435 C  
HETATM    4  C   UNL     1     -12.107  16.182  73.023  1.00  0.00    -0.636 C  
HETATM    5  C   UNL     1     -12.008  16.097  71.504  1.00  0.00    -0.490 C  
HETATM    6  C   UNL     1     -12.900  14.908  71.100  1.00  0.00    -0.359 C  
ENDROOT
BRANCH   6   7
HETATM    7  C   UNL     1     -12.163  13.873  70.272  1.00  0.00    -0.428 A  
HETATM    8  C   UNL     1     -11.324  14.286  69.239  1.00  0.00    -0.283 A  
HETATM    9  N   UNL     1     -10.626  13.452  68.432  1.00  0.00    -0.243 NA 
HETATM   10  C   UNL     1     -10.767  12.131  68.659  1.00  0.00    -0.233 A  
HETATM   11  C   UNL     1     -11.565  11.607  69.661  1.00  0.00    -0.401 A  
HETATM   12  C   UNL     1     -12.266  12.492  70.478  1.00  0.00    -0.382 A  
ENDBRANCH   6   7
TORSDOF 1
ENDMDL
MODEL       64
REMARK 921   NORMALIZED FREE ENERGY PREDICTED BY IDOCK:   -3.54 KCAL/MOL
REMARK 922        TOTAL FREE ENERGY PREDICTED BY IDOCK:   -3.88 KCAL/MOL
REMARK 923 INTER-LIGAND FREE ENERGY PREDICTED BY IDOCK:   -3.84 KCAL/MOL
REMARK 924 INTRA-LIGAND FREE ENERGY PREDICTED BY IDOCK:   -0.03 KCAL/MOL
REMARK 927      BINDING AFFINITY PREDICTED BY RF-SCORE:    0.00 PKD
ROOT
HETATM    1  C   UNL     1     -10.711  16.540  69.721  1.00  0.00    -0.298 C  
HETATM    2  N   UNL     1     -11.243  15.318  70.289  1.00  0.00    -0.275 NA 
HETATM    3  C   UNL     1     -12.656  15.378  70.635  1.00  0.00    -0.439 C  
HETATM    4  C   UNL     1     -12.922  13.945  71.054  1.00  0.00    -0.357 C  
HETATM    5  C   UNL     1     -12.082  13.109  70.095  1.00  0.00    -0.392 C  
HETATM    6  C   UNL     1     -10.997  14.063  69.561  1.00  0.00    -0.095 C  
ENDROOT
BRANCH   6   7
HETATM    7  C   UNL     1     -10.968  14.133  68.046  1.00  0.00    -0.269 A  
HETATM    8  C   UNL     1     -12.141  13.925  67.324  1.00  0.00    -0.368 A  
HETATM    9  N   UNL     1     -12.230  13.956  65.973  1.00  0.00    -0.439 NA 
HETATM   10  C   UNL     1     -11.091  14.204  65.296  1.00  0.00    -0.331 A  
HETATM   11  C   UNL     1      -9.871  14.434  65.908  1.00  0.00    -0.336 A  
HETATM   12  C   UNL     1      -9.814  14.401  67.300  1.00  0.00    -0.247 A  
ENDBRANCH   6   7
TORSDOF 1
ENDMDL
MODEL       65
REMARK 921   NORMALIZED FREE ENERGY PREDICTED BY IDOCK:   -3.52 KCAL/MOL
REMARK 922        TOTAL FREE ENERGY PREDICTED BY IDOCK:   -3.86 KCAL/MOL
REMARK 923 INTER-LIGAND FREE ENERGY PREDICTED BY IDOCK:   -3.71 KCAL/MOL
REMARK 924 INTRA-LIGAND FREE ENERGY PREDICTED BY IDOCK:   -0.15 KCAL/MOL
REMARK 927      BINDING AFFINITY PREDICTED BY RF-SCORE:    0.00 PKD
ROOT
HETATM    1  C   UNL     1      -7.891  17.190  68.794  1.00  0.00    -0.258 C  
HETATM    2  N   UNL     1      -8.799  18.211  68.315  1.00  0.00    -0.277 NA 
HETATM    3  C   UNL     1      -8.822  18.368  66.867  1.00  0.00    -0.279 C  
HETATM    4  C   UNL     1      -9.940  19.377  66.693  1.00  0.00    -0.484 C  
HETATM    5  C   UNL     1     -10.967  18.988  67.750  1.00  0.00    -0.263 C  
HETATM    6  C   UNL     1     -10.190  18.169  68.797  1.00  0.00    -0.337 C  
ENDROOT
BRANCH   6   7
HETATM    7  C   UNL     1     -10.797  16.802  69.046  1.00  0.00    -0.291 A  
HETATM    8  C   UNL     1     -10.927  16.332  70.351  1.00  0.00    -0.272 A  
HETATM    9  N   UNL     1     -11.445  15.128  70.690  1.00  0.00    -0.284 NA 
HETATM   10  C   UNL     1     -11.859  14.340  69.676  1.00  0.00    -0.318 A  
HETATM   11  C   UNL     1     -11.787  14.706  68.344  1.00  0.00    -0.330 A  
HETATM   12  C   UNL     1     -11.254  15.954  68.029  1.00  0.00    -0.319 A  
ENDBRANCH   6   7
TORSDOF 1
ENDMDL
MODEL       66
REMARK 921   NORMALIZED FREE ENERGY PREDICTED BY IDOCK:   -3.50 KCAL/MOL
REMARK 922        TOTAL FREE ENERGY PREDICTED BY IDOCK:   -3.83 KCAL/MOL
REMARK 923 INTER-LIGAND FREE ENERGY PREDICTED BY IDOCK:   -3.79 KCAL/MOL
REMARK 924 INTRA-LIGAND FREE ENERGY PREDICTED BY IDOCK:   -0.04 KCAL/MOL
REMARK 927      BINDING AFFINITY PREDICTED BY RF-SCORE:    0.00 PKD
ROOT
HETATM    1  C   UNL     1     -10.407   9.950  67.029  1.00  0.00    -0.239 C  
HETATM    2  N   UNL     1     -10.456  11.372  67.302  1.00  0.00    -0.198 NA 
HETATM    3  C   UNL     1     -11.590  12.063  66.706  1.00  0.00    -0.321 C  
HETATM    4  C   UNL     1     -11.429  13.456  67.283  1.00  0.00    -0.374 C  
HETATM    5  C   UNL     1     -10.938  13.220  68.706  1.00  0.00    -0.294 C  
HETATM    6  C   UNL     1     -10.336  11.803  68.704  1.00  0.00    -0.214 C  
ENDROOT
BRANCH   6   7
HETATM    7  C   UNL     1     -10.945  10.902  69.762  1.00  0.00    -0.290 A  
HETATM    8  C   UNL     1     -10.181   9.879  70.319  1.00  0.00    -0.264 A  
HETATM    9  N   UNL     1     -10.623   9.012  71.261  1.00  0.00    -0.280 NA 
HETATM   10  C   UNL     1     -11.897   9.165  71.675  1.00  0.00    -0.372 A  
HETATM   11  C   UNL     1     -12.744  10.150  71.198  1.00  0.00    -0.494 A  
HETATM   12  C   UNL     1     -12.257  11.030  70.234  1.00  0.00    -0.447 A  
ENDBRANCH   6   7
TORSDOF 1
ENDMDL
MODEL       67
REMARK 921   NORMALIZED FREE ENERGY PREDICTED BY IDOCK:   -3.47 KCAL/MOL
REMARK 922        TOTAL FREE ENERGY PREDICTED BY IDOCK:   -3.80 KCAL/MOL
REMARK 923 INTER-LIGAND FREE ENERGY PREDICTED BY IDOCK:   -3.83 KCAL/MOL
REMARK 924 INTRA-LIGAND FREE ENERGY PREDICTED BY IDOCK:    0.02 KCAL/MOL
REMARK 927      BINDING AFFINITY PREDICTED BY RF-SCORE:    0.00 PKD
ROOT
HETATM    1  C   UNL     1      -9.498   9.982  69.498  1.00  0.00    -0.226 C  
HETATM    2  N   UNL     1     -10.614   9.367  70.187  1.00  0.00    -0.223 NA 
HETATM    3  C   UNL     1     -10.401   9.152  71.611  1.00  0.00    -0.318 C  
HETATM    4  C   UNL     1     -11.763   8.645  72.044  1.00  0.00    -0.439 C  
HETATM    5  C   UNL     1     -12.750   9.458  71.213  1.00  0.00    -0.391 C  
HETATM    6  C   UNL     1     -11.945   9.970  70.004  1.00  0.00    -0.074 C  
ENDROOT
BRANCH   6   7
HETATM    7  C   UNL     1     -12.010  11.477  69.847  1.00  0.00    -0.426 A  
HETATM    8  C   UNL     1     -12.295  12.273  70.955  1.00  0.00    -0.267 A  
HETATM    9  N   UNL     1     -12.387  13.624  70.930  1.00  0.00    -0.366 NA 
HETATM   10  C   UNL     1     -12.184  14.223  69.739  1.00  0.00    -0.339 A  
HETATM   11  C   UNL     1     -11.886  13.534  68.577  1.00  0.00    -0.398 A  
HETATM   12  C   UNL     1     -11.794  12.146  68.636  1.00  0.00    -0.358 A  
ENDBRANCH   6   7
TORSDOF 1
ENDMDL
MODEL       68
REMARK 921   NORMALIZED FREE ENERGY PREDICTED BY IDOCK:   -3.45 KCAL/MOL
REMARK 922        TOTAL FREE ENERGY PREDICTED BY IDOCK:   -3.78 KCAL/MOL
REMARK 923 INTER-LIGAND FREE ENERGY PREDICTED BY IDOCK:   -3.70 KCAL/MOL
REMARK 924 INTRA-LIGAND FREE ENERGY PREDICTED BY IDOCK:   -0.08 KCAL/MOL
REMARK 927      BINDING AFFINITY PREDICTED BY RF-SCORE:    0.00 PKD
ROOT
HETATM    1  C   UNL     1      -8.822  12.217  67.266  1.00  0.00    -0.186 C  
HETATM    2  N   UNL     1      -8.952  13.290  68.230  1.00  0.00    -0.189 NA 
HETATM    3  C   UNL     1      -7.852  14.243  68.225  1.00  0.00    -0.141 C  
HETATM    4  C   UNL     1      -8.350  15.281  69.212  1.00  0.00    -0.243 C  
HETATM    5  C   UNL     1      -9.849  15.365  68.946  1.00  0.00    -0.216 C  
HETATM    6  C   UNL     1     -10.217  14.044  68.245  1.00  0.00    -0.249 C  
ENDROOT
BRANCH   6   7
HETATM    7  C   UNL     1     -10.916  14.255  66.916  1.00  0.00    -0.304 A  
HETATM    8  C   UNL     1     -10.450  15.234  66.040  1.00  0.00    -0.317 A  
HETATM    9  N   UNL     1     -10.999  15.515  64.835  1.00  0.00    -0.439 NA 
HETATM   10  C   UNL     1     -12.074  14.786  64.475  1.00  0.00    -0.446 A  
HETATM   11  C   UNL     1     -12.617  13.784  65.259  1.00  0.00    -0.510 A  
HETATM   12  C   UNL     1     -12.026  13.515  66.491  1.00  0.00    -0.460 A  
ENDBRANCH   6   7
TORSDOF 1
ENDMDL
MODEL       69
REMARK 921   NORMALIZED FREE ENERGY PREDICTED BY IDOCK:   -3.45 KCAL/MOL
REMARK 922        TOTAL FREE ENERGY PREDICTED BY IDOCK:   -3.78 KCAL/MOL
REMARK 923 INTER-LIGAND FREE ENERGY PREDICTED BY IDOCK:   -3.70 KCAL/MOL
REMARK 924 INTRA-LIGAND FREE ENERGY PREDICTED BY IDOCK:   -0.08 KCAL/MOL
REMARK 927      BINDING AFFINITY PREDICTED BY RF-SCORE:    0.00 PKD
ROOT
HETATM    1  C   UNL     1     -10.418  18.221  67.931  1.00  0.00    -0.388 C  
HETATM    2  N   UNL     1      -9.054  18.266  67.444  1.00  0.00    -0.252 NA 
HETATM    3  C   UNL     1      -8.044  17.959  68.447  1.00  0.00    -0.299 C  
HETATM    4  C   UNL     1      -6.782  17.951  67.607  1.00  0.00    -0.192 C  
HETATM    5  C   UNL     1      -7.212  17.327  66.285  1.00  0.00    -0.335 C  
HETATM    6  C   UNL     1      -8.740  17.507  66.222  1.00  0.00    -0.192 C  
ENDROOT
BRANCH   6   7
HETATM    7  C   UNL     1      -9.480  16.201  66.007  1.00  0.00    -0.374 A  
HETATM    8  C   UNL     1      -9.025  15.040  66.629  1.00  0.00    -0.281 A  
HETATM    9  N   UNL     1      -9.600  13.821  66.502  1.00  0.00    -0.282 NA 
HETATM   10  C   UNL     1     -10.689  13.744  65.711  1.00  0.00    -0.281 A  
HETATM   11  C   UNL     1     -11.233  14.832  65.051  1.00  0.00    -0.399 A  
HETATM   12  C   UNL     1     -10.622  16.073  65.207  1.00  0.00    -0.424 A  
ENDBRANCH   6   7
TORSDOF 1
ENDMDL
MODEL       70
REMARK 921   NORMALIZED FREE ENERGY PREDICTED BY IDOCK:   -3.42 KCAL/MOL
REMARK 922        TOTAL FREE ENERGY PREDICTED BY IDOCK:   -3.74 KCAL/MOL
REMARK 923 INTER-LIGAND FREE ENERGY PREDICTED BY IDOCK:   -3.67 KCAL/MOL
REMARK 924 INTRA-LIGAND FREE ENERGY PREDICTED BY IDOCK:   -0.08 KCAL/MOL
REMARK 927      BINDING AFFINITY PREDICTED BY RF-SCORE:    0.00 PKD
ROOT
HETATM    1  C   UNL     1     -11.244   6.401  69.621  1.00  0.00    -0.418 C  
HETATM    2  N   UNL     1      -9.987   6.979  70.048  1.00  0.00    -0.181 NA 
HETATM    3  C   UNL     1      -9.246   7.659  68.995  1.00  0.00    -0.140 C  
HETATM    4  C   UNL     1      -8.091   8.253  69.777  1.00  0.00    -0.118 C  
HETATM    5  C   UNL     1      -8.712   8.677  71.103  1.00  0.00    -0.244 C  
HETATM    6  C   UNL     1     -10.002   7.847  71.237  1.00  0.00    -0.176 C  
ENDROOT
BRANCH   6   7
HETATM    7  C   UNL     1     -11.235   8.703  71.456  1.00  0.00    -0.360 A  
HETATM    8  C   UNL     1     -11.351   9.925  70.796  1.00  0.00    -0.353 A  
HETATM    9  N   UNL     1     -12.400  10.772  70.923  1.00  0.00    -0.361 NA 
HETATM   10  C   UNL     1     -13.392  10.389  71.751  1.00  0.00    -0.354 A  
HETATM   11  C   UNL     1     -13.387   9.195  72.450  1.00  0.00    -0.527 A  
HETATM   12  C   UNL     1     -12.296   8.343  72.295  1.00  0.00    -0.436 A  
ENDBRANCH   6   7
TORSDOF 1
ENDMDL
MODEL       71
REMARK 921   NORMALIZED FREE ENERGY PREDICTED BY IDOCK:   -3.41 KCAL/MOL
REMARK 922        TOTAL FREE ENERGY PREDICTED BY IDOCK:   -3.73 KCAL/MOL
REMARK 923 INTER-LIGAND FREE ENERGY PREDICTED BY IDOCK:   -3.91 KCAL/MOL
REMARK 924 INTRA-LIGAND FREE ENERGY PREDICTED BY IDOCK:    0.18 KCAL/MOL
REMARK 927      BINDING AFFINITY PREDICTED BY RF-SCORE:    0.00 PKD
ROOT
HETATM    1  C   UNL     1     -13.163  12.245  72.056  1.00  0.00    -0.403 C  
HETATM    2  N   UNL     1     -12.797  12.283  70.655  1.00  0.00    -0.023 NA 
HETATM    3  C   UNL     1     -11.802  13.291  70.317  1.00  0.00    -0.234 C  
HETATM    4  C   UNL     1     -11.544  12.980  68.856  1.00  0.00    -0.355 C  
HETATM    5  C   UNL     1     -11.606  11.460  68.777  1.00  0.00    -0.378 C  
HETATM    6  C   UNL     1     -12.407  11.016  70.016  1.00  0.00    -0.305 C  
ENDROOT
BRANCH   6   7
HETATM    7  C   UNL     1     -11.661  10.009  70.870  1.00  0.00    -0.463 A  
HETATM    8  C   UNL     1     -12.350   9.282  71.839  1.00  0.00    -0.382 A  
HETATM    9  N   UNL     1     -11.786   8.366  72.662  1.00  0.00    -0.366 NA 
HETATM   10  C   UNL     1     -10.462   8.157  72.519  1.00  0.00    -0.339 A  
HETATM   11  C   UNL     1      -9.680   8.814  71.586  1.00  0.00    -0.366 A  
HETATM   12  C   UNL     1     -10.291   9.747  70.750  1.00  0.00    -0.298 A  
ENDBRANCH   6   7
TORSDOF 1
ENDMDL
MODEL       72
REMARK 921   NORMALIZED FREE ENERGY PREDICTED BY IDOCK:   -3.40 KCAL/MOL
REMARK 922        TOTAL FREE ENERGY PREDICTED BY IDOCK:   -3.72 KCAL/MOL
REMARK 923 INTER-LIGAND FREE ENERGY PREDICTED BY IDOCK:   -3.59 KCAL/MOL
REMARK 924 INTRA-LIGAND FREE ENERGY PREDICTED BY IDOCK:   -0.14 KCAL/MOL
REMARK 927      BINDING AFFINITY PREDICTED BY RF-SCORE:    0.00 PKD
ROOT
HETATM    1  C   UNL     1     -10.770  10.462  69.724  1.00  0.00    -0.278 C  
HETATM    2  N   UNL     1     -11.421  10.050  70.950  1.00  0.00    -0.347 NA 
HETATM    3  C   UNL     1     -12.873   9.977  70.868  1.00  0.00    -0.324 C  
HETATM    4  C   UNL     1     -13.221   9.398  72.225  1.00  0.00    -0.528 C  
HETATM    5  C   UNL     1     -12.107   8.396  72.505  1.00  0.00    -0.403 C  
HETATM    6  C   UNL     1     -10.933   8.825  71.605  1.00  0.00    -0.321 C  
ENDROOT
BRANCH   6   7
HETATM    7  C   UNL     1     -10.440   7.707  70.707  1.00  0.00    -0.211 A  
HETATM    8  C   UNL     1      -9.072   7.544  70.497  1.00  0.00    -0.156 A  
HETATM    9  N   UNL     1      -8.521   6.589  69.710  1.00  0.00    -0.130 NA 
HETATM   10  C   UNL     1      -9.373   5.746  69.094  1.00  0.00    -0.123 A  
HETATM   11  C   UNL     1     -10.748   5.808  69.236  1.00  0.00    -0.386 A  
HETATM   12  C   UNL     1     -11.283   6.798  70.057  1.00  0.00    -0.380 A  
ENDBRANCH   6   7
TORSDOF 1
ENDMDL
MODEL       73
REMARK 921   NORMALIZED FREE ENERGY PREDICTED BY IDOCK:   -3.39 KCAL/MOL
REMARK 922        TOTAL FREE ENERGY PREDICTED BY IDOCK:   -3.71 KCAL/MOL
REMARK 923 INTER-LIGAND FREE ENERGY PREDICTED BY IDOCK:   -3.63 KCAL/MOL
REMARK 924 INTRA-LIGAND FREE ENERGY PREDICTED BY IDOCK:   -0.08 KCAL/MOL
REMARK 927      BINDING AFFINITY PREDICTED BY RF-SCORE:    0.00 PKD
ROOT
HETATM    1  C   UNL     1      -8.980   9.183  69.843  1.00  0.00    -0.174 C  
HETATM    2  N   UNL     1     -10.125  10.057  70.000  1.00  0.00    -0.253 NA 
HETATM    3  C   UNL     1     -11.004  10.114  68.841  1.00  0.00    -0.223 C  
HETATM    4  C   UNL     1     -12.138  10.971  69.368  1.00  0.00    -0.389 C  
HETATM    5  C   UNL     1     -12.297  10.537  70.820  1.00  0.00    -0.474 C  
HETATM    6  C   UNL     1     -10.955   9.885  71.203  1.00  0.00    -0.228 C  
ENDROOT
BRANCH   6   7
HETATM    7  C   UNL     1     -11.116   8.476  71.740  1.00  0.00    -0.378 A  
HETATM    8  C   UNL     1     -12.039   7.614  71.151  1.00  0.00    -0.298 A  
HETATM    9  N   UNL     1     -12.273   6.342  71.552  1.00  0.00    -0.259 NA 
HETATM   10  C   UNL     1     -11.551   5.896  72.599  1.00  0.00    -0.241 A  
HETATM   11  C   UNL     1     -10.601   6.658  73.256  1.00  0.00    -0.316 A  
HETATM   12  C   UNL     1     -10.381   7.961  72.815  1.00  0.00    -0.399 A  
ENDBRANCH   6   7
TORSDOF 1
ENDMDL
MODEL       74
REMARK 921   NORMALIZED FREE ENERGY PREDICTED BY IDOCK:   -3.38 KCAL/MOL
REMARK 922        TOTAL FREE ENERGY PREDICTED BY IDOCK:   -3.71 KCAL/MOL
REMARK 923 INTER-LIGAND FREE ENERGY PREDICTED BY IDOCK:   -3.65 KCAL/MOL
REMARK 924 INTRA-LIGAND FREE ENERGY PREDICTED BY IDOCK:   -0.05 KCAL/MOL
REMARK 927      BINDING AFFINITY PREDICTED BY RF-SCORE:    0.00 PKD
ROOT
HETATM    1  C   UNL     1     -12.364  14.710  70.359  1.00  0.00    -0.339 C  
HETATM    2  N   UNL     1     -11.903  15.552  69.274  1.00  0.00    -0.352 NA 
HETATM    3  C   UNL     1     -10.789  16.424  69.618  1.00  0.00    -0.346 C  
HETATM    4  C   UNL     1     -10.468  17.043  68.272  1.00  0.00    -0.363 C  
HETATM    5  C   UNL     1     -10.681  15.911  67.275  1.00  0.00    -0.306 C  
HETATM    6  C   UNL     1     -11.604  14.904  67.987  1.00  0.00    -0.341 C  
ENDROOT
BRANCH   6   7
HETATM    7  C   UNL     1     -11.025  13.503  68.032  1.00  0.00    -0.271 A  
HETATM    8  C   UNL     1      -9.645  13.330  68.119  1.00  0.00    -0.227 A  
HETATM    9  N   UNL     1      -9.020  12.129  68.157  1.00  0.00    -0.190 NA 
HETATM   10  C   UNL     1      -9.806  11.035  68.105  1.00  0.00    -0.176 A  
HETATM   11  C   UNL     1     -11.186  11.087  68.027  1.00  0.00    -0.372 A  
HETATM   12  C   UNL     1     -11.800  12.337  67.995  1.00  0.00    -0.368 A  
ENDBRANCH   6   7
TORSDOF 1
ENDMDL
MODEL       75
REMARK 921   NORMALIZED FREE ENERGY PREDICTED BY IDOCK:   -3.38 KCAL/MOL
REMARK 922        TOTAL FREE ENERGY PREDICTED BY IDOCK:   -3.70 KCAL/MOL
REMARK 923 INTER-LIGAND FREE ENERGY PREDICTED BY IDOCK:   -3.79 KCAL/MOL
REMARK 924 INTRA-LIGAND FREE ENERGY PREDICTED BY IDOCK:    0.08 KCAL/MOL
REMARK 927      BINDING AFFINITY PREDICTED BY RF-SCORE:    0.00 PKD
ROOT
HETATM    1  C   UNL     1     -13.174   9.533  72.219  1.00  0.00    -0.421 C  
HETATM    2  N   UNL     1     -12.552   9.512  70.911  1.00  0.00    -0.230 NA 
HETATM    3  C   UNL     1     -12.089  10.810  70.441  1.00  0.00    -0.354 C  
HETATM    4  C   UNL     1     -11.384  10.429  69.155  1.00  0.00    -0.286 C  
HETATM    5  C   UNL     1     -10.714   9.097  69.472  1.00  0.00    -0.226 C  
HETATM    6  C   UNL     1     -11.481   8.528  70.680  1.00  0.00    -0.228 C  
ENDROOT
BRANCH   6   7
HETATM    7  C   UNL     1     -10.577   8.198  71.851  1.00  0.00    -0.324 A  
HETATM    8  C   UNL     1      -9.304   8.760  71.919  1.00  0.00    -0.273 A  
HETATM    9  N   UNL     1      -8.411   8.530  72.911  1.00  0.00    -0.393 NA 
HETATM   10  C   UNL     1      -8.799   7.692  73.893  1.00  0.00    -0.258 A  
HETATM   11  C   UNL     1     -10.041   7.084  73.934  1.00  0.00    -0.386 A  
HETATM   12  C   UNL     1     -10.939   7.345  72.901  1.00  0.00    -0.408 A  
ENDBRANCH   6   7
TORSDOF 1
ENDMDL
MODEL       76
REMARK 921   NORMALIZED FREE ENERGY PREDICTED BY IDOCK:   -3.37 KCAL/MOL
REMARK 922        TOTAL FREE ENERGY PREDICTED BY IDOCK:   -3.70 KCAL/MOL
REMARK 923 INTER-LIGAND FREE ENERGY PREDICTED BY IDOCK:   -3.55 KCAL/MOL
REMARK 924 INTRA-LIGAND FREE ENERGY PREDICTED BY IDOCK:   -0.15 KCAL/MOL
REMARK 927      BINDING AFFINITY PREDICTED BY RF-SCORE:    0.00 PKD
ROOT
HETATM    1  C   UNL     1      -8.260  13.170  67.896  1.00  0.00    -0.162 C  
HETATM    2  N   UNL     1      -9.192  12.548  66.978  1.00  0.00    -0.207 NA 
HETATM    3  C   UNL     1      -9.351  11.112  67.159  1.00  0.00    -0.165 C  
HETATM    4  C   UNL     1     -10.463  10.808  66.173  1.00  0.00    -0.278 C  
HETATM    5  C   UNL     1     -11.390  12.014  66.266  1.00  0.00    -0.415 C  
HETATM    6  C   UNL     1     -10.530  13.150  66.852  1.00  0.00    -0.256 C  
ENDROOT
BRANCH   6   7
HETATM    7  C   UNL     1     -11.136  13.764  68.100  1.00  0.00    -0.282 A  
HETATM    8  C   UNL     1     -11.144  15.149  68.252  1.00  0.00    -0.291 A  
HETATM    9  N   UNL     1     -11.648  15.804  69.325  1.00  0.00    -0.358 NA 
HETATM   10  C   UNL     1     -12.175  15.044  70.306  1.00  0.00    -0.340 A  
HETATM   11  C   UNL     1     -12.228  13.662  70.258  1.00  0.00    -0.423 A  
HETATM   12  C   UNL     1     -11.706  13.019  69.139  1.00  0.00    -0.378 A  
ENDBRANCH   6   7
TORSDOF 1
ENDMDL
MODEL       77
REMARK 921   NORMALIZED FREE ENERGY PREDICTED BY IDOCK:   -3.35 KCAL/MOL
REMARK 922        TOTAL FREE ENERGY PREDICTED BY IDOCK:   -3.67 KCAL/MOL
REMARK 923 INTER-LIGAND FREE ENERGY PREDICTED BY IDOCK:   -4.60 KCAL/MOL
REMARK 924 INTRA-LIGAND FREE ENERGY PREDICTED BY IDOCK:    0.93 KCAL/MOL
REMARK 927      BINDING AFFINITY PREDICTED BY RF-SCORE:    0.00 PKD
ROOT
HETATM    1  C   UNL     1     -11.600  15.905  70.290  1.00  0.00    -0.354 C  
HETATM    2  N   UNL     1     -12.341  15.097  71.236  1.00  0.00    -0.307 NA 
HETATM    3  C   UNL     1     -13.759  15.415  71.323  1.00  0.00    -0.475 C  
HETATM    4  C   UNL     1     -14.253  14.331  72.261  1.00  0.00    -0.587 C  
HETATM    5  C   UNL     1     -13.448  13.098  71.868  1.00  0.00    -0.513 C  
HETATM    6  C   UNL     1     -12.200  13.635  71.142  1.00  0.00    -0.239 C  
ENDROOT
BRANCH   6   7
HETATM    7  C   UNL     1     -12.022  13.041  69.758  1.00  0.00    -0.377 A  
HETATM    8  C   UNL     1     -12.115  13.865  68.638  1.00  0.00    -0.302 A  
HETATM    9  N   UNL     1     -11.983  13.443  67.358  1.00  0.00    -0.364 NA 
HETATM   10  C   UNL     1     -11.746  12.129  67.174  1.00  0.00    -0.302 A  
HETATM   11  C   UNL     1     -11.625  11.221  68.211  1.00  0.00    -0.370 A  
HETATM   12  C   UNL     1     -11.761  11.687  69.517  1.00  0.00    -0.410 A  
ENDBRANCH   6   7
TORSDOF 1
ENDMDL
MODEL       78
REMARK 921   NORMALIZED FREE ENERGY PREDICTED BY IDOCK:   -3.33 KCAL/MOL
REMARK 922        TOTAL FREE ENERGY PREDICTED BY IDOCK:   -3.65 KCAL/MOL
REMARK 923 INTER-LIGAND FREE ENERGY PREDICTED BY IDOCK:   -3.51 KCAL/MOL
REMARK 924 INTRA-LIGAND FREE ENERGY PREDICTED BY IDOCK:   -0.14 KCAL/MOL
REMARK 927      BINDING AFFINITY PREDICTED BY RF-SCORE:    0.00 PKD
ROOT
HETATM    1  C   UNL     1      -9.603   7.951  73.391  1.00  0.00    -0.264 C  
HETATM    2  N   UNL     1      -9.232   7.967  71.991  1.00  0.00    -0.143 NA 
HETATM    3  C   UNL     1      -8.806   6.678  71.464  1.00  0.00    -0.138 C  
HETATM    4  C   UNL     1      -8.634   6.998  69.992  1.00  0.00    -0.141 C  
HETATM    5  C   UNL     1      -9.770   7.965  69.681  1.00  0.00    -0.173 C  
HETATM    6  C   UNL     1     -10.184   8.563  71.039  1.00  0.00    -0.203 C  
ENDROOT
BRANCH   6   7
HETATM    7  C   UNL     1     -11.662   8.389  71.334  1.00  0.00    -0.332 A  
HETATM    8  C   UNL     1     -12.416   9.485  71.747  1.00  0.00    -0.401 A  
HETATM    9  N   UNL     1     -13.736   9.444  72.045  1.00  0.00    -0.408 NA 
HETATM   10  C   UNL     1     -14.347   8.248  71.929  1.00  0.00    -0.476 A  
HETATM   11  C   UNL     1     -13.700   7.095  71.519  1.00  0.00    -0.413 A  
HETATM   12  C   UNL     1     -12.343   7.171  71.215  1.00  0.00    -0.418 A  
ENDBRANCH   6   7
TORSDOF 1
ENDMDL
MODEL       79
REMARK 921   NORMALIZED FREE ENERGY PREDICTED BY IDOCK:   -3.28 KCAL/MOL
REMARK 922        TOTAL FREE ENERGY PREDICTED BY IDOCK:   -3.60 KCAL/MOL
REMARK 923 INTER-LIGAND FREE ENERGY PREDICTED BY IDOCK:   -3.53 KCAL/MOL
REMARK 924 INTRA-LIGAND FREE ENERGY PREDICTED BY IDOCK:   -0.07 KCAL/MOL
REMARK 927      BINDING AFFINITY PREDICTED BY RF-SCORE:    0.00 PKD
ROOT
HETATM    1  C   UNL     1     -11.749   6.129  71.741  1.00  0.00    -0.253 C  
HETATM    2  N   UNL     1     -10.604   6.577  72.505  1.00  0.00    -0.206 NA 
HETATM    3  C   UNL     1      -9.324   6.075  72.025  1.00  0.00    -0.149 C  
HETATM    4  C   UNL     1      -8.355   6.821  72.921  1.00  0.00    -0.123 C  
HETATM    5  C   UNL     1      -8.977   8.203  73.082  1.00  0.00    -0.330 C  
HETATM    6  C   UNL     1     -10.470   8.023  72.751  1.00  0.00    -0.345 C  
ENDROOT
BRANCH   6   7
HETATM    7  C   UNL     1     -10.950   8.960  71.660  1.00  0.00    -0.415 A  
HETATM    8  C   UNL     1     -10.102   9.274  70.599  1.00  0.00    -0.276 A  
HETATM    9  N   UNL     1     -10.421  10.104  69.577  1.00  0.00    -0.224 NA 
HETATM   10  C   UNL     1     -11.650  10.657  69.606  1.00  0.00    -0.296 A  
HETATM   11  C   UNL     1     -12.577  10.410  70.604  1.00  0.00    -0.435 A  
HETATM   12  C   UNL     1     -12.221   9.548  71.638  1.00  0.00    -0.477 A  
ENDBRANCH   6   7
TORSDOF 1
ENDMDL
MODEL       80
REMARK 921   NORMALIZED FREE ENERGY PREDICTED BY IDOCK:   -3.27 KCAL/MOL
REMARK 922        TOTAL FREE ENERGY PREDICTED BY IDOCK:   -3.59 KCAL/MOL
REMARK 923 INTER-LIGAND FREE ENERGY PREDICTED BY IDOCK:   -3.57 KCAL/MOL
REMARK 924 INTRA-LIGAND FREE ENERGY PREDICTED BY IDOCK:   -0.02 KCAL/MOL
REMARK 927      BINDING AFFINITY PREDICTED BY RF-SCORE:    0.00 PKD
ROOT
HETATM    1  C   UNL     1     -12.632  10.483  70.727  1.00  0.00    -0.382 C  
HETATM    2  N   UNL     1     -11.760   9.687  71.565  1.00  0.00    -0.394 NA 
HETATM    3  C   UNL     1     -12.402   8.536  72.185  1.00  0.00    -0.382 C  
HETATM    4  C   UNL     1     -11.223   7.859  72.854  1.00  0.00    -0.429 C  
HETATM    5  C   UNL     1     -10.072   8.050  71.874  1.00  0.00    -0.264 C  
HETATM    6  C   UNL     1     -10.477   9.246  70.992  1.00  0.00    -0.314 C  
ENDROOT
BRANCH   6   7
HETATM    7  C   UNL     1     -10.453   8.922  69.511  1.00  0.00    -0.229 A  
HETATM    8  C   UNL     1     -10.679   7.614  69.088  1.00  0.00    -0.141 A  
HETATM    9  N   UNL     1     -10.673   7.210  67.796  1.00  0.00    -0.223 NA 
HETATM   10  C   UNL     1     -10.426   8.155  66.866  1.00  0.00    -0.309 A  
HETATM   11  C   UNL     1     -10.196   9.485  67.170  1.00  0.00    -0.305 A  
HETATM   12  C   UNL     1     -10.215   9.870  68.508  1.00  0.00    -0.199 A  
ENDBRANCH   6   7
TORSDOF 1
ENDMDL
MODEL       81
REMARK 921   NORMALIZED FREE ENERGY PREDICTED BY IDOCK:   -3.26 KCAL/MOL
REMARK 922        TOTAL FREE ENERGY PREDICTED BY IDOCK:   -3.58 KCAL/MOL
REMARK 923 INTER-LIGAND FREE ENERGY PREDICTED BY IDOCK:   -3.66 KCAL/MOL
REMARK 924 INTRA-LIGAND FREE ENERGY PREDICTED BY IDOCK:    0.08 KCAL/MOL
REMARK 927      BINDING AFFINITY PREDICTED BY RF-SCORE:    0.00 PKD
ROOT
HETATM    1  C   UNL     1     -12.563  15.548  64.003  1.00  0.00     0.476 C  
HETATM    2  N   UNL     1     -12.433  14.223  64.572  1.00  0.00    -0.660 NA 
HETATM    3  C   UNL     1     -11.664  13.289  63.761  1.00  0.00    -0.421 C  
HETATM    4  C   UNL     1     -11.598  12.082  64.675  1.00  0.00    -0.364 C  
HETATM    5  C   UNL     1     -11.446  12.674  66.072  1.00  0.00    -0.414 C  
HETATM    6  C   UNL     1     -11.966  14.120  65.964  1.00  0.00    -0.413 C  
ENDROOT
BRANCH   6   7
HETATM    7  C   UNL     1     -10.953  15.146  66.434  1.00  0.00    -0.329 A  
HETATM    8  C   UNL     1     -11.169  15.831  67.629  1.00  0.00    -0.246 A  
HETATM    9  N   UNL     1     -10.340  16.772  68.139  1.00  0.00    -0.301 NA 
HETATM   10  C   UNL     1      -9.231  17.054  67.425  1.00  0.00    -0.234 A  
HETATM   11  C   UNL     1      -8.911  16.431  66.232  1.00  0.00    -0.367 A  
HETATM   12  C   UNL     1      -9.782  15.464  65.736  1.00  0.00    -0.385 A  
ENDBRANCH   6   7
TORSDOF 1
ENDMDL
MODEL       82
REMARK 921   NORMALIZED FREE ENERGY PREDICTED BY IDOCK:   -3.26 KCAL/MOL
REMARK 922        TOTAL FREE ENERGY PREDICTED BY IDOCK:   -3.57 KCAL/MOL
REMARK 923 INTER-LIGAND FREE ENERGY PREDICTED BY IDOCK:   -3.47 KCAL/MOL
REMARK 924 INTRA-LIGAND FREE ENERGY PREDICTED BY IDOCK:   -0.10 KCAL/MOL
REMARK 927      BINDING AFFINITY PREDICTED BY RF-SCORE:    0.00 PKD
ROOT
HETATM    1  C   UNL     1      -8.628  15.643  69.156  1.00  0.00    -0.251 C  
HETATM    2  N   UNL     1      -7.349  16.226  68.808  1.00  0.00    -0.178 NA 
HETATM    3  C   UNL     1      -6.676  15.581  67.689  1.00  0.00    -0.179 C  
HETATM    4  C   UNL     1      -5.478  16.490  67.496  1.00  0.00    -0.170 C  
HETATM    5  C   UNL     1      -6.019  17.890  67.766  1.00  0.00    -0.157 C  
HETATM    6  C   UNL     1      -7.296  17.683  68.603  1.00  0.00    -0.257 C  
ENDROOT
BRANCH   6   7
HETATM    7  C   UNL     1      -8.516  18.343  67.990  1.00  0.00    -0.291 A  
HETATM    8  C   UNL     1      -9.247  19.266  68.735  1.00  0.00    -0.371 A  
HETATM    9  N   UNL     1     -10.355  19.908  68.294  1.00  0.00    -0.434 NA 
HETATM   10  C   UNL     1     -10.764  19.619  67.042  1.00  0.00    -0.455 A  
HETATM   11  C   UNL     1     -10.112  18.727  66.210  1.00  0.00    -0.447 A  
HETATM   12  C   UNL     1      -8.972  18.087  66.691  1.00  0.00    -0.285 A  
ENDBRANCH   6   7
TORSDOF 1
ENDMDL
MODEL       83
REMARK 921   NORMALIZED FREE ENERGY PREDICTED BY IDOCK:   -3.25 KCAL/MOL
REMARK 922        TOTAL FREE ENERGY PREDICTED BY IDOCK:   -3.57 KCAL/MOL
REMARK 923 INTER-LIGAND FREE ENERGY PREDICTED BY IDOCK:   -3.45 KCAL/MOL
REMARK 924 INTRA-LIGAND FREE ENERGY PREDICTED BY IDOCK:   -0.12 KCAL/MOL
REMARK 927      BINDING AFFINITY PREDICTED BY RF-SCORE:    0.00 PKD
ROOT
HETATM    1  C   UNL     1     -12.079  14.291  68.909  1.00  0.00    -0.279 C  
HETATM    2  N   UNL     1     -10.931  13.662  68.290  1.00  0.00    -0.245 NA 
HETATM    3  C   UNL     1     -11.214  12.999  67.025  1.00  0.00    -0.289 C  
HETATM    4  C   UNL     1      -9.823  12.584  66.586  1.00  0.00    -0.245 C  
HETATM    5  C   UNL     1      -8.930  13.740  67.021  1.00  0.00    -0.247 C  
HETATM    6  C   UNL     1      -9.713  14.473  68.125  1.00  0.00    -0.219 C  
ENDROOT
BRANCH   6   7
HETATM    7  C   UNL     1      -9.897  15.950  67.836  1.00  0.00    -0.218 A  
HETATM    8  C   UNL     1      -9.831  16.871  68.881  1.00  0.00    -0.267 A  
HETATM    9  N   UNL     1      -9.988  18.208  68.741  1.00  0.00    -0.380 NA 
HETATM   10  C   UNL     1     -10.227  18.663  67.494  1.00  0.00    -0.386 A  
HETATM   11  C   UNL     1     -10.305  17.843  66.382  1.00  0.00    -0.365 A  
HETATM   12  C   UNL     1     -10.133  16.472  66.559  1.00  0.00    -0.307 A  
ENDBRANCH   6   7
TORSDOF 1
ENDMDL
MODEL       84
REMARK 921   NORMALIZED FREE ENERGY PREDICTED BY IDOCK:   -3.25 KCAL/MOL
REMARK 922        TOTAL FREE ENERGY PREDICTED BY IDOCK:   -3.57 KCAL/MOL
REMARK 923 INTER-LIGAND FREE ENERGY PREDICTED BY IDOCK:   -3.87 KCAL/MOL
REMARK 924 INTRA-LIGAND FREE ENERGY PREDICTED BY IDOCK:    0.31 KCAL/MOL
REMARK 927      BINDING AFFINITY PREDICTED BY RF-SCORE:    0.00 PKD
ROOT
HETATM    1  C   UNL     1     -11.936  13.185  67.732  1.00  0.00    -0.307 C  
HETATM    2  N   UNL     1     -11.676  14.343  66.903  1.00  0.00    -0.389 NA 
HETATM    3  C   UNL     1     -10.601  15.200  67.382  1.00  0.00    -0.271 C  
HETATM    4  C   UNL     1     -10.492  16.205  66.251  1.00  0.00    -0.321 C  
HETATM    5  C   UNL     1     -10.733  15.382  64.991  1.00  0.00    -0.460 C  
HETATM    6  C   UNL     1     -11.482  14.121  65.460  1.00  0.00    -0.324 C  
ENDROOT
BRANCH   6   7
HETATM    7  C   UNL     1     -10.794  12.836  65.042  1.00  0.00    -0.319 A  
HETATM    8  C   UNL     1     -11.183  12.196  63.868  1.00  0.00    -0.415 A  
HETATM    9  N   UNL     1     -10.646  11.043  63.403  1.00  0.00    -0.283 NA 
HETATM   10  C   UNL     1      -9.666  10.489  64.145  1.00  0.00    -0.327 A  
HETATM   11  C   UNL     1      -9.193  11.041  65.322  1.00  0.00    -0.229 A  
HETATM   12  C   UNL     1      -9.763  12.230  65.771  1.00  0.00    -0.228 A  
ENDBRANCH   6   7
TORSDOF 1
ENDMDL
MODEL       85
REMARK 921   NORMALIZED FREE ENERGY PREDICTED BY IDOCK:   -3.24 KCAL/MOL
REMARK 922        TOTAL FREE ENERGY PREDICTED BY IDOCK:   -3.55 KCAL/MOL
REMARK 923 INTER-LIGAND FREE ENERGY PREDICTED BY IDOCK:   -3.42 KCAL/MOL
REMARK 924 INTRA-LIGAND FREE ENERGY PREDICTED BY IDOCK:   -0.14 KCAL/MOL
REMARK 927      BINDING AFFINITY PREDICTED BY RF-SCORE:    0.00 PKD
ROOT
HETATM    1  C   UNL     1     -11.060  15.072  68.721  1.00  0.00    -0.261 C  
HETATM    2  N   UNL     1     -10.110  14.053  68.325  1.00  0.00    -0.240 NA 
HETATM    3  C   UNL     1     -10.543  12.688  68.587  1.00  0.00    -0.222 C  
HETATM    4  C   UNL     1      -9.424  11.891  67.946  1.00  0.00    -0.194 C  
HETATM    5  C   UNL     1      -9.063  12.685  66.696  1.00  0.00    -0.193 C  
HETATM    6  C   UNL     1      -9.575  14.114  66.955  1.00  0.00    -0.270 C  
ENDROOT
BRANCH   6   7
HETATM    7  C   UNL     1     -10.507  14.612  65.867  1.00  0.00    -0.325 A  
HETATM    8  C   UNL     1     -10.414  15.932  65.431  1.00  0.00    -0.405 A  
HETATM    9  N   UNL     1     -11.198  16.485  64.475  1.00  0.00    -0.881 NA 
HETATM   10  C   UNL     1     -12.131  15.686  63.919  1.00  0.00     0.294 A  
HETATM   11  C   UNL     1     -12.307  14.359  64.267  1.00  0.00    -0.402 A  
HETATM   12  C   UNL     1     -11.481  13.818  65.250  1.00  0.00    -0.320 A  
ENDBRANCH   6   7
TORSDOF 1
ENDMDL
MODEL       86
REMARK 921   NORMALIZED FREE ENERGY PREDICTED BY IDOCK:   -3.23 KCAL/MOL
REMARK 922        TOTAL FREE ENERGY PREDICTED BY IDOCK:   -3.55 KCAL/MOL
REMARK 923 INTER-LIGAND FREE ENERGY PREDICTED BY IDOCK:   -3.55 KCAL/MOL
REMARK 924 INTRA-LIGAND FREE ENERGY PREDICTED BY IDOCK:   -0.00 KCAL/MOL
REMARK 927      BINDING AFFINITY PREDICTED BY RF-SCORE:    0.00 PKD
ROOT
HETATM    1  C   UNL     1     -11.072  15.187  66.733  1.00  0.00    -0.307 C  
HETATM    2  N   UNL     1     -11.630  15.218  68.070  1.00  0.00    -0.339 NA 
HETATM    3  C   UNL     1     -11.711  13.918  68.721  1.00  0.00    -0.357 C  
HETATM    4  C   UNL     1     -12.187  14.307  70.107  1.00  0.00    -0.407 C  
HETATM    5  C   UNL     1     -11.463  15.615  70.401  1.00  0.00    -0.369 C  
HETATM    6  C   UNL     1     -11.059  16.180  69.026  1.00  0.00    -0.336 C  
ENDROOT
BRANCH   6   7
HETATM    7  C   UNL     1      -9.573  16.466  68.920  1.00  0.00    -0.252 A  
HETATM    8  C   UNL     1      -8.655  15.456  69.199  1.00  0.00    -0.242 A  
HETATM    9  N   UNL     1      -7.310  15.601  69.145  1.00  0.00    -0.172 NA 
HETATM   10  C   UNL     1      -6.845  16.817  68.795  1.00  0.00    -0.188 A  
HETATM   11  C   UNL     1      -7.663  17.890  68.487  1.00  0.00    -0.299 A  
HETATM   12  C   UNL     1      -9.042  17.707  68.547  1.00  0.00    -0.279 A  
ENDBRANCH   6   7
TORSDOF 1
ENDMDL
MODEL       87
REMARK 921   NORMALIZED FREE ENERGY PREDICTED BY IDOCK:   -3.20 KCAL/MOL
REMARK 922        TOTAL FREE ENERGY PREDICTED BY IDOCK:   -3.52 KCAL/MOL
REMARK 923 INTER-LIGAND FREE ENERGY PREDICTED BY IDOCK:   -3.37 KCAL/MOL
REMARK 924 INTRA-LIGAND FREE ENERGY PREDICTED BY IDOCK:   -0.14 KCAL/MOL
REMARK 927      BINDING AFFINITY PREDICTED BY RF-SCORE:    0.00 PKD
ROOT
HETATM    1  C   UNL     1     -11.739  12.000  68.916  1.00  0.00    -0.326 C  
HETATM    2  N   UNL     1     -12.112  12.557  67.632  1.00  0.00    -0.426 NA 
HETATM    3  C   UNL     1     -11.851  13.982  67.493  1.00  0.00    -0.407 C  
HETATM    4  C   UNL     1     -12.206  14.212  66.037  1.00  0.00    -0.464 C  
HETATM    5  C   UNL     1     -11.719  12.954  65.327  1.00  0.00    -0.399 C  
HETATM    6  C   UNL     1     -11.617  11.876  66.423  1.00  0.00    -0.243 C  
ENDROOT
BRANCH   6   7
HETATM    7  C   UNL     1     -10.243  11.239  66.498  1.00  0.00    -0.269 A  
HETATM    8  C   UNL     1     -10.129   9.852  66.550  1.00  0.00    -0.232 A  
HETATM    9  N   UNL     1      -8.957   9.177  66.627  1.00  0.00    -0.133 NA 
HETATM   10  C   UNL     1      -7.832   9.919  66.656  1.00  0.00    -0.110 A  
HETATM   11  C   UNL     1      -7.825  11.301  66.600  1.00  0.00    -0.152 A  
HETATM   12  C   UNL     1      -9.046  11.965  66.516  1.00  0.00    -0.211 A  
ENDBRANCH   6   7
TORSDOF 1
ENDMDL
MODEL       88
REMARK 921   NORMALIZED FREE ENERGY PREDICTED BY IDOCK:   -3.16 KCAL/MOL
REMARK 922        TOTAL FREE ENERGY PREDICTED BY IDOCK:   -3.47 KCAL/MOL
REMARK 923 INTER-LIGAND FREE ENERGY PREDICTED BY IDOCK:   -3.39 KCAL/MOL
REMARK 924 INTRA-LIGAND FREE ENERGY PREDICTED BY IDOCK:   -0.08 KCAL/MOL
REMARK 927      BINDING AFFINITY PREDICTED BY RF-SCORE:    0.00 PKD
ROOT
HETATM    1  C   UNL     1      -8.844   6.019  71.134  1.00  0.00    -0.139 C  
HETATM    2  N   UNL     1     -10.118   6.460  71.665  1.00  0.00    -0.186 NA 
HETATM    3  C   UNL     1     -10.047   7.661  72.486  1.00  0.00    -0.229 C  
HETATM    4  C   UNL     1     -11.515   7.927  72.755  1.00  0.00    -0.428 C  
HETATM    5  C   UNL     1     -12.211   7.553  71.451  1.00  0.00    -0.363 C  
HETATM    6  C   UNL     1     -11.236   6.611  70.720  1.00  0.00    -0.315 C  
ENDROOT
BRANCH   6   7
HETATM    7  C   UNL     1     -10.902   7.082  69.318  1.00  0.00    -0.241 A  
HETATM    8  C   UNL     1     -10.632   8.430  69.089  1.00  0.00    -0.163 A  
HETATM    9  N   UNL     1     -10.331   8.962  67.881  1.00  0.00    -0.222 NA 
HETATM   10  C   UNL     1     -10.297   8.111  66.836  1.00  0.00    -0.331 A  
HETATM   11  C   UNL     1     -10.539   6.753  66.946  1.00  0.00    -0.374 A  
HETATM   12  C   UNL     1     -10.840   6.236  68.204  1.00  0.00    -0.401 A  
ENDBRANCH   6   7
TORSDOF 1
ENDMDL
MODEL       89
REMARK 921   NORMALIZED FREE ENERGY PREDICTED BY IDOCK:   -3.14 KCAL/MOL
REMARK 922        TOTAL FREE ENERGY PREDICTED BY IDOCK:   -3.45 KCAL/MOL
REMARK 923 INTER-LIGAND FREE ENERGY PREDICTED BY IDOCK:   -3.35 KCAL/MOL
REMARK 924 INTRA-LIGAND FREE ENERGY PREDICTED BY IDOCK:   -0.10 KCAL/MOL
REMARK 927      BINDING AFFINITY PREDICTED BY RF-SCORE:    0.00 PKD
ROOT
HETATM    1  C   UNL     1     -12.708  12.571  71.152  1.00  0.00    -0.245 C  
HETATM    2  N   UNL     1     -12.576  13.915  70.629  1.00  0.00    -0.343 NA 
HETATM    3  C   UNL     1     -11.685  14.776  71.393  1.00  0.00    -0.292 C  
HETATM    4  C   UNL     1     -11.657  16.021  70.528  1.00  0.00    -0.383 C  
HETATM    5  C   UNL     1     -11.676  15.488  69.100  1.00  0.00    -0.380 C  
HETATM    6  C   UNL     1     -12.249  14.062  69.201  1.00  0.00    -0.262 C  
ENDROOT
BRANCH   6   7
HETATM    7  C   UNL     1     -11.340  13.017  68.585  1.00  0.00    -0.329 A  
HETATM    8  C   UNL     1     -11.895  11.920  67.929  1.00  0.00    -0.238 A  
HETATM    9  N   UNL     1     -11.182  10.924  67.351  1.00  0.00    -0.396 NA 
HETATM   10  C   UNL     1      -9.839  11.018  67.429  1.00  0.00    -0.173 A  
HETATM   11  C   UNL     1      -9.179  12.064  68.048  1.00  0.00    -0.192 A  
HETATM   12  C   UNL     1      -9.941  13.076  68.627  1.00  0.00    -0.114 A  
ENDBRANCH   6   7
TORSDOF 1
ENDMDL
MODEL       90
REMARK 921   NORMALIZED FREE ENERGY PREDICTED BY IDOCK:   -3.13 KCAL/MOL
REMARK 922        TOTAL FREE ENERGY PREDICTED BY IDOCK:   -3.45 KCAL/MOL
REMARK 923 INTER-LIGAND FREE ENERGY PREDICTED BY IDOCK:   -3.32 KCAL/MOL
REMARK 924 INTRA-LIGAND FREE ENERGY PREDICTED BY IDOCK:   -0.13 KCAL/MOL
REMARK 927      BINDING AFFINITY PREDICTED BY RF-SCORE:    0.00 PKD
ROOT
HETATM    1  C   UNL     1      -8.412  11.267  68.577  1.00  0.00    -0.156 C  
HETATM    2  N   UNL     1      -8.746  10.551  67.363  1.00  0.00    -0.126 NA 
HETATM    3  C   UNL     1      -9.614   9.399  67.561  1.00  0.00    -0.141 C  
HETATM    4  C   UNL     1      -9.880   8.975  66.129  1.00  0.00    -0.349 C  
HETATM    5  C   UNL     1      -9.989  10.287  65.361  1.00  0.00    -0.371 C  
HETATM    6  C   UNL     1      -9.266  11.334  66.230  1.00  0.00    -0.200 C  
ENDROOT
BRANCH   6   7
HETATM    7  C   UNL     1     -10.137  12.532  66.555  1.00  0.00    -0.250 A  
HETATM    8  C   UNL     1      -9.663  13.818  66.299  1.00  0.00    -0.284 A  
HETATM    9  N   UNL     1     -10.348  14.957  66.557  1.00  0.00    -0.285 NA 
HETATM   10  C   UNL     1     -11.574  14.817  67.101  1.00  0.00    -0.359 A  
HETATM   11  C   UNL     1     -12.148  13.592  67.389  1.00  0.00    -0.375 A  
HETATM   12  C   UNL     1     -11.420  12.438  67.108  1.00  0.00    -0.423 A  
ENDBRANCH   6   7
TORSDOF 1
ENDMDL
MODEL       91
REMARK 921   NORMALIZED FREE ENERGY PREDICTED BY IDOCK:   -3.13 KCAL/MOL
REMARK 922        TOTAL FREE ENERGY PREDICTED BY IDOCK:   -3.44 KCAL/MOL
REMARK 923 INTER-LIGAND FREE ENERGY PREDICTED BY IDOCK:   -3.30 KCAL/MOL
REMARK 924 INTRA-LIGAND FREE ENERGY PREDICTED BY IDOCK:   -0.15 KCAL/MOL
REMARK 927      BINDING AFFINITY PREDICTED BY RF-SCORE:    0.00 PKD
ROOT
HETATM    1  C   UNL     1      -8.052   6.519  69.669  1.00  0.00    -0.125 C  
HETATM    2  N   UNL     1      -8.880   6.424  68.485  1.00  0.00    -0.120 NA 
HETATM    3  C   UNL     1      -9.273   5.067  68.130  1.00  0.00    -0.120 C  
HETATM    4  C   UNL     1     -10.218   5.322  66.972  1.00  0.00    -0.274 C  
HETATM    5  C   UNL     1     -10.965   6.590  67.367  1.00  0.00    -0.458 C  
HETATM    6  C   UNL     1     -10.073   7.284  68.414  1.00  0.00    -0.171 C  
ENDROOT
BRANCH   6   7
HETATM    7  C   UNL     1     -10.802   7.568  69.713  1.00  0.00    -0.234 A  
HETATM    8  C   UNL     1     -10.663   8.814  70.323  1.00  0.00    -0.227 A  
HETATM    9  N   UNL     1     -11.258   9.174  71.485  1.00  0.00    -0.335 NA 
HETATM   10  C   UNL     1     -12.035   8.247  72.080  1.00  0.00    -0.369 A  
HETATM   11  C   UNL     1     -12.252   6.983  71.562  1.00  0.00    -0.407 A  
HETATM   12  C   UNL     1     -11.630   6.645  70.362  1.00  0.00    -0.457 A  
ENDBRANCH   6   7
TORSDOF 1
ENDMDL
MODEL       92
REMARK 921   NORMALIZED FREE ENERGY PREDICTED BY IDOCK:   -3.08 KCAL/MOL
REMARK 922        TOTAL FREE ENERGY PREDICTED BY IDOCK:   -3.39 KCAL/MOL
REMARK 923 INTER-LIGAND FREE ENERGY PREDICTED BY IDOCK:   -3.29 KCAL/MOL
REMARK 924 INTRA-LIGAND FREE ENERGY PREDICTED BY IDOCK:   -0.10 KCAL/MOL
REMARK 927      BINDING AFFINITY PREDICTED BY RF-SCORE:    0.00 PKD
ROOT
HETATM    1  C   UNL     1     -11.267  13.111  68.890  1.00  0.00    -0.277 C  
HETATM    2  N   UNL     1     -11.095  12.305  67.699  1.00  0.00    -0.253 NA 
HETATM    3  C   UNL     1      -9.891  12.603  66.936  1.00  0.00    -0.234 C  
HETATM    4  C   UNL     1      -9.935  11.525  65.872  1.00  0.00    -0.267 C  
HETATM    5  C   UNL     1     -10.473  10.298  66.599  1.00  0.00    -0.260 C  
HETATM    6  C   UNL     1     -11.201  10.843  67.842  1.00  0.00    -0.321 C  
ENDROOT
BRANCH   6   7
HETATM    7  C   UNL     1     -10.696  10.234  69.136  1.00  0.00    -0.259 A  
HETATM    8  C   UNL     1     -11.589   9.993  70.179  1.00  0.00    -0.252 A  
HETATM    9  N   UNL     1     -11.249   9.463  71.377  1.00  0.00    -0.358 NA 
HETATM   10  C   UNL     1      -9.949   9.153  71.556  1.00  0.00    -0.287 A  
HETATM   11  C   UNL     1      -8.978   9.340  70.589  1.00  0.00    -0.296 A  
HETATM   12  C   UNL     1      -9.360   9.882  69.364  1.00  0.00    -0.226 A  
ENDBRANCH   6   7
TORSDOF 1
ENDMDL
MODEL       93
REMARK 921   NORMALIZED FREE ENERGY PREDICTED BY IDOCK:   -3.08 KCAL/MOL
REMARK 922        TOTAL FREE ENERGY PREDICTED BY IDOCK:   -3.39 KCAL/MOL
REMARK 923 INTER-LIGAND FREE ENERGY PREDICTED BY IDOCK:   -3.28 KCAL/MOL
REMARK 924 INTRA-LIGAND FREE ENERGY PREDICTED BY IDOCK:   -0.11 KCAL/MOL
REMARK 927      BINDING AFFINITY PREDICTED BY RF-SCORE:    0.00 PKD
ROOT
HETATM    1  C   UNL     1     -10.986   6.613  67.668  1.00  0.00    -0.309 C  
HETATM    2  N   UNL     1     -10.322   5.659  68.532  1.00  0.00    -0.195 NA 
HETATM    3  C   UNL     1      -8.867   5.718  68.492  1.00  0.00    -0.110 C  
HETATM    4  C   UNL     1      -8.498   4.726  69.578  1.00  0.00    -0.092 C  
HETATM    5  C   UNL     1      -9.555   4.935  70.656  1.00  0.00    -0.254 C  
HETATM    6  C   UNL     1     -10.744   5.604  69.941  1.00  0.00    -0.329 C  
ENDROOT
BRANCH   6   7
HETATM    7  C   UNL     1     -11.166   6.908  70.591  1.00  0.00    -0.346 A  
HETATM    8  C   UNL     1     -12.488   7.081  70.996  1.00  0.00    -0.326 A  
HETATM    9  N   UNL     1     -12.976   8.202  71.577  1.00  0.00    -0.315 NA 
HETATM   10  C   UNL     1     -12.105   9.214  71.767  1.00  0.00    -0.376 A  
HETATM   11  C   UNL     1     -10.769   9.151  71.413  1.00  0.00    -0.414 A  
HETATM   12  C   UNL     1     -10.297   7.981  70.822  1.00  0.00    -0.214 A  
ENDBRANCH   6   7
TORSDOF 1
ENDMDL
MODEL       94
REMARK 921   NORMALIZED FREE ENERGY PREDICTED BY IDOCK:   -3.06 KCAL/MOL
REMARK 922        TOTAL FREE ENERGY PREDICTED BY IDOCK:   -3.36 KCAL/MOL
REMARK 923 INTER-LIGAND FREE ENERGY PREDICTED BY IDOCK:   -3.29 KCAL/MOL
REMARK 924 INTRA-LIGAND FREE ENERGY PREDICTED BY IDOCK:   -0.07 KCAL/MOL
REMARK 927      BINDING AFFINITY PREDICTED BY RF-SCORE:    0.00 PKD
ROOT
HETATM    1  C   UNL     1      -9.201  12.435  68.052  1.00  0.00    -0.203 C  
HETATM    2  N   UNL     1      -9.532  11.326  67.180  1.00  0.00    -0.169 NA 
HETATM    3  C   UNL     1      -8.475  10.336  67.034  1.00  0.00    -0.129 C  
HETATM    4  C   UNL     1      -9.171   9.275  66.204  1.00  0.00    -0.249 C  
HETATM    5  C   UNL     1     -10.599   9.256  66.737  1.00  0.00    -0.207 C  
HETATM    6  C   UNL     1     -10.799  10.618  67.427  1.00  0.00    -0.296 C  
ENDROOT
BRANCH   6   7
HETATM    7  C   UNL     1     -11.252  10.488  68.869  1.00  0.00    -0.323 A  
HETATM    8  C   UNL     1     -10.774   9.438  69.650  1.00  0.00    -0.235 A  
HETATM    9  N   UNL     1     -11.117   9.219  70.941  1.00  0.00    -0.279 NA 
HETATM   10  C   UNL     1     -11.984  10.091  71.494  1.00  0.00    -0.353 A  
HETATM   11  C   UNL     1     -12.516  11.175  70.817  1.00  0.00    -0.479 A  
HETATM   12  C   UNL     1     -12.139  11.375  69.491  1.00  0.00    -0.370 A  
ENDBRANCH   6   7
TORSDOF 1
ENDMDL
MODEL       95
REMARK 921   NORMALIZED FREE ENERGY PREDICTED BY IDOCK:   -3.05 KCAL/MOL
REMARK 922        TOTAL FREE ENERGY PREDICTED BY IDOCK:   -3.35 KCAL/MOL
REMARK 923 INTER-LIGAND FREE ENERGY PREDICTED BY IDOCK:   -3.27 KCAL/MOL
REMARK 924 INTRA-LIGAND FREE ENERGY PREDICTED BY IDOCK:   -0.08 KCAL/MOL
REMARK 927      BINDING AFFINITY PREDICTED BY RF-SCORE:    0.00 PKD
ROOT
HETATM    1  C   UNL     1     -10.972   8.855  71.484  1.00  0.00    -0.328 C  
HETATM    2  N   UNL     1     -11.147   8.189  70.209  1.00  0.00    -0.248 NA 
HETATM    3  C   UNL     1     -10.037   8.359  69.282  1.00  0.00    -0.202 C  
HETATM    4  C   UNL     1     -10.457   7.451  68.143  1.00  0.00    -0.241 C  
HETATM    5  C   UNL     1     -11.111   6.260  68.831  1.00  0.00    -0.434 C  
HETATM    6  C   UNL     1     -11.519   6.765  70.228  1.00  0.00    -0.360 C  
ENDROOT
BRANCH   6   7
HETATM    7  C   UNL     1     -10.956   5.915  71.351  1.00  0.00    -0.327 A  
HETATM    8  C   UNL     1      -9.667   5.397  71.243  1.00  0.00    -0.162 A  
HETATM    9  N   UNL     1      -9.068   4.621  72.177  1.00  0.00    -0.125 NA 
HETATM   10  C   UNL     1      -9.787   4.338  73.282  1.00  0.00    -0.131 A  
HETATM   11  C   UNL     1     -11.071   4.804  73.499  1.00  0.00    -0.412 A  
HETATM   12  C   UNL     1     -11.658   5.605  72.522  1.00  0.00    -0.303 A  
ENDBRANCH   6   7
TORSDOF 1
ENDMDL
MODEL       96
REMARK 921   NORMALIZED FREE ENERGY PREDICTED BY IDOCK:   -3.04 KCAL/MOL
REMARK 922        TOTAL FREE ENERGY PREDICTED BY IDOCK:   -3.35 KCAL/MOL
REMARK 923 INTER-LIGAND FREE ENERGY PREDICTED BY IDOCK:   -3.28 KCAL/MOL
REMARK 924 INTRA-LIGAND FREE ENERGY PREDICTED BY IDOCK:   -0.07 KCAL/MOL
REMARK 927      BINDING AFFINITY PREDICTED BY RF-SCORE:    0.00 PKD
ROOT
HETATM    1  C   UNL     1      -7.768   9.265  65.009  1.00  0.00    -0.109 C  
HETATM    2  N   UNL     1      -8.695   8.885  66.054  1.00  0.00    -0.150 NA 
HETATM    3  C   UNL     1      -8.196   9.086  67.407  1.00  0.00    -0.108 C  
HETATM    4  C   UNL     1      -9.420   8.738  68.233  1.00  0.00    -0.150 C  
HETATM    5  C   UNL     1     -10.589   9.288  67.424  1.00  0.00    -0.324 C  
HETATM    6  C   UNL     1     -10.064   9.422  65.982  1.00  0.00    -0.231 C  
ENDROOT
BRANCH   6   7
HETATM    7  C   UNL     1     -10.232  10.821  65.421  1.00  0.00    -0.341 A  
HETATM    8  C   UNL     1     -10.096  11.923  66.264  1.00  0.00    -0.220 A  
HETATM    9  N   UNL     1     -10.233  13.212  65.875  1.00  0.00    -0.287 NA 
HETATM   10  C   UNL     1     -10.522  13.426  64.576  1.00  0.00    -0.413 A  
HETATM   11  C   UNL     1     -10.670  12.411  63.648  1.00  0.00    -0.497 A  
HETATM   12  C   UNL     1     -10.518  11.095  64.078  1.00  0.00    -0.447 A  
ENDBRANCH   6   7
TORSDOF 1
ENDMDL
MODEL       97
REMARK 921   NORMALIZED FREE ENERGY PREDICTED BY IDOCK:   -3.04 KCAL/MOL
REMARK 922        TOTAL FREE ENERGY PREDICTED BY IDOCK:   -3.34 KCAL/MOL
REMARK 923 INTER-LIGAND FREE ENERGY PREDICTED BY IDOCK:   -3.67 KCAL/MOL
REMARK 924 INTRA-LIGAND FREE ENERGY PREDICTED BY IDOCK:    0.32 KCAL/MOL
REMARK 927      BINDING AFFINITY PREDICTED BY RF-SCORE:    0.00 PKD
ROOT
HETATM    1  C   UNL     1     -13.137  11.044  71.519  1.00  0.00    -0.396 C  
HETATM    2  N   UNL     1     -12.201   9.940  71.480  1.00  0.00    -0.394 NA 
HETATM    3  C   UNL     1     -12.805   8.645  71.200  1.00  0.00    -0.092 C  
HETATM    4  C   UNL     1     -11.579   7.760  71.089  1.00  0.00    -0.301 C  
HETATM    5  C   UNL     1     -10.542   8.637  70.397  1.00  0.00    -0.244 C  
HETATM    6  C   UNL     1     -11.007  10.086  70.631  1.00  0.00    -0.322 C  
ENDROOT
BRANCH   6   7
HETATM    7  C   UNL     1     -11.162  10.872  69.343  1.00  0.00    -0.335 A  
HETATM    8  C   UNL     1     -10.950  10.239  68.120  1.00  0.00    -0.274 A  
HETATM    9  N   UNL     1     -11.052  10.842  66.912  1.00  0.00    -0.227 NA 
HETATM   10  C   UNL     1     -11.382  12.149  66.914  1.00  0.00    -0.343 A  
HETATM   11  C   UNL     1     -11.625  12.876  68.065  1.00  0.00    -0.385 A  
HETATM   12  C   UNL     1     -11.517  12.225  69.292  1.00  0.00    -0.352 A  
ENDBRANCH   6   7
TORSDOF 1
ENDMDL
MODEL       98
REMARK 921   NORMALIZED FREE ENERGY PREDICTED BY IDOCK:   -3.02 KCAL/MOL
REMARK 922        TOTAL FREE ENERGY PREDICTED BY IDOCK:   -3.32 KCAL/MOL
REMARK 923 INTER-LIGAND FREE ENERGY PREDICTED BY IDOCK:   -3.18 KCAL/MOL
REMARK 924 INTRA-LIGAND FREE ENERGY PREDICTED BY IDOCK:   -0.15 KCAL/MOL
REMARK 927      BINDING AFFINITY PREDICTED BY RF-SCORE:    0.00 PKD
ROOT
HETATM    1  C   UNL     1     -11.152   6.350  69.118  1.00  0.00    -0.365 C  
HETATM    2  N   UNL     1     -11.507   6.674  70.484  1.00  0.00    -0.352 NA 
HETATM    3  C   UNL     1     -10.726   5.974  71.494  1.00  0.00    -0.255 C  
HETATM    4  C   UNL     1     -11.232   6.624  72.767  1.00  0.00    -0.263 C  
HETATM    5  C   UNL     1     -11.438   8.086  72.387  1.00  0.00    -0.449 C  
HETATM    6  C   UNL     1     -11.571   8.098  70.853  1.00  0.00    -0.267 C  
ENDROOT
BRANCH   6   7
HETATM    7  C   UNL     1     -10.583   9.034  70.183  1.00  0.00    -0.250 A  
HETATM    8  C   UNL     1     -11.028   9.919  69.203  1.00  0.00    -0.200 A  
HETATM    9  N   UNL     1     -10.236  10.790  68.534  1.00  0.00    -0.170 NA 
HETATM   10  C   UNL     1      -8.926  10.786  68.853  1.00  0.00    -0.153 A  
HETATM   11  C   UNL     1      -8.375   9.958  69.815  1.00  0.00    -0.196 A  
HETATM   12  C   UNL     1      -9.217   9.076  70.489  1.00  0.00    -0.261 A  
ENDBRANCH   6   7
TORSDOF 1
ENDMDL
MODEL       99
REMARK 921   NORMALIZED FREE ENERGY PREDICTED BY IDOCK:   -3.01 KCAL/MOL
REMARK 922        TOTAL FREE ENERGY PREDICTED BY IDOCK:   -3.32 KCAL/MOL
REMARK 923 INTER-LIGAND FREE ENERGY PREDICTED BY IDOCK:   -3.54 KCAL/MOL
REMARK 924 INTRA-LIGAND FREE ENERGY PREDICTED BY IDOCK:    0.22 KCAL/MOL
REMARK 927      BINDING AFFINITY PREDICTED BY RF-SCORE:    0.00 PKD
ROOT
HETATM    1  C   UNL     1     -12.083   7.748  71.501  1.00  0.00    -0.309 C  
HETATM    2  N   UNL     1     -11.047   7.203  70.648  1.00  0.00    -0.258 NA 
HETATM    3  C   UNL     1     -11.517   6.222  69.680  1.00  0.00    -0.355 C  
HETATM    4  C   UNL     1     -10.256   5.967  68.877  1.00  0.00    -0.246 C  
HETATM    5  C   UNL     1      -9.583   7.332  68.788  1.00  0.00    -0.142 C  
HETATM    6  C   UNL     1     -10.165   8.154  69.953  1.00  0.00    -0.204 C  
ENDROOT
BRANCH   6   7
HETATM    7  C   UNL     1     -10.777   9.466  69.500  1.00  0.00    -0.238 A  
HETATM    8  C   UNL     1     -10.940   9.717  68.139  1.00  0.00    -0.175 A  
HETATM    9  N   UNL     1     -11.465  10.853  67.622  1.00  0.00    -0.518 NA 
HETATM   10  C   UNL     1     -11.851  11.798  68.503  1.00  0.00    -0.303 A  
HETATM   11  C   UNL     1     -11.744  11.654  69.875  1.00  0.00    -0.414 A  
HETATM   12  C   UNL     1     -11.205  10.471  70.376  1.00  0.00    -0.378 A  
ENDBRANCH   6   7
TORSDOF 1
ENDMDL
MODEL      100
REMARK 921   NORMALIZED FREE ENERGY PREDICTED BY IDOCK:   -3.01 KCAL/MOL
REMARK 922        TOTAL FREE ENERGY PREDICTED BY IDOCK:   -3.31 KCAL/MOL
REMARK 923 INTER-LIGAND FREE ENERGY PREDICTED BY IDOCK:   -3.47 KCAL/MOL
REMARK 924 INTRA-LIGAND FREE ENERGY PREDICTED BY IDOCK:    0.16 KCAL/MOL
REMARK 927      BINDING AFFINITY PREDICTED BY RF-SCORE:    0.00 PKD
ROOT
HETATM    1  C   UNL     1      -9.636   7.799  68.597  1.00  0.00    -0.154 C  
HETATM    2  N   UNL     1      -9.601   9.220  68.319  1.00  0.00    -0.145 NA 
HETATM    3  C   UNL     1     -10.432   9.637  67.199  1.00  0.00    -0.249 C  
HETATM    4  C   UNL     1     -10.288  11.145  67.264  1.00  0.00    -0.243 C  
HETATM    5  C   UNL     1     -10.255  11.457  68.756  1.00  0.00    -0.209 C  
HETATM    6  C   UNL     1      -9.841  10.141  69.442  1.00  0.00    -0.229 C  
ENDROOT
BRANCH   6   7
HETATM    7  C   UNL     1     -10.824   9.697  70.507  1.00  0.00    -0.371 A  
HETATM    8  C   UNL     1     -10.446   8.725  71.432  1.00  0.00    -0.284 A  
HETATM    9  N   UNL     1     -11.243   8.248  72.417  1.00  0.00    -0.365 NA 
HETATM   10  C   UNL     1     -12.488   8.760  72.492  1.00  0.00    -0.298 A  
HETATM   11  C   UNL     1     -12.967   9.734  71.634  1.00  0.00    -0.517 A  
HETATM   12  C   UNL     1     -12.122  10.208  70.634  1.00  0.00    -0.411 A  
ENDBRANCH   6   7
TORSDOF 1
ENDMDL
MODEL      101
REMARK 921   NORMALIZED FREE ENERGY PREDICTED BY IDOCK:   -2.96 KCAL/MOL
REMARK 922        TOTAL FREE ENERGY PREDICTED BY IDOCK:   -3.27 KCAL/MOL
REMARK 923 INTER-LIGAND FREE ENERGY PREDICTED BY IDOCK:   -3.19 KCAL/MOL
REMARK 924 INTRA-LIGAND FREE ENERGY PREDICTED BY IDOCK:   -0.08 KCAL/MOL
REMARK 927      BINDING AFFINITY PREDICTED BY RF-SCORE:    0.00 PKD
ROOT
HETATM    1  C   UNL     1     -11.994  12.805  70.346  1.00  0.00    -0.249 C  
HETATM    2  N   UNL     1     -12.149  12.709  68.909  1.00  0.00    -0.209 NA 
HETATM    3  C   UNL     1     -11.802  13.922  68.182  1.00  0.00    -0.372 C  
HETATM    4  C   UNL     1     -11.931  13.457  66.745  1.00  0.00    -0.447 C  
HETATM    5  C   UNL     1     -11.408  12.026  66.763  1.00  0.00    -0.398 C  
HETATM    6  C   UNL     1     -11.519  11.566  68.229  1.00  0.00    -0.299 C  
ENDROOT
BRANCH   6   7
HETATM    7  C   UNL     1     -10.202  11.063  68.790  1.00  0.00    -0.211 A  
HETATM    8  C   UNL     1      -9.014  11.697  68.433  1.00  0.00    -0.176 A  
HETATM    9  N   UNL     1      -7.784  11.329  68.865  1.00  0.00    -0.137 NA 
HETATM   10  C   UNL     1      -7.726  10.271  69.699  1.00  0.00    -0.160 A  
HETATM   11  C   UNL     1      -8.841   9.573  70.127  1.00  0.00    -0.266 A  
HETATM   12  C   UNL     1     -10.092   9.979  69.669  1.00  0.00    -0.263 A  
ENDBRANCH   6   7
TORSDOF 1
ENDMDL
MODEL      102
REMARK 921   NORMALIZED FREE ENERGY PREDICTED BY IDOCK:   -2.96 KCAL/MOL
REMARK 922        TOTAL FREE ENERGY PREDICTED BY IDOCK:   -3.27 KCAL/MOL
REMARK 923 INTER-LIGAND FREE ENERGY PREDICTED BY IDOCK:   -3.12 KCAL/MOL
REMARK 924 INTRA-LIGAND FREE ENERGY PREDICTED BY IDOCK:   -0.14 KCAL/MOL
REMARK 927      BINDING AFFINITY PREDICTED BY RF-SCORE:    0.00 PKD
ROOT
HETATM    1  C   UNL     1     -10.660   5.608  69.988  1.00  0.00    -0.318 C  
HETATM    2  N   UNL     1     -10.873   6.762  70.838  1.00  0.00    -0.240 NA 
HETATM    3  C   UNL     1     -12.272   7.084  71.080  1.00  0.00    -0.382 C  
HETATM    4  C   UNL     1     -12.149   8.211  72.087  1.00  0.00    -0.408 C  
HETATM    5  C   UNL     1     -10.970   7.807  72.964  1.00  0.00    -0.442 C  
HETATM    6  C   UNL     1     -10.159   6.801  72.125  1.00  0.00    -0.181 C  
ENDROOT
BRANCH   6   7
HETATM    7  C   UNL     1      -9.939   5.481  72.838  1.00  0.00    -0.191 A  
HETATM    8  C   UNL     1      -8.658   4.937  72.903  1.00  0.00    -0.118 A  
HETATM    9  N   UNL     1      -8.348   3.764  73.504  1.00  0.00    -0.087 NA 
HETATM   10  C   UNL     1      -9.365   3.088  74.074  1.00  0.00    -0.080 A  
HETATM   11  C   UNL     1     -10.674   3.536  74.079  1.00  0.00    -0.280 A  
HETATM   12  C   UNL     1     -10.960   4.749  73.457  1.00  0.00    -0.398 A  
ENDBRANCH   6   7
TORSDOF 1
ENDMDL
MODEL      103
REMARK 921   NORMALIZED FREE ENERGY PREDICTED BY IDOCK:   -2.94 KCAL/MOL
REMARK 922        TOTAL FREE ENERGY PREDICTED BY IDOCK:   -3.24 KCAL/MOL
REMARK 923 INTER-LIGAND FREE ENERGY PREDICTED BY IDOCK:   -3.17 KCAL/MOL
REMARK 924 INTRA-LIGAND FREE ENERGY PREDICTED BY IDOCK:   -0.07 KCAL/MOL
REMARK 927      BINDING AFFINITY PREDICTED BY RF-SCORE:    0.00 PKD
ROOT
HETATM    1  C   UNL     1      -9.167   9.994  69.659  1.00  0.00    -0.215 C  
HETATM    2  N   UNL     1      -9.219   9.255  68.414  1.00  0.00    -0.132 NA 
HETATM    3  C   UNL     1     -10.295   8.277  68.336  1.00  0.00    -0.199 C  
HETATM    4  C   UNL     1     -10.163   7.800  66.903  1.00  0.00    -0.373 C  
HETATM    5  C   UNL     1      -9.788   9.053  66.121  1.00  0.00    -0.349 C  
HETATM    6  C   UNL     1      -9.205  10.028  67.161  1.00  0.00    -0.141 C  
ENDROOT
BRANCH   6   7
HETATM    7  C   UNL     1      -9.906  11.373  67.166  1.00  0.00    -0.212 A  
HETATM    8  C   UNL     1     -11.299  11.424  67.164  1.00  0.00    -0.255 A  
HETATM    9  N   UNL     1     -12.028  12.565  67.159  1.00  0.00    -0.516 NA 
HETATM   10  C   UNL     1     -11.340  13.724  67.155  1.00  0.00    -0.324 A  
HETATM   11  C   UNL     1      -9.958  13.794  67.166  1.00  0.00    -0.243 A  
HETATM   12  C   UNL     1      -9.236  12.602  67.176  1.00  0.00    -0.214 A  
ENDBRANCH   6   7
TORSDOF 1
ENDMDL
MODEL      104
REMARK 921   NORMALIZED FREE ENERGY PREDICTED BY IDOCK:   -2.93 KCAL/MOL
REMARK 922        TOTAL FREE ENERGY PREDICTED BY IDOCK:   -3.23 KCAL/MOL
REMARK 923 INTER-LIGAND FREE ENERGY PREDICTED BY IDOCK:   -3.15 KCAL/MOL
REMARK 924 INTRA-LIGAND FREE ENERGY PREDICTED BY IDOCK:   -0.08 KCAL/MOL
REMARK 927      BINDING AFFINITY PREDICTED BY RF-SCORE:    0.00 PKD
ROOT
HETATM    1  C   UNL     1      -8.122   9.796  70.244  1.00  0.00    -0.154 C  
HETATM    2  N   UNL     1      -9.057  10.278  69.248  1.00  0.00    -0.192 NA 
HETATM    3  C   UNL     1      -8.799   9.801  67.896  1.00  0.00    -0.122 C  
HETATM    4  C   UNL     1      -9.998  10.352  67.150  1.00  0.00    -0.239 C  
HETATM    5  C   UNL     1     -11.151  10.218  68.138  1.00  0.00    -0.324 C  
HETATM    6  C   UNL     1     -10.494  10.121  69.527  1.00  0.00    -0.241 C  
ENDROOT
BRANCH   6   7
HETATM    7  C   UNL     1     -10.921   8.886  70.297  1.00  0.00    -0.266 A  
HETATM    8  C   UNL     1     -11.016   7.662  69.638  1.00  0.00    -0.137 A  
HETATM    9  N   UNL     1     -11.394   6.500  70.221  1.00  0.00    -0.367 NA 
HETATM   10  C   UNL     1     -11.699   6.552  71.533  1.00  0.00    -0.324 A  
HETATM   11  C   UNL     1     -11.632   7.708  72.290  1.00  0.00    -0.370 A  
HETATM   12  C   UNL     1     -11.234   8.886  71.662  1.00  0.00    -0.415 A  
ENDBRANCH   6   7
TORSDOF 1
ENDMDL
MODEL      105
REMARK 921   NORMALIZED FREE ENERGY PREDICTED BY IDOCK:   -2.93 KCAL/MOL
REMARK 922        TOTAL FREE ENERGY PREDICTED BY IDOCK:   -3.23 KCAL/MOL
REMARK 923 INTER-LIGAND FREE ENERGY PREDICTED BY IDOCK:   -3.08 KCAL/MOL
REMARK 924 INTRA-LIGAND FREE ENERGY PREDICTED BY IDOCK:   -0.15 KCAL/MOL
REMARK 927      BINDING AFFINITY PREDICTED BY RF-SCORE:    0.00 PKD
ROOT
HETATM    1  C   UNL     1     -10.781  15.755  67.198  1.00  0.00    -0.312 C  
HETATM    2  N   UNL     1      -9.715  15.357  68.094  1.00  0.00    -0.210 NA 
HETATM    3  C   UNL     1      -8.804  14.363  67.545  1.00  0.00    -0.193 C  
HETATM    4  C   UNL     1      -7.759  14.277  68.640  1.00  0.00    -0.135 C  
HETATM    5  C   UNL     1      -7.615  15.710  69.138  1.00  0.00    -0.206 C  
HETATM    6  C   UNL     1      -8.914  16.424  68.717  1.00  0.00    -0.245 C  
ENDROOT
BRANCH   6   7
HETATM    7  C   UNL     1      -8.661  17.673  67.896  1.00  0.00    -0.238 A  
HETATM    8  C   UNL     1      -9.335  18.852  68.208  1.00  0.00    -0.339 A  
HETATM    9  N   UNL     1      -9.194  20.021  67.539  1.00  0.00    -0.350 NA 
HETATM   10  C   UNL     1      -8.336  20.024  66.499  1.00  0.00    -0.311 A  
HETATM   11  C   UNL     1      -7.608  18.916  66.104  1.00  0.00    -0.286 A  
HETATM   12  C   UNL     1      -7.771  17.730  66.816  1.00  0.00    -0.258 A  
ENDBRANCH   6   7
TORSDOF 1
ENDMDL
MODEL      106
REMARK 921   NORMALIZED FREE ENERGY PREDICTED BY IDOCK:   -2.92 KCAL/MOL
REMARK 922        TOTAL FREE ENERGY PREDICTED BY IDOCK:   -3.22 KCAL/MOL
REMARK 923 INTER-LIGAND FREE ENERGY PREDICTED BY IDOCK:   -3.14 KCAL/MOL
REMARK 924 INTRA-LIGAND FREE ENERGY PREDICTED BY IDOCK:   -0.08 KCAL/MOL
REMARK 927      BINDING AFFINITY PREDICTED BY RF-SCORE:    0.00 PKD
ROOT
HETATM    1  C   UNL     1     -10.118  15.748  68.018  1.00  0.00    -0.228 C  
HETATM    2  N   UNL     1     -10.146  16.983  67.262  1.00  0.00    -0.287 NA 
HETATM    3  C   UNL     1     -10.770  18.102  67.955  1.00  0.00    -0.311 C  
HETATM    4  C   UNL     1     -10.514  19.236  66.983  1.00  0.00    -0.556 C  
HETATM    5  C   UNL     1      -9.121  18.953  66.430  1.00  0.00    -0.317 C  
HETATM    6  C   UNL     1      -8.880  17.452  66.673  1.00  0.00    -0.254 C  
ENDROOT
BRANCH   6   7
HETATM    7  C   UNL     1      -7.608  17.177  67.452  1.00  0.00    -0.188 A  
HETATM    8  C   UNL     1      -7.280  17.982  68.541  1.00  0.00    -0.263 A  
HETATM    9  N   UNL     1      -6.169  17.835  69.301  1.00  0.00    -0.229 NA 
HETATM   10  C   UNL     1      -5.332  16.833  68.963  1.00  0.00    -0.133 A  
HETATM   11  C   UNL     1      -5.560  15.968  67.908  1.00  0.00    -0.146 A  
HETATM   12  C   UNL     1      -6.715  16.142  67.149  1.00  0.00    -0.227 A  
ENDBRANCH   6   7
TORSDOF 1
ENDMDL
MODEL      107
REMARK 921   NORMALIZED FREE ENERGY PREDICTED BY IDOCK:   -2.90 KCAL/MOL
REMARK 922        TOTAL FREE ENERGY PREDICTED BY IDOCK:   -3.20 KCAL/MOL
REMARK 923 INTER-LIGAND FREE ENERGY PREDICTED BY IDOCK:   -3.06 KCAL/MOL
REMARK 924 INTRA-LIGAND FREE ENERGY PREDICTED BY IDOCK:   -0.14 KCAL/MOL
REMARK 927      BINDING AFFINITY PREDICTED BY RF-SCORE:    0.00 PKD
ROOT
HETATM    1  C   UNL     1     -10.411   7.613  67.105  1.00  0.00    -0.342 C  
HETATM    2  N   UNL     1      -9.613   8.782  66.798  1.00  0.00    -0.187 NA 
HETATM    3  C   UNL     1     -10.153   9.620  65.737  1.00  0.00    -0.204 C  
HETATM    4  C   UNL     1      -9.191  10.791  65.761  1.00  0.00    -0.215 C  
HETATM    5  C   UNL     1      -8.880  10.993  67.240  1.00  0.00    -0.135 C  
HETATM    6  C   UNL     1      -9.216   9.651  67.918  1.00  0.00    -0.124 C  
ENDROOT
BRANCH   6   7
HETATM    7  C   UNL     1     -10.199   9.800  69.063  1.00  0.00    -0.214 A  
HETATM    8  C   UNL     1      -9.925   9.196  70.289  1.00  0.00    -0.208 A  
HETATM    9  N   UNL     1     -10.732   9.254  71.375  1.00  0.00    -0.344 NA 
HETATM   10  C   UNL     1     -11.879   9.950  71.240  1.00  0.00    -0.395 A  
HETATM   11  C   UNL     1     -12.249  10.598  70.075  1.00  0.00    -0.373 A  
HETATM   12  C   UNL     1     -11.395  10.523  68.977  1.00  0.00    -0.319 A  
ENDBRANCH   6   7
TORSDOF 1
ENDMDL
MODEL      108
REMARK 921   NORMALIZED FREE ENERGY PREDICTED BY IDOCK:   -2.89 KCAL/MOL
REMARK 922        TOTAL FREE ENERGY PREDICTED BY IDOCK:   -3.19 KCAL/MOL
REMARK 923 INTER-LIGAND FREE ENERGY PREDICTED BY IDOCK:   -3.11 KCAL/MOL
REMARK 924 INTRA-LIGAND FREE ENERGY PREDICTED BY IDOCK:   -0.08 KCAL/MOL
REMARK 927      BINDING AFFINITY PREDICTED BY RF-SCORE:    0.00 PKD
ROOT
HETATM    1  C   UNL     1      -7.950   9.937  69.673  1.00  0.00    -0.162 C  
HETATM    2  N   UNL     1      -8.592   9.588  68.422  1.00  0.00    -0.119 NA 
HETATM    3  C   UNL     1      -8.147   8.327  67.847  1.00  0.00    -0.127 C  
HETATM    4  C   UNL     1      -9.085   8.190  66.663  1.00  0.00    -0.202 C  
HETATM    5  C   UNL     1     -10.416   8.732  67.172  1.00  0.00    -0.354 C  
HETATM    6  C   UNL     1     -10.063   9.623  68.377  1.00  0.00    -0.176 C  
ENDROOT
BRANCH   6   7
HETATM    7  C   UNL     1     -10.807   9.230  69.639  1.00  0.00    -0.228 A  
HETATM    8  C   UNL     1     -10.909   7.884  69.988  1.00  0.00    -0.238 A  
HETATM    9  N   UNL     1     -11.555   7.419  71.083  1.00  0.00    -0.278 NA 
HETATM   10  C   UNL     1     -12.134   8.338  71.882  1.00  0.00    -0.332 A  
HETATM   11  C   UNL     1     -12.089   9.699  71.639  1.00  0.00    -0.481 A  
HETATM   12  C   UNL     1     -11.412  10.147  70.507  1.00  0.00    -0.417 A  
ENDBRANCH   6   7
TORSDOF 1
ENDMDL
MODEL      109
REMARK 921   NORMALIZED FREE ENERGY PREDICTED BY IDOCK:   -2.89 KCAL/MOL
REMARK 922        TOTAL FREE ENERGY PREDICTED BY IDOCK:   -3.19 KCAL/MOL
REMARK 923 INTER-LIGAND FREE ENERGY PREDICTED BY IDOCK:   -3.20 KCAL/MOL
REMARK 924 INTRA-LIGAND FREE ENERGY PREDICTED BY IDOCK:    0.02 KCAL/MOL
REMARK 927      BINDING AFFINITY PREDICTED BY RF-SCORE:    0.00 PKD
ROOT
HETATM    1  C   UNL     1     -12.299  13.501  66.132  1.00  0.00    -0.407 C  
HETATM    2  N   UNL     1     -11.737  12.357  66.819  1.00  0.00    -0.484 NA 
HETATM    3  C   UNL     1     -10.927  11.485  65.980  1.00  0.00    -0.259 C  
HETATM    4  C   UNL     1     -10.389  10.502  67.000  1.00  0.00    -0.289 C  
HETATM    5  C   UNL     1     -10.128  11.349  68.240  1.00  0.00    -0.204 C  
HETATM    6  C   UNL     1     -11.003  12.605  68.071  1.00  0.00    -0.235 C  
ENDROOT
BRANCH   6   7
HETATM    7  C   UNL     1     -10.210  13.894  68.167  1.00  0.00    -0.249 A  
HETATM    8  C   UNL     1      -9.133  14.106  67.309  1.00  0.00    -0.213 A  
HETATM    9  N   UNL     1      -8.351  15.212  67.312  1.00  0.00    -0.186 NA 
HETATM   10  C   UNL     1      -8.652  16.164  68.218  1.00  0.00    -0.182 A  
HETATM   11  C   UNL     1      -9.702  16.065  69.112  1.00  0.00    -0.251 A  
HETATM   12  C   UNL     1     -10.491  14.917  69.081  1.00  0.00    -0.246 A  
ENDBRANCH   6   7
TORSDOF 1
ENDMDL
MODEL      110
REMARK 921   NORMALIZED FREE ENERGY PREDICTED BY IDOCK:   -2.86 KCAL/MOL
REMARK 922        TOTAL FREE ENERGY PREDICTED BY IDOCK:   -3.15 KCAL/MOL
REMARK 923 INTER-LIGAND FREE ENERGY PREDICTED BY IDOCK:   -3.07 KCAL/MOL
REMARK 924 INTRA-LIGAND FREE ENERGY PREDICTED BY IDOCK:   -0.08 KCAL/MOL
REMARK 927      BINDING AFFINITY PREDICTED BY RF-SCORE:    0.00 PKD
ROOT
HETATM    1  C   UNL     1     -11.077  16.218  69.599  1.00  0.00    -0.333 C  
HETATM    2  N   UNL     1     -10.916  14.977  68.870  1.00  0.00    -0.241 NA 
HETATM    3  C   UNL     1     -11.829  14.812  67.748  1.00  0.00    -0.294 C  
HETATM    4  C   UNL     1     -11.318  13.524  67.133  1.00  0.00    -0.346 C  
HETATM    5  C   UNL     1      -9.804  13.607  67.286  1.00  0.00    -0.241 C  
HETATM    6  C   UNL     1      -9.560  14.621  68.419  1.00  0.00    -0.217 C  
ENDROOT
BRANCH   6   7
HETATM    7  C   UNL     1      -8.645  15.757  68.007  1.00  0.00    -0.163 A  
HETATM    8  C   UNL     1      -7.791  16.330  68.947  1.00  0.00    -0.224 A  
HETATM    9  N   UNL     1      -6.939  17.352  68.694  1.00  0.00    -0.215 NA 
HETATM   10  C   UNL     1      -6.933  17.838  67.436  1.00  0.00    -0.180 A  
HETATM   11  C   UNL     1      -7.731  17.342  66.421  1.00  0.00    -0.347 A  
HETATM   12  C   UNL     1      -8.592  16.286  66.712  1.00  0.00    -0.273 A  
ENDBRANCH   6   7
TORSDOF 1
ENDMDL
MODEL      111
REMARK 921   NORMALIZED FREE ENERGY PREDICTED BY IDOCK:   -2.83 KCAL/MOL
REMARK 922        TOTAL FREE ENERGY PREDICTED BY IDOCK:   -3.13 KCAL/MOL
REMARK 923 INTER-LIGAND FREE ENERGY PREDICTED BY IDOCK:   -3.05 KCAL/MOL
REMARK 924 INTRA-LIGAND FREE ENERGY PREDICTED BY IDOCK:   -0.08 KCAL/MOL
REMARK 927      BINDING AFFINITY PREDICTED BY RF-SCORE:    0.00 PKD
ROOT
HETATM    1  C   UNL     1      -7.992  12.182  68.307  1.00  0.00    -0.163 C  
HETATM    2  N   UNL     1      -9.129  11.521  67.699  1.00  0.00    -0.164 NA 
HETATM    3  C   UNL     1      -9.901  10.687  68.610  1.00  0.00    -0.179 C  
HETATM    4  C   UNL     1     -11.061  10.273  67.725  1.00  0.00    -0.335 C  
HETATM    5  C   UNL     1     -11.356  11.510  66.886  1.00  0.00    -0.324 C  
HETATM    6  C   UNL     1     -10.067  12.351  66.925  1.00  0.00    -0.219 C  
ENDROOT
BRANCH   6   7
HETATM    7  C   UNL     1     -10.302  13.769  67.408  1.00  0.00    -0.252 A  
HETATM    8  C   UNL     1     -11.229  14.008  68.420  1.00  0.00    -0.266 A  
HETATM    9  N   UNL     1     -11.525  15.230  68.922  1.00  0.00    -0.312 NA 
HETATM   10  C   UNL     1     -10.866  16.279  68.391  1.00  0.00    -0.334 A  
HETATM   11  C   UNL     1      -9.919  16.160  67.390  1.00  0.00    -0.247 A  
HETATM   12  C   UNL     1      -9.632  14.889  66.898  1.00  0.00    -0.256 A  
ENDBRANCH   6   7
TORSDOF 1
ENDMDL
MODEL      112
REMARK 921   NORMALIZED FREE ENERGY PREDICTED BY IDOCK:   -2.83 KCAL/MOL
REMARK 922        TOTAL FREE ENERGY PREDICTED BY IDOCK:   -3.12 KCAL/MOL
REMARK 923 INTER-LIGAND FREE ENERGY PREDICTED BY IDOCK:   -2.97 KCAL/MOL
REMARK 924 INTRA-LIGAND FREE ENERGY PREDICTED BY IDOCK:   -0.15 KCAL/MOL
REMARK 927      BINDING AFFINITY PREDICTED BY RF-SCORE:    0.00 PKD
ROOT
HETATM    1  C   UNL     1      -8.658  13.916  68.095  1.00  0.00    -0.180 C  
HETATM    2  N   UNL     1      -9.907  14.649  68.055  1.00  0.00    -0.213 NA 
HETATM    3  C   UNL     1     -10.548  14.823  69.351  1.00  0.00    -0.218 C  
HETATM    4  C   UNL     1     -11.713  15.723  68.991  1.00  0.00    -0.405 C  
HETATM    5  C   UNL     1     -11.149  16.665  67.934  1.00  0.00    -0.212 C  
HETATM    6  C   UNL     1      -9.915  15.946  67.358  1.00  0.00    -0.239 C  
ENDROOT
BRANCH   6   7
HETATM    7  C   UNL     1      -8.654  16.785  67.437  1.00  0.00    -0.206 A  
HETATM    8  C   UNL     1      -7.817  16.877  66.327  1.00  0.00    -0.311 A  
HETATM    9  N   UNL     1      -6.664  17.588  66.287  1.00  0.00    -0.256 NA 
HETATM   10  C   UNL     1      -6.319  18.245  67.412  1.00  0.00    -0.177 A  
HETATM   11  C   UNL     1      -7.076  18.232  68.570  1.00  0.00    -0.277 A  
HETATM   12  C   UNL     1      -8.259  17.496  68.577  1.00  0.00    -0.278 A  
ENDBRANCH   6   7
TORSDOF 1
ENDMDL
MODEL      113
REMARK 921   NORMALIZED FREE ENERGY PREDICTED BY IDOCK:   -2.82 KCAL/MOL
REMARK 922        TOTAL FREE ENERGY PREDICTED BY IDOCK:   -3.11 KCAL/MOL
REMARK 923 INTER-LIGAND FREE ENERGY PREDICTED BY IDOCK:   -3.06 KCAL/MOL
REMARK 924 INTRA-LIGAND FREE ENERGY PREDICTED BY IDOCK:   -0.06 KCAL/MOL
REMARK 927      BINDING AFFINITY PREDICTED BY RF-SCORE:    0.00 PKD
ROOT
HETATM    1  C   UNL     1     -10.106   9.144  67.037  1.00  0.00    -0.249 C  
HETATM    2  N   UNL     1      -8.908   9.337  66.245  1.00  0.00    -0.140 NA 
HETATM    3  C   UNL     1      -8.693   8.326  65.219  1.00  0.00    -0.086 C  
HETATM    4  C   UNL     1      -7.478   8.881  64.502  1.00  0.00    -0.105 C  
HETATM    5  C   UNL     1      -7.698  10.390  64.499  1.00  0.00    -0.051 C  
HETATM    6  C   UNL     1      -8.694  10.662  65.641  1.00  0.00    -0.188 C  
ENDROOT
BRANCH   6   7
HETATM    7  C   UNL     1      -9.924  11.422  65.182  1.00  0.00    -0.310 A  
HETATM    8  C   UNL     1     -10.416  11.223  63.894  1.00  0.00    -0.391 A  
HETATM    9  N   UNL     1     -11.498  11.852  63.376  1.00  0.00    -0.403 NA 
HETATM   10  C   UNL     1     -12.129  12.731  64.180  1.00  0.00    -0.438 A  
HETATM   11  C   UNL     1     -11.735  13.002  65.478  1.00  0.00    -0.408 A  
HETATM   12  C   UNL     1     -10.622  12.335  65.983  1.00  0.00    -0.287 A  
ENDBRANCH   6   7
TORSDOF 1
ENDMDL
MODEL      114
REMARK 921   NORMALIZED FREE ENERGY PREDICTED BY IDOCK:   -2.80 KCAL/MOL
REMARK 922        TOTAL FREE ENERGY PREDICTED BY IDOCK:   -3.09 KCAL/MOL
REMARK 923 INTER-LIGAND FREE ENERGY PREDICTED BY IDOCK:   -2.96 KCAL/MOL
REMARK 924 INTRA-LIGAND FREE ENERGY PREDICTED BY IDOCK:   -0.13 KCAL/MOL
REMARK 927      BINDING AFFINITY PREDICTED BY RF-SCORE:    0.00 PKD
ROOT
HETATM    1  C   UNL     1     -10.161   8.181  67.425  1.00  0.00    -0.258 C  
HETATM    2  N   UNL     1     -10.326   8.351  68.854  1.00  0.00    -0.218 NA 
HETATM    3  C   UNL     1      -9.101   8.197  69.626  1.00  0.00    -0.151 C  
HETATM    4  C   UNL     1      -9.575   8.567  71.018  1.00  0.00    -0.241 C  
HETATM    5  C   UNL     1     -10.568   9.701  70.789  1.00  0.00    -0.392 C  
HETATM    6  C   UNL     1     -11.017   9.564  69.322  1.00  0.00    -0.145 C  
ENDROOT
BRANCH   6   7
HETATM    7  C   UNL     1     -10.810  10.834  68.521  1.00  0.00    -0.270 A  
HETATM    8  C   UNL     1     -11.772  11.230  67.594  1.00  0.00    -0.134 A  
HETATM    9  N   UNL     1     -11.688  12.337  66.819  1.00  0.00    -0.530 NA 
HETATM   10  C   UNL     1     -10.585  13.099  66.970  1.00  0.00    -0.258 A  
HETATM   11  C   UNL     1      -9.571  12.809  67.864  1.00  0.00    -0.211 A  
HETATM   12  C   UNL     1      -9.690  11.665  68.651  1.00  0.00    -0.151 A  
ENDBRANCH   6   7
TORSDOF 1
ENDMDL
MODEL      115
REMARK 921   NORMALIZED FREE ENERGY PREDICTED BY IDOCK:   -2.78 KCAL/MOL
REMARK 922        TOTAL FREE ENERGY PREDICTED BY IDOCK:   -3.07 KCAL/MOL
REMARK 923 INTER-LIGAND FREE ENERGY PREDICTED BY IDOCK:   -3.03 KCAL/MOL
REMARK 924 INTRA-LIGAND FREE ENERGY PREDICTED BY IDOCK:   -0.04 KCAL/MOL
REMARK 927      BINDING AFFINITY PREDICTED BY RF-SCORE:    0.00 PKD
ROOT
HETATM    1  C   UNL     1      -8.186  11.324  66.287  1.00  0.00    -0.126 C  
HETATM    2  N   UNL     1      -9.449  12.013  66.451  1.00  0.00    -0.227 NA 
HETATM    3  C   UNL     1     -10.272  12.061  65.251  1.00  0.00    -0.271 C  
HETATM    4  C   UNL     1     -11.540  12.700  65.783  1.00  0.00    -0.431 C  
HETATM    5  C   UNL     1     -11.704  12.110  67.179  1.00  0.00    -0.372 C  
HETATM    6  C   UNL     1     -10.302  11.614  67.582  1.00  0.00    -0.189 C  
ENDROOT
BRANCH   6   7
HETATM    7  C   UNL     1     -10.287  10.151  67.982  1.00  0.00    -0.227 A  
HETATM    8  C   UNL     1      -9.914   9.793  69.276  1.00  0.00    -0.192 A  
HETATM    9  N   UNL     1      -9.856   8.522  69.737  1.00  0.00    -0.183 NA 
HETATM   10  C   UNL     1     -10.185   7.545  68.868  1.00  0.00    -0.208 A  
HETATM   11  C   UNL     1     -10.578   7.784  67.563  1.00  0.00    -0.319 A  
HETATM   12  C   UNL     1     -10.633   9.103  67.120  1.00  0.00    -0.286 A  
ENDBRANCH   6   7
TORSDOF 1
ENDMDL
MODEL      116
REMARK 921   NORMALIZED FREE ENERGY PREDICTED BY IDOCK:   -2.78 KCAL/MOL
REMARK 922        TOTAL FREE ENERGY PREDICTED BY IDOCK:   -3.07 KCAL/MOL
REMARK 923 INTER-LIGAND FREE ENERGY PREDICTED BY IDOCK:   -2.96 KCAL/MOL
REMARK 924 INTRA-LIGAND FREE ENERGY PREDICTED BY IDOCK:   -0.11 KCAL/MOL
REMARK 927      BINDING AFFINITY PREDICTED BY RF-SCORE:    0.00 PKD
ROOT
HETATM    1  C   UNL     1      -8.137   5.278  71.333  1.00  0.00    -0.115 C  
HETATM    2  N   UNL     1      -9.218   4.764  72.149  1.00  0.00    -0.127 NA 
HETATM    3  C   UNL     1      -8.992   4.862  73.584  1.00  0.00    -0.107 C  
HETATM    4  C   UNL     1     -10.324   4.389  74.130  1.00  0.00    -0.289 C  
HETATM    5  C   UNL     1     -11.354   4.958  73.161  1.00  0.00    -0.395 C  
HETATM    6  C   UNL     1     -10.579   5.246  71.861  1.00  0.00    -0.209 C  
ENDROOT
BRANCH   6   7
HETATM    7  C   UNL     1     -10.723   6.682  71.395  1.00  0.00    -0.264 A  
HETATM    8  C   UNL     1     -10.780   6.962  70.031  1.00  0.00    -0.243 A  
HETATM    9  N   UNL     1     -10.898   8.203  69.502  1.00  0.00    -0.175 NA 
HETATM   10  C   UNL     1     -10.963   9.229  70.375  1.00  0.00    -0.255 A  
HETATM   11  C   UNL     1     -10.925   9.069  71.748  1.00  0.00    -0.443 A  
HETATM   12  C   UNL     1     -10.809   7.779  72.261  1.00  0.00    -0.339 A  
ENDBRANCH   6   7
TORSDOF 1
ENDMDL
MODEL      117
REMARK 921   NORMALIZED FREE ENERGY PREDICTED BY IDOCK:   -2.78 KCAL/MOL
REMARK 922        TOTAL FREE ENERGY PREDICTED BY IDOCK:   -3.07 KCAL/MOL
REMARK 923 INTER-LIGAND FREE ENERGY PREDICTED BY IDOCK:   -3.02 KCAL/MOL
REMARK 924 INTRA-LIGAND FREE ENERGY PREDICTED BY IDOCK:   -0.05 KCAL/MOL
REMARK 927      BINDING AFFINITY PREDICTED BY RF-SCORE:    0.00 PKD
ROOT
HETATM    1  C   UNL     1     -10.950   9.293  71.153  1.00  0.00    -0.339 C  
HETATM    2  N   UNL     1     -11.118   8.203  70.214  1.00  0.00    -0.248 NA 
HETATM    3  C   UNL     1     -10.187   8.220  69.095  1.00  0.00    -0.218 C  
HETATM    4  C   UNL     1     -10.524   6.913  68.404  1.00  0.00    -0.235 C  
HETATM    5  C   UNL     1     -10.816   5.948  69.547  1.00  0.00    -0.442 C  
HETATM    6  C   UNL     1     -11.163   6.836  70.757  1.00  0.00    -0.304 C  
ENDROOT
BRANCH   6   7
HETATM    7  C   UNL     1     -10.302   6.541  71.970  1.00  0.00    -0.221 A  
HETATM    8  C   UNL     1     -10.820   6.739  73.248  1.00  0.00    -0.272 A  
HETATM    9  N   UNL     1     -10.141   6.518  74.399  1.00  0.00    -0.354 NA 
HETATM   10  C   UNL     1      -8.872   6.077  74.278  1.00  0.00    -0.128 A  
HETATM   11  C   UNL     1      -8.258   5.837  73.062  1.00  0.00    -0.118 A  
HETATM   12  C   UNL     1      -8.985   6.069  71.897  1.00  0.00    -0.138 A  
ENDBRANCH   6   7
TORSDOF 1
ENDMDL
MODEL      118
REMARK 921   NORMALIZED FREE ENERGY PREDICTED BY IDOCK:   -2.77 KCAL/MOL
REMARK 922        TOTAL FREE ENERGY PREDICTED BY IDOCK:   -3.07 KCAL/MOL
REMARK 923 INTER-LIGAND FREE ENERGY PREDICTED BY IDOCK:   -2.99 KCAL/MOL
REMARK 924 INTRA-LIGAND FREE ENERGY PREDICTED BY IDOCK:   -0.08 KCAL/MOL
REMARK 927      BINDING AFFINITY PREDICTED BY RF-SCORE:    0.00 PKD
ROOT
HETATM    1  C   UNL     1     -10.489   8.550  67.573  1.00  0.00    -0.258 C  
HETATM    2  N   UNL     1     -10.393   7.232  66.980  1.00  0.00    -0.281 NA 
HETATM    3  C   UNL     1      -9.062   6.878  66.509  1.00  0.00    -0.155 C  
HETATM    4  C   UNL     1      -9.266   5.434  66.093  1.00  0.00    -0.162 C  
HETATM    5  C   UNL     1     -10.224   4.872  67.137  1.00  0.00    -0.211 C  
HETATM    6  C   UNL     1     -10.929   6.097  67.749  1.00  0.00    -0.303 C  
ENDROOT
BRANCH   6   7
HETATM    7  C   UNL     1     -10.800   6.158  69.259  1.00  0.00    -0.418 A  
HETATM    8  C   UNL     1      -9.606   5.774  69.865  1.00  0.00    -0.159 A  
HETATM    9  N   UNL     1      -9.382   5.780  71.200  1.00  0.00    -0.152 NA 
HETATM   10  C   UNL     1     -10.401   6.188  71.984  1.00  0.00    -0.199 A  
HETATM   11  C   UNL     1     -11.627   6.599  71.492  1.00  0.00    -0.357 A  
HETATM   12  C   UNL     1     -11.824   6.587  70.113  1.00  0.00    -0.331 A  
ENDBRANCH   6   7
TORSDOF 1
ENDMDL
MODEL      119
REMARK 921   NORMALIZED FREE ENERGY PREDICTED BY IDOCK:   -2.77 KCAL/MOL
REMARK 922        TOTAL FREE ENERGY PREDICTED BY IDOCK:   -3.06 KCAL/MOL
REMARK 923 INTER-LIGAND FREE ENERGY PREDICTED BY IDOCK:   -2.99 KCAL/MOL
REMARK 924 INTRA-LIGAND FREE ENERGY PREDICTED BY IDOCK:   -0.07 KCAL/MOL
REMARK 927      BINDING AFFINITY PREDICTED BY RF-SCORE:    0.00 PKD
ROOT
HETATM    1  C   UNL     1     -10.722  14.061  67.073  1.00  0.00    -0.284 C  
HETATM    2  N   UNL     1     -11.024  13.194  65.952  1.00  0.00    -0.270 NA 
HETATM    3  C   UNL     1     -10.476  13.640  64.679  1.00  0.00    -0.423 C  
HETATM    4  C   UNL     1     -10.838  12.479  63.774  1.00  0.00    -0.489 C  
HETATM    5  C   UNL     1     -10.657  11.246  64.652  1.00  0.00    -0.392 C  
HETATM    6  C   UNL     1     -10.737  11.758  66.102  1.00  0.00    -0.277 C  
ENDROOT
BRANCH   6   7
HETATM    7  C   UNL     1      -9.526  11.375  66.931  1.00  0.00    -0.193 A  
HETATM    8  C   UNL     1      -8.270  11.318  66.330  1.00  0.00    -0.150 A  
HETATM    9  N   UNL     1      -7.125  10.981  66.969  1.00  0.00    -0.110 NA 
HETATM   10  C   UNL     1      -7.228  10.680  68.279  1.00  0.00    -0.083 A  
HETATM   11  C   UNL     1      -8.420  10.712  68.980  1.00  0.00    -0.148 A  
HETATM   12  C   UNL     1      -9.580  11.068  68.296  1.00  0.00    -0.172 A  
ENDBRANCH   6   7
TORSDOF 1
ENDMDL
MODEL      120
REMARK 921   NORMALIZED FREE ENERGY PREDICTED BY IDOCK:   -2.69 KCAL/MOL
REMARK 922        TOTAL FREE ENERGY PREDICTED BY IDOCK:   -2.98 KCAL/MOL
REMARK 923 INTER-LIGAND FREE ENERGY PREDICTED BY IDOCK:   -3.76 KCAL/MOL
REMARK 924 INTRA-LIGAND FREE ENERGY PREDICTED BY IDOCK:    0.78 KCAL/MOL
REMARK 927      BINDING AFFINITY PREDICTED BY RF-SCORE:    0.00 PKD
ROOT
HETATM    1  C   UNL     1     -10.841  18.955  67.355  1.00  0.00    -0.374 C  
HETATM    2  N   UNL     1      -9.713  18.346  66.682  1.00  0.00    -0.321 NA 
HETATM    3  C   UNL     1      -8.422  18.621  67.296  1.00  0.00    -0.266 C  
HETATM    4  C   UNL     1      -7.501  17.751  66.463  1.00  0.00    -0.284 C  
HETATM    5  C   UNL     1      -8.317  16.493  66.190  1.00  0.00    -0.305 C  
HETATM    6  C   UNL     1      -9.788  16.905  66.390  1.00  0.00    -0.305 C  
ENDROOT
BRANCH   6   7
HETATM    7  C   UNL     1     -10.514  16.030  67.394  1.00  0.00    -0.308 A  
HETATM    8  C   UNL     1     -10.585  14.654  67.185  1.00  0.00    -0.282 A  
HETATM    9  N   UNL     1     -11.212  13.781  68.008  1.00  0.00    -0.256 NA 
HETATM   10  C   UNL     1     -11.806  14.299  69.102  1.00  0.00    -0.330 A  
HETATM   11  C   UNL     1     -11.792  15.646  69.414  1.00  0.00    -0.391 A  
HETATM   12  C   UNL     1     -11.133  16.518  68.550  1.00  0.00    -0.335 A  
ENDBRANCH   6   7
TORSDOF 1
ENDMDL
MODEL      121
REMARK 921   NORMALIZED FREE ENERGY PREDICTED BY IDOCK:   -2.69 KCAL/MOL
REMARK 922        TOTAL FREE ENERGY PREDICTED BY IDOCK:   -2.97 KCAL/MOL
REMARK 923 INTER-LIGAND FREE ENERGY PREDICTED BY IDOCK:   -3.02 KCAL/MOL
REMARK 924 INTRA-LIGAND FREE ENERGY PREDICTED BY IDOCK:    0.05 KCAL/MOL
REMARK 927      BINDING AFFINITY PREDICTED BY RF-SCORE:    0.00 PKD
ROOT
HETATM    1  C   UNL     1     -12.730   8.642  70.870  1.00  0.00     0.100 C  
HETATM    2  N   UNL     1     -11.332   8.529  71.233  1.00  0.00    -0.259 NA 
HETATM    3  C   UNL     1     -10.726   7.246  70.908  1.00  0.00    -0.234 C  
HETATM    4  C   UNL     1      -9.276   7.500  71.272  1.00  0.00    -0.155 C  
HETATM    5  C   UNL     1      -9.029   8.945  70.853  1.00  0.00    -0.273 C  
HETATM    6  C   UNL     1     -10.423   9.597  70.787  1.00  0.00    -0.305 C  
ENDROOT
BRANCH   6   7
HETATM    7  C   UNL     1     -10.710  10.239  69.443  1.00  0.00    -0.272 A  
HETATM    8  C   UNL     1     -11.674  11.241  69.350  1.00  0.00    -0.339 A  
HETATM    9  N   UNL     1     -12.018  11.875  68.204  1.00  0.00    -0.528 NA 
HETATM   10  C   UNL     1     -11.372  11.495  67.084  1.00  0.00    -0.284 A  
HETATM   11  C   UNL     1     -10.392  10.518  67.059  1.00  0.00    -0.289 A  
HETATM   12  C   UNL     1     -10.057   9.888  68.255  1.00  0.00    -0.185 A  
ENDBRANCH   6   7
TORSDOF 1
ENDMDL
MODEL      122
REMARK 921   NORMALIZED FREE ENERGY PREDICTED BY IDOCK:   -2.67 KCAL/MOL
REMARK 922        TOTAL FREE ENERGY PREDICTED BY IDOCK:   -2.96 KCAL/MOL
REMARK 923 INTER-LIGAND FREE ENERGY PREDICTED BY IDOCK:   -2.93 KCAL/MOL
REMARK 924 INTRA-LIGAND FREE ENERGY PREDICTED BY IDOCK:   -0.02 KCAL/MOL
REMARK 927      BINDING AFFINITY PREDICTED BY RF-SCORE:    0.00 PKD
ROOT
HETATM    1  C   UNL     1      -7.165  18.608  68.341  1.00  0.00    -0.280 C  
HETATM    2  N   UNL     1      -8.572  18.493  68.017  1.00  0.00    -0.284 NA 
HETATM    3  C   UNL     1      -8.895  18.765  66.623  1.00  0.00    -0.314 C  
HETATM    4  C   UNL     1     -10.373  18.428  66.587  1.00  0.00    -0.422 C  
HETATM    5  C   UNL     1     -10.507  17.221  67.508  1.00  0.00    -0.356 C  
HETATM    6  C   UNL     1      -9.267  17.260  68.421  1.00  0.00    -0.268 C  
ENDROOT
BRANCH   6   7
HETATM    7  C   UNL     1      -8.470  15.971  68.387  1.00  0.00    -0.180 A  
HETATM    8  C   UNL     1      -7.714  15.598  69.497  1.00  0.00    -0.185 A  
HETATM    9  N   UNL     1      -6.960  14.477  69.575  1.00  0.00    -0.156 NA 
HETATM   10  C   UNL     1      -6.950  13.676  68.490  1.00  0.00    -0.104 A  
HETATM   11  C   UNL     1      -7.668  13.941  67.338  1.00  0.00    -0.165 A  
HETATM   12  C   UNL     1      -8.439  15.100  67.291  1.00  0.00    -0.220 A  
ENDBRANCH   6   7
TORSDOF 1
ENDMDL
MODEL      123
REMARK 921   NORMALIZED FREE ENERGY PREDICTED BY IDOCK:   -2.62 KCAL/MOL
REMARK 922        TOTAL FREE ENERGY PREDICTED BY IDOCK:   -2.90 KCAL/MOL
REMARK 923 INTER-LIGAND FREE ENERGY PREDICTED BY IDOCK:   -2.78 KCAL/MOL
REMARK 924 INTRA-LIGAND FREE ENERGY PREDICTED BY IDOCK:   -0.12 KCAL/MOL
REMARK 927      BINDING AFFINITY PREDICTED BY RF-SCORE:    0.00 PKD
ROOT
HETATM    1  C   UNL     1      -9.031   9.580  69.667  1.00  0.00    -0.188 C  
HETATM    2  N   UNL     1      -9.558   9.040  68.431  1.00  0.00    -0.150 NA 
HETATM    3  C   UNL     1      -8.557   8.448  67.555  1.00  0.00    -0.129 C  
HETATM    4  C   UNL     1      -9.426   7.869  66.456  1.00  0.00    -0.277 C  
HETATM    5  C   UNL     1     -10.661   7.351  67.185  1.00  0.00    -0.413 C  
HETATM    6  C   UNL     1     -10.699   8.114  68.522  1.00  0.00    -0.014 C  
ENDROOT
BRANCH   6   7
HETATM    7  C   UNL     1     -10.751   7.193  69.725  1.00  0.00    -0.257 A  
HETATM    8  C   UNL     1     -11.527   7.543  70.829  1.00  0.00    -0.284 A  
HETATM    9  N   UNL     1     -11.641   6.804  71.957  1.00  0.00    -0.278 NA 
HETATM   10  C   UNL     1     -10.945   5.650  71.998  1.00  0.00    -0.243 A  
HETATM   11  C   UNL     1     -10.151   5.198  70.959  1.00  0.00    -0.297 A  
HETATM   12  C   UNL     1     -10.059   5.979  69.809  1.00  0.00    -0.246 A  
ENDBRANCH   6   7
TORSDOF 1
ENDMDL
MODEL      124
REMARK 921   NORMALIZED FREE ENERGY PREDICTED BY IDOCK:   -2.60 KCAL/MOL
REMARK 922        TOTAL FREE ENERGY PREDICTED BY IDOCK:   -2.88 KCAL/MOL
REMARK 923 INTER-LIGAND FREE ENERGY PREDICTED BY IDOCK:   -2.80 KCAL/MOL
REMARK 924 INTRA-LIGAND FREE ENERGY PREDICTED BY IDOCK:   -0.08 KCAL/MOL
REMARK 927      BINDING AFFINITY PREDICTED BY RF-SCORE:    0.00 PKD
ROOT
HETATM    1  C   UNL     1      -9.117   4.769  70.260  1.00  0.00    -0.115 C  
HETATM    2  N   UNL     1     -10.253   4.952  71.140  1.00  0.00    -0.210 NA 
HETATM    3  C   UNL     1      -9.942   4.841  72.558  1.00  0.00    -0.166 C  
HETATM    4  C   UNL     1     -11.271   5.214  73.186  1.00  0.00    -0.398 C  
HETATM    5  C   UNL     1     -11.817   6.317  72.286  1.00  0.00    -0.326 C  
HETATM    6  C   UNL     1     -11.085   6.150  70.941  1.00  0.00    -0.307 C  
ENDROOT
BRANCH   6   7
HETATM    7  C   UNL     1     -10.383   7.416  70.491  1.00  0.00    -0.220 A  
HETATM    8  C   UNL     1      -9.642   8.158  71.409  1.00  0.00    -0.165 A  
HETATM    9  N   UNL     1      -8.983   9.305  71.121  1.00  0.00    -0.284 NA 
HETATM   10  C   UNL     1      -9.062   9.746  69.849  1.00  0.00    -0.229 A  
HETATM   11  C   UNL     1      -9.760   9.088  68.853  1.00  0.00    -0.166 A  
HETATM   12  C   UNL     1     -10.423   7.907  69.180  1.00  0.00    -0.218 A  
ENDBRANCH   6   7
TORSDOF 1
ENDMDL
MODEL      125
REMARK 921   NORMALIZED FREE ENERGY PREDICTED BY IDOCK:   -2.59 KCAL/MOL
REMARK 922        TOTAL FREE ENERGY PREDICTED BY IDOCK:   -2.87 KCAL/MOL
REMARK 923 INTER-LIGAND FREE ENERGY PREDICTED BY IDOCK:   -2.80 KCAL/MOL
REMARK 924 INTRA-LIGAND FREE ENERGY PREDICTED BY IDOCK:   -0.06 KCAL/MOL
REMARK 927      BINDING AFFINITY PREDICTED BY RF-SCORE:    0.00 PKD
ROOT
HETATM    1  C   UNL     1      -7.952   7.861  70.021  1.00  0.00    -0.111 C  
HETATM    2  N   UNL     1      -9.039   7.341  69.217  1.00  0.00    -0.139 NA 
HETATM    3  C   UNL     1      -8.729   6.108  68.507  1.00  0.00    -0.111 C  
HETATM    4  C   UNL     1     -10.074   5.766  67.898  1.00  0.00    -0.197 C  
HETATM    5  C   UNL     1     -11.085   6.168  68.967  1.00  0.00    -0.437 C  
HETATM    6  C   UNL     1     -10.352   7.184  69.864  1.00  0.00    -0.213 C  
ENDROOT
BRANCH   6   7
HETATM    7  C   UNL     1     -10.363   6.792  71.329  1.00  0.00    -0.225 A  
HETATM    8  C   UNL     1     -10.315   5.445  71.682  1.00  0.00    -0.218 A  
HETATM    9  N   UNL     1     -10.328   4.981  72.955  1.00  0.00    -0.183 NA 
HETATM   10  C   UNL     1     -10.393   5.904  73.935  1.00  0.00    -0.277 A  
HETATM   11  C   UNL     1     -10.436   7.267  73.702  1.00  0.00    -0.391 A  
HETATM   12  C   UNL     1     -10.416   7.713  72.382  1.00  0.00    -0.302 A  
ENDBRANCH   6   7
TORSDOF 1
ENDMDL
MODEL      126
REMARK 921   NORMALIZED FREE ENERGY PREDICTED BY IDOCK:   -2.58 KCAL/MOL
REMARK 922        TOTAL FREE ENERGY PREDICTED BY IDOCK:   -2.86 KCAL/MOL
REMARK 923 INTER-LIGAND FREE ENERGY PREDICTED BY IDOCK:   -2.75 KCAL/MOL
REMARK 924 INTRA-LIGAND FREE ENERGY PREDICTED BY IDOCK:   -0.10 KCAL/MOL
REMARK 927      BINDING AFFINITY PREDICTED BY RF-SCORE:    0.00 PKD
ROOT
HETATM    1  C   UNL     1     -11.234  10.824  67.886  1.00  0.00    -0.318 C  
HETATM    2  N   UNL     1      -9.812  10.555  67.917  1.00  0.00    -0.158 NA 
HETATM    3  C   UNL     1      -9.005  11.631  68.476  1.00  0.00    -0.138 C  
HETATM    4  C   UNL     1      -7.629  10.995  68.496  1.00  0.00    -0.114 C  
HETATM    5  C   UNL     1      -7.892   9.541  68.870  1.00  0.00    -0.080 C  
HETATM    6  C   UNL     1      -9.370   9.286  68.518  1.00  0.00    -0.142 C  
ENDROOT
BRANCH   6   7
HETATM    7  C   UNL     1     -10.172   8.757  69.691  1.00  0.00    -0.210 A  
HETATM    8  C   UNL     1     -10.863   7.553  69.567  1.00  0.00    -0.175 A  
HETATM    9  N   UNL     1     -11.615   6.992  70.543  1.00  0.00    -0.320 NA 
HETATM   10  C   UNL     1     -11.690   7.661  71.710  1.00  0.00    -0.283 A  
HETATM   11  C   UNL     1     -11.040   8.859  71.949  1.00  0.00    -0.442 A  
HETATM   12  C   UNL     1     -10.269   9.407  70.927  1.00  0.00    -0.373 A  
ENDBRANCH   6   7
TORSDOF 1
ENDMDL
MODEL      127
REMARK 921   NORMALIZED FREE ENERGY PREDICTED BY IDOCK:   -2.57 KCAL/MOL
REMARK 922        TOTAL FREE ENERGY PREDICTED BY IDOCK:   -2.84 KCAL/MOL
REMARK 923 INTER-LIGAND FREE ENERGY PREDICTED BY IDOCK:   -2.78 KCAL/MOL
REMARK 924 INTRA-LIGAND FREE ENERGY PREDICTED BY IDOCK:   -0.06 KCAL/MOL
REMARK 927      BINDING AFFINITY PREDICTED BY RF-SCORE:    0.00 PKD
ROOT
HETATM    1  C   UNL     1      -8.865  15.303  66.229  1.00  0.00    -0.227 C  
HETATM    2  N   UNL     1     -10.113  14.840  66.800  1.00  0.00    -0.252 NA 
HETATM    3  C   UNL     1     -11.244  14.867  65.883  1.00  0.00    -0.328 C  
HETATM    4  C   UNL     1     -12.323  14.208  66.719  1.00  0.00    -0.333 C  
HETATM    5  C   UNL     1     -11.589  13.118  67.492  1.00  0.00    -0.398 C  
HETATM    6  C   UNL     1     -10.108  13.539  67.490  1.00  0.00    -0.234 C  
ENDROOT
BRANCH   6   7
HETATM    7  C   UNL     1      -9.190  12.465  66.938  1.00  0.00    -0.209 A  
HETATM    8  C   UNL     1      -9.512  11.831  65.740  1.00  0.00    -0.216 A  
HETATM    9  N   UNL     1      -8.773  10.855  65.161  1.00  0.00    -0.164 NA 
HETATM   10  C   UNL     1      -7.650  10.483  65.806  1.00  0.00    -0.142 A  
HETATM   11  C   UNL     1      -7.227  11.048  66.996  1.00  0.00    -0.123 A  
HETATM   12  C   UNL     1      -8.006  12.053  67.563  1.00  0.00    -0.159 A  
ENDBRANCH   6   7
TORSDOF 1
ENDMDL
MODEL      128
REMARK 921   NORMALIZED FREE ENERGY PREDICTED BY IDOCK:   -2.55 KCAL/MOL
REMARK 922        TOTAL FREE ENERGY PREDICTED BY IDOCK:   -2.83 KCAL/MOL
REMARK 923 INTER-LIGAND FREE ENERGY PREDICTED BY IDOCK:   -2.85 KCAL/MOL
REMARK 924 INTRA-LIGAND FREE ENERGY PREDICTED BY IDOCK:    0.02 KCAL/MOL
REMARK 927      BINDING AFFINITY PREDICTED BY RF-SCORE:    0.00 PKD
ROOT
HETATM    1  C   UNL     1      -9.191  15.620  65.957  1.00  0.00    -0.339 C  
HETATM    2  N   UNL     1     -10.413  15.082  66.518  1.00  0.00    -0.278 NA 
HETATM    3  C   UNL     1     -11.141  14.185  65.632  1.00  0.00    -0.307 C  
HETATM    4  C   UNL     1     -12.252  13.701  66.543  1.00  0.00    -0.454 C  
HETATM    5  C   UNL     1     -11.588  13.562  67.908  1.00  0.00    -0.377 C  
HETATM    6  C   UNL     1     -10.335  14.456  67.849  1.00  0.00    -0.232 C  
ENDROOT
BRANCH   6   7
HETATM    7  C   UNL     1      -9.061  13.709  68.191  1.00  0.00    -0.195 A  
HETATM    8  C   UNL     1      -9.009  12.325  68.034  1.00  0.00    -0.190 A  
HETATM    9  N   UNL     1      -7.930  11.557  68.316  1.00  0.00    -0.134 NA 
HETATM   10  C   UNL     1      -6.838  12.195  68.783  1.00  0.00    -0.095 A  
HETATM   11  C   UNL     1      -6.772  13.564  68.970  1.00  0.00    -0.112 A  
HETATM   12  C   UNL     1      -7.897  14.327  68.666  1.00  0.00    -0.140 A  
ENDBRANCH   6   7
TORSDOF 1
ENDMDL
MODEL      129
REMARK 921   NORMALIZED FREE ENERGY PREDICTED BY IDOCK:   -2.54 KCAL/MOL
REMARK 922        TOTAL FREE ENERGY PREDICTED BY IDOCK:   -2.81 KCAL/MOL
REMARK 923 INTER-LIGAND FREE ENERGY PREDICTED BY IDOCK:   -2.67 KCAL/MOL
REMARK 924 INTRA-LIGAND FREE ENERGY PREDICTED BY IDOCK:   -0.15 KCAL/MOL
REMARK 927      BINDING AFFINITY PREDICTED BY RF-SCORE:    0.00 PKD
ROOT
HETATM    1  C   UNL     1     -11.264   6.130  69.507  1.00  0.00    -0.411 C  
HETATM    2  N   UNL     1     -11.627   7.289  70.296  1.00  0.00    -0.221 NA 
HETATM    3  C   UNL     1     -12.222   6.978  71.588  1.00  0.00    -0.357 C  
HETATM    4  C   UNL     1     -12.347   8.359  72.200  1.00  0.00    -0.426 C  
HETATM    5  C   UNL     1     -11.091   9.090  71.742  1.00  0.00    -0.444 C  
HETATM    6  C   UNL     1     -10.602   8.326  70.497  1.00  0.00    -0.219 C  
ENDROOT
BRANCH   6   7
HETATM    7  C   UNL     1      -9.162   7.866  70.615  1.00  0.00    -0.157 A  
HETATM    8  C   UNL     1      -8.284   8.066  69.552  1.00  0.00    -0.122 A  
HETATM    9  N   UNL     1      -6.984   7.690  69.544  1.00  0.00    -0.055 NA 
HETATM   10  C   UNL     1      -6.524   7.077  70.653  1.00  0.00    -0.047 A  
HETATM   11  C   UNL     1      -7.301   6.834  71.771  1.00  0.00    -0.085 A  
HETATM   12  C   UNL     1      -8.634   7.239  71.750  1.00  0.00    -0.121 A  
ENDBRANCH   6   7
TORSDOF 1
ENDMDL
MODEL      130
REMARK 921   NORMALIZED FREE ENERGY PREDICTED BY IDOCK:   -2.51 KCAL/MOL
REMARK 922        TOTAL FREE ENERGY PREDICTED BY IDOCK:   -2.78 KCAL/MOL
REMARK 923 INTER-LIGAND FREE ENERGY PREDICTED BY IDOCK:   -2.73 KCAL/MOL
REMARK 924 INTRA-LIGAND FREE ENERGY PREDICTED BY IDOCK:   -0.05 KCAL/MOL
REMARK 927      BINDING AFFINITY PREDICTED BY RF-SCORE:    0.00 PKD
ROOT
HETATM    1  C   UNL     1     -11.909   7.444  70.801  1.00  0.00    -0.258 C  
HETATM    2  N   UNL     1     -11.345   7.408  72.134  1.00  0.00    -0.260 NA 
HETATM    3  C   UNL     1     -11.037   6.072  72.624  1.00  0.00    -0.275 C  
HETATM    4  C   UNL     1     -10.352   6.385  73.940  1.00  0.00    -0.338 C  
HETATM    5  C   UNL     1      -9.538   7.641  73.651  1.00  0.00    -0.333 C  
HETATM    6  C   UNL     1     -10.191   8.279  72.412  1.00  0.00    -0.327 C  
ENDROOT
BRANCH   6   7
HETATM    7  C   UNL     1      -9.208   8.511  71.280  1.00  0.00    -0.256 A  
HETATM    8  C   UNL     1      -8.134   7.640  71.110  1.00  0.00    -0.098 A  
HETATM    9  N   UNL     1      -7.194   7.755  70.143  1.00  0.00    -0.061 NA 
HETATM   10  C   UNL     1      -7.322   8.794  69.294  1.00  0.00    -0.070 A  
HETATM   11  C   UNL     1      -8.351   9.716  69.362  1.00  0.00    -0.145 A  
HETATM   12  C   UNL     1      -9.306   9.567  70.365  1.00  0.00    -0.311 A  
ENDBRANCH   6   7
TORSDOF 1
ENDMDL
MODEL      131
REMARK 921   NORMALIZED FREE ENERGY PREDICTED BY IDOCK:   -2.47 KCAL/MOL
REMARK 922        TOTAL FREE ENERGY PREDICTED BY IDOCK:   -2.75 KCAL/MOL
REMARK 923 INTER-LIGAND FREE ENERGY PREDICTED BY IDOCK:   -2.62 KCAL/MOL
REMARK 924 INTRA-LIGAND FREE ENERGY PREDICTED BY IDOCK:   -0.13 KCAL/MOL
REMARK 927      BINDING AFFINITY PREDICTED BY RF-SCORE:    0.00 PKD
ROOT
HETATM    1  C   UNL     1      -9.286  12.124  67.168  1.00  0.00    -0.193 C  
HETATM    2  N   UNL     1     -10.221  12.218  66.066  1.00  0.00    -0.237 NA 
HETATM    3  C   UNL     1     -10.062  13.406  65.239  1.00  0.00    -0.249 C  
HETATM    4  C   UNL     1     -11.062  13.135  64.131  1.00  0.00    -0.426 C  
HETATM    5  C   UNL     1     -10.960  11.633  63.890  1.00  0.00    -0.478 C  
HETATM    6  C   UNL     1     -10.350  11.050  65.178  1.00  0.00    -0.283 C  
ENDROOT
BRANCH   6   7
HETATM    7  C   UNL     1      -9.100  10.232  64.921  1.00  0.00    -0.250 A  
HETATM    8  C   UNL     1      -8.880   9.062  65.646  1.00  0.00    -0.185 A  
HETATM    9  N   UNL     1      -7.798   8.260  65.506  1.00  0.00    -0.100 NA 
HETATM   10  C   UNL     1      -6.877   8.638  64.597  1.00  0.00    -0.073 A  
HETATM   11  C   UNL     1      -6.995   9.774  63.815  1.00  0.00    -0.119 A  
HETATM   12  C   UNL     1      -8.122  10.575  63.979  1.00  0.00    -0.023 A  
ENDBRANCH   6   7
TORSDOF 1
ENDMDL
MODEL      132
REMARK 921   NORMALIZED FREE ENERGY PREDICTED BY IDOCK:   -2.45 KCAL/MOL
REMARK 922        TOTAL FREE ENERGY PREDICTED BY IDOCK:   -2.72 KCAL/MOL
REMARK 923 INTER-LIGAND FREE ENERGY PREDICTED BY IDOCK:   -2.69 KCAL/MOL
REMARK 924 INTRA-LIGAND FREE ENERGY PREDICTED BY IDOCK:   -0.03 KCAL/MOL
REMARK 927      BINDING AFFINITY PREDICTED BY RF-SCORE:    0.00 PKD
ROOT
HETATM    1  C   UNL     1     -11.017  10.068  67.802  1.00  0.00    -0.249 C  
HETATM    2  N   UNL     1     -10.344   9.344  66.743  1.00  0.00    -0.248 NA 
HETATM    3  C   UNL     1      -9.018   9.847  66.415  1.00  0.00    -0.147 C  
HETATM    4  C   UNL     1      -8.548   8.816  65.407  1.00  0.00    -0.203 C  
HETATM    5  C   UNL     1      -9.099   7.496  65.932  1.00  0.00    -0.086 C  
HETATM    6  C   UNL     1     -10.267   7.878  66.861  1.00  0.00    -0.310 C  
ENDROOT
BRANCH   6   7
HETATM    7  C   UNL     1     -10.126   7.300  68.255  1.00  0.00    -0.193 A  
HETATM    8  C   UNL     1      -8.942   7.492  68.965  1.00  0.00    -0.131 A  
HETATM    9  N   UNL     1      -8.702   7.015  70.209  1.00  0.00    -0.143 NA 
HETATM   10  C   UNL     1      -9.692   6.305  70.786  1.00  0.00    -0.180 A  
HETATM   11  C   UNL     1     -10.911   6.059  70.181  1.00  0.00    -0.429 A  
HETATM   12  C   UNL     1     -11.129   6.568  68.902  1.00  0.00    -0.371 A  
ENDBRANCH   6   7
TORSDOF 1
ENDMDL
MODEL      133
REMARK 921   NORMALIZED FREE ENERGY PREDICTED BY IDOCK:   -2.45 KCAL/MOL
REMARK 922        TOTAL FREE ENERGY PREDICTED BY IDOCK:   -2.72 KCAL/MOL
REMARK 923 INTER-LIGAND FREE ENERGY PREDICTED BY IDOCK:   -2.65 KCAL/MOL
REMARK 924 INTRA-LIGAND FREE ENERGY PREDICTED BY IDOCK:   -0.07 KCAL/MOL
REMARK 927      BINDING AFFINITY PREDICTED BY RF-SCORE:    0.00 PKD
ROOT
HETATM    1  C   UNL     1      -8.483   7.772  69.876  1.00  0.00    -0.132 C  
HETATM    2  N   UNL     1      -9.509   7.582  68.872  1.00  0.00    -0.145 NA 
HETATM    3  C   UNL     1      -9.001   7.314  67.533  1.00  0.00    -0.122 C  
HETATM    4  C   UNL     1     -10.284   7.029  66.778  1.00  0.00    -0.282 C  
HETATM    5  C   UNL     1     -11.148   6.265  67.775  1.00  0.00    -0.361 C  
HETATM    6  C   UNL     1     -10.578   6.613  69.163  1.00  0.00    -0.244 C  
ENDROOT
BRANCH   6   7
HETATM    7  C   UNL     1     -10.202   5.385  69.970  1.00  0.00    -0.349 A  
HETATM    8  C   UNL     1      -9.674   4.270  69.324  1.00  0.00    -0.170 A  
HETATM    9  N   UNL     1      -9.312   3.120  69.941  1.00  0.00    -0.157 NA 
HETATM   10  C   UNL     1      -9.485   3.070  71.277  1.00  0.00    -0.149 A  
HETATM   11  C   UNL     1      -9.992   4.119  72.024  1.00  0.00    -0.250 A  
HETATM   12  C   UNL     1     -10.349   5.290  71.360  1.00  0.00    -0.290 A  
ENDBRANCH   6   7
TORSDOF 1
ENDMDL
MODEL      134
REMARK 921   NORMALIZED FREE ENERGY PREDICTED BY IDOCK:   -2.45 KCAL/MOL
REMARK 922        TOTAL FREE ENERGY PREDICTED BY IDOCK:   -2.72 KCAL/MOL
REMARK 923 INTER-LIGAND FREE ENERGY PREDICTED BY IDOCK:   -2.68 KCAL/MOL
REMARK 924 INTRA-LIGAND FREE ENERGY PREDICTED BY IDOCK:   -0.04 KCAL/MOL
REMARK 927      BINDING AFFINITY PREDICTED BY RF-SCORE:    0.00 PKD
ROOT
HETATM    1  C   UNL     1      -7.024   9.593  65.038  1.00  0.00    -0.111 C  
HETATM    2  N   UNL     1      -8.104  10.389  64.493  1.00  0.00    -0.148 NA 
HETATM    3  C   UNL     1      -8.819   9.764  63.390  1.00  0.00    -0.241 C  
HETATM    4  C   UNL     1      -9.938  10.759  63.155  1.00  0.00    -0.341 C  
HETATM    5  C   UNL     1     -10.318  11.237  64.551  1.00  0.00    -0.381 C  
HETATM    6  C   UNL     1      -9.095  10.934  65.437  1.00  0.00    -0.198 C  
ENDROOT
BRANCH   6   7
HETATM    7  C   UNL     1      -9.438  10.088  66.648  1.00  0.00    -0.215 A  
HETATM    8  C   UNL     1     -10.156   8.905  66.481  1.00  0.00    -0.286 A  
HETATM    9  N   UNL     1     -10.524   8.078  67.489  1.00  0.00    -0.260 NA 
HETATM   10  C   UNL     1     -10.163   8.444  68.735  1.00  0.00    -0.207 A  
HETATM   11  C   UNL     1      -9.442   9.590  69.018  1.00  0.00    -0.158 A  
HETATM   12  C   UNL     1      -9.074  10.417  67.959  1.00  0.00    -0.136 A  
ENDBRANCH   6   7
TORSDOF 1
ENDMDL
MODEL      135
REMARK 921   NORMALIZED FREE ENERGY PREDICTED BY IDOCK:   -2.44 KCAL/MOL
REMARK 922        TOTAL FREE ENERGY PREDICTED BY IDOCK:   -2.71 KCAL/MOL
REMARK 923 INTER-LIGAND FREE ENERGY PREDICTED BY IDOCK:   -2.64 KCAL/MOL
REMARK 924 INTRA-LIGAND FREE ENERGY PREDICTED BY IDOCK:   -0.07 KCAL/MOL
REMARK 927      BINDING AFFINITY PREDICTED BY RF-SCORE:    0.00 PKD
ROOT
HETATM    1  C   UNL     1     -10.096  15.604  69.048  1.00  0.00    -0.227 C  
HETATM    2  N   UNL     1      -8.756  15.385  68.544  1.00  0.00    -0.170 NA 
HETATM    3  C   UNL     1      -7.783  15.007  69.560  1.00  0.00    -0.168 C  
HETATM    4  C   UNL     1      -6.560  14.721  68.712  1.00  0.00    -0.088 C  
HETATM    5  C   UNL     1      -7.118  14.060  67.457  1.00  0.00    -0.179 C  
HETATM    6  C   UNL     1      -8.598  14.479  67.394  1.00  0.00    -0.201 C  
ENDROOT
BRANCH   6   7
HETATM    7  C   UNL     1      -9.543  13.296  67.307  1.00  0.00    -0.234 A  
HETATM    8  C   UNL     1      -9.361  12.205  68.154  1.00  0.00    -0.204 A  
HETATM    9  N   UNL     1     -10.136  11.094  68.158  1.00  0.00    -0.173 NA 
HETATM   10  C   UNL     1     -11.151  11.061  67.271  1.00  0.00    -0.294 A  
HETATM   11  C   UNL     1     -11.431  12.089  66.389  1.00  0.00    -0.417 A  
HETATM   12  C   UNL     1     -10.619  13.220  66.413  1.00  0.00    -0.288 A  
ENDBRANCH   6   7
TORSDOF 1
ENDMDL
MODEL      136
REMARK 921   NORMALIZED FREE ENERGY PREDICTED BY IDOCK:   -2.40 KCAL/MOL
REMARK 922        TOTAL FREE ENERGY PREDICTED BY IDOCK:   -2.67 KCAL/MOL
REMARK 923 INTER-LIGAND FREE ENERGY PREDICTED BY IDOCK:   -2.69 KCAL/MOL
REMARK 924 INTRA-LIGAND FREE ENERGY PREDICTED BY IDOCK:    0.02 KCAL/MOL
REMARK 927      BINDING AFFINITY PREDICTED BY RF-SCORE:    0.00 PKD
ROOT
HETATM    1  C   UNL     1     -11.575   6.370  70.010  1.00  0.00    -0.377 C  
HETATM    2  N   UNL     1     -10.800   6.991  71.064  1.00  0.00    -0.233 NA 
HETATM    3  C   UNL     1      -9.526   6.342  71.339  1.00  0.00    -0.156 C  
HETATM    4  C   UNL     1      -8.921   7.290  72.356  1.00  0.00    -0.149 C  
HETATM    5  C   UNL     1      -9.343   8.675  71.879  1.00  0.00    -0.357 C  
HETATM    6  C   UNL     1     -10.571   8.443  70.978  1.00  0.00    -0.214 C  
ENDROOT
BRANCH   6   7
HETATM    7  C   UNL     1     -10.408   9.040  69.594  1.00  0.00    -0.217 A  
HETATM    8  C   UNL     1      -9.328   8.657  68.801  1.00  0.00    -0.142 A  
HETATM    9  N   UNL     1      -9.079   9.131  67.557  1.00  0.00    -0.125 NA 
HETATM   10  C   UNL     1      -9.950  10.037  67.068  1.00  0.00    -0.205 A  
HETATM   11  C   UNL     1     -11.061  10.482  67.762  1.00  0.00    -0.382 A  
HETATM   12  C   UNL     1     -11.292   9.972  69.037  1.00  0.00    -0.136 A  
ENDBRANCH   6   7
TORSDOF 1
ENDMDL
MODEL      137
REMARK 921   NORMALIZED FREE ENERGY PREDICTED BY IDOCK:   -2.39 KCAL/MOL
REMARK 922        TOTAL FREE ENERGY PREDICTED BY IDOCK:   -2.66 KCAL/MOL
REMARK 923 INTER-LIGAND FREE ENERGY PREDICTED BY IDOCK:   -2.53 KCAL/MOL
REMARK 924 INTRA-LIGAND FREE ENERGY PREDICTED BY IDOCK:   -0.13 KCAL/MOL
REMARK 927      BINDING AFFINITY PREDICTED BY RF-SCORE:    0.00 PKD
ROOT
HETATM    1  C   UNL     1      -6.394   9.797  65.000  1.00  0.00    -0.096 C  
HETATM    2  N   UNL     1      -7.087   8.595  65.416  1.00  0.00    -0.081 NA 
HETATM    3  C   UNL     1      -6.878   8.229  66.810  1.00  0.00    -0.069 C  
HETATM    4  C   UNL     1      -7.822   7.052  66.955  1.00  0.00    -0.108 C  
HETATM    5  C   UNL     1      -9.033   7.433  66.112  1.00  0.00    -0.182 C  
HETATM    6  C   UNL     1      -8.527   8.500  65.124  1.00  0.00    -0.175 C  
ENDROOT
BRANCH   6   7
HETATM    7  C   UNL     1      -9.332   9.784  65.179  1.00  0.00    -0.322 A  
HETATM    8  C   UNL     1      -9.630  10.462  63.999  1.00  0.00    -0.317 A  
HETATM    9  N   UNL     1     -10.333  11.618  63.930  1.00  0.00    -0.329 NA 
HETATM   10  C   UNL     1     -10.764  12.135  65.098  1.00  0.00    -0.292 A  
HETATM   11  C   UNL     1     -10.535  11.544  66.327  1.00  0.00    -0.294 A  
HETATM   12  C   UNL     1      -9.814  10.353  66.364  1.00  0.00    -0.266 A  
ENDBRANCH   6   7
TORSDOF 1
ENDMDL
MODEL      138
REMARK 921   NORMALIZED FREE ENERGY PREDICTED BY IDOCK:   -2.39 KCAL/MOL
REMARK 922        TOTAL FREE ENERGY PREDICTED BY IDOCK:   -2.66 KCAL/MOL
REMARK 923 INTER-LIGAND FREE ENERGY PREDICTED BY IDOCK:   -2.52 KCAL/MOL
REMARK 924 INTRA-LIGAND FREE ENERGY PREDICTED BY IDOCK:   -0.14 KCAL/MOL
REMARK 927      BINDING AFFINITY PREDICTED BY RF-SCORE:    0.00 PKD
ROOT
HETATM    1  C   UNL     1     -11.081  10.379  67.935  1.00  0.00    -0.299 C  
HETATM    2  N   UNL     1     -10.330  10.347  66.697  1.00  0.00    -0.236 NA 
HETATM    3  C   UNL     1      -9.089  11.107  66.724  1.00  0.00    -0.166 C  
HETATM    4  C   UNL     1      -8.496  10.760  65.372  1.00  0.00    -0.132 C  
HETATM    5  C   UNL     1      -8.856   9.293  65.168  1.00  0.00    -0.238 C  
HETATM    6  C   UNL     1     -10.054   9.030  66.100  1.00  0.00    -0.172 C  
ENDROOT
BRANCH   6   7
HETATM    7  C   UNL     1      -9.817   7.873  67.051  1.00  0.00    -0.293 A  
HETATM    8  C   UNL     1     -10.778   6.871  67.170  1.00  0.00    -0.366 A  
HETATM    9  N   UNL     1     -10.677   5.799  67.991  1.00  0.00    -0.235 NA 
HETATM   10  C   UNL     1      -9.560   5.713  68.740  1.00  0.00    -0.131 A  
HETATM   11  C   UNL     1      -8.537   6.643  68.698  1.00  0.00    -0.125 A  
HETATM   12  C   UNL     1      -8.668   7.732  67.839  1.00  0.00    -0.124 A  
ENDBRANCH   6   7
TORSDOF 1
ENDMDL
MODEL      139
REMARK 921   NORMALIZED FREE ENERGY PREDICTED BY IDOCK:   -2.38 KCAL/MOL
REMARK 922        TOTAL FREE ENERGY PREDICTED BY IDOCK:   -2.64 KCAL/MOL
REMARK 923 INTER-LIGAND FREE ENERGY PREDICTED BY IDOCK:   -2.50 KCAL/MOL
REMARK 924 INTRA-LIGAND FREE ENERGY PREDICTED BY IDOCK:   -0.14 KCAL/MOL
REMARK 927      BINDING AFFINITY PREDICTED BY RF-SCORE:    0.00 PKD
ROOT
HETATM    1  C   UNL     1      -8.072  16.953  66.280  1.00  0.00    -0.316 C  
HETATM    2  N   UNL     1      -9.344  16.461  66.769  1.00  0.00    -0.233 NA 
HETATM    3  C   UNL     1      -9.994  15.493  65.896  1.00  0.00    -0.349 C  
HETATM    4  C   UNL     1     -11.187  15.085  66.737  1.00  0.00    -0.322 C  
HETATM    5  C   UNL     1     -10.651  15.058  68.164  1.00  0.00    -0.248 C  
HETATM    6  C   UNL     1      -9.393  15.946  68.147  1.00  0.00    -0.198 C  
ENDROOT
BRANCH   6   7
HETATM    7  C   UNL     1      -8.160  15.231  68.665  1.00  0.00    -0.156 A  
HETATM    8  C   UNL     1      -7.284  15.897  69.520  1.00  0.00    -0.174 A  
HETATM    9  N   UNL     1      -6.152  15.361  70.035  1.00  0.00    -0.146 NA 
HETATM   10  C   UNL     1      -5.868  14.091  69.683  1.00  0.00    -0.109 A  
HETATM   11  C   UNL     1      -6.669  13.331  68.849  1.00  0.00    -0.110 A  
HETATM   12  C   UNL     1      -7.829  13.909  68.340  1.00  0.00    -0.138 A  
ENDBRANCH   6   7
TORSDOF 1
ENDMDL
MODEL      140
REMARK 921   NORMALIZED FREE ENERGY PREDICTED BY IDOCK:   -2.36 KCAL/MOL
REMARK 922        TOTAL FREE ENERGY PREDICTED BY IDOCK:   -2.62 KCAL/MOL
REMARK 923 INTER-LIGAND FREE ENERGY PREDICTED BY IDOCK:   -2.49 KCAL/MOL
REMARK 924 INTRA-LIGAND FREE ENERGY PREDICTED BY IDOCK:   -0.14 KCAL/MOL
REMARK 927      BINDING AFFINITY PREDICTED BY RF-SCORE:    0.00 PKD
ROOT
HETATM    1  C   UNL     1     -12.400   6.700  71.182  1.00  0.00    -0.253 C  
HETATM    2  N   UNL     1     -11.221   7.530  71.315  1.00  0.00    -0.247 NA 
HETATM    3  C   UNL     1     -10.686   7.607  72.668  1.00  0.00    -0.321 C  
HETATM    4  C   UNL     1      -9.417   8.406  72.443  1.00  0.00    -0.365 C  
HETATM    5  C   UNL     1      -8.889   7.907  71.103  1.00  0.00    -0.150 C  
HETATM    6  C   UNL     1     -10.103   7.282  70.389  1.00  0.00    -0.192 C  
ENDROOT
BRANCH   6   7
HETATM    7  C   UNL     1      -9.861   5.848  69.960  1.00  0.00    -0.225 A  
HETATM    8  C   UNL     1     -10.133   5.466  68.648  1.00  0.00    -0.179 A  
HETATM    9  N   UNL     1      -9.964   4.214  68.159  1.00  0.00    -0.007 NA 
HETATM   10  C   UNL     1      -9.500   3.286  69.019  1.00  0.00    -0.117 A  
HETATM   11  C   UNL     1      -9.187   3.553  70.339  1.00  0.00    -0.219 A  
HETATM   12  C   UNL     1      -9.367   4.852  70.811  1.00  0.00    -0.211 A  
ENDBRANCH   6   7
TORSDOF 1
ENDMDL
MODEL      141
REMARK 921   NORMALIZED FREE ENERGY PREDICTED BY IDOCK:   -2.35 KCAL/MOL
REMARK 922        TOTAL FREE ENERGY PREDICTED BY IDOCK:   -2.62 KCAL/MOL
REMARK 923 INTER-LIGAND FREE ENERGY PREDICTED BY IDOCK:   -2.47 KCAL/MOL
REMARK 924 INTRA-LIGAND FREE ENERGY PREDICTED BY IDOCK:   -0.15 KCAL/MOL
REMARK 927      BINDING AFFINITY PREDICTED BY RF-SCORE:    0.00 PKD
ROOT
HETATM    1  C   UNL     1      -6.803  13.713  68.520  1.00  0.00    -0.098 C  
HETATM    2  N   UNL     1      -7.486  12.629  67.844  1.00  0.00    -0.110 NA 
HETATM    3  C   UNL     1      -7.815  11.497  68.698  1.00  0.00    -0.137 C  
HETATM    4  C   UNL     1      -8.622  10.632  67.751  1.00  0.00    -0.123 C  
HETATM    5  C   UNL     1      -9.429  11.627  66.925  1.00  0.00    -0.195 C  
HETATM    6  C   UNL     1      -8.675  12.965  67.044  1.00  0.00    -0.195 C  
ENDROOT
BRANCH   6   7
HETATM    7  C   UNL     1      -9.554  14.095  67.546  1.00  0.00    -0.223 A  
HETATM    8  C   UNL     1      -9.492  15.343  66.931  1.00  0.00    -0.230 A  
HETATM    9  N   UNL     1     -10.222  16.422  67.300  1.00  0.00    -0.273 NA 
HETATM   10  C   UNL     1     -11.062  16.257  68.341  1.00  0.00    -0.362 A  
HETATM   11  C   UNL     1     -11.213  15.062  69.021  1.00  0.00    -0.279 A  
HETATM   12  C   UNL     1     -10.452  13.969  68.613  1.00  0.00    -0.249 A  
ENDBRANCH   6   7
TORSDOF 1
ENDMDL
MODEL      142
REMARK 921   NORMALIZED FREE ENERGY PREDICTED BY IDOCK:   -2.35 KCAL/MOL
REMARK 922        TOTAL FREE ENERGY PREDICTED BY IDOCK:   -2.61 KCAL/MOL
REMARK 923 INTER-LIGAND FREE ENERGY PREDICTED BY IDOCK:   -2.53 KCAL/MOL
REMARK 924 INTRA-LIGAND FREE ENERGY PREDICTED BY IDOCK:   -0.08 KCAL/MOL
REMARK 927      BINDING AFFINITY PREDICTED BY RF-SCORE:    0.00 PKD
ROOT
HETATM    1  C   UNL     1     -10.957   8.930  71.685  1.00  0.00    -0.345 C  
HETATM    2  N   UNL     1     -11.041   8.752  70.250  1.00  0.00    -0.242 NA 
HETATM    3  C   UNL     1     -10.193   9.651  69.479  1.00  0.00    -0.218 C  
HETATM    4  C   UNL     1     -10.400   9.124  68.072  1.00  0.00    -0.272 C  
HETATM    5  C   UNL     1     -10.491   7.612  68.244  1.00  0.00    -0.219 C  
HETATM    6  C   UNL     1     -10.873   7.389  69.720  1.00  0.00    -0.234 C  
ENDROOT
BRANCH   6   7
HETATM    7  C   UNL     1      -9.905   6.476  70.447  1.00  0.00    -0.193 A  
HETATM    8  C   UNL     1      -8.539   6.574  70.191  1.00  0.00    -0.140 A  
HETATM    9  N   UNL     1      -7.587   5.807  70.774  1.00  0.00    -0.089 NA 
HETATM   10  C   UNL     1      -8.013   4.886  71.662  1.00  0.00    -0.111 A  
HETATM   11  C   UNL     1      -9.342   4.705  72.000  1.00  0.00    -0.180 A  
HETATM   12  C   UNL     1     -10.296   5.514  71.387  1.00  0.00    -0.291 A  
ENDBRANCH   6   7
TORSDOF 1
ENDMDL
MODEL      143
REMARK 921   NORMALIZED FREE ENERGY PREDICTED BY IDOCK:   -2.35 KCAL/MOL
REMARK 922        TOTAL FREE ENERGY PREDICTED BY IDOCK:   -2.61 KCAL/MOL
REMARK 923 INTER-LIGAND FREE ENERGY PREDICTED BY IDOCK:   -2.47 KCAL/MOL
REMARK 924 INTRA-LIGAND FREE ENERGY PREDICTED BY IDOCK:   -0.14 KCAL/MOL
REMARK 927      BINDING AFFINITY PREDICTED BY RF-SCORE:    0.00 PKD
ROOT
HETATM    1  C   UNL     1      -9.747  11.755  67.570  1.00  0.00    -0.180 C  
HETATM    2  N   UNL     1      -8.404  12.127  67.966  1.00  0.00    -0.159 NA 
HETATM    3  C   UNL     1      -7.376  11.814  66.983  1.00  0.00    -0.133 C  
HETATM    4  C   UNL     1      -6.152  12.440  67.621  1.00  0.00    -0.129 C  
HETATM    5  C   UNL     1      -6.674  13.721  68.263  1.00  0.00    -0.109 C  
HETATM    6  C   UNL     1      -8.189  13.505  68.438  1.00  0.00    -0.141 C  
ENDROOT
BRANCH   6   7
HETATM    7  C   UNL     1      -9.019  14.598  67.792  1.00  0.00    -0.181 A  
HETATM    8  C   UNL     1     -10.033  15.215  68.522  1.00  0.00    -0.223 A  
HETATM    9  N   UNL     1     -10.840  16.193  68.045  1.00  0.00    -0.324 NA 
HETATM   10  C   UNL     1     -10.632  16.583  66.772  1.00  0.00    -0.224 A  
HETATM   11  C   UNL     1      -9.650  16.047  65.958  1.00  0.00    -0.385 A  
HETATM   12  C   UNL     1      -8.833  15.046  66.479  1.00  0.00    -0.286 A  
ENDBRANCH   6   7
TORSDOF 1
ENDMDL
MODEL      144
REMARK 921   NORMALIZED FREE ENERGY PREDICTED BY IDOCK:   -2.33 KCAL/MOL
REMARK 922        TOTAL FREE ENERGY PREDICTED BY IDOCK:   -2.60 KCAL/MOL
REMARK 923 INTER-LIGAND FREE ENERGY PREDICTED BY IDOCK:   -2.45 KCAL/MOL
REMARK 924 INTRA-LIGAND FREE ENERGY PREDICTED BY IDOCK:   -0.14 KCAL/MOL
REMARK 927      BINDING AFFINITY PREDICTED BY RF-SCORE:    0.00 PKD
ROOT
HETATM    1  C   UNL     1      -9.303  13.864  66.941  1.00  0.00    -0.258 C  
HETATM    2  N   UNL     1     -10.043  12.928  67.762  1.00  0.00    -0.223 NA 
HETATM    3  C   UNL     1     -11.430  12.739  67.362  1.00  0.00    -0.340 C  
HETATM    4  C   UNL     1     -11.864  11.631  68.302  1.00  0.00    -0.335 C  
HETATM    5  C   UNL     1     -10.641  10.727  68.409  1.00  0.00    -0.228 C  
HETATM    6  C   UNL     1      -9.444  11.604  67.996  1.00  0.00    -0.185 C  
ENDROOT
BRANCH   6   7
HETATM    7  C   UNL     1      -8.632  10.999  66.867  1.00  0.00    -0.143 A  
HETATM    8  C   UNL     1      -7.246  10.919  66.982  1.00  0.00    -0.114 A  
HETATM    9  N   UNL     1      -6.422  10.408  66.036  1.00  0.00    -0.110 NA 
HETATM   10  C   UNL     1      -7.004   9.951  64.909  1.00  0.00    -0.131 A  
HETATM   11  C   UNL     1      -8.370   9.972  64.690  1.00  0.00    -0.167 A  
HETATM   12  C   UNL     1      -9.191  10.499  65.685  1.00  0.00    -0.221 A  
ENDBRANCH   6   7
TORSDOF 1
ENDMDL
MODEL      145
REMARK 921   NORMALIZED FREE ENERGY PREDICTED BY IDOCK:   -2.33 KCAL/MOL
REMARK 922        TOTAL FREE ENERGY PREDICTED BY IDOCK:   -2.59 KCAL/MOL
REMARK 923 INTER-LIGAND FREE ENERGY PREDICTED BY IDOCK:   -2.52 KCAL/MOL
REMARK 924 INTRA-LIGAND FREE ENERGY PREDICTED BY IDOCK:   -0.08 KCAL/MOL
REMARK 927      BINDING AFFINITY PREDICTED BY RF-SCORE:    0.00 PKD
ROOT
HETATM    1  C   UNL     1      -9.365   9.321  67.779  1.00  0.00    -0.128 C  
HETATM    2  N   UNL     1     -10.209   8.146  67.707  1.00  0.00    -0.214 NA 
HETATM    3  C   UNL     1      -9.686   7.076  66.870  1.00  0.00    -0.175 C  
HETATM    4  C   UNL     1     -10.702   5.978  67.117  1.00  0.00    -0.409 C  
HETATM    5  C   UNL     1     -11.054   6.116  68.594  1.00  0.00    -0.378 C  
HETATM    6  C   UNL     1     -10.670   7.558  68.975  1.00  0.00    -0.134 C  
ENDROOT
BRANCH   6   7
HETATM    7  C   UNL     1      -9.721   7.622  70.156  1.00  0.00    -0.179 A  
HETATM    8  C   UNL     1      -8.654   6.730  70.233  1.00  0.00    -0.140 A  
HETATM    9  N   UNL     1      -7.752   6.691  71.242  1.00  0.00    -0.093 NA 
HETATM   10  C   UNL     1      -7.916   7.587  72.236  1.00  0.00    -0.102 A  
HETATM   11  C   UNL     1      -8.933   8.525  72.261  1.00  0.00    -0.299 A  
HETATM   12  C   UNL     1      -9.841   8.543  71.205  1.00  0.00    -0.263 A  
ENDBRANCH   6   7
TORSDOF 1
ENDMDL
MODEL      146
REMARK 921   NORMALIZED FREE ENERGY PREDICTED BY IDOCK:   -2.30 KCAL/MOL
REMARK 922        TOTAL FREE ENERGY PREDICTED BY IDOCK:   -2.56 KCAL/MOL
REMARK 923 INTER-LIGAND FREE ENERGY PREDICTED BY IDOCK:   -2.48 KCAL/MOL
REMARK 924 INTRA-LIGAND FREE ENERGY PREDICTED BY IDOCK:   -0.08 KCAL/MOL
REMARK 927      BINDING AFFINITY PREDICTED BY RF-SCORE:    0.00 PKD
ROOT
HETATM    1  C   UNL     1     -12.321  10.779  71.233  1.00  0.00    -0.365 C  
HETATM    2  N   UNL     1     -12.337  11.139  69.830  1.00  0.00    -0.283 NA 
HETATM    3  C   UNL     1     -11.701  12.413  69.525  1.00  0.00    -0.322 C  
HETATM    4  C   UNL     1     -11.758  12.422  68.010  1.00  0.00    -0.414 C  
HETATM    5  C   UNL     1     -11.508  10.972  67.615  1.00  0.00    -0.303 C  
HETATM    6  C   UNL     1     -11.855  10.139  68.863  1.00  0.00     0.236 C  
ENDROOT
BRANCH   6   7
HETATM    7  C   UNL     1     -10.719   9.237  69.305  1.00  0.00    -0.211 A  
HETATM    8  C   UNL     1      -9.407   9.703  69.249  1.00  0.00    -0.180 A  
HETATM    9  N   UNL     1      -8.317   8.984  69.609  1.00  0.00    -0.119 NA 
HETATM   10  C   UNL     1      -8.538   7.729  70.049  1.00  0.00    -0.140 A  
HETATM   11  C   UNL     1      -9.797   7.165  70.154  1.00  0.00    -0.180 A  
HETATM   12  C   UNL     1     -10.898   7.932  69.781  1.00  0.00    -0.202 A  
ENDBRANCH   6   7
TORSDOF 1
ENDMDL
MODEL      147
REMARK 921   NORMALIZED FREE ENERGY PREDICTED BY IDOCK:   -2.28 KCAL/MOL
REMARK 922        TOTAL FREE ENERGY PREDICTED BY IDOCK:   -2.55 KCAL/MOL
REMARK 923 INTER-LIGAND FREE ENERGY PREDICTED BY IDOCK:   -2.42 KCAL/MOL
REMARK 924 INTRA-LIGAND FREE ENERGY PREDICTED BY IDOCK:   -0.12 KCAL/MOL
REMARK 927      BINDING AFFINITY PREDICTED BY RF-SCORE:    0.00 PKD
ROOT
HETATM    1  C   UNL     1      -7.717   5.970  72.420  1.00  0.00    -0.101 C  
HETATM    2  N   UNL     1      -7.454   6.242  71.022  1.00  0.00    -0.084 NA 
HETATM    3  C   UNL     1      -7.468   5.064  70.165  1.00  0.00    -0.059 C  
HETATM    4  C   UNL     1      -7.309   5.691  68.794  1.00  0.00    -0.083 C  
HETATM    5  C   UNL     1      -8.123   6.977  68.869  1.00  0.00    -0.121 C  
HETATM    6  C   UNL     1      -8.247   7.297  70.371  1.00  0.00    -0.125 C  
ENDROOT
BRANCH   6   7
HETATM    7  C   UNL     1      -9.686   7.462  70.821  1.00  0.00    -0.171 A  
HETATM    8  C   UNL     1     -10.067   8.616  71.503  1.00  0.00    -0.274 A  
HETATM    9  N   UNL     1     -11.317   8.866  71.958  1.00  0.00    -0.368 NA 
HETATM   10  C   UNL     1     -12.247   7.917  71.726  1.00  0.00    -0.310 A  
HETATM   11  C   UNL     1     -11.985   6.737  71.053  1.00  0.00    -0.431 A  
HETATM   12  C   UNL     1     -10.689   6.513  70.592  1.00  0.00    -0.297 A  
ENDBRANCH   6   7
TORSDOF 1
ENDMDL
MODEL      148
REMARK 921   NORMALIZED FREE ENERGY PREDICTED BY IDOCK:   -2.28 KCAL/MOL
REMARK 922        TOTAL FREE ENERGY PREDICTED BY IDOCK:   -2.54 KCAL/MOL
REMARK 923 INTER-LIGAND FREE ENERGY PREDICTED BY IDOCK:   -2.40 KCAL/MOL
REMARK 924 INTRA-LIGAND FREE ENERGY PREDICTED BY IDOCK:   -0.14 KCAL/MOL
REMARK 927      BINDING AFFINITY PREDICTED BY RF-SCORE:    0.00 PKD
ROOT
HETATM    1  C   UNL     1     -11.484   6.502  69.516  1.00  0.00    -0.319 C  
HETATM    2  N   UNL     1     -10.044   6.459  69.672  1.00  0.00    -0.170 NA 
HETATM    3  C   UNL     1      -9.367   5.535  68.774  1.00  0.00    -0.125 C  
HETATM    4  C   UNL     1      -7.912   5.829  69.084  1.00  0.00    -0.097 C  
HETATM    5  C   UNL     1      -7.871   7.336  69.308  1.00  0.00    -0.116 C  
HETATM    6  C   UNL     1      -9.317   7.740  69.652  1.00  0.00    -0.153 C  
ENDROOT
BRANCH   6   7
HETATM    7  C   UNL     1      -9.856   8.830  68.747  1.00  0.00    -0.180 A  
HETATM    8  C   UNL     1     -10.596   9.877  69.293  1.00  0.00    -0.224 A  
HETATM    9  N   UNL     1     -11.131  10.897  68.581  1.00  0.00    -0.230 NA 
HETATM   10  C   UNL     1     -10.924  10.880  67.249  1.00  0.00    -0.294 A  
HETATM   11  C   UNL     1     -10.199   9.897  66.600  1.00  0.00    -0.293 A  
HETATM   12  C   UNL     1      -9.656   8.864  67.361  1.00  0.00    -0.201 A  
ENDBRANCH   6   7
TORSDOF 1
ENDMDL
MODEL      149
REMARK 921   NORMALIZED FREE ENERGY PREDICTED BY IDOCK:   -2.26 KCAL/MOL
REMARK 922        TOTAL FREE ENERGY PREDICTED BY IDOCK:   -2.52 KCAL/MOL
REMARK 923 INTER-LIGAND FREE ENERGY PREDICTED BY IDOCK:   -2.41 KCAL/MOL
REMARK 924 INTRA-LIGAND FREE ENERGY PREDICTED BY IDOCK:   -0.11 KCAL/MOL
REMARK 927      BINDING AFFINITY PREDICTED BY RF-SCORE:    0.00 PKD
ROOT
HETATM    1  C   UNL     1     -10.559  12.451  65.578  1.00  0.00    -0.275 C  
HETATM    2  N   UNL     1      -9.585  13.186  66.359  1.00  0.00    -0.267 NA 
HETATM    3  C   UNL     1     -10.114  14.365  67.029  1.00  0.00    -0.256 C  
HETATM    4  C   UNL     1      -8.917  14.807  67.848  1.00  0.00    -0.172 C  
HETATM    5  C   UNL     1      -8.274  13.504  68.309  1.00  0.00    -0.157 C  
HETATM    6  C   UNL     1      -8.775  12.428  67.327  1.00  0.00    -0.191 C  
ENDROOT
BRANCH   6   7
HETATM    7  C   UNL     1      -9.441  11.258  68.025  1.00  0.00    -0.173 A  
HETATM    8  C   UNL     1      -9.269   9.969  67.525  1.00  0.00    -0.137 A  
HETATM    9  N   UNL     1      -9.821   8.854  68.059  1.00  0.00    -0.161 NA 
HETATM   10  C   UNL     1     -10.591   9.025  69.154  1.00  0.00    -0.203 A  
HETATM   11  C   UNL     1     -10.823  10.255  69.742  1.00  0.00    -0.332 A  
HETATM   12  C   UNL     1     -10.236  11.382  69.171  1.00  0.00    -0.084 A  
ENDBRANCH   6   7
TORSDOF 1
ENDMDL
MODEL      150
REMARK 921   NORMALIZED FREE ENERGY PREDICTED BY IDOCK:   -2.26 KCAL/MOL
REMARK 922        TOTAL FREE ENERGY PREDICTED BY IDOCK:   -2.52 KCAL/MOL
REMARK 923 INTER-LIGAND FREE ENERGY PREDICTED BY IDOCK:   -2.38 KCAL/MOL
REMARK 924 INTRA-LIGAND FREE ENERGY PREDICTED BY IDOCK:   -0.15 KCAL/MOL
REMARK 927      BINDING AFFINITY PREDICTED BY RF-SCORE:    0.00 PKD
ROOT
HETATM    1  C   UNL     1     -10.106   9.479  67.232  1.00  0.00    -0.215 C  
HETATM    2  N   UNL     1     -10.698   8.192  67.535  1.00  0.00    -0.213 NA 
HETATM    3  C   UNL     1     -10.361   7.135  66.592  1.00  0.00    -0.151 C  
HETATM    4  C   UNL     1     -10.999   5.929  67.254  1.00  0.00    -0.276 C  
HETATM    5  C   UNL     1     -10.774   6.154  68.745  1.00  0.00    -0.370 C  
HETATM    6  C   UNL     1     -10.527   7.667  68.899  1.00  0.00    -0.199 C  
ENDROOT
BRANCH   6   7
HETATM    7  C   UNL     1      -9.223   7.982  69.607  1.00  0.00    -0.152 A  
HETATM    8  C   UNL     1      -9.192   8.972  70.587  1.00  0.00    -0.231 A  
HETATM    9  N   UNL     1      -8.086   9.341  71.275  1.00  0.00    -0.324 NA 
HETATM   10  C   UNL     1      -6.941   8.695  70.974  1.00  0.00    -0.069 A  
HETATM   11  C   UNL     1      -6.856   7.690  70.027  1.00  0.00    -0.050 A  
HETATM   12  C   UNL     1      -8.013   7.329  69.340  1.00  0.00    -0.125 A  
ENDBRANCH   6   7
TORSDOF 1
ENDMDL
MODEL      151
REMARK 921   NORMALIZED FREE ENERGY PREDICTED BY IDOCK:   -2.24 KCAL/MOL
REMARK 922        TOTAL FREE ENERGY PREDICTED BY IDOCK:   -2.50 KCAL/MOL
REMARK 923 INTER-LIGAND FREE ENERGY PREDICTED BY IDOCK:   -2.42 KCAL/MOL
REMARK 924 INTRA-LIGAND FREE ENERGY PREDICTED BY IDOCK:   -0.08 KCAL/MOL
REMARK 927      BINDING AFFINITY PREDICTED BY RF-SCORE:    0.00 PKD
ROOT
HETATM    1  C   UNL     1      -7.476  10.422  69.267  1.00  0.00    -0.120 C  
HETATM    2  N   UNL     1      -7.440  10.350  67.821  1.00  0.00    -0.088 NA 
HETATM    3  C   UNL     1      -7.664   9.018  67.276  1.00  0.00    -0.096 C  
HETATM    4  C   UNL     1      -7.706   9.307  65.788  1.00  0.00    -0.098 C  
HETATM    5  C   UNL     1      -8.423  10.648  65.683  1.00  0.00    -0.180 C  
HETATM    6  C   UNL     1      -8.272  11.304  67.069  1.00  0.00    -0.151 C  
ENDROOT
BRANCH   6   7
HETATM    7  C   UNL     1      -9.602  11.698  67.682  1.00  0.00    -0.184 A  
HETATM    8  C   UNL     1     -10.700  10.849  67.554  1.00  0.00    -0.252 A  
HETATM    9  N   UNL     1     -11.933  11.103  68.051  1.00  0.00    -0.632 NA 
HETATM   10  C   UNL     1     -12.091  12.266  68.715  1.00  0.00    -0.112 A  
HETATM   11  C   UNL     1     -11.071  13.180  68.911  1.00  0.00    -0.310 A  
HETATM   12  C   UNL     1      -9.812  12.887  68.391  1.00  0.00    -0.197 A  
ENDBRANCH   6   7
TORSDOF 1
ENDMDL
MODEL      152
REMARK 921   NORMALIZED FREE ENERGY PREDICTED BY IDOCK:   -2.21 KCAL/MOL
REMARK 922        TOTAL FREE ENERGY PREDICTED BY IDOCK:   -2.47 KCAL/MOL
REMARK 923 INTER-LIGAND FREE ENERGY PREDICTED BY IDOCK:   -2.47 KCAL/MOL
REMARK 924 INTRA-LIGAND FREE ENERGY PREDICTED BY IDOCK:   -0.00 KCAL/MOL
REMARK 927      BINDING AFFINITY PREDICTED BY RF-SCORE:    0.00 PKD
ROOT
HETATM    1  C   UNL     1      -9.356   9.671  69.980  1.00  0.00    -0.241 C  
HETATM    2  N   UNL     1      -9.762   9.030  71.214  1.00  0.00    -0.289 NA 
HETATM    3  C   UNL     1     -11.202   8.987  71.427  1.00  0.00    -0.324 C  
HETATM    4  C   UNL     1     -11.293   8.153  72.690  1.00  0.00    -0.450 C  
HETATM    5  C   UNL     1     -10.196   7.106  72.531  1.00  0.00    -0.223 C  
HETATM    6  C   UNL     1      -9.211   7.695  71.503  1.00  0.00    -0.135 C  
ENDROOT
BRANCH   6   7
HETATM    7  C   UNL     1      -8.969   6.773  70.324  1.00  0.00    -0.152 A  
HETATM    8  C   UNL     1      -9.944   5.847  69.961  1.00  0.00    -0.183 A  
HETATM    9  N   UNL     1      -9.831   4.971  68.934  1.00  0.00    -0.167 NA 
HETATM   10  C   UNL     1      -8.685   5.013  68.225  1.00  0.00    -0.102 A  
HETATM   11  C   UNL     1      -7.654   5.896  68.489  1.00  0.00    -0.090 A  
HETATM   12  C   UNL     1      -7.802   6.788  69.549  1.00  0.00    -0.113 A  
ENDBRANCH   6   7
TORSDOF 1
ENDMDL
MODEL      153
REMARK 921   NORMALIZED FREE ENERGY PREDICTED BY IDOCK:   -2.21 KCAL/MOL
REMARK 922        TOTAL FREE ENERGY PREDICTED BY IDOCK:   -2.47 KCAL/MOL
REMARK 923 INTER-LIGAND FREE ENERGY PREDICTED BY IDOCK:   -2.39 KCAL/MOL
REMARK 924 INTRA-LIGAND FREE ENERGY PREDICTED BY IDOCK:   -0.07 KCAL/MOL
REMARK 927      BINDING AFFINITY PREDICTED BY RF-SCORE:    0.00 PKD
ROOT
HETATM    1  C   UNL     1      -7.884   7.703  65.819  1.00  0.00    -0.106 C  
HETATM    2  N   UNL     1      -9.141   6.996  65.961  1.00  0.00    -0.117 NA 
HETATM    3  C   UNL     1      -9.012   5.550  66.066  1.00  0.00    -0.152 C  
HETATM    4  C   UNL     1     -10.446   5.140  66.339  1.00  0.00    -0.356 C  
HETATM    5  C   UNL     1     -10.987   6.242  67.243  1.00  0.00    -0.455 C  
HETATM    6  C   UNL     1     -10.068   7.455  67.008  1.00  0.00    -0.258 C  
ENDROOT
BRANCH   6   7
HETATM    7  C   UNL     1      -9.459   7.990  68.289  1.00  0.00    -0.147 A  
HETATM    8  C   UNL     1      -8.932   7.103  69.225  1.00  0.00    -0.138 A  
HETATM    9  N   UNL     1      -8.373   7.467  70.404  1.00  0.00    -0.127 NA 
HETATM   10  C   UNL     1      -8.334   8.787  70.673  1.00  0.00    -0.154 A  
HETATM   11  C   UNL     1      -8.818   9.758  69.815  1.00  0.00    -0.241 A  
HETATM   12  C   UNL     1      -9.382   9.352  68.608  1.00  0.00    -0.142 A  
ENDBRANCH   6   7
TORSDOF 1
ENDMDL
MODEL      154
REMARK 921   NORMALIZED FREE ENERGY PREDICTED BY IDOCK:   -2.18 KCAL/MOL
REMARK 922        TOTAL FREE ENERGY PREDICTED BY IDOCK:   -2.43 KCAL/MOL
REMARK 923 INTER-LIGAND FREE ENERGY PREDICTED BY IDOCK:   -2.30 KCAL/MOL
REMARK 924 INTRA-LIGAND FREE ENERGY PREDICTED BY IDOCK:   -0.13 KCAL/MOL
REMARK 927      BINDING AFFINITY PREDICTED BY RF-SCORE:    0.00 PKD
ROOT
HETATM    1  C   UNL     1      -8.785   7.726  70.158  1.00  0.00    -0.140 C  
HETATM    2  N   UNL     1     -10.009   7.626  70.926  1.00  0.00    -0.181 NA 
HETATM    3  C   UNL     1     -11.228   7.745  70.138  1.00  0.00    -0.159 C  
HETATM    4  C   UNL     1     -12.289   7.461  71.183  1.00  0.00    -0.349 C  
HETATM    5  C   UNL     1     -11.675   6.375  72.059  1.00  0.00    -0.376 C  
HETATM    6  C   UNL     1     -10.155   6.475  71.831  1.00  0.00    -0.182 C  
ENDROOT
BRANCH   6   7
HETATM    7  C   UNL     1      -9.538   5.162  71.390  1.00  0.00    -0.215 A  
HETATM    8  C   UNL     1      -8.434   4.654  72.072  1.00  0.00    -0.118 A  
HETATM    9  N   UNL     1      -7.798   3.500  71.761  1.00  0.00    -0.060 NA 
HETATM   10  C   UNL     1      -8.283   2.806  70.712  1.00  0.00    -0.049 A  
HETATM   11  C   UNL     1      -9.378   3.208  69.967  1.00  0.00    -0.226 A  
HETATM   12  C   UNL     1     -10.013   4.398  70.316  1.00  0.00    -0.248 A  
ENDBRANCH   6   7
TORSDOF 1
ENDMDL
MODEL      155
REMARK 921   NORMALIZED FREE ENERGY PREDICTED BY IDOCK:   -2.17 KCAL/MOL
REMARK 922        TOTAL FREE ENERGY PREDICTED BY IDOCK:   -2.42 KCAL/MOL
REMARK 923 INTER-LIGAND FREE ENERGY PREDICTED BY IDOCK:   -2.53 KCAL/MOL
REMARK 924 INTRA-LIGAND FREE ENERGY PREDICTED BY IDOCK:    0.11 KCAL/MOL
REMARK 927      BINDING AFFINITY PREDICTED BY RF-SCORE:    0.00 PKD
ROOT
HETATM    1  C   UNL     1      -7.969   7.537  70.159  1.00  0.00    -0.111 C  
HETATM    2  N   UNL     1      -9.142   6.763  69.807  1.00  0.00    -0.144 NA 
HETATM    3  C   UNL     1     -10.336   7.098  70.569  1.00  0.00    -0.202 C  
HETATM    4  C   UNL     1     -11.380   6.241  69.880  1.00  0.00    -0.504 C  
HETATM    5  C   UNL     1     -10.995   6.288  68.406  1.00  0.00    -0.409 C  
HETATM    6  C   UNL     1      -9.508   6.687  68.383  1.00  0.00    -0.125 C  
ENDROOT
BRANCH   6   7
HETATM    7  C   UNL     1      -9.239   7.913  67.531  1.00  0.00    -0.152 A  
HETATM    8  C   UNL     1     -10.296   8.743  67.165  1.00  0.00    -0.293 A  
HETATM    9  N   UNL     1     -10.175   9.855  66.402  1.00  0.00    -0.239 NA 
HETATM   10  C   UNL     1      -8.934  10.164  65.974  1.00  0.00    -0.151 A  
HETATM   11  C   UNL     1      -7.811   9.417  66.281  1.00  0.00    -0.100 A  
HETATM   12  C   UNL     1      -7.968   8.282  67.073  1.00  0.00    -0.100 A  
ENDBRANCH   6   7
TORSDOF 1
ENDMDL
MODEL      156
REMARK 921   NORMALIZED FREE ENERGY PREDICTED BY IDOCK:   -2.16 KCAL/MOL
REMARK 922        TOTAL FREE ENERGY PREDICTED BY IDOCK:   -2.41 KCAL/MOL
REMARK 923 INTER-LIGAND FREE ENERGY PREDICTED BY IDOCK:   -2.27 KCAL/MOL
REMARK 924 INTRA-LIGAND FREE ENERGY PREDICTED BY IDOCK:   -0.14 KCAL/MOL
REMARK 927      BINDING AFFINITY PREDICTED BY RF-SCORE:    0.00 PKD
ROOT
HETATM    1  C   UNL     1      -9.739   4.287  66.713  1.00  0.00    -0.219 C  
HETATM    2  N   UNL     1      -9.633   5.714  66.938  1.00  0.00    -0.133 NA 
HETATM    3  C   UNL     1     -10.900   6.431  66.877  1.00  0.00    -0.357 C  
HETATM    4  C   UNL     1     -10.473   7.828  67.284  1.00  0.00    -0.392 C  
HETATM    5  C   UNL     1      -9.414   7.601  68.356  1.00  0.00    -0.150 C  
HETATM    6  C   UNL     1      -8.903   6.165  68.134  1.00  0.00    -0.112 C  
ENDROOT
BRANCH   6   7
HETATM    7  C   UNL     1      -9.008   5.303  69.377  1.00  0.00    -0.124 A  
HETATM    8  C   UNL     1      -7.963   4.443  69.709  1.00  0.00    -0.056 A  
HETATM    9  N   UNL     1      -7.952   3.624  70.787  1.00  0.00    -0.053 NA 
HETATM   10  C   UNL     1      -9.039   3.656  71.584  1.00  0.00    -0.113 A  
HETATM   11  C   UNL     1     -10.130   4.476  71.357  1.00  0.00    -0.230 A  
HETATM   12  C   UNL     1     -10.109   5.312  70.242  1.00  0.00    -0.329 A  
ENDBRANCH   6   7
TORSDOF 1
ENDMDL
MODEL      157
REMARK 921   NORMALIZED FREE ENERGY PREDICTED BY IDOCK:   -2.14 KCAL/MOL
REMARK 922        TOTAL FREE ENERGY PREDICTED BY IDOCK:   -2.40 KCAL/MOL
REMARK 923 INTER-LIGAND FREE ENERGY PREDICTED BY IDOCK:   -2.55 KCAL/MOL
REMARK 924 INTRA-LIGAND FREE ENERGY PREDICTED BY IDOCK:    0.16 KCAL/MOL
REMARK 927      BINDING AFFINITY PREDICTED BY RF-SCORE:    0.00 PKD
ROOT
HETATM    1  C   UNL     1      -7.763  11.935  68.557  1.00  0.00    -0.135 C  
HETATM    2  N   UNL     1      -9.122  11.884  68.059  1.00  0.00    -0.183 NA 
HETATM    3  C   UNL     1      -9.235  11.553  66.646  1.00  0.00    -0.186 C  
HETATM    4  C   UNL     1     -10.739  11.443  66.483  1.00  0.00    -0.325 C  
HETATM    5  C   UNL     1     -11.213  10.800  67.782  1.00  0.00    -0.385 C  
HETATM    6  C   UNL     1     -10.093  11.067  68.805  1.00  0.00    -0.203 C  
ENDROOT
BRANCH   6   7
HETATM    7  C   UNL     1      -9.577   9.799  69.458  1.00  0.00    -0.225 A  
HETATM    8  C   UNL     1      -8.900   8.854  68.690  1.00  0.00    -0.137 A  
HETATM    9  N   UNL     1      -8.405   7.687  69.165  1.00  0.00    -0.130 NA 
HETATM   10  C   UNL     1      -8.592   7.438  70.476  1.00  0.00    -0.139 A  
HETATM   11  C   UNL     1      -9.241   8.307  71.335  1.00  0.00    -0.218 A  
HETATM   12  C   UNL     1      -9.734   9.502  70.818  1.00  0.00    -0.289 A  
ENDBRANCH   6   7
TORSDOF 1
ENDMDL
MODEL      158
REMARK 921   NORMALIZED FREE ENERGY PREDICTED BY IDOCK:   -2.12 KCAL/MOL
REMARK 922        TOTAL FREE ENERGY PREDICTED BY IDOCK:   -2.37 KCAL/MOL
REMARK 923 INTER-LIGAND FREE ENERGY PREDICTED BY IDOCK:   -2.23 KCAL/MOL
REMARK 924 INTRA-LIGAND FREE ENERGY PREDICTED BY IDOCK:   -0.15 KCAL/MOL
REMARK 927      BINDING AFFINITY PREDICTED BY RF-SCORE:    0.00 PKD
ROOT
HETATM    1  C   UNL     1     -10.471   6.205  67.321  1.00  0.00    -0.255 C  
HETATM    2  N   UNL     1      -9.101   6.635  67.509  1.00  0.00    -0.116 NA 
HETATM    3  C   UNL     1      -8.455   7.137  66.304  1.00  0.00    -0.138 C  
HETATM    4  C   UNL     1      -7.129   7.623  66.855  1.00  0.00    -0.084 C  
HETATM    5  C   UNL     1      -7.480   8.215  68.215  1.00  0.00    -0.097 C  
HETATM    6  C   UNL     1      -8.826   7.576  68.607  1.00  0.00    -0.127 C  
ENDROOT
BRANCH   6   7
HETATM    7  C   UNL     1      -9.895   8.603  68.927  1.00  0.00    -0.184 A  
HETATM    8  C   UNL     1     -10.668   8.458  70.077  1.00  0.00    -0.236 A  
HETATM    9  N   UNL     1     -11.654   9.306  70.456  1.00  0.00    -0.250 NA 
HETATM   10  C   UNL     1     -11.889  10.360  69.649  1.00  0.00    -0.180 A  
HETATM   11  C   UNL     1     -11.179  10.608  68.488  1.00  0.00    -0.342 A  
HETATM   12  C   UNL     1     -10.168   9.720  68.128  1.00  0.00    -0.220 A  
ENDBRANCH   6   7
TORSDOF 1
ENDMDL
MODEL      159
REMARK 921   NORMALIZED FREE ENERGY PREDICTED BY IDOCK:   -2.08 KCAL/MOL
REMARK 922        TOTAL FREE ENERGY PREDICTED BY IDOCK:   -2.33 KCAL/MOL
REMARK 923 INTER-LIGAND FREE ENERGY PREDICTED BY IDOCK:   -2.32 KCAL/MOL
REMARK 924 INTRA-LIGAND FREE ENERGY PREDICTED BY IDOCK:   -0.01 KCAL/MOL
REMARK 927      BINDING AFFINITY PREDICTED BY RF-SCORE:    0.00 PKD
ROOT
HETATM    1  C   UNL     1      -7.679   6.015  70.526  1.00  0.00    -0.101 C  
HETATM    2  N   UNL     1      -8.967   6.309  69.932  1.00  0.00    -0.140 NA 
HETATM    3  C   UNL     1      -9.104   5.885  68.546  1.00  0.00    -0.111 C  
HETATM    4  C   UNL     1     -10.564   6.197  68.280  1.00  0.00    -0.324 C  
HETATM    5  C   UNL     1     -11.268   5.850  69.587  1.00  0.00    -0.319 C  
HETATM    6  C   UNL     1     -10.170   5.883  70.667  1.00  0.00    -0.209 C  
ENDROOT
BRANCH   6   7
HETATM    7  C   UNL     1     -10.081   4.592  71.457  1.00  0.00    -0.255 A  
HETATM    8  C   UNL     1     -10.372   4.596  72.820  1.00  0.00    -0.189 A  
HETATM    9  N   UNL     1     -10.317   3.508  73.623  1.00  0.00    -0.141 NA 
HETATM   10  C   UNL     1      -9.951   2.346  73.045  1.00  0.00    -0.117 A  
HETATM   11  C   UNL     1      -9.648   2.222  71.701  1.00  0.00    -0.211 A  
HETATM   12  C   UNL     1      -9.720   3.359  70.900  1.00  0.00    -0.200 A  
ENDBRANCH   6   7
TORSDOF 1
ENDMDL
MODEL      160
REMARK 921   NORMALIZED FREE ENERGY PREDICTED BY IDOCK:   -2.08 KCAL/MOL
REMARK 922        TOTAL FREE ENERGY PREDICTED BY IDOCK:   -2.33 KCAL/MOL
REMARK 923 INTER-LIGAND FREE ENERGY PREDICTED BY IDOCK:   -2.25 KCAL/MOL
REMARK 924 INTRA-LIGAND FREE ENERGY PREDICTED BY IDOCK:   -0.08 KCAL/MOL
REMARK 927      BINDING AFFINITY PREDICTED BY RF-SCORE:    0.00 PKD
ROOT
HETATM    1  C   UNL     1      -8.535   7.184  67.413  1.00  0.00    -0.122 C  
HETATM    2  N   UNL     1      -8.011   8.278  68.203  1.00  0.00    -0.121 NA 
HETATM    3  C   UNL     1      -8.461   9.597  67.782  1.00  0.00    -0.125 C  
HETATM    4  C   UNL     1      -7.869  10.476  68.866  1.00  0.00    -0.124 C  
HETATM    5  C   UNL     1      -8.003   9.648  70.139  1.00  0.00    -0.189 C  
HETATM    6  C   UNL     1      -8.146   8.189  69.667  1.00  0.00    -0.118 C  
ENDROOT
BRANCH   6   7
HETATM    7  C   UNL     1      -9.390   7.513  70.210  1.00  0.00    -0.161 A  
HETATM    8  C   UNL     1     -10.580   8.231  70.305  1.00  0.00    -0.227 A  
HETATM    9  N   UNL     1     -11.745   7.733  70.781  1.00  0.00    -0.264 NA 
HETATM   10  C   UNL     1     -11.734   6.448  71.188  1.00  0.00    -0.298 A  
HETATM   11  C   UNL     1     -10.614   5.638  71.132  1.00  0.00    -0.312 A  
HETATM   12  C   UNL     1      -9.431   6.178  70.632  1.00  0.00    -0.185 A  
ENDBRANCH   6   7
TORSDOF 1
ENDMDL
MODEL      161
REMARK 921   NORMALIZED FREE ENERGY PREDICTED BY IDOCK:   -2.05 KCAL/MOL
REMARK 922        TOTAL FREE ENERGY PREDICTED BY IDOCK:   -2.30 KCAL/MOL
REMARK 923 INTER-LIGAND FREE ENERGY PREDICTED BY IDOCK:   -2.17 KCAL/MOL
REMARK 924 INTRA-LIGAND FREE ENERGY PREDICTED BY IDOCK:   -0.12 KCAL/MOL
REMARK 927      BINDING AFFINITY PREDICTED BY RF-SCORE:    0.00 PKD
ROOT
HETATM    1  C   UNL     1      -7.600   8.315  65.098  1.00  0.00    -0.093 C  
HETATM    2  N   UNL     1      -8.789   7.807  65.750  1.00  0.00    -0.142 NA 
HETATM    3  C   UNL     1      -8.529   6.896  66.856  1.00  0.00    -0.115 C  
HETATM    4  C   UNL     1      -9.928   6.670  67.393  1.00  0.00    -0.185 C  
HETATM    5  C   UNL     1     -10.610   8.026  67.253  1.00  0.00    -0.360 C  
HETATM    6  C   UNL     1      -9.800   8.784  66.185  1.00  0.00    -0.227 C  
ENDROOT
BRANCH   6   7
HETATM    7  C   UNL     1      -9.301  10.131  66.670  1.00  0.00    -0.195 A  
HETATM    8  C   UNL     1      -9.572  11.277  65.924  1.00  0.00    -0.221 A  
HETATM    9  N   UNL     1      -9.169  12.526  66.256  1.00  0.00    -0.182 NA 
HETATM   10  C   UNL     1      -8.454  12.650  67.393  1.00  0.00    -0.186 A  
HETATM   11  C   UNL     1      -8.134  11.585  68.215  1.00  0.00    -0.148 A  
HETATM   12  C   UNL     1      -8.567  10.313  67.849  1.00  0.00    -0.118 A  
ENDBRANCH   6   7
TORSDOF 1
ENDMDL
MODEL      162
REMARK 921   NORMALIZED FREE ENERGY PREDICTED BY IDOCK:   -2.04 KCAL/MOL
REMARK 922        TOTAL FREE ENERGY PREDICTED BY IDOCK:   -2.29 KCAL/MOL
REMARK 923 INTER-LIGAND FREE ENERGY PREDICTED BY IDOCK:   -2.21 KCAL/MOL
REMARK 924 INTRA-LIGAND FREE ENERGY PREDICTED BY IDOCK:   -0.07 KCAL/MOL
REMARK 927      BINDING AFFINITY PREDICTED BY RF-SCORE:    0.00 PKD
ROOT
HETATM    1  C   UNL     1     -11.262   6.298  69.438  1.00  0.00    -0.420 C  
HETATM    2  N   UNL     1     -10.486   5.235  70.043  1.00  0.00    -0.300 NA 
HETATM    3  C   UNL     1      -9.905   4.295  69.095  1.00  0.00    -0.093 C  
HETATM    4  C   UNL     1      -9.068   3.424  70.011  1.00  0.00    -0.199 C  
HETATM    5  C   UNL     1      -8.509   4.393  71.046  1.00  0.00    -0.105 C  
HETATM    6  C   UNL     1      -9.446   5.615  71.014  1.00  0.00    -0.166 C  
ENDROOT
BRANCH   6   7
HETATM    7  C   UNL     1      -8.710   6.917  70.766  1.00  0.00    -0.145 A  
HETATM    8  C   UNL     1      -8.785   7.942  71.708  1.00  0.00    -0.123 A  
HETATM    9  N   UNL     1      -8.177   9.146  71.588  1.00  0.00    -0.322 NA 
HETATM   10  C   UNL     1      -7.452   9.350  70.469  1.00  0.00    -0.145 A  
HETATM   11  C   UNL     1      -7.300   8.402  69.473  1.00  0.00    -0.073 A  
HETATM   12  C   UNL     1      -7.934   7.171  69.629  1.00  0.00    -0.124 A  
ENDBRANCH   6   7
TORSDOF 1
ENDMDL
MODEL      163
REMARK 921   NORMALIZED FREE ENERGY PREDICTED BY IDOCK:   -2.03 KCAL/MOL
REMARK 922        TOTAL FREE ENERGY PREDICTED BY IDOCK:   -2.28 KCAL/MOL
REMARK 923 INTER-LIGAND FREE ENERGY PREDICTED BY IDOCK:   -2.13 KCAL/MOL
REMARK 924 INTRA-LIGAND FREE ENERGY PREDICTED BY IDOCK:   -0.15 KCAL/MOL
REMARK 927      BINDING AFFINITY PREDICTED BY RF-SCORE:    0.00 PKD
ROOT
HETATM    1  C   UNL     1      -9.848  13.652  67.451  1.00  0.00    -0.234 C  
HETATM    2  N   UNL     1     -10.183  12.489  66.655  1.00  0.00    -0.227 NA 
HETATM    3  C   UNL     1     -10.097  12.696  65.217  1.00  0.00    -0.253 C  
HETATM    4  C   UNL     1     -10.359  11.296  64.697  1.00  0.00    -0.373 C  
HETATM    5  C   UNL     1      -9.658  10.384  65.697  1.00  0.00    -0.281 C  
HETATM    6  C   UNL     1      -9.509  11.221  66.982  1.00  0.00    -0.171 C  
ENDROOT
BRANCH   6   7
HETATM    7  C   UNL     1      -8.075  11.302  67.469  1.00  0.00    -0.124 A  
HETATM    8  C   UNL     1      -7.799  11.152  68.826  1.00  0.00    -0.142 A  
HETATM    9  N   UNL     1      -6.561  11.214  69.373  1.00  0.00    -0.095 NA 
HETATM   10  C   UNL     1      -5.536  11.440  68.527  1.00  0.00    -0.042 A  
HETATM   11  C   UNL     1      -5.691  11.596  67.161  1.00  0.00    -0.120 A  
HETATM   12  C   UNL     1      -6.977  11.521  66.629  1.00  0.00    -0.069 A  
ENDBRANCH   6   7
TORSDOF 1
ENDMDL
MODEL      164
REMARK 921   NORMALIZED FREE ENERGY PREDICTED BY IDOCK:   -2.01 KCAL/MOL
REMARK 922        TOTAL FREE ENERGY PREDICTED BY IDOCK:   -2.26 KCAL/MOL
REMARK 923 INTER-LIGAND FREE ENERGY PREDICTED BY IDOCK:   -2.24 KCAL/MOL
REMARK 924 INTRA-LIGAND FREE ENERGY PREDICTED BY IDOCK:   -0.01 KCAL/MOL
REMARK 927      BINDING AFFINITY PREDICTED BY RF-SCORE:    0.00 PKD
ROOT
HETATM    1  C   UNL     1      -7.663   8.188  68.589  1.00  0.00    -0.112 C  
HETATM    2  N   UNL     1      -8.331   9.186  67.779  1.00  0.00    -0.116 NA 
HETATM    3  C   UNL     1      -7.456   9.904  66.862  1.00  0.00    -0.092 C  
HETATM    4  C   UNL     1      -8.455  10.742  66.089  1.00  0.00    -0.167 C  
HETATM    5  C   UNL     1      -9.668   9.832  65.930  1.00  0.00    -0.332 C  
HETATM    6  C   UNL     1      -9.535   8.772  67.041  1.00  0.00    -0.169 C  
ENDROOT
BRANCH   6   7
HETATM    7  C   UNL     1      -9.570   7.353  66.508  1.00  0.00    -0.228 A  
HETATM    8  C   UNL     1     -10.616   6.507  66.869  1.00  0.00    -0.305 A  
HETATM    9  N   UNL     1     -10.744   5.221  66.462  1.00  0.00    -0.285 NA 
HETATM   10  C   UNL     1      -9.779   4.744  65.651  1.00  0.00    -0.174 A  
HETATM   11  C   UNL     1      -8.699   5.495  65.221  1.00  0.00    -0.136 A  
HETATM   12  C   UNL     1      -8.599   6.816  65.653  1.00  0.00    -0.126 A  
ENDBRANCH   6   7
TORSDOF 1
ENDMDL
MODEL      165
REMARK 921   NORMALIZED FREE ENERGY PREDICTED BY IDOCK:   -2.01 KCAL/MOL
REMARK 922        TOTAL FREE ENERGY PREDICTED BY IDOCK:   -2.25 KCAL/MOL
REMARK 923 INTER-LIGAND FREE ENERGY PREDICTED BY IDOCK:   -2.20 KCAL/MOL
REMARK 924 INTRA-LIGAND FREE ENERGY PREDICTED BY IDOCK:   -0.06 KCAL/MOL
REMARK 927      BINDING AFFINITY PREDICTED BY RF-SCORE:    0.00 PKD
ROOT
HETATM    1  C   UNL     1     -10.768   7.369  67.208  1.00  0.00    -0.308 C  
HETATM    2  N   UNL     1     -10.337   6.944  68.524  1.00  0.00    -0.177 NA 
HETATM    3  C   UNL     1     -11.361   6.265  69.305  1.00  0.00    -0.341 C  
HETATM    4  C   UNL     1     -10.572   5.837  70.527  1.00  0.00    -0.359 C  
HETATM    5  C   UNL     1      -9.205   5.450  69.976  1.00  0.00    -0.175 C  
HETATM    6  C   UNL     1      -9.092   6.163  68.616  1.00  0.00    -0.125 C  
ENDROOT
BRANCH   6   7
HETATM    7  C   UNL     1      -8.784   5.212  67.475  1.00  0.00    -0.103 A  
HETATM    8  C   UNL     1      -9.527   4.042  67.333  1.00  0.00    -0.192 A  
HETATM    9  N   UNL     1      -9.334   3.119  66.361  1.00  0.00    -0.136 NA 
HETATM   10  C   UNL     1      -8.346   3.367  65.478  1.00  0.00    -0.099 A  
HETATM   11  C   UNL     1      -7.551   4.499  65.517  1.00  0.00    -0.082 A  
HETATM   12  C   UNL     1      -7.778   5.432  66.526  1.00  0.00    -0.099 A  
ENDBRANCH   6   7
TORSDOF 1
ENDMDL
MODEL      166
REMARK 921   NORMALIZED FREE ENERGY PREDICTED BY IDOCK:   -2.00 KCAL/MOL
REMARK 922        TOTAL FREE ENERGY PREDICTED BY IDOCK:   -2.25 KCAL/MOL
REMARK 923 INTER-LIGAND FREE ENERGY PREDICTED BY IDOCK:   -2.20 KCAL/MOL
REMARK 924 INTRA-LIGAND FREE ENERGY PREDICTED BY IDOCK:   -0.05 KCAL/MOL
REMARK 927      BINDING AFFINITY PREDICTED BY RF-SCORE:    0.00 PKD
ROOT
HETATM    1  C   UNL     1      -9.749  10.431  67.962  1.00  0.00    -0.150 C  
HETATM    2  N   UNL     1      -8.821   9.331  67.795  1.00  0.00    -0.120 NA 
HETATM    3  C   UNL     1      -7.421   9.688  67.980  1.00  0.00    -0.082 C  
HETATM    4  C   UNL     1      -6.751   8.332  67.883  1.00  0.00    -0.065 C  
HETATM    5  C   UNL     1      -7.721   7.381  68.575  1.00  0.00    -0.120 C  
HETATM    6  C   UNL     1      -9.086   8.094  68.546  1.00  0.00    -0.136 C  
ENDROOT
BRANCH   6   7
HETATM    7  C   UNL     1      -9.706   8.236  69.923  1.00  0.00    -0.180 A  
HETATM    8  C   UNL     1      -8.950   8.761  70.969  1.00  0.00    -0.217 A  
HETATM    9  N   UNL     1      -9.396   8.925  72.236  1.00  0.00    -0.346 NA 
HETATM   10  C   UNL     1     -10.666   8.547  72.485  1.00  0.00    -0.232 A  
HETATM   11  C   UNL     1     -11.511   8.022  71.523  1.00  0.00    -0.303 A  
HETATM   12  C   UNL     1     -11.023   7.871  70.227  1.00  0.00    -0.249 A  
ENDBRANCH   6   7
TORSDOF 1
ENDMDL
MODEL      167
REMARK 921   NORMALIZED FREE ENERGY PREDICTED BY IDOCK:   -1.99 KCAL/MOL
REMARK 922        TOTAL FREE ENERGY PREDICTED BY IDOCK:   -2.23 KCAL/MOL
REMARK 923 INTER-LIGAND FREE ENERGY PREDICTED BY IDOCK:   -2.09 KCAL/MOL
REMARK 924 INTRA-LIGAND FREE ENERGY PREDICTED BY IDOCK:   -0.14 KCAL/MOL
REMARK 927      BINDING AFFINITY PREDICTED BY RF-SCORE:    0.00 PKD
ROOT
HETATM    1  C   UNL     1      -9.471   7.011  70.193  1.00  0.00    -0.162 C  
HETATM    2  N   UNL     1     -10.304   8.142  69.838  1.00  0.00    -0.210 NA 
HETATM    3  C   UNL     1      -9.909   9.400  70.455  1.00  0.00    -0.270 C  
HETATM    4  C   UNL     1     -10.861  10.373  69.788  1.00  0.00    -0.342 C  
HETATM    5  C   UNL     1     -10.976   9.865  68.355  1.00  0.00    -0.235 C  
HETATM    6  C   UNL     1     -10.552   8.386  68.408  1.00  0.00    -0.105 C  
ENDROOT
BRANCH   6   7
HETATM    7  C   UNL     1      -9.428   8.060  67.443  1.00  0.00    -0.187 A  
HETATM    8  C   UNL     1      -9.544   6.961  66.594  1.00  0.00    -0.168 A  
HETATM    9  N   UNL     1      -8.603   6.573  65.702  1.00  0.00    -0.147 NA 
HETATM   10  C   UNL     1      -7.478   7.315  65.646  1.00  0.00    -0.085 A  
HETATM   11  C   UNL     1      -7.257   8.430  66.434  1.00  0.00    -0.072 A  
HETATM   12  C   UNL     1      -8.248   8.807  67.339  1.00  0.00    -0.109 A  
ENDBRANCH   6   7
TORSDOF 1
ENDMDL
MODEL      168
REMARK 921   NORMALIZED FREE ENERGY PREDICTED BY IDOCK:   -1.94 KCAL/MOL
REMARK 922        TOTAL FREE ENERGY PREDICTED BY IDOCK:   -2.18 KCAL/MOL
REMARK 923 INTER-LIGAND FREE ENERGY PREDICTED BY IDOCK:   -2.04 KCAL/MOL
REMARK 924 INTRA-LIGAND FREE ENERGY PREDICTED BY IDOCK:   -0.14 KCAL/MOL
REMARK 927      BINDING AFFINITY PREDICTED BY RF-SCORE:    0.00 PKD
ROOT
HETATM    1  C   UNL     1     -11.267   6.531  70.049  1.00  0.00    -0.393 C  
HETATM    2  N   UNL     1     -10.356   5.480  69.646  1.00  0.00    -0.263 NA 
HETATM    3  C   UNL     1      -9.411   5.865  68.606  1.00  0.00    -0.122 C  
HETATM    4  C   UNL     1      -8.539   4.627  68.521  1.00  0.00    -0.106 C  
HETATM    5  C   UNL     1      -8.417   4.152  69.964  1.00  0.00    -0.091 C  
HETATM    6  C   UNL     1      -9.615   4.775  70.705  1.00  0.00    -0.179 C  
ENDROOT
BRANCH   6   7
HETATM    7  C   UNL     1      -9.202   5.583  71.920  1.00  0.00    -0.156 A  
HETATM    8  C   UNL     1      -9.860   5.391  73.133  1.00  0.00    -0.162 A  
HETATM    9  N   UNL     1      -9.581   6.062  74.276  1.00  0.00    -0.170 NA 
HETATM   10  C   UNL     1      -8.594   6.978  74.215  1.00  0.00    -0.176 A  
HETATM   11  C   UNL     1      -7.867   7.246  73.069  1.00  0.00    -0.113 A  
HETATM   12  C   UNL     1      -8.175   6.535  71.911  1.00  0.00    -0.108 A  
ENDBRANCH   6   7
TORSDOF 1
ENDMDL
MODEL      169
REMARK 921   NORMALIZED FREE ENERGY PREDICTED BY IDOCK:   -1.86 KCAL/MOL
REMARK 922        TOTAL FREE ENERGY PREDICTED BY IDOCK:   -2.10 KCAL/MOL
REMARK 923 INTER-LIGAND FREE ENERGY PREDICTED BY IDOCK:   -1.97 KCAL/MOL
REMARK 924 INTRA-LIGAND FREE ENERGY PREDICTED BY IDOCK:   -0.12 KCAL/MOL
REMARK 927      BINDING AFFINITY PREDICTED BY RF-SCORE:    0.00 PKD
ROOT
HETATM    1  C   UNL     1      -7.824   7.778  65.292  1.00  0.00    -0.117 C  
HETATM    2  N   UNL     1      -8.368   6.558  65.853  1.00  0.00    -0.134 NA 
HETATM    3  C   UNL     1      -7.411   5.760  66.606  1.00  0.00    -0.084 C  
HETATM    4  C   UNL     1      -8.304   4.667  67.160  1.00  0.00    -0.105 C  
HETATM    5  C   UNL     1      -9.610   5.379  67.493  1.00  0.00    -0.138 C  
HETATM    6  C   UNL     1      -9.606   6.663  66.643  1.00  0.00    -0.163 C  
ENDROOT
BRANCH   6   7
HETATM    7  C   UNL     1      -9.797   7.919  67.471  1.00  0.00    -0.221 A  
HETATM    8  C   UNL     1     -10.569   8.965  66.971  1.00  0.00    -0.209 A  
HETATM    9  N   UNL     1     -10.799  10.132  67.617  1.00  0.00    -0.284 NA 
HETATM   10  C   UNL     1     -10.230  10.274  68.831  1.00  0.00    -0.205 A  
HETATM   11  C   UNL     1      -9.452   9.300  69.431  1.00  0.00    -0.169 A  
HETATM   12  C   UNL     1      -9.239   8.108  68.742  1.00  0.00    -0.144 A  
ENDBRANCH   6   7
TORSDOF 1
ENDMDL
MODEL      170
REMARK 921   NORMALIZED FREE ENERGY PREDICTED BY IDOCK:   -1.82 KCAL/MOL
REMARK 922        TOTAL FREE ENERGY PREDICTED BY IDOCK:   -2.06 KCAL/MOL
REMARK 923 INTER-LIGAND FREE ENERGY PREDICTED BY IDOCK:   -2.27 KCAL/MOL
REMARK 924 INTRA-LIGAND FREE ENERGY PREDICTED BY IDOCK:    0.21 KCAL/MOL
REMARK 927      BINDING AFFINITY PREDICTED BY RF-SCORE:    0.00 PKD
ROOT
HETATM    1  C   UNL     1      -8.393   6.166  71.576  1.00  0.00    -0.127 C  
HETATM    2  N   UNL     1      -9.768   6.617  71.632  1.00  0.00    -0.164 NA 
HETATM    3  C   UNL     1     -10.528   6.393  70.410  1.00  0.00    -0.218 C  
HETATM    4  C   UNL     1     -11.915   6.831  70.836  1.00  0.00    -0.437 C  
HETATM    5  C   UNL     1     -12.034   6.357  72.280  1.00  0.00    -0.289 C  
HETATM    6  C   UNL     1     -10.586   6.175  72.773  1.00  0.00    -0.228 C  
ENDROOT
BRANCH   6   7
HETATM    7  C   UNL     1     -10.320   4.786  73.321  1.00  0.00    -0.233 A  
HETATM    8  C   UNL     1     -11.270   3.782  73.147  1.00  0.00    -0.055 A  
HETATM    9  N   UNL     1     -11.143   2.513  73.601  1.00  0.00    -0.209 NA 
HETATM   10  C   UNL     1     -10.009   2.219  74.267  1.00  0.00    -0.108 A  
HETATM   11  C   UNL     1      -8.994   3.132  74.491  1.00  0.00    -0.094 A  
HETATM   12  C   UNL     1      -9.153   4.428  74.007  1.00  0.00    -0.110 A  
ENDBRANCH   6   7
TORSDOF 1
ENDMDL
MODEL      171
REMARK 921   NORMALIZED FREE ENERGY PREDICTED BY IDOCK:   -1.80 KCAL/MOL
REMARK 922        TOTAL FREE ENERGY PREDICTED BY IDOCK:   -2.03 KCAL/MOL
REMARK 923 INTER-LIGAND FREE ENERGY PREDICTED BY IDOCK:   -1.96 KCAL/MOL
REMARK 924 INTRA-LIGAND FREE ENERGY PREDICTED BY IDOCK:   -0.07 KCAL/MOL
REMARK 927      BINDING AFFINITY PREDICTED BY RF-SCORE:    0.00 PKD
ROOT
HETATM    1  C   UNL     1      -7.946   5.945  68.433  1.00  0.00    -0.105 C  
HETATM    2  N   UNL     1      -9.290   6.055  68.962  1.00  0.00    -0.124 NA 
HETATM    3  C   UNL     1      -9.439   5.591  70.334  1.00  0.00    -0.163 C  
HETATM    4  C   UNL     1     -10.880   5.965  70.622  1.00  0.00    -0.363 C  
HETATM    5  C   UNL     1     -11.073   7.299  69.909  1.00  0.00    -0.233 C  
HETATM    6  C   UNL     1      -9.968   7.356  68.837  1.00  0.00    -0.169 C  
ENDROOT
BRANCH   6   7
HETATM    7  C   UNL     1      -9.108   8.600  68.942  1.00  0.00    -0.145 A  
HETATM    8  C   UNL     1      -8.636   9.009  70.188  1.00  0.00    -0.160 A  
HETATM    9  N   UNL     1      -7.871  10.105  70.401  1.00  0.00    -0.157 NA 
HETATM   10  C   UNL     1      -7.554  10.842  69.318  1.00  0.00    -0.113 A  
HETATM   11  C   UNL     1      -7.958  10.528  68.033  1.00  0.00    -0.106 A  
HETATM   12  C   UNL     1      -8.741   9.390  67.846  1.00  0.00    -0.120 A  
ENDBRANCH   6   7
TORSDOF 1
ENDMDL
MODEL      172
REMARK 921   NORMALIZED FREE ENERGY PREDICTED BY IDOCK:   -1.76 KCAL/MOL
REMARK 922        TOTAL FREE ENERGY PREDICTED BY IDOCK:   -1.99 KCAL/MOL
REMARK 923 INTER-LIGAND FREE ENERGY PREDICTED BY IDOCK:   -1.91 KCAL/MOL
REMARK 924 INTRA-LIGAND FREE ENERGY PREDICTED BY IDOCK:   -0.08 KCAL/MOL
REMARK 927      BINDING AFFINITY PREDICTED BY RF-SCORE:    0.00 PKD
ROOT
HETATM    1  C   UNL     1     -11.779   6.609  70.180  1.00  0.00    -0.351 C  
HETATM    2  N   UNL     1     -10.793   6.883  71.205  1.00  0.00    -0.236 NA 
HETATM    3  C   UNL     1     -10.642   5.827  72.196  1.00  0.00    -0.219 C  
HETATM    4  C   UNL     1      -9.474   6.347  73.012  1.00  0.00    -0.148 C  
HETATM    5  C   UNL     1      -8.556   6.998  71.984  1.00  0.00    -0.123 C  
HETATM    6  C   UNL     1      -9.451   7.302  70.767  1.00  0.00    -0.164 C  
ENDROOT
BRANCH   6   7
HETATM    7  C   UNL     1      -8.921   6.701  69.480  1.00  0.00    -0.138 A  
HETATM    8  C   UNL     1      -8.409   5.405  69.484  1.00  0.00    -0.100 A  
HETATM    9  N   UNL     1      -7.903   4.772  68.399  1.00  0.00    -0.081 NA 
HETATM   10  C   UNL     1      -7.902   5.463  67.241  1.00  0.00    -0.101 A  
HETATM   11  C   UNL     1      -8.392   6.750  67.118  1.00  0.00    -0.121 A  
HETATM   12  C   UNL     1      -8.911   7.372  68.251  1.00  0.00    -0.130 A  
ENDBRANCH   6   7
TORSDOF 1
ENDMDL
MODEL      173
REMARK 921   NORMALIZED FREE ENERGY PREDICTED BY IDOCK:   -1.73 KCAL/MOL
REMARK 922        TOTAL FREE ENERGY PREDICTED BY IDOCK:   -1.96 KCAL/MOL
REMARK 923 INTER-LIGAND FREE ENERGY PREDICTED BY IDOCK:   -1.88 KCAL/MOL
REMARK 924 INTRA-LIGAND FREE ENERGY PREDICTED BY IDOCK:   -0.08 KCAL/MOL
REMARK 927      BINDING AFFINITY PREDICTED BY RF-SCORE:    0.00 PKD
ROOT
HETATM    1  C   UNL     1      -6.016  14.269  70.665  1.00  0.00    -0.196 C  
HETATM    2  N   UNL     1      -6.032  13.488  69.445  1.00  0.00    -0.091 NA 
HETATM    3  C   UNL     1      -6.586  12.150  69.592  1.00  0.00    -0.029 C  
HETATM    4  C   UNL     1      -6.590  11.669  68.154  1.00  0.00    -0.061 C  
HETATM    5  C   UNL     1      -6.961  12.905  67.343  1.00  0.00    -0.129 C  
HETATM    6  C   UNL     1      -6.624  14.106  68.247  1.00  0.00    -0.114 C  
ENDROOT
BRANCH   6   7
HETATM    7  C   UNL     1      -7.803  15.036  68.456  1.00  0.00    -0.137 A  
HETATM    8  C   UNL     1      -9.073  14.503  68.668  1.00  0.00    -0.187 A  
HETATM    9  N   UNL     1     -10.196  15.236  68.856  1.00  0.00    -0.223 NA 
HETATM   10  C   UNL     1     -10.055  16.576  68.833  1.00  0.00    -0.266 A  
HETATM   11  C   UNL     1      -8.843  17.215  68.640  1.00  0.00    -0.266 A  
HETATM   12  C   UNL     1      -7.706  16.433  68.454  1.00  0.00    -0.177 A  
ENDBRANCH   6   7
TORSDOF 1
ENDMDL
MODEL      174
REMARK 921   NORMALIZED FREE ENERGY PREDICTED BY IDOCK:   -1.70 KCAL/MOL
REMARK 922        TOTAL FREE ENERGY PREDICTED BY IDOCK:   -1.93 KCAL/MOL
REMARK 923 INTER-LIGAND FREE ENERGY PREDICTED BY IDOCK:   -1.85 KCAL/MOL
REMARK 924 INTRA-LIGAND FREE ENERGY PREDICTED BY IDOCK:   -0.08 KCAL/MOL
REMARK 927      BINDING AFFINITY PREDICTED BY RF-SCORE:    0.00 PKD
ROOT
HETATM    1  C   UNL     1      -7.566   5.969  65.110  1.00  0.00    -0.089 C  
HETATM    2  N   UNL     1      -8.518   5.095  64.456  1.00  0.00    -0.141 NA 
HETATM    3  C   UNL     1      -7.991   3.784  64.103  1.00  0.00    -0.086 C  
HETATM    4  C   UNL     1      -9.236   3.091  63.586  1.00  0.00    -0.097 C  
HETATM    5  C   UNL     1     -10.353   3.595  64.492  1.00  0.00    -0.161 C  
HETATM    6  C   UNL     1      -9.829   4.910  65.099  1.00  0.00     0.061 C  
ENDROOT
BRANCH   6   7
HETATM    7  C   UNL     1      -9.866   4.916  66.615  1.00  0.00    -0.223 A  
HETATM    8  C   UNL     1      -9.437   3.793  67.319  1.00  0.00    -0.200 A  
HETATM    9  N   UNL     1      -9.434   3.684  68.669  1.00  0.00    -0.160 NA 
HETATM   10  C   UNL     1      -9.883   4.749  69.364  1.00  0.00    -0.212 A  
HETATM   11  C   UNL     1     -10.323   5.918  68.771  1.00  0.00    -0.279 A  
HETATM   12  C   UNL     1     -10.309   6.001  67.381  1.00  0.00    -0.268 A  
ENDBRANCH   6   7
TORSDOF 1
ENDMDL
MODEL      175
REMARK 921   NORMALIZED FREE ENERGY PREDICTED BY IDOCK:   -1.70 KCAL/MOL
REMARK 922        TOTAL FREE ENERGY PREDICTED BY IDOCK:   -1.93 KCAL/MOL
REMARK 923 INTER-LIGAND FREE ENERGY PREDICTED BY IDOCK:   -1.78 KCAL/MOL
REMARK 924 INTRA-LIGAND FREE ENERGY PREDICTED BY IDOCK:   -0.14 KCAL/MOL
REMARK 927      BINDING AFFINITY PREDICTED BY RF-SCORE:    0.00 PKD
ROOT
HETATM    1  C   UNL     1      -7.675   2.238  64.535  1.00  0.00    -0.072 C  
HETATM    2  N   UNL     1      -8.867   2.458  63.743  1.00  0.00    -0.089 NA 
HETATM    3  C   UNL     1      -9.940   1.504  63.988  1.00  0.00    -0.082 C  
HETATM    4  C   UNL     1     -11.054   2.082  63.137  1.00  0.00    -0.249 C  
HETATM    5  C   UNL     1     -10.900   3.591  63.288  1.00  0.00    -0.180 C  
HETATM    6  C   UNL     1      -9.444   3.813  63.740  1.00  0.00    -0.146 C  
ENDROOT
BRANCH   6   7
HETATM    7  C   UNL     1      -9.341   4.614  65.023  1.00  0.00    -0.142 A  
HETATM    8  C   UNL     1      -8.365   5.601  65.143  1.00  0.00    -0.146 A  
HETATM    9  N   UNL     1      -8.176   6.369  66.243  1.00  0.00    -0.114 NA 
HETATM   10  C   UNL     1      -9.001   6.147  67.285  1.00  0.00    -0.112 A  
HETATM   11  C   UNL     1     -10.010   5.201  67.275  1.00  0.00    -0.218 A  
HETATM   12  C   UNL     1     -10.182   4.431  66.128  1.00  0.00    -0.232 A  
ENDBRANCH   6   7
TORSDOF 1
ENDMDL
MODEL      176
REMARK 921   NORMALIZED FREE ENERGY PREDICTED BY IDOCK:   -1.67 KCAL/MOL
REMARK 922        TOTAL FREE ENERGY PREDICTED BY IDOCK:   -1.90 KCAL/MOL
REMARK 923 INTER-LIGAND FREE ENERGY PREDICTED BY IDOCK:   -2.22 KCAL/MOL
REMARK 924 INTRA-LIGAND FREE ENERGY PREDICTED BY IDOCK:    0.32 KCAL/MOL
REMARK 927      BINDING AFFINITY PREDICTED BY RF-SCORE:    0.00 PKD
ROOT
HETATM    1  C   UNL     1     -10.013  15.792  69.796  1.00  0.00    -0.250 C  
HETATM    2  N   UNL     1     -10.292  15.207  68.501  1.00  0.00    -0.225 NA 
HETATM    3  C   UNL     1     -10.557  16.176  67.446  1.00  0.00    -0.311 C  
HETATM    4  C   UNL     1     -10.663  15.274  66.231  1.00  0.00    -0.315 C  
HETATM    5  C   UNL     1      -9.609  14.198  66.467  1.00  0.00    -0.310 C  
HETATM    6  C   UNL     1      -9.343  14.208  67.984  1.00  0.00    -0.203 C  
ENDROOT
BRANCH   6   7
HETATM    7  C   UNL     1      -7.878  14.400  68.325  1.00  0.00    -0.138 A  
HETATM    8  C   UNL     1      -6.954  14.609  67.303  1.00  0.00     0.053 A  
HETATM    9  N   UNL     1      -5.624  14.783  67.490  1.00  0.00    -0.344 NA 
HETATM   10  C   UNL     1      -5.181  14.747  68.763  1.00  0.00    -0.089 A  
HETATM   11  C   UNL     1      -6.008  14.556  69.855  1.00  0.00    -0.132 A  
HETATM   12  C   UNL     1      -7.372  14.385  69.630  1.00  0.00     0.046 A  
ENDBRANCH   6   7
TORSDOF 1
ENDMDL
MODEL      177
REMARK 921   NORMALIZED FREE ENERGY PREDICTED BY IDOCK:   -1.67 KCAL/MOL
REMARK 922        TOTAL FREE ENERGY PREDICTED BY IDOCK:   -1.89 KCAL/MOL
REMARK 923 INTER-LIGAND FREE ENERGY PREDICTED BY IDOCK:   -1.81 KCAL/MOL
REMARK 924 INTRA-LIGAND FREE ENERGY PREDICTED BY IDOCK:   -0.08 KCAL/MOL
REMARK 927      BINDING AFFINITY PREDICTED BY RF-SCORE:    0.00 PKD
ROOT
HETATM    1  C   UNL     1      -7.508   7.407  68.657  1.00  0.00    -0.102 C  
HETATM    2  N   UNL     1      -8.872   7.662  68.242  1.00  0.00    -0.126 NA 
HETATM    3  C   UNL     1      -9.015   8.722  67.254  1.00  0.00    -0.132 C  
HETATM    4  C   UNL     1     -10.496   8.639  66.938  1.00  0.00    -0.329 C  
HETATM    5  C   UNL     1     -10.806   7.147  66.970  1.00  0.00    -0.382 C  
HETATM    6  C   UNL     1      -9.680   6.511  67.806  1.00  0.00    -0.122 C  
ENDROOT
BRANCH   6   7
HETATM    7  C   UNL     1      -8.960   5.395  67.073  1.00  0.00    -0.112 A  
HETATM    8  C   UNL     1      -8.711   5.516  65.707  1.00  0.00    -0.151 A  
HETATM    9  N   UNL     1      -8.086   4.582  64.952  1.00  0.00    -0.098 NA 
HETATM   10  C   UNL     1      -7.684   3.461  65.585  1.00  0.00    -0.078 A  
HETATM   11  C   UNL     1      -7.870   3.237  66.937  1.00  0.00    -0.080 A  
HETATM   12  C   UNL     1      -8.511   4.220  67.688  1.00  0.00    -0.101 A  
ENDBRANCH   6   7
TORSDOF 1
ENDMDL
MODEL      178
REMARK 921   NORMALIZED FREE ENERGY PREDICTED BY IDOCK:   -1.59 KCAL/MOL
REMARK 922        TOTAL FREE ENERGY PREDICTED BY IDOCK:   -1.82 KCAL/MOL
REMARK 923 INTER-LIGAND FREE ENERGY PREDICTED BY IDOCK:   -1.74 KCAL/MOL
REMARK 924 INTRA-LIGAND FREE ENERGY PREDICTED BY IDOCK:   -0.08 KCAL/MOL
REMARK 927      BINDING AFFINITY PREDICTED BY RF-SCORE:    0.00 PKD
ROOT
HETATM    1  C   UNL     1      -8.466   4.872  70.971  1.00  0.00    -0.116 C  
HETATM    2  N   UNL     1      -9.616   5.137  70.132  1.00  0.00    -0.166 NA 
HETATM    3  C   UNL     1     -10.339   6.356  70.465  1.00  0.00    -0.202 C  
HETATM    4  C   UNL     1     -11.362   6.412  69.347  1.00  0.00    -0.443 C  
HETATM    5  C   UNL     1     -10.610   5.907  68.122  1.00  0.00    -0.312 C  
HETATM    6  C   UNL     1      -9.421   5.099  68.673  1.00  0.00    -0.133 C  
ENDROOT
BRANCH   6   7
HETATM    7  C   UNL     1      -8.085   5.577  68.139  1.00  0.00    -0.096 A  
HETATM    8  C   UNL     1      -7.815   6.943  68.078  1.00  0.00    -0.114 A  
HETATM    9  N   UNL     1      -6.664   7.481  67.612  1.00  0.00    -0.065 NA 
HETATM   10  C   UNL     1      -5.722   6.618  67.180  1.00  0.00    -0.013 A  
HETATM   11  C   UNL     1      -5.877   5.244  67.202  1.00  0.00    -0.018 A  
HETATM   12  C   UNL     1      -7.071   4.720  67.692  1.00  0.00    -0.062 A  
ENDBRANCH   6   7
TORSDOF 1
ENDMDL
MODEL      179
REMARK 921   NORMALIZED FREE ENERGY PREDICTED BY IDOCK:   -1.58 KCAL/MOL
REMARK 922        TOTAL FREE ENERGY PREDICTED BY IDOCK:   -1.80 KCAL/MOL
REMARK 923 INTER-LIGAND FREE ENERGY PREDICTED BY IDOCK:   -1.87 KCAL/MOL
REMARK 924 INTRA-LIGAND FREE ENERGY PREDICTED BY IDOCK:    0.07 KCAL/MOL
REMARK 927      BINDING AFFINITY PREDICTED BY RF-SCORE:    0.00 PKD
ROOT
HETATM    1  C   UNL     1      -8.846   8.656  69.944  1.00  0.00    -0.144 C  
HETATM    2  N   UNL     1      -9.031   7.477  70.765  1.00  0.00    -0.149 NA 
HETATM    3  C   UNL     1     -10.283   7.449  71.508  1.00  0.00    -0.192 C  
HETATM    4  C   UNL     1     -10.231   6.067  72.130  1.00  0.00    -0.222 C  
HETATM    5  C   UNL     1      -9.598   5.193  71.054  1.00  0.00    -0.229 C  
HETATM    6  C   UNL     1      -8.842   6.164  70.127  1.00  0.00    -0.144 C  
ENDROOT
BRANCH   6   7
HETATM    7  C   UNL     1      -9.254   6.033  68.674  1.00  0.00    -0.115 A  
HETATM    8  C   UNL     1      -8.398   6.484  67.671  1.00  0.00    -0.121 A  
HETATM    9  N   UNL     1      -8.665   6.426  66.345  1.00  0.00    -0.133 NA 
HETATM   10  C   UNL     1      -9.849   5.890  65.989  1.00  0.00     0.066 A  
HETATM   11  C   UNL     1     -10.772   5.401  66.896  1.00  0.00    -0.264 A  
HETATM   12  C   UNL     1     -10.465   5.471  68.253  1.00  0.00    -0.225 A  
ENDBRANCH   6   7
TORSDOF 1
ENDMDL
MODEL      180
REMARK 921   NORMALIZED FREE ENERGY PREDICTED BY IDOCK:   -1.57 KCAL/MOL
REMARK 922        TOTAL FREE ENERGY PREDICTED BY IDOCK:   -1.79 KCAL/MOL
REMARK 923 INTER-LIGAND FREE ENERGY PREDICTED BY IDOCK:   -1.74 KCAL/MOL
REMARK 924 INTRA-LIGAND FREE ENERGY PREDICTED BY IDOCK:   -0.06 KCAL/MOL
REMARK 927      BINDING AFFINITY PREDICTED BY RF-SCORE:    0.00 PKD
ROOT
HETATM    1  C   UNL     1      -8.463   7.386  65.669  1.00  0.00    -0.130 C  
HETATM    2  N   UNL     1      -7.966   8.612  66.259  1.00  0.00    -0.101 NA 
HETATM    3  C   UNL     1      -8.696   9.809  65.868  1.00  0.00    -0.139 C  
HETATM    4  C   UNL     1      -8.039  10.859  66.743  1.00  0.00    -0.142 C  
HETATM    5  C   UNL     1      -7.775  10.141  68.061  1.00  0.00    -0.089 C  
HETATM    6  C   UNL     1      -7.780   8.639  67.719  1.00  0.00    -0.102 C  
ENDROOT
BRANCH   6   7
HETATM    7  C   UNL     1      -8.762   7.847  68.560  1.00  0.00    -0.131 A  
HETATM    8  C   UNL     1      -8.490   6.515  68.866  1.00  0.00    -0.122 A  
HETATM    9  N   UNL     1      -9.297   5.712  69.599  1.00  0.00    -0.135 NA 
HETATM   10  C   UNL     1     -10.442   6.257  70.055  1.00  0.00    -0.218 A  
HETATM   11  C   UNL     1     -10.811   7.570  69.821  1.00  0.00    -0.234 A  
HETATM   12  C   UNL     1      -9.957   8.372  69.068  1.00  0.00    -0.194 A  
ENDBRANCH   6   7
TORSDOF 1
ENDMDL
MODEL      181
REMARK 921   NORMALIZED FREE ENERGY PREDICTED BY IDOCK:   -1.50 KCAL/MOL
REMARK 922        TOTAL FREE ENERGY PREDICTED BY IDOCK:   -1.72 KCAL/MOL
REMARK 923 INTER-LIGAND FREE ENERGY PREDICTED BY IDOCK:   -1.60 KCAL/MOL
REMARK 924 INTRA-LIGAND FREE ENERGY PREDICTED BY IDOCK:   -0.12 KCAL/MOL
REMARK 927      BINDING AFFINITY PREDICTED BY RF-SCORE:    0.00 PKD
ROOT
HETATM    1  C   UNL     1      -7.424   2.719  70.523  1.00  0.00    -0.040 C  
HETATM    2  N   UNL     1      -8.428   2.853  71.558  1.00  0.00    -0.063 NA 
HETATM    3  C   UNL     1      -7.907   3.250  72.858  1.00  0.00    -0.061 C  
HETATM    4  C   UNL     1      -9.187   3.435  73.650  1.00  0.00    -0.103 C  
HETATM    5  C   UNL     1     -10.165   4.041  72.651  1.00  0.00    -0.232 C  
HETATM    6  C   UNL     1      -9.609   3.680  71.260  1.00  0.00    -0.174 C  
ENDROOT
BRANCH   6   7
HETATM    7  C   UNL     1      -9.401   4.894  70.375  1.00  0.00    -0.213 A  
HETATM    8  C   UNL     1      -9.989   4.934  69.112  1.00  0.00    -0.182 A  
HETATM    9  N   UNL     1      -9.864   5.959  68.236  1.00  0.00    -0.130 NA 
HETATM   10  C   UNL     1      -9.112   7.006  68.632  1.00  0.00    -0.132 A  
HETATM   11  C   UNL     1      -8.490   7.079  69.866  1.00  0.00    -0.140 A  
HETATM   12  C   UNL     1      -8.642   6.010  70.746  1.00  0.00    -0.135 A  
ENDBRANCH   6   7
TORSDOF 1
ENDMDL
MODEL      182
REMARK 921   NORMALIZED FREE ENERGY PREDICTED BY IDOCK:   -1.29 KCAL/MOL
REMARK 922        TOTAL FREE ENERGY PREDICTED BY IDOCK:   -1.50 KCAL/MOL
REMARK 923 INTER-LIGAND FREE ENERGY PREDICTED BY IDOCK:   -1.42 KCAL/MOL
REMARK 924 INTRA-LIGAND FREE ENERGY PREDICTED BY IDOCK:   -0.08 KCAL/MOL
REMARK 927      BINDING AFFINITY PREDICTED BY RF-SCORE:    0.00 PKD
ROOT
HETATM    1  C   UNL     1      -7.966   5.210  70.996  1.00  0.00    -0.102 C  
HETATM    2  N   UNL     1      -8.362   3.821  71.109  1.00  0.00    -0.067 NA 
HETATM    3  C   UNL     1      -9.722   3.617  71.588  1.00  0.00    -0.166 C  
HETATM    4  C   UNL     1      -9.863   2.114  71.457  1.00  0.00    -0.202 C  
HETATM    5  C   UNL     1      -9.110   1.774  70.176  1.00  0.00    -0.154 C  
HETATM    6  C   UNL     1      -8.149   2.953  69.939  1.00  0.00    -0.041 C  
ENDROOT
BRANCH   6   7
HETATM    7  C   UNL     1      -8.313   3.582  68.568  1.00  0.00    -0.093 A  
HETATM    8  C   UNL     1      -9.587   3.714  68.019  1.00  0.00    -0.112 A  
HETATM    9  N   UNL     1      -9.850   4.250  66.804  1.00  0.00    -0.219 NA 
HETATM   10  C   UNL     1      -8.791   4.680  66.089  1.00  0.00    -0.118 A  
HETATM   11  C   UNL     1      -7.485   4.607  66.537  1.00  0.00    -0.082 A  
HETATM   12  C   UNL     1      -7.247   4.055  67.794  1.00  0.00    -0.063 A  
ENDBRANCH   6   7
TORSDOF 1
ENDMDL
MODEL      183
REMARK 921   NORMALIZED FREE ENERGY PREDICTED BY IDOCK:   -1.23 KCAL/MOL
REMARK 922        TOTAL FREE ENERGY PREDICTED BY IDOCK:   -1.43 KCAL/MOL
REMARK 923 INTER-LIGAND FREE ENERGY PREDICTED BY IDOCK:   -1.35 KCAL/MOL
REMARK 924 INTRA-LIGAND FREE ENERGY PREDICTED BY IDOCK:   -0.08 KCAL/MOL
REMARK 927      BINDING AFFINITY PREDICTED BY RF-SCORE:    0.00 PKD
ROOT
HETATM    1  C   UNL     1      -7.117   2.907  63.701  1.00  0.00    -0.045 C  
HETATM    2  N   UNL     1      -8.485   3.257  63.376  1.00  0.00    -0.089 NA 
HETATM    3  C   UNL     1      -9.334   2.124  63.037  1.00  0.00    -0.091 C  
HETATM    4  C   UNL     1     -10.686   2.794  62.897  1.00  0.00    -0.197 C  
HETATM    5  C   UNL     1     -10.695   3.857  63.989  1.00  0.00    -0.226 C  
HETATM    6  C   UNL     1      -9.214   4.114  64.326  1.00  0.00    -0.150 C  
ENDROOT
BRANCH   6   7
HETATM    7  C   UNL     1      -8.905   3.936  65.800  1.00  0.00    -0.125 A  
HETATM    8  C   UNL     1      -9.473   2.873  66.500  1.00  0.00     0.036 A  
HETATM    9  N   UNL     1      -9.275   2.624  67.816  1.00  0.00    -0.189 NA 
HETATM   10  C   UNL     1      -8.468   3.476  68.480  1.00  0.00    -0.083 A  
HETATM   11  C   UNL     1      -7.844   4.559  67.886  1.00  0.00    -0.081 A  
HETATM   12  C   UNL     1      -8.064   4.785  66.529  1.00  0.00    -0.107 A  
ENDBRANCH   6   7
TORSDOF 1
ENDMDL
MODEL      184
REMARK 921   NORMALIZED FREE ENERGY PREDICTED BY IDOCK:   -1.12 KCAL/MOL
REMARK 922        TOTAL FREE ENERGY PREDICTED BY IDOCK:   -1.31 KCAL/MOL
REMARK 923 INTER-LIGAND FREE ENERGY PREDICTED BY IDOCK:   -1.20 KCAL/MOL
REMARK 924 INTRA-LIGAND FREE ENERGY PREDICTED BY IDOCK:   -0.11 KCAL/MOL
REMARK 927      BINDING AFFINITY PREDICTED BY RF-SCORE:    0.00 PKD
ROOT
HETATM    1  C   UNL     1      -6.670   3.650  62.630  1.00  0.00    -0.027 C  
HETATM    2  N   UNL     1      -8.006   3.334  63.092  1.00  0.00    -0.071 NA 
HETATM    3  C   UNL     1      -8.058   2.344  64.159  1.00  0.00    -0.081 C  
HETATM    4  C   UNL     1      -9.536   2.349  64.499  1.00  0.00    -0.128 C  
HETATM    5  C   UNL     1      -9.950   3.810  64.364  1.00  0.00    -0.197 C  
HETATM    6  C   UNL     1      -8.885   4.457  63.459  1.00  0.00    -0.131 C  
ENDROOT
BRANCH   6   7
HETATM    7  C   UNL     1      -8.232   5.671  64.091  1.00  0.00    -0.111 A  
HETATM    8  C   UNL     1      -7.889   6.762  63.295  1.00  0.00    -0.102 A  
HETATM    9  N   UNL     1      -7.296   7.892  63.750  1.00  0.00    -0.096 NA 
HETATM   10  C   UNL     1      -7.026   7.945  65.069  1.00  0.00    -0.059 A  
HETATM   11  C   UNL     1      -7.330   6.927  65.955  1.00  0.00    -0.079 A  
HETATM   12  C   UNL     1      -7.945   5.780  65.457  1.00  0.00    -0.115 A  
ENDBRANCH   6   7
TORSDOF 1
ENDMDL
MODEL      185
REMARK 921   NORMALIZED FREE ENERGY PREDICTED BY IDOCK:   -0.88 KCAL/MOL
REMARK 922        TOTAL FREE ENERGY PREDICTED BY IDOCK:   -1.06 KCAL/MOL
REMARK 923 INTER-LIGAND FREE ENERGY PREDICTED BY IDOCK:   -0.98 KCAL/MOL
REMARK 924 INTRA-LIGAND FREE ENERGY PREDICTED BY IDOCK:   -0.08 KCAL/MOL
REMARK 927      BINDING AFFINITY PREDICTED BY RF-SCORE:    0.00 PKD
ROOT
HETATM    1  C   UNL     1     -10.250   4.616  70.614  1.00  0.00    -0.141 C  
HETATM    2  N   UNL     1      -9.713   4.631  71.959  1.00  0.00    -0.161 NA 
HETATM    3  C   UNL     1      -9.705   3.334  72.620  1.00  0.00    -0.135 C  
HETATM    4  C   UNL     1      -8.974   3.659  73.908  1.00  0.00    -0.087 C  
HETATM    5  C   UNL     1      -7.905   4.663  73.492  1.00  0.00    -0.095 C  
HETATM    6  C   UNL     1      -8.399   5.262  72.162  1.00  0.00    -0.125 C  
ENDROOT
BRANCH   6   7
HETATM    7  C   UNL     1      -7.384   5.130  71.043  1.00  0.00    -0.073 A  
HETATM    8  C   UNL     1      -6.668   3.944  70.898  1.00  0.00    -0.032 A  
HETATM    9  N   UNL     1      -5.734   3.718  69.944  1.00  0.00    -0.017 NA 
HETATM   10  C   UNL     1      -5.493   4.727  69.082  1.00  0.00    -0.011 A  
HETATM   11  C   UNL     1      -6.150   5.943  69.124  1.00  0.00    -0.031 A  
HETATM   12  C   UNL     1      -7.109   6.142  70.115  1.00  0.00    -0.074 A  
ENDBRANCH   6   7
TORSDOF 1
ENDMDL
MODEL      186
REMARK 921   NORMALIZED FREE ENERGY PREDICTED BY IDOCK:   -0.44 KCAL/MOL
REMARK 922        TOTAL FREE ENERGY PREDICTED BY IDOCK:   -0.59 KCAL/MOL
REMARK 923 INTER-LIGAND FREE ENERGY PREDICTED BY IDOCK:   -1.44 KCAL/MOL
REMARK 924 INTRA-LIGAND FREE ENERGY PREDICTED BY IDOCK:    0.85 KCAL/MOL
REMARK 927      BINDING AFFINITY PREDICTED BY RF-SCORE:    0.00 PKD
ROOT
HETATM    1  C   UNL     1     -13.131   6.892  70.667  1.00  0.00     0.415 C  
HETATM    2  N   UNL     1     -12.349   8.082  70.398  1.00  0.00     0.310 NA 
HETATM    3  C   UNL     1     -12.442   9.111  71.424  1.00  0.00    -0.328 C  
HETATM    4  C   UNL     1     -11.430  10.123  70.925  1.00  0.00    -0.444 C  
HETATM    5  C   UNL     1     -10.302   9.276  70.349  1.00  0.00    -0.291 C  
HETATM    6  C   UNL     1     -10.930   7.902  70.051  1.00  0.00    -0.207 C  
ENDROOT
BRANCH   6   7
HETATM    7  C   UNL     1     -10.191   6.758  70.718  1.00  0.00    -0.215 A  
HETATM    8  C   UNL     1     -10.850   5.553  70.950  1.00  0.00    -0.176 A  
HETATM    9  N   UNL     1     -10.294   4.472  71.544  1.00  0.00    -0.124 NA 
HETATM   10  C   UNL     1      -9.008   4.589  71.934  1.00  0.00    -0.122 A  
HETATM   11  C   UNL     1      -8.253   5.733  71.747  1.00  0.00    -0.119 A  
HETATM   12  C   UNL     1      -8.853   6.827  71.127  1.00  0.00    -0.137 A  
ENDBRANCH   6   7
TORSDOF 1
ENDMDL
MODEL      187
REMARK 921   NORMALIZED FREE ENERGY PREDICTED BY IDOCK:    1.30 KCAL/MOL
REMARK 922        TOTAL FREE ENERGY PREDICTED BY IDOCK:    1.25 KCAL/MOL
REMARK 923 INTER-LIGAND FREE ENERGY PREDICTED BY IDOCK:    1.06 KCAL/MOL
REMARK 924 INTRA-LIGAND FREE ENERGY PREDICTED BY IDOCK:    0.19 KCAL/MOL
REMARK 927      BINDING AFFINITY PREDICTED BY RF-SCORE:    0.00 PKD
ROOT
HETATM    1  C   UNL     1      -7.130  14.500  71.561  1.00  0.00     2.106 C  
HETATM    2  N   UNL     1      -6.706  15.245  70.393  1.00  0.00     0.050 NA 
HETATM    3  C   UNL     1      -5.264  15.398  70.266  1.00  0.00    -0.123 C  
HETATM    4  C   UNL     1      -5.153  16.074  68.913  1.00  0.00    -0.100 C  
HETATM    5  C   UNL     1      -6.245  15.420  68.074  1.00  0.00    -0.153 C  
HETATM    6  C   UNL     1      -7.245  14.832  69.087  1.00  0.00    -0.148 C  
ENDROOT
BRANCH   6   7
HETATM    7  C   UNL     1      -7.495  13.351  68.876  1.00  0.00    -0.010 A  
HETATM    8  C   UNL     1      -6.474  12.437  69.126  1.00  0.00    -0.100 A  
HETATM    9  N   UNL     1      -6.582  11.097  68.964  1.00  0.00    -0.068 NA 
HETATM   10  C   UNL     1      -7.771  10.633  68.528  1.00  0.00    -0.107 A  
HETATM   11  C   UNL     1      -8.856  11.447  68.256  1.00  0.00    -0.167 A  
HETATM   12  C   UNL     1      -8.715  12.820  68.438  1.00  0.00    -0.119 A  
ENDBRANCH   6   7
TORSDOF 1
ENDMDL
