MODEL        1
REMARK 921   NORMALIZED FREE ENERGY PREDICTED BY IDOCK:   -5.93 KCAL/MOL
REMARK 922        TOTAL FREE ENERGY PREDICTED BY IDOCK:   -7.55 KCAL/MOL
REMARK 923 INTER-LIGAND FREE ENERGY PREDICTED BY IDOCK:   -7.32 KCAL/MOL
REMARK 924 INTRA-LIGAND FREE ENERGY PREDICTED BY IDOCK:   -0.23 KCAL/MOL
REMARK 927      BINDING AFFINITY PREDICTED BY RF-SCORE:    0.00 PKD
ROOT
HETATM    1  O   UNL     1     -11.766  16.512  63.719  1.00  0.00    -1.086 OA 
HETATM    2  N   UNL     1     -11.205  16.166  64.758  1.00  0.00    -0.388 N  
HETATM    3  O   UNL     1     -10.254  16.680  65.352  1.00  0.00    -0.585 OA 
HETATM    4  O   UNL     1     -11.748  14.977  65.301  1.00  0.00    -0.302 OA 
ENDROOT
BRANCH   4   5
HETATM    5  C   UNL     1     -11.129  14.614  66.531  1.00  0.00    -0.329 C  
BRANCH   5   6
HETATM    6  C   UNL     1     -12.155  13.864  67.384  1.00  0.00    -0.345 C  
BRANCH   6   7
HETATM    7  N   UNL     1     -12.367  14.459  68.690  1.00  0.00    -0.584 N  
HETATM    8  C   UNL     1     -12.079  13.761  69.846  1.00  0.00    -0.348 C  
HETATM    9  H   UNL     1     -12.735  15.407  68.754  1.00  0.00     0.000 HD 
HETATM   10  O   UNL     1     -11.664  12.609  69.852  1.00  0.00    -0.301 OA 
BRANCH   8  11
HETATM   11  C   UNL     1     -12.334  14.464  71.120  1.00  0.00    -0.428 A  
HETATM   12  C   UNL     1     -11.790  15.715  71.414  1.00  0.00    -0.482 A  
HETATM   13  C   UNL     1     -12.060  16.298  72.651  1.00  0.00    -0.628 A  
HETATM   14  C   UNL     1     -12.865  15.607  73.545  1.00  0.00    -0.572 A  
HETATM   15  N   UNL     1     -13.404  14.396  73.288  1.00  0.00    -0.535 NA 
HETATM   16  C   UNL     1     -13.117  13.843  72.084  1.00  0.00    -0.406 A  
ENDBRANCH   8  11
ENDBRANCH   6   7
ENDBRANCH   5   6
ENDBRANCH   4   5
TORSDOF 4
ENDMDL
MODEL        2
REMARK 921   NORMALIZED FREE ENERGY PREDICTED BY IDOCK:   -5.85 KCAL/MOL
REMARK 922        TOTAL FREE ENERGY PREDICTED BY IDOCK:   -7.44 KCAL/MOL
REMARK 923 INTER-LIGAND FREE ENERGY PREDICTED BY IDOCK:   -7.21 KCAL/MOL
REMARK 924 INTRA-LIGAND FREE ENERGY PREDICTED BY IDOCK:   -0.23 KCAL/MOL
REMARK 927      BINDING AFFINITY PREDICTED BY RF-SCORE:    0.00 PKD
ROOT
HETATM    1  O   UNL     1     -12.738  11.844  63.183  1.00  0.00    -0.595 OA 
HETATM    2  N   UNL     1     -12.660  12.898  63.813  1.00  0.00    -0.292 N  
HETATM    3  O   UNL     1     -12.520  14.053  63.405  1.00  0.00    -0.826 OA 
HETATM    4  O   UNL     1     -12.717  12.703  65.214  1.00  0.00    -0.652 OA 
ENDROOT
BRANCH   4   5
HETATM    5  C   UNL     1     -12.682  13.933  65.931  1.00  0.00    -0.421 C  
BRANCH   5   6
HETATM    6  C   UNL     1     -11.557  13.855  66.966  1.00  0.00    -0.369 C  
BRANCH   6   7
HETATM    7  N   UNL     1     -11.924  14.394  68.261  1.00  0.00    -0.505 N  
HETATM    8  C   UNL     1     -11.881  13.612  69.398  1.00  0.00    -0.339 C  
HETATM    9  H   UNL     1     -12.220  15.367  68.333  1.00  0.00     0.000 HD 
HETATM   10  O   UNL     1     -11.566  12.429  69.390  1.00  0.00    -0.282 OA 
BRANCH   8  11
HETATM   11  C   UNL     1     -12.276  14.265  70.662  1.00  0.00    -0.427 A  
HETATM   12  C   UNL     1     -11.726  15.473  71.093  1.00  0.00    -0.439 A  
HETATM   13  C   UNL     1     -12.137  16.009  72.312  1.00  0.00    -0.617 A  
HETATM   14  C   UNL     1     -13.083  15.316  73.053  1.00  0.00    -0.506 A  
HETATM   15  N   UNL     1     -13.633  14.146  72.662  1.00  0.00    -0.611 NA 
HETATM   16  C   UNL     1     -13.208  13.637  71.478  1.00  0.00    -0.331 A  
ENDBRANCH   8  11
ENDBRANCH   6   7
ENDBRANCH   5   6
ENDBRANCH   4   5
TORSDOF 4
ENDMDL
MODEL        3
REMARK 921   NORMALIZED FREE ENERGY PREDICTED BY IDOCK:   -5.78 KCAL/MOL
REMARK 922        TOTAL FREE ENERGY PREDICTED BY IDOCK:   -7.36 KCAL/MOL
REMARK 923 INTER-LIGAND FREE ENERGY PREDICTED BY IDOCK:   -7.15 KCAL/MOL
REMARK 924 INTRA-LIGAND FREE ENERGY PREDICTED BY IDOCK:   -0.21 KCAL/MOL
REMARK 927      BINDING AFFINITY PREDICTED BY RF-SCORE:    0.00 PKD
ROOT
HETATM    1  O   UNL     1     -12.830  11.868  63.221  1.00  0.00    -0.702 OA 
HETATM    2  N   UNL     1     -12.731  12.940  63.816  1.00  0.00    -0.196 N  
HETATM    3  O   UNL     1     -12.540  14.074  63.373  1.00  0.00    -0.845 OA 
HETATM    4  O   UNL     1     -12.828  12.795  65.221  1.00  0.00    -0.674 OA 
ENDROOT
BRANCH   4   5
HETATM    5  C   UNL     1     -12.767  14.048  65.897  1.00  0.00    -0.397 C  
BRANCH   5   6
HETATM    6  C   UNL     1     -11.775  13.922  67.055  1.00  0.00    -0.397 C  
BRANCH   6   7
HETATM    7  N   UNL     1     -12.349  14.249  68.347  1.00  0.00    -0.577 N  
HETATM    8  C   UNL     1     -11.604  14.888  69.318  1.00  0.00    -0.306 C  
HETATM    9  H   UNL     1     -13.319  14.002  68.540  1.00  0.00     0.000 HD 
HETATM   10  O   UNL     1     -10.426  15.189  69.173  1.00  0.00    -0.233 OA 
BRANCH   8  11
HETATM   11  C   UNL     1     -12.289  15.171  70.594  1.00  0.00    -0.420 A  
HETATM   12  C   UNL     1     -13.623  14.832  70.827  1.00  0.00    -0.167 A  
HETATM   13  C   UNL     1     -14.202  15.158  72.052  1.00  0.00    -0.673 A  
HETATM   14  C   UNL     1     -13.424  15.810  72.997  1.00  0.00    -0.583 A  
HETATM   15  N   UNL     1     -12.132  16.152  72.800  1.00  0.00    -0.521 NA 
HETATM   16  C   UNL     1     -11.594  15.835  71.596  1.00  0.00    -0.457 A  
ENDBRANCH   8  11
ENDBRANCH   6   7
ENDBRANCH   5   6
ENDBRANCH   4   5
TORSDOF 4
ENDMDL
MODEL        4
REMARK 921   NORMALIZED FREE ENERGY PREDICTED BY IDOCK:   -5.71 KCAL/MOL
REMARK 922        TOTAL FREE ENERGY PREDICTED BY IDOCK:   -7.27 KCAL/MOL
REMARK 923 INTER-LIGAND FREE ENERGY PREDICTED BY IDOCK:   -7.01 KCAL/MOL
REMARK 924 INTRA-LIGAND FREE ENERGY PREDICTED BY IDOCK:   -0.26 KCAL/MOL
REMARK 927      BINDING AFFINITY PREDICTED BY RF-SCORE:    0.00 PKD
ROOT
HETATM    1  O   UNL     1     -11.727  16.347  63.886  1.00  0.00    -1.085 OA 
HETATM    2  N   UNL     1     -12.155  15.277  64.316  1.00  0.00    -0.341 N  
HETATM    3  O   UNL     1     -12.704  14.349  63.719  1.00  0.00    -0.785 OA 
HETATM    4  O   UNL     1     -11.996  15.149  65.716  1.00  0.00    -0.051 OA 
ENDROOT
BRANCH   4   5
HETATM    5  C   UNL     1     -12.444  13.885  66.196  1.00  0.00    -0.436 C  
BRANCH   5   6
HETATM    6  C   UNL     1     -11.605  13.510  67.420  1.00  0.00    -0.356 C  
BRANCH   6   7
HETATM    7  N   UNL     1     -12.215  13.895  68.679  1.00  0.00    -0.487 N  
HETATM    8  C   UNL     1     -11.556  14.719  69.569  1.00  0.00    -0.304 C  
HETATM    9  H   UNL     1     -13.146  13.550  68.910  1.00  0.00     0.000 HD 
HETATM   10  O   UNL     1     -10.425  15.149  69.378  1.00  0.00    -0.236 OA 
BRANCH   8  11
HETATM   11  C   UNL     1     -12.271  15.045  70.819  1.00  0.00    -0.386 A  
HETATM   12  C   UNL     1     -13.652  14.901  70.959  1.00  0.00    -0.402 A  
HETATM   13  C   UNL     1     -14.252  15.255  72.166  1.00  0.00    -0.667 A  
HETATM   14  C   UNL     1     -13.447  15.740  73.186  1.00  0.00    -0.561 A  
HETATM   15  N   UNL     1     -12.109  15.891  73.080  1.00  0.00    -0.474 NA 
HETATM   16  C   UNL     1     -11.549  15.551  71.892  1.00  0.00    -0.442 A  
ENDBRANCH   8  11
ENDBRANCH   6   7
ENDBRANCH   5   6
ENDBRANCH   4   5
TORSDOF 4
ENDMDL
MODEL        5
REMARK 921   NORMALIZED FREE ENERGY PREDICTED BY IDOCK:   -5.67 KCAL/MOL
REMARK 922        TOTAL FREE ENERGY PREDICTED BY IDOCK:   -7.23 KCAL/MOL
REMARK 923 INTER-LIGAND FREE ENERGY PREDICTED BY IDOCK:   -6.96 KCAL/MOL
REMARK 924 INTRA-LIGAND FREE ENERGY PREDICTED BY IDOCK:   -0.27 KCAL/MOL
REMARK 927      BINDING AFFINITY PREDICTED BY RF-SCORE:    0.00 PKD
ROOT
HETATM    1  O   UNL     1     -12.643  14.473  63.869  1.00  0.00    -0.827 OA 
HETATM    2  N   UNL     1     -12.608  13.597  64.732  1.00  0.00    -0.335 N  
HETATM    3  O   UNL     1     -13.103  12.468  64.732  1.00  0.00    -0.853 OA 
HETATM    4  O   UNL     1     -11.907  14.002  65.893  1.00  0.00    -0.352 OA 
ENDROOT
BRANCH   4   5
HETATM    5  C   UNL     1     -11.825  12.962  66.863  1.00  0.00    -0.379 C  
BRANCH   5   6
HETATM    6  C   UNL     1     -10.780  13.361  67.908  1.00  0.00    -0.247 C  
BRANCH   6   7
HETATM    7  N   UNL     1     -11.354  13.721  69.191  1.00  0.00    -0.268 N  
HETATM    8  C   UNL     1     -11.783  15.009  69.444  1.00  0.00    -0.326 C  
HETATM    9  H   UNL     1     -11.441  13.012  69.917  1.00  0.00     0.000 HD 
HETATM   10  O   UNL     1     -11.685  15.923  68.635  1.00  0.00    -0.387 OA 
BRANCH   8  11
HETATM   11  C   UNL     1     -12.350  15.263  70.783  1.00  0.00    -0.433 A  
HETATM   12  C   UNL     1     -11.558  15.545  71.897  1.00  0.00    -0.525 A  
HETATM   13  C   UNL     1     -12.172  15.749  73.132  1.00  0.00    -0.605 A  
HETATM   14  C   UNL     1     -13.554  15.663  73.204  1.00  0.00    -0.473 A  
HETATM   15  N   UNL     1     -14.346  15.391  72.144  1.00  0.00    -0.570 NA 
HETATM   16  C   UNL     1     -13.725  15.184  70.956  1.00  0.00    -0.382 A  
ENDBRANCH   8  11
ENDBRANCH   6   7
ENDBRANCH   5   6
ENDBRANCH   4   5
TORSDOF 4
ENDMDL
MODEL        6
REMARK 921   NORMALIZED FREE ENERGY PREDICTED BY IDOCK:   -5.65 KCAL/MOL
REMARK 922        TOTAL FREE ENERGY PREDICTED BY IDOCK:   -7.20 KCAL/MOL
REMARK 923 INTER-LIGAND FREE ENERGY PREDICTED BY IDOCK:   -6.93 KCAL/MOL
REMARK 924 INTRA-LIGAND FREE ENERGY PREDICTED BY IDOCK:   -0.27 KCAL/MOL
REMARK 927      BINDING AFFINITY PREDICTED BY RF-SCORE:    0.00 PKD
ROOT
HETATM    1  O   UNL     1     -11.924  11.339  67.600  1.00  0.00    -0.634 OA 
HETATM    2  N   UNL     1     -12.026  12.458  67.099  1.00  0.00    -0.277 N  
HETATM    3  O   UNL     1     -12.089  13.563  67.642  1.00  0.00    -0.347 OA 
HETATM    4  O   UNL     1     -12.109  12.418  65.687  1.00  0.00    -0.529 OA 
ENDROOT
BRANCH   4   5
HETATM    5  C   UNL     1     -12.172  13.721  65.114  1.00  0.00    -0.431 C  
BRANCH   5   6
HETATM    6  C   UNL     1     -10.745  14.260  64.989  1.00  0.00    -0.420 C  
BRANCH   6   7
HETATM    7  N   UNL     1     -10.480  15.400  65.846  1.00  0.00    -0.319 N  
HETATM    8  C   UNL     1     -10.766  16.686  65.433  1.00  0.00    -0.215 C  
HETATM    9  H   UNL     1     -10.076  15.248  66.770  1.00  0.00     0.000 HD 
HETATM   10  O   UNL     1     -11.223  16.952  64.329  1.00  0.00    -1.204 OA 
BRANCH   8  11
HETATM   11  C   UNL     1     -10.455  17.769  66.388  1.00  0.00    -0.297 A  
HETATM   12  C   UNL     1     -10.355  19.107  66.005  1.00  0.00    -0.538 A  
HETATM   13  C   UNL     1     -10.033  20.065  66.965  1.00  0.00    -0.582 A  
HETATM   14  C   UNL     1      -9.825  19.647  68.271  1.00  0.00    -0.419 A  
HETATM   15  N   UNL     1      -9.914  18.360  68.670  1.00  0.00    -0.377 NA 
HETATM   16  C   UNL     1     -10.216  17.444  67.716  1.00  0.00    -0.345 A  
ENDBRANCH   8  11
ENDBRANCH   6   7
ENDBRANCH   5   6
ENDBRANCH   4   5
TORSDOF 4
ENDMDL
MODEL        7
REMARK 921   NORMALIZED FREE ENERGY PREDICTED BY IDOCK:   -5.60 KCAL/MOL
REMARK 922        TOTAL FREE ENERGY PREDICTED BY IDOCK:   -7.14 KCAL/MOL
REMARK 923 INTER-LIGAND FREE ENERGY PREDICTED BY IDOCK:   -6.99 KCAL/MOL
REMARK 924 INTRA-LIGAND FREE ENERGY PREDICTED BY IDOCK:   -0.15 KCAL/MOL
REMARK 927      BINDING AFFINITY PREDICTED BY RF-SCORE:    0.00 PKD
ROOT
HETATM    1  O   UNL     1     -13.273  11.850  62.974  1.00  0.00    -0.473 OA 
HETATM    2  N   UNL     1     -12.329  12.013  63.746  1.00  0.00    -0.498 N  
HETATM    3  O   UNL     1     -11.263  11.400  63.830  1.00  0.00    -0.399 OA 
HETATM    4  O   UNL     1     -12.559  13.054  64.676  1.00  0.00    -0.591 OA 
ENDROOT
BRANCH   4   5
HETATM    5  C   UNL     1     -11.438  13.272  65.529  1.00  0.00    -0.311 C  
BRANCH   5   6
HETATM    6  C   UNL     1     -10.603  14.413  64.943  1.00  0.00    -0.434 C  
BRANCH   6   7
HETATM    7  N   UNL     1     -10.394  15.510  65.868  1.00  0.00    -0.323 N  
HETATM    8  C   UNL     1     -10.752  16.802  65.536  1.00  0.00    -0.196 C  
HETATM    9  H   UNL     1      -9.974  15.325  66.779  1.00  0.00     0.000 HD 
HETATM   10  O   UNL     1     -11.232  17.110  64.453  1.00  0.00    -1.143 OA 
BRANCH   8  11
HETATM   11  C   UNL     1     -10.493  17.840  66.554  1.00  0.00    -0.297 A  
HETATM   12  C   UNL     1     -10.341  19.190  66.234  1.00  0.00    -0.553 A  
HETATM   13  C   UNL     1     -10.074  20.102  67.253  1.00  0.00    -0.572 A  
HETATM   14  C   UNL     1      -9.970  19.629  68.553  1.00  0.00    -0.443 A  
HETATM   15  N   UNL     1     -10.112  18.330  68.892  1.00  0.00    -0.386 NA 
HETATM   16  C   UNL     1     -10.359  17.458  67.882  1.00  0.00    -0.369 A  
ENDBRANCH   8  11
ENDBRANCH   6   7
ENDBRANCH   5   6
ENDBRANCH   4   5
TORSDOF 4
ENDMDL
MODEL        8
REMARK 921   NORMALIZED FREE ENERGY PREDICTED BY IDOCK:   -5.58 KCAL/MOL
REMARK 922        TOTAL FREE ENERGY PREDICTED BY IDOCK:   -7.11 KCAL/MOL
REMARK 923 INTER-LIGAND FREE ENERGY PREDICTED BY IDOCK:   -6.93 KCAL/MOL
REMARK 924 INTRA-LIGAND FREE ENERGY PREDICTED BY IDOCK:   -0.19 KCAL/MOL
REMARK 927      BINDING AFFINITY PREDICTED BY RF-SCORE:    0.00 PKD
ROOT
HETATM    1  O   UNL     1     -13.474  16.134  73.667  1.00  0.00    -0.628 OA 
HETATM    2  N   UNL     1     -13.493  15.309  72.755  1.00  0.00    -0.486 N  
HETATM    3  O   UNL     1     -14.043  14.207  72.698  1.00  0.00    -0.617 OA 
HETATM    4  O   UNL     1     -12.732  15.717  71.633  1.00  0.00    -0.429 OA 
ENDROOT
BRANCH   4   5
HETATM    5  C   UNL     1     -12.805  14.781  70.562  1.00  0.00    -0.322 C  
BRANCH   5   6
HETATM    6  C   UNL     1     -11.981  15.323  69.392  1.00  0.00    -0.315 C  
BRANCH   6   7
HETATM    7  N   UNL     1     -12.070  14.508  68.196  1.00  0.00    -0.573 N  
HETATM    8  C   UNL     1     -11.313  14.797  67.078  1.00  0.00    -0.353 C  
HETATM    9  H   UNL     1     -12.703  13.709  68.180  1.00  0.00     0.000 HD 
HETATM   10  O   UNL     1     -10.554  15.755  67.007  1.00  0.00    -0.309 OA 
BRANCH   8  11
HETATM   11  C   UNL     1     -11.485  13.901  65.917  1.00  0.00    -0.328 A  
HETATM   12  C   UNL     1     -10.418  13.491  65.115  1.00  0.00    -0.375 A  
HETATM   13  C   UNL     1     -10.670  12.663  64.022  1.00  0.00    -0.457 A  
HETATM   14  C   UNL     1     -11.979  12.277  63.774  1.00  0.00    -0.519 A  
HETATM   15  N   UNL     1     -13.031  12.658  64.531  1.00  0.00    -0.797 NA 
HETATM   16  C   UNL     1     -12.763  13.473  65.582  1.00  0.00    -0.421 A  
ENDBRANCH   8  11
ENDBRANCH   6   7
ENDBRANCH   5   6
ENDBRANCH   4   5
TORSDOF 4
ENDMDL
MODEL        9
REMARK 921   NORMALIZED FREE ENERGY PREDICTED BY IDOCK:   -5.51 KCAL/MOL
REMARK 922        TOTAL FREE ENERGY PREDICTED BY IDOCK:   -7.03 KCAL/MOL
REMARK 923 INTER-LIGAND FREE ENERGY PREDICTED BY IDOCK:   -6.62 KCAL/MOL
REMARK 924 INTRA-LIGAND FREE ENERGY PREDICTED BY IDOCK:   -0.41 KCAL/MOL
REMARK 927      BINDING AFFINITY PREDICTED BY RF-SCORE:    0.00 PKD
ROOT
HETATM    1  O   UNL     1     -12.993  12.485  63.998  1.00  0.00    -0.733 OA 
HETATM    2  N   UNL     1     -12.314  12.714  64.999  1.00  0.00    -0.491 N  
HETATM    3  O   UNL     1     -12.261  12.110  66.072  1.00  0.00    -0.609 OA 
HETATM    4  O   UNL     1     -11.511  13.872  64.860  1.00  0.00    -0.326 OA 
ENDROOT
BRANCH   4   5
HETATM    5  C   UNL     1     -10.689  14.097  66.001  1.00  0.00    -0.299 C  
BRANCH   5   6
HETATM    6  C   UNL     1     -11.285  15.257  66.802  1.00  0.00    -0.241 C  
BRANCH   6   7
HETATM    7  N   UNL     1     -12.054  14.829  67.955  1.00  0.00    -0.580 N  
HETATM    8  C   UNL     1     -11.629  15.107  69.239  1.00  0.00    -0.324 C  
HETATM    9  H   UNL     1     -12.922  14.314  67.814  1.00  0.00     0.000 HD 
HETATM   10  O   UNL     1     -10.584  15.693  69.490  1.00  0.00    -0.225 OA 
BRANCH   8  11
HETATM   11  C   UNL     1     -12.490  14.623  70.337  1.00  0.00    -0.410 A  
HETATM   12  C   UNL     1     -13.311  15.471  71.082  1.00  0.00    -0.553 A  
HETATM   13  C   UNL     1     -14.074  14.936  72.119  1.00  0.00    -0.616 A  
HETATM   14  C   UNL     1     -13.986  13.575  72.369  1.00  0.00    -0.536 A  
HETATM   15  N   UNL     1     -13.201  12.731  71.666  1.00  0.00    -0.376 NA 
HETATM   16  C   UNL     1     -12.458  13.276  70.670  1.00  0.00    -0.298 A  
ENDBRANCH   8  11
ENDBRANCH   6   7
ENDBRANCH   5   6
ENDBRANCH   4   5
TORSDOF 4
ENDMDL
MODEL       10
REMARK 921   NORMALIZED FREE ENERGY PREDICTED BY IDOCK:   -5.50 KCAL/MOL
REMARK 922        TOTAL FREE ENERGY PREDICTED BY IDOCK:   -7.01 KCAL/MOL
REMARK 923 INTER-LIGAND FREE ENERGY PREDICTED BY IDOCK:   -6.79 KCAL/MOL
REMARK 924 INTRA-LIGAND FREE ENERGY PREDICTED BY IDOCK:   -0.22 KCAL/MOL
REMARK 927      BINDING AFFINITY PREDICTED BY RF-SCORE:    0.00 PKD
ROOT
HETATM    1  O   UNL     1     -13.245  11.567  72.127  1.00  0.00    -0.505 OA 
HETATM    2  N   UNL     1     -13.410  12.775  71.956  1.00  0.00    -0.501 N  
HETATM    3  O   UNL     1     -14.102  13.575  72.589  1.00  0.00    -0.762 OA 
HETATM    4  O   UNL     1     -12.701  13.269  70.835  1.00  0.00    -0.318 OA 
ENDROOT
BRANCH   4   5
HETATM    5  C   UNL     1     -12.855  14.676  70.678  1.00  0.00    -0.342 C  
BRANCH   5   6
HETATM    6  C   UNL     1     -11.966  15.131  69.518  1.00  0.00    -0.321 C  
BRANCH   6   7
HETATM    7  N   UNL     1     -12.168  14.367  68.302  1.00  0.00    -0.600 N  
HETATM    8  C   UNL     1     -11.559  14.736  67.118  1.00  0.00    -0.359 C  
HETATM    9  H   UNL     1     -12.769  13.544  68.321  1.00  0.00     0.000 HD 
HETATM   10  O   UNL     1     -10.848  15.727  67.007  1.00  0.00    -0.318 OA 
BRANCH   8  11
HETATM   11  C   UNL     1     -11.835  13.886  65.943  1.00  0.00    -0.399 A  
HETATM   12  C   UNL     1     -11.753  12.494  65.981  1.00  0.00    -0.472 A  
HETATM   13  C   UNL     1     -12.005  11.767  64.819  1.00  0.00    -0.116 A  
HETATM   14  C   UNL     1     -12.330  12.462  63.663  1.00  0.00    -0.548 A  
HETATM   15  N   UNL     1     -12.417  13.808  63.596  1.00  0.00    -0.781 NA 
HETATM   16  C   UNL     1     -12.155  14.494  64.736  1.00  0.00    -0.445 A  
ENDBRANCH   8  11
ENDBRANCH   6   7
ENDBRANCH   5   6
ENDBRANCH   4   5
TORSDOF 4
ENDMDL
MODEL       11
REMARK 921   NORMALIZED FREE ENERGY PREDICTED BY IDOCK:   -5.45 KCAL/MOL
REMARK 922        TOTAL FREE ENERGY PREDICTED BY IDOCK:   -6.96 KCAL/MOL
REMARK 923 INTER-LIGAND FREE ENERGY PREDICTED BY IDOCK:   -6.63 KCAL/MOL
REMARK 924 INTRA-LIGAND FREE ENERGY PREDICTED BY IDOCK:   -0.33 KCAL/MOL
REMARK 927      BINDING AFFINITY PREDICTED BY RF-SCORE:    0.00 PKD
ROOT
HETATM    1  O   UNL     1     -11.799  11.383  67.607  1.00  0.00    -0.609 OA 
HETATM    2  N   UNL     1     -11.970  12.467  67.052  1.00  0.00    -0.312 N  
HETATM    3  O   UNL     1     -12.147  13.585  67.540  1.00  0.00    -0.357 OA 
HETATM    4  O   UNL     1     -11.986  12.361  65.640  1.00  0.00    -0.447 OA 
ENDROOT
BRANCH   4   5
HETATM    5  C   UNL     1     -12.129  13.628  65.006  1.00  0.00    -0.392 C  
BRANCH   5   6
HETATM    6  C   UNL     1     -10.738  14.243  64.841  1.00  0.00    -0.432 C  
BRANCH   6   7
HETATM    7  N   UNL     1     -10.496  15.370  65.722  1.00  0.00    -0.330 N  
HETATM    8  C   UNL     1     -10.797  16.660  65.329  1.00  0.00    -0.183 C  
HETATM    9  H   UNL     1     -10.097  15.208  66.646  1.00  0.00     0.000 HD 
HETATM   10  O   UNL     1     -11.249  16.940  64.226  1.00  0.00    -1.204 OA 
BRANCH   8  11
HETATM   11  C   UNL     1     -10.509  17.730  66.305  1.00  0.00    -0.307 A  
HETATM   12  C   UNL     1     -10.361  17.486  67.672  1.00  0.00    -0.360 A  
HETATM   13  C   UNL     1     -10.114  18.557  68.529  1.00  0.00    -0.414 A  
HETATM   14  C   UNL     1     -10.025  19.830  67.986  1.00  0.00    -0.433 A  
HETATM   15  N   UNL     1     -10.165  20.097  66.670  1.00  0.00    -0.448 NA 
HETATM   16  C   UNL     1     -10.416  19.040  65.856  1.00  0.00    -0.399 A  
ENDBRANCH   8  11
ENDBRANCH   6   7
ENDBRANCH   5   6
ENDBRANCH   4   5
TORSDOF 4
ENDMDL
MODEL       12
REMARK 921   NORMALIZED FREE ENERGY PREDICTED BY IDOCK:   -5.37 KCAL/MOL
REMARK 922        TOTAL FREE ENERGY PREDICTED BY IDOCK:   -6.85 KCAL/MOL
REMARK 923 INTER-LIGAND FREE ENERGY PREDICTED BY IDOCK:   -6.56 KCAL/MOL
REMARK 924 INTRA-LIGAND FREE ENERGY PREDICTED BY IDOCK:   -0.29 KCAL/MOL
REMARK 927      BINDING AFFINITY PREDICTED BY RF-SCORE:    0.00 PKD
ROOT
HETATM    1  O   UNL     1     -14.151  15.720  72.706  1.00  0.00    -0.576 OA 
HETATM    2  N   UNL     1     -13.111  15.772  72.051  1.00  0.00    -0.454 N  
HETATM    3  O   UNL     1     -12.024  16.279  72.334  1.00  0.00    -0.516 OA 
HETATM    4  O   UNL     1     -13.239  15.170  70.776  1.00  0.00    -0.412 OA 
ENDROOT
BRANCH   4   5
HETATM    5  C   UNL     1     -12.015  15.187  70.047  1.00  0.00    -0.336 C  
BRANCH   5   6
HETATM    6  C   UNL     1     -11.871  13.849  69.319  1.00  0.00    -0.348 C  
BRANCH   6   7
HETATM    7  N   UNL     1     -11.876  12.703  70.208  1.00  0.00    -0.537 N  
HETATM    8  C   UNL     1     -12.044  11.422  69.721  1.00  0.00    -0.320 C  
HETATM    9  H   UNL     1     -11.755  12.846  71.211  1.00  0.00     0.000 HD 
HETATM   10  O   UNL     1     -12.227  11.171  68.537  1.00  0.00    -0.600 OA 
BRANCH   8  11
HETATM   11  C   UNL     1     -12.034  10.332  70.717  1.00  0.00    -0.456 A  
HETATM   12  C   UNL     1     -13.188   9.889  71.365  1.00  0.00    -0.487 A  
HETATM   13  C   UNL     1     -13.086   8.871  72.311  1.00  0.00    -0.491 A  
HETATM   14  C   UNL     1     -11.835   8.333  72.571  1.00  0.00    -0.373 A  
HETATM   15  N   UNL     1     -10.701   8.740  71.960  1.00  0.00    -0.346 NA 
HETATM   16  C   UNL     1     -10.823   9.741  71.053  1.00  0.00    -0.308 A  
ENDBRANCH   8  11
ENDBRANCH   6   7
ENDBRANCH   5   6
ENDBRANCH   4   5
TORSDOF 4
ENDMDL
MODEL       13
REMARK 921   NORMALIZED FREE ENERGY PREDICTED BY IDOCK:   -5.32 KCAL/MOL
REMARK 922        TOTAL FREE ENERGY PREDICTED BY IDOCK:   -6.79 KCAL/MOL
REMARK 923 INTER-LIGAND FREE ENERGY PREDICTED BY IDOCK:   -6.40 KCAL/MOL
REMARK 924 INTRA-LIGAND FREE ENERGY PREDICTED BY IDOCK:   -0.39 KCAL/MOL
REMARK 927      BINDING AFFINITY PREDICTED BY RF-SCORE:    0.00 PKD
ROOT
HETATM    1  O   UNL     1     -10.742  18.801  65.510  1.00  0.00    -0.569 OA 
HETATM    2  N   UNL     1     -10.429  17.913  66.301  1.00  0.00    -0.354 N  
HETATM    3  O   UNL     1     -10.057  17.994  67.474  1.00  0.00    -0.320 OA 
HETATM    4  O   UNL     1     -10.493  16.622  65.724  1.00  0.00    -0.354 OA 
ENDROOT
BRANCH   4   5
HETATM    5  C   UNL     1     -10.182  15.596  66.663  1.00  0.00    -0.279 C  
BRANCH   5   6
HETATM    6  C   UNL     1     -11.492  14.952  67.123  1.00  0.00    -0.335 C  
BRANCH   6   7
HETATM    7  N   UNL     1     -11.918  15.384  68.440  1.00  0.00    -0.528 N  
HETATM    8  C   UNL     1     -12.030  14.488  69.484  1.00  0.00    -0.319 C  
HETATM    9  H   UNL     1     -12.139  16.367  68.596  1.00  0.00     0.000 HD 
HETATM   10  O   UNL     1     -11.812  13.289  69.368  1.00  0.00    -0.300 OA 
BRANCH   8  11
HETATM   11  C   UNL     1     -12.473  15.039  70.781  1.00  0.00    -0.411 A  
HETATM   12  C   UNL     1     -11.601  15.666  71.672  1.00  0.00    -0.519 A  
HETATM   13  C   UNL     1     -12.096  16.136  72.887  1.00  0.00    -0.643 A  
HETATM   14  C   UNL     1     -13.444  15.962  73.163  1.00  0.00    -0.563 A  
HETATM   15  N   UNL     1     -14.311  15.360  72.320  1.00  0.00    -0.551 NA 
HETATM   16  C   UNL     1     -13.804  14.899  71.149  1.00  0.00    -0.358 A  
ENDBRANCH   8  11
ENDBRANCH   6   7
ENDBRANCH   5   6
ENDBRANCH   4   5
TORSDOF 4
ENDMDL
MODEL       14
REMARK 921   NORMALIZED FREE ENERGY PREDICTED BY IDOCK:   -5.30 KCAL/MOL
REMARK 922        TOTAL FREE ENERGY PREDICTED BY IDOCK:   -6.76 KCAL/MOL
REMARK 923 INTER-LIGAND FREE ENERGY PREDICTED BY IDOCK:   -6.33 KCAL/MOL
REMARK 924 INTRA-LIGAND FREE ENERGY PREDICTED BY IDOCK:   -0.43 KCAL/MOL
REMARK 927      BINDING AFFINITY PREDICTED BY RF-SCORE:    0.00 PKD
ROOT
HETATM    1  O   UNL     1     -10.594  19.662  65.864  1.00  0.00    -0.502 OA 
HETATM    2  N   UNL     1     -10.186  18.658  66.446  1.00  0.00    -0.404 N  
HETATM    3  O   UNL     1      -9.412  17.780  66.060  1.00  0.00    -0.502 OA 
HETATM    4  O   UNL     1     -10.739  18.516  67.742  1.00  0.00    -0.410 OA 
ENDROOT
BRANCH   4   5
HETATM    5  C   UNL     1     -10.219  17.381  68.428  1.00  0.00    -0.362 C  
BRANCH   5   6
HETATM    6  C   UNL     1     -11.304  16.302  68.464  1.00  0.00    -0.330 C  
BRANCH   6   7
HETATM    7  N   UNL     1     -11.409  15.547  67.230  1.00  0.00    -0.232 N  
HETATM    8  C   UNL     1     -11.860  14.242  67.229  1.00  0.00    -0.413 C  
HETATM    9  H   UNL     1     -11.144  15.987  66.349  1.00  0.00     0.000 HD 
HETATM   10  O   UNL     1     -12.167  13.634  68.246  1.00  0.00    -0.329 OA 
BRANCH   8  11
HETATM   11  C   UNL     1     -11.926  13.569  65.916  1.00  0.00    -0.444 A  
HETATM   12  C   UNL     1     -11.476  12.263  65.713  1.00  0.00    -0.417 A  
HETATM   13  C   UNL     1     -11.552  11.711  64.436  1.00  0.00    -0.270 A  
HETATM   14  C   UNL     1     -12.075  12.485  63.411  1.00  0.00    -0.529 A  
HETATM   15  N   UNL     1     -12.517  13.751  63.577  1.00  0.00    -0.813 NA 
HETATM   16  C   UNL     1     -12.422  14.272  64.826  1.00  0.00    -0.374 A  
ENDBRANCH   8  11
ENDBRANCH   6   7
ENDBRANCH   5   6
ENDBRANCH   4   5
TORSDOF 4
ENDMDL
MODEL       15
REMARK 921   NORMALIZED FREE ENERGY PREDICTED BY IDOCK:   -5.28 KCAL/MOL
REMARK 922        TOTAL FREE ENERGY PREDICTED BY IDOCK:   -6.74 KCAL/MOL
REMARK 923 INTER-LIGAND FREE ENERGY PREDICTED BY IDOCK:   -6.28 KCAL/MOL
REMARK 924 INTRA-LIGAND FREE ENERGY PREDICTED BY IDOCK:   -0.47 KCAL/MOL
REMARK 927      BINDING AFFINITY PREDICTED BY RF-SCORE:    0.00 PKD
ROOT
HETATM    1  O   UNL     1     -12.347  15.622  63.907  1.00  0.00    -0.673 OA 
HETATM    2  N   UNL     1     -12.384  14.501  64.412  1.00  0.00    -0.462 N  
HETATM    3  O   UNL     1     -13.208  14.010  65.186  1.00  0.00    -0.768 OA 
HETATM    4  O   UNL     1     -11.277  13.699  64.041  1.00  0.00    -0.321 OA 
ENDROOT
BRANCH   4   5
HETATM    5  C   UNL     1     -11.357  12.386  64.586  1.00  0.00    -0.315 C  
BRANCH   5   6
HETATM    6  C   UNL     1     -10.352  12.280  65.735  1.00  0.00    -0.258 C  
BRANCH   6   7
HETATM    7  N   UNL     1     -10.687  13.112  66.875  1.00  0.00    -0.262 N  
HETATM    8  C   UNL     1     -11.555  12.668  67.852  1.00  0.00    -0.349 C  
HETATM    9  H   UNL     1     -10.274  14.041  66.955  1.00  0.00     0.000 HD 
HETATM   10  O   UNL     1     -12.115  11.580  67.811  1.00  0.00    -0.626 OA 
BRANCH   8  11
HETATM   11  C   UNL     1     -11.825  13.599  68.966  1.00  0.00    -0.393 A  
HETATM   12  C   UNL     1     -12.148  13.164  70.252  1.00  0.00    -0.399 A  
HETATM   13  C   UNL     1     -12.412  14.109  71.242  1.00  0.00    -0.446 A  
HETATM   14  C   UNL     1     -12.342  15.453  70.907  1.00  0.00    -0.398 A  
HETATM   15  N   UNL     1     -12.033  15.904  69.672  1.00  0.00    -0.310 NA 
HETATM   16  C   UNL     1     -11.792  14.965  68.722  1.00  0.00    -0.296 A  
ENDBRANCH   8  11
ENDBRANCH   6   7
ENDBRANCH   5   6
ENDBRANCH   4   5
TORSDOF 4
ENDMDL
MODEL       16
REMARK 921   NORMALIZED FREE ENERGY PREDICTED BY IDOCK:   -5.26 KCAL/MOL
REMARK 922        TOTAL FREE ENERGY PREDICTED BY IDOCK:   -6.72 KCAL/MOL
REMARK 923 INTER-LIGAND FREE ENERGY PREDICTED BY IDOCK:   -6.40 KCAL/MOL
REMARK 924 INTRA-LIGAND FREE ENERGY PREDICTED BY IDOCK:   -0.31 KCAL/MOL
REMARK 927      BINDING AFFINITY PREDICTED BY RF-SCORE:    0.00 PKD
ROOT
HETATM    1  O   UNL     1     -12.549  14.197  63.472  1.00  0.00    -0.834 OA 
HETATM    2  N   UNL     1     -12.554  13.530  64.506  1.00  0.00    -0.260 N  
HETATM    3  O   UNL     1     -13.167  12.494  64.774  1.00  0.00    -0.839 OA 
HETATM    4  O   UNL     1     -11.741  14.089  65.520  1.00  0.00    -0.330 OA 
ENDROOT
BRANCH   4   5
HETATM    5  C   UNL     1     -11.710  13.281  66.693  1.00  0.00    -0.377 C  
BRANCH   5   6
HETATM    6  C   UNL     1     -11.573  14.200  67.908  1.00  0.00    -0.338 C  
BRANCH   6   7
HETATM    7  N   UNL     1     -11.357  15.592  67.559  1.00  0.00    -0.282 N  
HETATM    8  C   UNL     1     -10.331  16.319  68.127  1.00  0.00    -0.277 C  
HETATM    9  H   UNL     1     -11.974  16.039  66.882  1.00  0.00     0.000 HD 
HETATM   10  O   UNL     1      -9.567  15.863  68.969  1.00  0.00    -0.217 OA 
BRANCH   8  11
HETATM   11  C   UNL     1     -10.204  17.727  67.699  1.00  0.00    -0.359 A  
HETATM   12  C   UNL     1     -10.127  18.787  68.603  1.00  0.00    -0.432 A  
HETATM   13  C   UNL     1     -10.034  20.089  68.114  1.00  0.00    -0.533 A  
HETATM   14  C   UNL     1     -10.022  20.280  66.740  1.00  0.00    -0.450 A  
HETATM   15  N   UNL     1     -10.096  19.274  65.842  1.00  0.00    -0.483 NA 
HETATM   16  C   UNL     1     -10.198  18.016  66.341  1.00  0.00    -0.393 A  
ENDBRANCH   8  11
ENDBRANCH   6   7
ENDBRANCH   5   6
ENDBRANCH   4   5
TORSDOF 4
ENDMDL
MODEL       17
REMARK 921   NORMALIZED FREE ENERGY PREDICTED BY IDOCK:   -5.23 KCAL/MOL
REMARK 922        TOTAL FREE ENERGY PREDICTED BY IDOCK:   -6.68 KCAL/MOL
REMARK 923 INTER-LIGAND FREE ENERGY PREDICTED BY IDOCK:   -6.41 KCAL/MOL
REMARK 924 INTRA-LIGAND FREE ENERGY PREDICTED BY IDOCK:   -0.28 KCAL/MOL
REMARK 927      BINDING AFFINITY PREDICTED BY RF-SCORE:    0.00 PKD
ROOT
HETATM    1  O   UNL     1     -12.726  11.946  63.208  1.00  0.00    -0.654 OA 
HETATM    2  N   UNL     1     -12.641  12.932  63.940  1.00  0.00    -0.291 N  
HETATM    3  O   UNL     1     -12.562  14.127  63.648  1.00  0.00    -0.831 OA 
HETATM    4  O   UNL     1     -12.604  12.591  65.313  1.00  0.00    -0.645 OA 
ENDROOT
BRANCH   4   5
HETATM    5  C   UNL     1     -12.561  13.741  66.153  1.00  0.00    -0.371 C  
BRANCH   5   6
HETATM    6  C   UNL     1     -11.349  13.615  67.079  1.00  0.00    -0.324 C  
BRANCH   6   7
HETATM    7  N   UNL     1     -11.439  12.500  68.001  1.00  0.00    -0.294 N  
HETATM    8  C   UNL     1     -11.827  12.688  69.313  1.00  0.00    -0.302 C  
HETATM    9  H   UNL     1     -11.212  11.561  67.676  1.00  0.00     0.000 HD 
HETATM   10  O   UNL     1     -12.086  13.787  69.787  1.00  0.00    -0.315 OA 
BRANCH   8  11
HETATM   11  C   UNL     1     -11.883  11.482  70.163  1.00  0.00    -0.440 A  
HETATM   12  C   UNL     1     -11.101  10.352  69.923  1.00  0.00    -0.367 A  
HETATM   13  C   UNL     1     -11.234   9.245  70.760  1.00  0.00    -0.351 A  
HETATM   14  C   UNL     1     -12.143   9.313  71.806  1.00  0.00    -0.387 A  
HETATM   15  N   UNL     1     -12.912  10.393  72.062  1.00  0.00    -0.440 NA 
HETATM   16  C   UNL     1     -12.775  11.453  71.227  1.00  0.00    -0.393 A  
ENDBRANCH   8  11
ENDBRANCH   6   7
ENDBRANCH   5   6
ENDBRANCH   4   5
TORSDOF 4
ENDMDL
MODEL       18
REMARK 921   NORMALIZED FREE ENERGY PREDICTED BY IDOCK:   -5.23 KCAL/MOL
REMARK 922        TOTAL FREE ENERGY PREDICTED BY IDOCK:   -6.68 KCAL/MOL
REMARK 923 INTER-LIGAND FREE ENERGY PREDICTED BY IDOCK:   -6.43 KCAL/MOL
REMARK 924 INTRA-LIGAND FREE ENERGY PREDICTED BY IDOCK:   -0.24 KCAL/MOL
REMARK 927      BINDING AFFINITY PREDICTED BY RF-SCORE:    0.00 PKD
ROOT
HETATM    1  O   UNL     1     -13.126  15.016  73.794  1.00  0.00    -0.478 OA 
HETATM    2  N   UNL     1     -13.253  14.446  72.711  1.00  0.00    -0.495 N  
HETATM    3  O   UNL     1     -13.679  13.317  72.457  1.00  0.00    -0.621 OA 
HETATM    4  O   UNL     1     -12.804  15.235  71.624  1.00  0.00    -0.336 OA 
ENDROOT
BRANCH   4   5
HETATM    5  C   UNL     1     -13.007  14.589  70.371  1.00  0.00    -0.179 C  
BRANCH   5   6
HETATM    6  C   UNL     1     -11.645  14.408  69.697  1.00  0.00    -0.292 C  
BRANCH   6   7
HETATM    7  N   UNL     1     -11.728  14.244  68.259  1.00  0.00    -0.325 N  
HETATM    8  C   UNL     1     -11.824  12.990  67.688  1.00  0.00    -0.351 C  
HETATM    9  H   UNL     1     -11.716  15.068  67.659  1.00  0.00     0.000 HD 
HETATM   10  O   UNL     1     -11.814  11.952  68.338  1.00  0.00    -0.329 OA 
BRANCH   8  11
HETATM   11  C   UNL     1     -11.903  12.940  66.215  1.00  0.00    -0.477 A  
HETATM   12  C   UNL     1     -11.332  11.913  65.462  1.00  0.00    -0.334 A  
HETATM   13  C   UNL     1     -11.431  11.955  64.072  1.00  0.00    -0.480 A  
HETATM   14  C   UNL     1     -12.097  13.023  63.490  1.00  0.00    -0.542 A  
HETATM   15  N   UNL     1     -12.658  14.031  64.191  1.00  0.00    -0.680 NA 
HETATM   16  C   UNL     1     -12.538  13.975  65.542  1.00  0.00    -0.516 A  
ENDBRANCH   8  11
ENDBRANCH   6   7
ENDBRANCH   5   6
ENDBRANCH   4   5
TORSDOF 4
ENDMDL
MODEL       19
REMARK 921   NORMALIZED FREE ENERGY PREDICTED BY IDOCK:   -5.21 KCAL/MOL
REMARK 922        TOTAL FREE ENERGY PREDICTED BY IDOCK:   -6.65 KCAL/MOL
REMARK 923 INTER-LIGAND FREE ENERGY PREDICTED BY IDOCK:   -6.41 KCAL/MOL
REMARK 924 INTRA-LIGAND FREE ENERGY PREDICTED BY IDOCK:   -0.24 KCAL/MOL
REMARK 927      BINDING AFFINITY PREDICTED BY RF-SCORE:    0.00 PKD
ROOT
HETATM    1  O   UNL     1     -12.790  16.138  74.319  1.00  0.00    -0.681 OA 
HETATM    2  N   UNL     1     -13.025  15.517  73.283  1.00  0.00    -0.488 N  
HETATM    3  O   UNL     1     -13.650  14.468  73.116  1.00  0.00    -0.591 OA 
HETATM    4  O   UNL     1     -12.447  16.122  72.142  1.00  0.00    -0.465 OA 
ENDROOT
BRANCH   4   5
HETATM    5  C   UNL     1     -12.772  15.427  70.941  1.00  0.00    -0.461 C  
BRANCH   5   6
HETATM    6  C   UNL     1     -11.470  15.119  70.197  1.00  0.00    -0.281 C  
BRANCH   6   7
HETATM    7  N   UNL     1     -10.908  16.269  69.515  1.00  0.00    -0.320 N  
HETATM    8  C   UNL     1     -10.856  16.326  68.137  1.00  0.00    -0.342 C  
HETATM    9  H   UNL     1     -10.546  17.049  70.063  1.00  0.00     0.000 HD 
HETATM   10  O   UNL     1     -11.242  15.419  67.410  1.00  0.00    -0.328 OA 
BRANCH   8  11
HETATM   11  C   UNL     1     -10.263  17.544  67.549  1.00  0.00    -0.340 A  
HETATM   12  C   UNL     1     -10.784  18.820  67.769  1.00  0.00    -0.406 A  
HETATM   13  C   UNL     1     -10.178  19.915  67.157  1.00  0.00    -0.579 A  
HETATM   14  C   UNL     1      -9.074  19.692  66.347  1.00  0.00    -0.379 A  
HETATM   15  N   UNL     1      -8.548  18.470  66.115  1.00  0.00    -0.491 NA 
HETATM   16  C   UNL     1      -9.162  17.418  66.712  1.00  0.00    -0.260 A  
ENDBRANCH   8  11
ENDBRANCH   6   7
ENDBRANCH   5   6
ENDBRANCH   4   5
TORSDOF 4
ENDMDL
MODEL       20
REMARK 921   NORMALIZED FREE ENERGY PREDICTED BY IDOCK:   -5.21 KCAL/MOL
REMARK 922        TOTAL FREE ENERGY PREDICTED BY IDOCK:   -6.65 KCAL/MOL
REMARK 923 INTER-LIGAND FREE ENERGY PREDICTED BY IDOCK:   -6.22 KCAL/MOL
REMARK 924 INTRA-LIGAND FREE ENERGY PREDICTED BY IDOCK:   -0.44 KCAL/MOL
REMARK 927      BINDING AFFINITY PREDICTED BY RF-SCORE:    0.00 PKD
ROOT
HETATM    1  O   UNL     1     -12.602  13.839  62.889  1.00  0.00    -0.611 OA 
HETATM    2  N   UNL     1     -12.379  12.929  63.686  1.00  0.00    -0.450 N  
HETATM    3  O   UNL     1     -13.133  12.383  64.494  1.00  0.00    -0.823 OA 
HETATM    4  O   UNL     1     -11.031  12.495  63.655  1.00  0.00    -0.421 OA 
ENDROOT
BRANCH   4   5
HETATM    5  C   UNL     1     -10.796  11.405  64.541  1.00  0.00    -0.309 C  
BRANCH   5   6
HETATM    6  C   UNL     1      -9.857  11.882  65.651  1.00  0.00    -0.241 C  
BRANCH   6   7
HETATM    7  N   UNL     1      -9.843  13.323  65.817  1.00  0.00    -0.421 N  
HETATM    8  C   UNL     1     -10.669  13.944  66.733  1.00  0.00    -0.281 C  
HETATM    9  H   UNL     1      -9.212  13.887  65.248  1.00  0.00     0.000 HD 
HETATM   10  O   UNL     1     -11.474  13.341  67.431  1.00  0.00    -0.297 OA 
BRANCH   8  11
HETATM   11  C   UNL     1     -10.571  15.415  66.817  1.00  0.00    -0.309 A  
HETATM   12  C   UNL     1     -10.615  16.107  68.028  1.00  0.00    -0.304 A  
HETATM   13  C   UNL     1     -10.541  17.498  68.018  1.00  0.00    -0.384 A  
HETATM   14  C   UNL     1     -10.426  18.144  66.796  1.00  0.00    -0.348 A  
HETATM   15  N   UNL     1     -10.381  17.502  65.608  1.00  0.00    -0.633 NA 
HETATM   16  C   UNL     1     -10.467  16.149  65.643  1.00  0.00    -0.383 A  
ENDBRANCH   8  11
ENDBRANCH   6   7
ENDBRANCH   5   6
ENDBRANCH   4   5
TORSDOF 4
ENDMDL
MODEL       21
REMARK 921   NORMALIZED FREE ENERGY PREDICTED BY IDOCK:   -5.12 KCAL/MOL
REMARK 922        TOTAL FREE ENERGY PREDICTED BY IDOCK:   -6.55 KCAL/MOL
REMARK 923 INTER-LIGAND FREE ENERGY PREDICTED BY IDOCK:   -6.29 KCAL/MOL
REMARK 924 INTRA-LIGAND FREE ENERGY PREDICTED BY IDOCK:   -0.26 KCAL/MOL
REMARK 927      BINDING AFFINITY PREDICTED BY RF-SCORE:    0.00 PKD
ROOT
HETATM    1  O   UNL     1     -11.586  16.400  63.927  1.00  0.00    -1.100 OA 
HETATM    2  N   UNL     1     -11.997  15.281  64.231  1.00  0.00    -0.341 N  
HETATM    3  O   UNL     1     -12.523  14.416  63.529  1.00  0.00    -0.770 OA 
HETATM    4  O   UNL     1     -11.847  15.001  65.611  1.00  0.00    -0.212 OA 
ENDROOT
BRANCH   4   5
HETATM    5  C   UNL     1     -12.274  13.683  65.942  1.00  0.00    -0.461 C  
BRANCH   5   6
HETATM    6  C   UNL     1     -11.095  12.938  66.571  1.00  0.00    -0.286 C  
BRANCH   6   7
HETATM    7  N   UNL     1     -11.474  12.085  67.680  1.00  0.00    -0.306 N  
HETATM    8  C   UNL     1     -11.502  12.567  68.974  1.00  0.00    -0.304 C  
HETATM    9  H   UNL     1     -11.724  11.113  67.502  1.00  0.00     0.000 HD 
HETATM   10  O   UNL     1     -11.186  13.711  69.273  1.00  0.00    -0.255 OA 
BRANCH   8  11
HETATM   11  C   UNL     1     -11.903  11.610  70.025  1.00  0.00    -0.435 A  
HETATM   12  C   UNL     1     -11.509  10.271  70.018  1.00  0.00    -0.367 A  
HETATM   13  C   UNL     1     -11.952   9.428  71.035  1.00  0.00    -0.389 A  
HETATM   14  C   UNL     1     -12.772   9.958  72.021  1.00  0.00    -0.366 A  
HETATM   15  N   UNL     1     -13.170  11.248  72.054  1.00  0.00    -0.459 NA 
HETATM   16  C   UNL     1     -12.736  12.046  71.046  1.00  0.00    -0.241 A  
ENDBRANCH   8  11
ENDBRANCH   6   7
ENDBRANCH   5   6
ENDBRANCH   4   5
TORSDOF 4
ENDMDL
MODEL       22
REMARK 921   NORMALIZED FREE ENERGY PREDICTED BY IDOCK:   -5.12 KCAL/MOL
REMARK 922        TOTAL FREE ENERGY PREDICTED BY IDOCK:   -6.55 KCAL/MOL
REMARK 923 INTER-LIGAND FREE ENERGY PREDICTED BY IDOCK:   -6.28 KCAL/MOL
REMARK 924 INTRA-LIGAND FREE ENERGY PREDICTED BY IDOCK:   -0.26 KCAL/MOL
REMARK 927      BINDING AFFINITY PREDICTED BY RF-SCORE:    0.00 PKD
ROOT
HETATM    1  O   UNL     1     -11.673  16.568  63.749  1.00  0.00    -1.086 OA 
HETATM    2  N   UNL     1     -11.310  15.789  64.630  1.00  0.00    -0.401 N  
HETATM    3  O   UNL     1     -11.741  14.672  64.924  1.00  0.00    -0.372 OA 
HETATM    4  O   UNL     1     -10.255  16.309  65.417  1.00  0.00    -0.518 OA 
ENDROOT
BRANCH   4   5
HETATM    5  C   UNL     1      -9.805  15.379  66.398  1.00  0.00    -0.281 C  
BRANCH   5   6
HETATM    6  C   UNL     1     -10.238  15.885  67.776  1.00  0.00    -0.260 C  
BRANCH   6   7
HETATM    7  N   UNL     1     -10.911  14.881  68.576  1.00  0.00    -0.246 N  
HETATM    8  C   UNL     1     -11.449  15.193  69.809  1.00  0.00    -0.297 C  
HETATM    9  H   UNL     1     -10.988  13.928  68.222  1.00  0.00     0.000 HD 
HETATM   10  O   UNL     1     -11.371  16.305  70.315  1.00  0.00    -0.355 OA 
BRANCH   8  11
HETATM   11  C   UNL     1     -12.111  14.092  70.537  1.00  0.00    -0.424 A  
HETATM   12  C   UNL     1     -12.961  14.308  71.622  1.00  0.00    -0.420 A  
HETATM   13  C   UNL     1     -13.527  13.211  72.270  1.00  0.00    -0.665 A  
HETATM   14  C   UNL     1     -13.221  11.941  71.806  1.00  0.00    -0.321 A  
HETATM   15  N   UNL     1     -12.402  11.701  70.759  1.00  0.00    -0.385 NA 
HETATM   16  C   UNL     1     -11.854  12.783  70.152  1.00  0.00    -0.251 A  
ENDBRANCH   8  11
ENDBRANCH   6   7
ENDBRANCH   5   6
ENDBRANCH   4   5
TORSDOF 4
ENDMDL
MODEL       23
REMARK 921   NORMALIZED FREE ENERGY PREDICTED BY IDOCK:   -5.11 KCAL/MOL
REMARK 922        TOTAL FREE ENERGY PREDICTED BY IDOCK:   -6.54 KCAL/MOL
REMARK 923 INTER-LIGAND FREE ENERGY PREDICTED BY IDOCK:   -6.36 KCAL/MOL
REMARK 924 INTRA-LIGAND FREE ENERGY PREDICTED BY IDOCK:   -0.17 KCAL/MOL
REMARK 927      BINDING AFFINITY PREDICTED BY RF-SCORE:    0.00 PKD
ROOT
HETATM    1  O   UNL     1     -11.710  16.606  63.877  1.00  0.00    -1.153 OA 
HETATM    2  N   UNL     1     -11.137  15.913  64.716  1.00  0.00    -0.444 N  
HETATM    3  O   UNL     1     -10.131  16.154  65.386  1.00  0.00    -0.485 OA 
HETATM    4  O   UNL     1     -11.744  14.645  64.883  1.00  0.00    -0.372 OA 
ENDROOT
BRANCH   4   5
HETATM    5  C   UNL     1     -11.107  13.872  65.896  1.00  0.00    -0.291 C  
BRANCH   5   6
HETATM    6  C   UNL     1     -11.982  13.907  67.150  1.00  0.00    -0.420 C  
BRANCH   6   7
HETATM    7  N   UNL     1     -11.893  12.702  67.952  1.00  0.00    -0.353 N  
HETATM    8  C   UNL     1     -11.980  12.752  69.329  1.00  0.00    -0.246 C  
HETATM    9  H   UNL     1     -11.764  11.802  67.490  1.00  0.00     0.000 HD 
HETATM   10  O   UNL     1     -12.104  13.795  69.958  1.00  0.00    -0.313 OA 
BRANCH   8  11
HETATM   11  C   UNL     1     -11.877  11.463  70.043  1.00  0.00    -0.440 A  
HETATM   12  C   UNL     1     -12.718  11.117  71.101  1.00  0.00    -0.510 A  
HETATM   13  C   UNL     1     -12.537   9.890  71.737  1.00  0.00    -0.506 A  
HETATM   14  C   UNL     1     -11.522   9.058  71.291  1.00  0.00    -0.320 A  
HETATM   15  N   UNL     1     -10.692   9.366  70.271  1.00  0.00    -0.234 NA 
HETATM   16  C   UNL     1     -10.879  10.570  69.675  1.00  0.00    -0.274 A  
ENDBRANCH   8  11
ENDBRANCH   6   7
ENDBRANCH   5   6
ENDBRANCH   4   5
TORSDOF 4
ENDMDL
MODEL       24
REMARK 921   NORMALIZED FREE ENERGY PREDICTED BY IDOCK:   -5.09 KCAL/MOL
REMARK 922        TOTAL FREE ENERGY PREDICTED BY IDOCK:   -6.50 KCAL/MOL
REMARK 923 INTER-LIGAND FREE ENERGY PREDICTED BY IDOCK:   -5.87 KCAL/MOL
REMARK 924 INTRA-LIGAND FREE ENERGY PREDICTED BY IDOCK:   -0.63 KCAL/MOL
REMARK 927      BINDING AFFINITY PREDICTED BY RF-SCORE:    0.00 PKD
ROOT
HETATM    1  O   UNL     1     -12.602  14.270  63.465  1.00  0.00    -0.814 OA 
HETATM    2  N   UNL     1     -12.361  13.148  63.908  1.00  0.00    -0.388 N  
HETATM    3  O   UNL     1     -13.037  12.428  64.647  1.00  0.00    -0.825 OA 
HETATM    4  O   UNL     1     -11.095  12.662  63.504  1.00  0.00    -0.448 OA 
ENDROOT
BRANCH   4   5
HETATM    5  C   UNL     1     -10.849  11.340  63.976  1.00  0.00    -0.344 C  
BRANCH   5   6
HETATM    6  C   UNL     1      -9.852  11.420  65.134  1.00  0.00    -0.260 C  
BRANCH   6   7
HETATM    7  N   UNL     1     -10.481  11.402  66.441  1.00  0.00    -0.245 N  
HETATM    8  C   UNL     1     -10.672  12.566  67.157  1.00  0.00    -0.237 C  
HETATM    9  H   UNL     1     -10.787  10.513  66.837  1.00  0.00     0.000 HD 
HETATM   10  O   UNL     1     -10.306  13.667  66.764  1.00  0.00    -0.263 OA 
BRANCH   8  11
HETATM   11  C   UNL     1     -11.322  12.430  68.476  1.00  0.00    -0.336 A  
HETATM   12  C   UNL     1     -11.603  13.523  69.297  1.00  0.00    -0.369 A  
HETATM   13  C   UNL     1     -12.196  13.304  70.538  1.00  0.00    -0.416 A  
HETATM   14  C   UNL     1     -12.485  12.000  70.912  1.00  0.00    -0.288 A  
HETATM   15  N   UNL     1     -12.224  10.923  70.140  1.00  0.00    -0.324 NA 
HETATM   16  C   UNL     1     -11.636  11.160  68.941  1.00  0.00    -0.317 A  
ENDBRANCH   8  11
ENDBRANCH   6   7
ENDBRANCH   5   6
ENDBRANCH   4   5
TORSDOF 4
ENDMDL
MODEL       25
REMARK 921   NORMALIZED FREE ENERGY PREDICTED BY IDOCK:   -5.06 KCAL/MOL
REMARK 922        TOTAL FREE ENERGY PREDICTED BY IDOCK:   -6.46 KCAL/MOL
REMARK 923 INTER-LIGAND FREE ENERGY PREDICTED BY IDOCK:   -6.28 KCAL/MOL
REMARK 924 INTRA-LIGAND FREE ENERGY PREDICTED BY IDOCK:   -0.18 KCAL/MOL
REMARK 927      BINDING AFFINITY PREDICTED BY RF-SCORE:    0.00 PKD
ROOT
HETATM    1  O   UNL     1      -7.157  18.449  68.972  1.00  0.00    -0.278 OA 
HETATM    2  N   UNL     1      -8.137  18.924  68.400  1.00  0.00    -0.328 N  
HETATM    3  O   UNL     1      -8.319  20.060  67.957  1.00  0.00    -0.287 OA 
HETATM    4  O   UNL     1      -9.201  17.998  68.279  1.00  0.00    -0.277 OA 
ENDROOT
BRANCH   4   5
HETATM    5  C   UNL     1     -10.309  18.540  67.566  1.00  0.00    -0.409 C  
BRANCH   5   6
HETATM    6  C   UNL     1     -10.253  18.024  66.126  1.00  0.00    -0.363 C  
BRANCH   6   7
HETATM    7  N   UNL     1     -10.480  16.596  66.015  1.00  0.00    -0.321 N  
HETATM    8  C   UNL     1     -11.119  16.059  64.915  1.00  0.00    -0.370 C  
HETATM    9  H   UNL     1     -10.163  15.979  66.761  1.00  0.00     0.000 HD 
HETATM   10  O   UNL     1     -11.556  16.736  63.992  1.00  0.00    -1.195 OA 
BRANCH   8  11
HETATM   11  C   UNL     1     -11.297  14.593  64.907  1.00  0.00    -0.403 A  
HETATM   12  C   UNL     1     -10.296  13.713  64.492  1.00  0.00    -0.355 A  
HETATM   13  C   UNL     1     -10.555  12.343  64.492  1.00  0.00    -0.352 A  
HETATM   14  C   UNL     1     -11.805  11.907  64.907  1.00  0.00    -0.167 A  
HETATM   15  N   UNL     1     -12.792  12.735  65.313  1.00  0.00    -0.699 NA 
HETATM   16  C   UNL     1     -12.521  14.064  65.292  1.00  0.00    -0.475 A  
ENDBRANCH   8  11
ENDBRANCH   6   7
ENDBRANCH   5   6
ENDBRANCH   4   5
TORSDOF 4
ENDMDL
MODEL       26
REMARK 921   NORMALIZED FREE ENERGY PREDICTED BY IDOCK:   -5.04 KCAL/MOL
REMARK 922        TOTAL FREE ENERGY PREDICTED BY IDOCK:   -6.45 KCAL/MOL
REMARK 923 INTER-LIGAND FREE ENERGY PREDICTED BY IDOCK:   -6.04 KCAL/MOL
REMARK 924 INTRA-LIGAND FREE ENERGY PREDICTED BY IDOCK:   -0.41 KCAL/MOL
REMARK 927      BINDING AFFINITY PREDICTED BY RF-SCORE:    0.00 PKD
ROOT
HETATM    1  O   UNL     1     -12.291  10.989  68.807  1.00  0.00    -0.533 OA 
HETATM    2  N   UNL     1     -11.658  11.665  67.996  1.00  0.00    -0.315 N  
HETATM    3  O   UNL     1     -11.989  12.077  66.882  1.00  0.00    -0.612 OA 
HETATM    4  O   UNL     1     -10.349  11.966  68.441  1.00  0.00    -0.198 OA 
ENDROOT
BRANCH   4   5
HETATM    5  C   UNL     1      -9.644  12.794  67.521  1.00  0.00    -0.192 C  
BRANCH   5   6
HETATM    6  C   UNL     1      -9.414  14.157  68.179  1.00  0.00    -0.213 C  
BRANCH   6   7
HETATM    7  N   UNL     1     -10.119  14.319  69.435  1.00  0.00    -0.426 N  
HETATM    8  C   UNL     1     -11.328  14.982  69.494  1.00  0.00    -0.288 C  
HETATM    9  H   UNL     1      -9.715  13.936  70.290  1.00  0.00     0.000 HD 
HETATM   10  O   UNL     1     -11.863  15.496  68.520  1.00  0.00    -0.354 OA 
BRANCH   8  11
HETATM   11  C   UNL     1     -11.958  15.089  70.826  1.00  0.00    -0.371 A  
HETATM   12  C   UNL     1     -11.784  16.196  71.658  1.00  0.00    -0.558 A  
HETATM   13  C   UNL     1     -12.394  16.205  72.911  1.00  0.00    -0.607 A  
HETATM   14  C   UNL     1     -13.154  15.107  73.283  1.00  0.00    -0.505 A  
HETATM   15  N   UNL     1     -13.340  14.022  72.501  1.00  0.00    -0.503 NA 
HETATM   16  C   UNL     1     -12.726  14.030  71.291  1.00  0.00    -0.365 A  
ENDBRANCH   8  11
ENDBRANCH   6   7
ENDBRANCH   5   6
ENDBRANCH   4   5
TORSDOF 4
ENDMDL
MODEL       27
REMARK 921   NORMALIZED FREE ENERGY PREDICTED BY IDOCK:   -5.03 KCAL/MOL
REMARK 922        TOTAL FREE ENERGY PREDICTED BY IDOCK:   -6.43 KCAL/MOL
REMARK 923 INTER-LIGAND FREE ENERGY PREDICTED BY IDOCK:   -6.24 KCAL/MOL
REMARK 924 INTRA-LIGAND FREE ENERGY PREDICTED BY IDOCK:   -0.19 KCAL/MOL
REMARK 927      BINDING AFFINITY PREDICTED BY RF-SCORE:    0.00 PKD
ROOT
HETATM    1  O   UNL     1     -14.404   8.998  72.595  1.00  0.00    -0.603 OA 
HETATM    2  N   UNL     1     -13.413   9.027  71.865  1.00  0.00    -0.396 N  
HETATM    3  O   UNL     1     -12.715   8.103  71.444  1.00  0.00    -0.310 OA 
HETATM    4  O   UNL     1     -13.041  10.344  71.503  1.00  0.00    -0.390 OA 
ENDROOT
BRANCH   4   5
HETATM    5  C   UNL     1     -11.928  10.364  70.615  1.00  0.00    -0.351 C  
BRANCH   5   6
HETATM    6  C   UNL     1     -11.836  11.758  69.990  1.00  0.00    -0.342 C  
BRANCH   6   7
HETATM    7  N   UNL     1     -11.821  11.741  68.540  1.00  0.00    -0.325 N  
HETATM    8  C   UNL     1     -11.837  12.915  67.812  1.00  0.00    -0.339 C  
HETATM    9  H   UNL     1     -11.798  10.848  68.049  1.00  0.00     0.000 HD 
HETATM   10  O   UNL     1     -11.896  14.025  68.326  1.00  0.00    -0.341 OA 
BRANCH   8  11
HETATM   11  C   UNL     1     -11.820  12.780  66.342  1.00  0.00    -0.472 A  
HETATM   12  C   UNL     1     -10.950  11.917  65.673  1.00  0.00    -0.353 A  
HETATM   13  C   UNL     1     -10.982  11.868  64.281  1.00  0.00    -0.411 A  
HETATM   14  C   UNL     1     -11.882  12.683  63.611  1.00  0.00    -0.530 A  
HETATM   15  N   UNL     1     -12.735  13.527  64.231  1.00  0.00    -0.653 NA 
HETATM   16  C   UNL     1     -12.678  13.567  65.586  1.00  0.00    -0.421 A  
ENDBRANCH   8  11
ENDBRANCH   6   7
ENDBRANCH   5   6
ENDBRANCH   4   5
TORSDOF 4
ENDMDL
MODEL       28
REMARK 921   NORMALIZED FREE ENERGY PREDICTED BY IDOCK:   -5.01 KCAL/MOL
REMARK 922        TOTAL FREE ENERGY PREDICTED BY IDOCK:   -6.40 KCAL/MOL
REMARK 923 INTER-LIGAND FREE ENERGY PREDICTED BY IDOCK:   -6.07 KCAL/MOL
REMARK 924 INTRA-LIGAND FREE ENERGY PREDICTED BY IDOCK:   -0.33 KCAL/MOL
REMARK 927      BINDING AFFINITY PREDICTED BY RF-SCORE:    0.00 PKD
ROOT
HETATM    1  O   UNL     1      -6.580  16.545  66.620  1.00  0.00    -0.233 OA 
HETATM    2  N   UNL     1      -7.243  17.514  66.252  1.00  0.00    -0.290 N  
HETATM    3  O   UNL     1      -7.004  18.347  65.376  1.00  0.00    -0.519 OA 
HETATM    4  O   UNL     1      -8.437  17.672  66.996  1.00  0.00    -0.223 OA 
ENDROOT
BRANCH   4   5
HETATM    5  C   UNL     1      -9.223  18.763  66.526  1.00  0.00    -0.331 C  
BRANCH   5   6
HETATM    6  C   UNL     1     -10.535  18.206  65.968  1.00  0.00    -0.335 C  
BRANCH   6   7
HETATM    7  N   UNL     1     -10.577  16.757  65.929  1.00  0.00    -0.296 N  
HETATM    8  C   UNL     1     -11.138  16.087  64.860  1.00  0.00    -0.370 C  
HETATM    9  H   UNL     1     -10.186  16.223  66.706  1.00  0.00     0.000 HD 
HETATM   10  O   UNL     1     -11.654  16.655  63.906  1.00  0.00    -1.204 OA 
BRANCH   8  11
HETATM   11  C   UNL     1     -11.127  14.612  64.927  1.00  0.00    -0.409 A  
HETATM   12  C   UNL     1     -12.150  13.824  64.396  1.00  0.00    -0.474 A  
HETATM   13  C   UNL     1     -12.075  12.439  64.524  1.00  0.00    -0.492 A  
HETATM   14  C   UNL     1     -10.979  11.894  65.176  1.00  0.00    -0.312 A  
HETATM   15  N   UNL     1      -9.975  12.631  65.700  1.00  0.00    -0.262 NA 
HETATM   16  C   UNL     1     -10.076  13.977  65.574  1.00  0.00    -0.320 A  
ENDBRANCH   8  11
ENDBRANCH   6   7
ENDBRANCH   5   6
ENDBRANCH   4   5
TORSDOF 4
ENDMDL
MODEL       29
REMARK 921   NORMALIZED FREE ENERGY PREDICTED BY IDOCK:   -5.00 KCAL/MOL
REMARK 922        TOTAL FREE ENERGY PREDICTED BY IDOCK:   -6.40 KCAL/MOL
REMARK 923 INTER-LIGAND FREE ENERGY PREDICTED BY IDOCK:   -6.13 KCAL/MOL
REMARK 924 INTRA-LIGAND FREE ENERGY PREDICTED BY IDOCK:   -0.27 KCAL/MOL
REMARK 927      BINDING AFFINITY PREDICTED BY RF-SCORE:    0.00 PKD
ROOT
HETATM    1  O   UNL     1     -13.243  15.495  72.328  1.00  0.00    -0.382 OA 
HETATM    2  N   UNL     1     -13.378  14.295  72.091  1.00  0.00    -0.379 N  
HETATM    3  O   UNL     1     -14.157  13.476  72.583  1.00  0.00    -0.762 OA 
HETATM    4  O   UNL     1     -12.460  13.824  71.122  1.00  0.00    -0.350 OA 
ENDROOT
BRANCH   4   5
HETATM    5  C   UNL     1     -12.661  12.448  70.815  1.00  0.00    -0.211 C  
BRANCH   5   6
HETATM    6  C   UNL     1     -11.703  12.063  69.685  1.00  0.00    -0.335 C  
BRANCH   6   7
HETATM    7  N   UNL     1     -11.617  13.060  68.635  1.00  0.00    -0.296 N  
HETATM    8  C   UNL     1     -11.785  12.716  67.308  1.00  0.00    -0.370 C  
HETATM    9  H   UNL     1     -11.429  14.031  68.881  1.00  0.00     0.000 HD 
HETATM   10  O   UNL     1     -11.984  11.568  66.930  1.00  0.00    -0.516 OA 
BRANCH   8  11
HETATM   11  C   UNL     1     -11.676  13.811  66.324  1.00  0.00    -0.400 A  
HETATM   12  C   UNL     1     -10.865  14.929  66.525  1.00  0.00    -0.322 A  
HETATM   13  C   UNL     1     -10.838  15.930  65.556  1.00  0.00    -0.325 A  
HETATM   14  C   UNL     1     -11.624  15.775  64.424  1.00  0.00    -0.240 A  
HETATM   15  N   UNL     1     -12.420  14.707  64.203  1.00  0.00    -0.796 NA 
HETATM   16  C   UNL     1     -12.439  13.750  65.165  1.00  0.00    -0.450 A  
ENDBRANCH   8  11
ENDBRANCH   6   7
ENDBRANCH   5   6
ENDBRANCH   4   5
TORSDOF 4
ENDMDL
MODEL       30
REMARK 921   NORMALIZED FREE ENERGY PREDICTED BY IDOCK:   -5.00 KCAL/MOL
REMARK 922        TOTAL FREE ENERGY PREDICTED BY IDOCK:   -6.40 KCAL/MOL
REMARK 923 INTER-LIGAND FREE ENERGY PREDICTED BY IDOCK:   -6.16 KCAL/MOL
REMARK 924 INTRA-LIGAND FREE ENERGY PREDICTED BY IDOCK:   -0.24 KCAL/MOL
REMARK 927      BINDING AFFINITY PREDICTED BY RF-SCORE:    0.00 PKD
ROOT
HETATM    1  O   UNL     1     -13.842  12.620  72.636  1.00  0.00    -0.425 OA 
HETATM    2  N   UNL     1     -13.422  13.774  72.559  1.00  0.00    -0.555 N  
HETATM    3  O   UNL     1     -13.471  14.689  73.383  1.00  0.00    -0.513 OA 
HETATM    4  O   UNL     1     -12.826  14.054  71.306  1.00  0.00    -0.324 OA 
ENDROOT
BRANCH   4   5
HETATM    5  C   UNL     1     -12.294  15.375  71.246  1.00  0.00    -0.385 C  
BRANCH   5   6
HETATM    6  C   UNL     1     -10.964  15.323  70.492  1.00  0.00    -0.288 C  
BRANCH   6   7
HETATM    7  N   UNL     1     -10.665  16.541  69.763  1.00  0.00    -0.326 N  
HETATM    8  C   UNL     1     -10.766  16.592  68.387  1.00  0.00    -0.353 C  
HETATM    9  H   UNL     1     -10.375  17.373  70.275  1.00  0.00     0.000 HD 
HETATM   10  O   UNL     1     -11.078  15.629  67.698  1.00  0.00    -0.324 OA 
BRANCH   8  11
HETATM   11  C   UNL     1     -10.438  17.883  67.749  1.00  0.00    -0.409 A  
HETATM   12  C   UNL     1     -10.081  19.017  68.480  1.00  0.00    -0.467 A  
HETATM   13  C   UNL     1      -9.810  20.204  67.801  1.00  0.00    -0.547 A  
HETATM   14  C   UNL     1      -9.907  20.210  66.418  1.00  0.00    -0.435 A  
HETATM   15  N   UNL     1     -10.250  19.129  65.684  1.00  0.00    -0.469 NA 
HETATM   16  C   UNL     1     -10.521  17.989  66.367  1.00  0.00    -0.339 A  
ENDBRANCH   8  11
ENDBRANCH   6   7
ENDBRANCH   5   6
ENDBRANCH   4   5
TORSDOF 4
ENDMDL
MODEL       31
REMARK 921   NORMALIZED FREE ENERGY PREDICTED BY IDOCK:   -4.98 KCAL/MOL
REMARK 922        TOTAL FREE ENERGY PREDICTED BY IDOCK:   -6.36 KCAL/MOL
REMARK 923 INTER-LIGAND FREE ENERGY PREDICTED BY IDOCK:   -6.21 KCAL/MOL
REMARK 924 INTRA-LIGAND FREE ENERGY PREDICTED BY IDOCK:   -0.15 KCAL/MOL
REMARK 927      BINDING AFFINITY PREDICTED BY RF-SCORE:    0.00 PKD
ROOT
HETATM    1  O   UNL     1      -8.714  17.077  65.713  1.00  0.00    -0.522 OA 
HETATM    2  N   UNL     1      -8.946  15.991  66.243  1.00  0.00    -0.319 N  
HETATM    3  O   UNL     1      -8.222  15.287  66.950  1.00  0.00    -0.220 OA 
HETATM    4  O   UNL     1     -10.240  15.503  65.944  1.00  0.00    -0.297 OA 
ENDROOT
BRANCH   4   5
HETATM    5  C   UNL     1     -10.519  14.273  66.606  1.00  0.00    -0.278 C  
BRANCH   5   6
HETATM    6  C   UNL     1     -12.011  14.235  66.943  1.00  0.00    -0.438 C  
BRANCH   6   7
HETATM    7  N   UNL     1     -12.281  14.161  68.366  1.00  0.00    -0.569 N  
HETATM    8  C   UNL     1     -11.996  15.223  69.202  1.00  0.00    -0.280 C  
HETATM    9  H   UNL     1     -12.687  13.311  68.756  1.00  0.00     0.000 HD 
HETATM   10  O   UNL     1     -11.480  16.264  68.817  1.00  0.00    -0.353 OA 
BRANCH   8  11
HETATM   11  C   UNL     1     -12.311  15.038  70.633  1.00  0.00    -0.404 A  
HETATM   12  C   UNL     1     -13.158  14.030  71.096  1.00  0.00    -0.373 A  
HETATM   13  C   UNL     1     -13.423  13.940  72.461  1.00  0.00    -0.676 A  
HETATM   14  C   UNL     1     -12.830  14.862  73.311  1.00  0.00    -0.530 A  
HETATM   15  N   UNL     1     -12.007  15.847  72.893  1.00  0.00    -0.481 NA 
HETATM   16  C   UNL     1     -11.774  15.923  71.558  1.00  0.00    -0.475 A  
ENDBRANCH   8  11
ENDBRANCH   6   7
ENDBRANCH   5   6
ENDBRANCH   4   5
TORSDOF 4
ENDMDL
MODEL       32
REMARK 921   NORMALIZED FREE ENERGY PREDICTED BY IDOCK:   -4.97 KCAL/MOL
REMARK 922        TOTAL FREE ENERGY PREDICTED BY IDOCK:   -6.36 KCAL/MOL
REMARK 923 INTER-LIGAND FREE ENERGY PREDICTED BY IDOCK:   -6.15 KCAL/MOL
REMARK 924 INTRA-LIGAND FREE ENERGY PREDICTED BY IDOCK:   -0.21 KCAL/MOL
REMARK 927      BINDING AFFINITY PREDICTED BY RF-SCORE:    0.00 PKD
ROOT
HETATM    1  O   UNL     1     -12.592  14.549  63.954  1.00  0.00    -0.827 OA 
HETATM    2  N   UNL     1     -12.599  13.580  64.712  1.00  0.00    -0.339 N  
HETATM    3  O   UNL     1     -13.134  12.478  64.580  1.00  0.00    -0.816 OA 
HETATM    4  O   UNL     1     -11.896  13.824  65.917  1.00  0.00    -0.348 OA 
ENDROOT
BRANCH   4   5
HETATM    5  C   UNL     1     -11.863  12.679  66.763  1.00  0.00    -0.370 C  
BRANCH   5   6
HETATM    6  C   UNL     1     -11.484  13.133  68.174  1.00  0.00    -0.314 C  
BRANCH   6   7
HETATM    7  N   UNL     1     -11.859  12.187  69.207  1.00  0.00    -0.318 N  
HETATM    8  C   UNL     1     -11.023  11.147  69.559  1.00  0.00    -0.220 C  
HETATM    9  H   UNL     1     -12.756  12.292  69.680  1.00  0.00     0.000 HD 
HETATM   10  O   UNL     1      -9.945  10.935  69.017  1.00  0.00    -0.205 OA 
BRANCH   8  11
HETATM   11  C   UNL     1     -11.507  10.244  70.623  1.00  0.00    -0.435 A  
HETATM   12  C   UNL     1     -10.706   9.255  71.196  1.00  0.00    -0.403 A  
HETATM   13  C   UNL     1     -11.248   8.428  72.178  1.00  0.00    -0.431 A  
HETATM   14  C   UNL     1     -12.570   8.623  72.549  1.00  0.00    -0.301 A  
HETATM   15  N   UNL     1     -13.369   9.570  72.013  1.00  0.00    -0.424 NA 
HETATM   16  C   UNL     1     -12.823  10.355  71.050  1.00  0.00    -0.401 A  
ENDBRANCH   8  11
ENDBRANCH   6   7
ENDBRANCH   5   6
ENDBRANCH   4   5
TORSDOF 4
ENDMDL
MODEL       33
REMARK 921   NORMALIZED FREE ENERGY PREDICTED BY IDOCK:   -4.96 KCAL/MOL
REMARK 922        TOTAL FREE ENERGY PREDICTED BY IDOCK:   -6.35 KCAL/MOL
REMARK 923 INTER-LIGAND FREE ENERGY PREDICTED BY IDOCK:   -6.21 KCAL/MOL
REMARK 924 INTRA-LIGAND FREE ENERGY PREDICTED BY IDOCK:   -0.14 KCAL/MOL
REMARK 927      BINDING AFFINITY PREDICTED BY RF-SCORE:    0.00 PKD
ROOT
HETATM    1  O   UNL     1     -13.093  11.937  63.910  1.00  0.00    -0.628 OA 
HETATM    2  N   UNL     1     -12.836  12.868  64.672  1.00  0.00    -0.318 N  
HETATM    3  O   UNL     1     -12.884  14.084  64.479  1.00  0.00    -0.644 OA 
HETATM    4  O   UNL     1     -12.394  12.426  65.943  1.00  0.00    -0.638 OA 
ENDROOT
BRANCH   4   5
HETATM    5  C   UNL     1     -12.152  13.509  66.836  1.00  0.00    -0.368 C  
BRANCH   5   6
HETATM    6  C   UNL     1     -10.733  14.026  66.592  1.00  0.00    -0.281 C  
BRANCH   6   7
HETATM    7  N   UNL     1     -10.647  15.472  66.523  1.00  0.00    -0.304 N  
HETATM    8  C   UNL     1     -10.318  16.221  67.635  1.00  0.00    -0.284 C  
HETATM    9  H   UNL     1     -10.833  15.943  65.638  1.00  0.00     0.000 HD 
HETATM   10  O   UNL     1     -10.111  15.732  68.739  1.00  0.00    -0.203 OA 
BRANCH   8  11
HETATM   11  C   UNL     1     -10.261  17.685  67.451  1.00  0.00    -0.345 A  
HETATM   12  C   UNL     1     -10.290  18.289  66.193  1.00  0.00    -0.414 A  
HETATM   13  C   UNL     1     -10.206  19.677  66.106  1.00  0.00    -0.604 A  
HETATM   14  C   UNL     1     -10.097  20.408  67.280  1.00  0.00    -0.363 A  
HETATM   15  N   UNL     1     -10.065  19.851  68.510  1.00  0.00    -0.440 NA 
HETATM   16  C   UNL     1     -10.136  18.498  68.569  1.00  0.00    -0.378 A  
ENDBRANCH   8  11
ENDBRANCH   6   7
ENDBRANCH   5   6
ENDBRANCH   4   5
TORSDOF 4
ENDMDL
MODEL       34
REMARK 921   NORMALIZED FREE ENERGY PREDICTED BY IDOCK:   -4.94 KCAL/MOL
REMARK 922        TOTAL FREE ENERGY PREDICTED BY IDOCK:   -6.32 KCAL/MOL
REMARK 923 INTER-LIGAND FREE ENERGY PREDICTED BY IDOCK:   -6.11 KCAL/MOL
REMARK 924 INTRA-LIGAND FREE ENERGY PREDICTED BY IDOCK:   -0.21 KCAL/MOL
REMARK 927      BINDING AFFINITY PREDICTED BY RF-SCORE:    0.00 PKD
ROOT
HETATM    1  O   UNL     1     -11.245   5.988  70.076  1.00  0.00    -0.372 OA 
HETATM    2  N   UNL     1     -11.628   6.505  71.125  1.00  0.00    -0.322 N  
HETATM    3  O   UNL     1     -11.991   5.978  72.179  1.00  0.00    -0.309 OA 
HETATM    4  O   UNL     1     -11.666   7.918  71.054  1.00  0.00    -0.283 OA 
ENDROOT
BRANCH   4   5
HETATM    5  C   UNL     1     -12.057   8.509  72.290  1.00  0.00    -0.387 C  
BRANCH   5   6
HETATM    6  C   UNL     1     -13.419   9.178  72.094  1.00  0.00    -0.469 C  
BRANCH   6   7
HETATM    7  N   UNL     1     -13.376  10.623  72.216  1.00  0.00    -0.581 N  
HETATM    8  C   UNL     1     -12.904  11.412  71.186  1.00  0.00    -0.341 C  
HETATM    9  H   UNL     1     -13.699  11.063  73.077  1.00  0.00     0.000 HD 
HETATM   10  O   UNL     1     -12.471  10.959  70.135  1.00  0.00    -0.314 OA 
BRANCH   8  11
HETATM   11  C   UNL     1     -12.905  12.871  71.420  1.00  0.00    -0.377 A  
HETATM   12  C   UNL     1     -12.164  13.761  70.641  1.00  0.00    -0.434 A  
HETATM   13  C   UNL     1     -12.202  15.120  70.944  1.00  0.00    -0.398 A  
HETATM   14  C   UNL     1     -12.979  15.537  72.014  1.00  0.00    -0.434 A  
HETATM   15  N   UNL     1     -13.706  14.700  72.786  1.00  0.00    -0.534 NA 
HETATM   16  C   UNL     1     -13.644  13.380  72.479  1.00  0.00    -0.554 A  
ENDBRANCH   8  11
ENDBRANCH   6   7
ENDBRANCH   5   6
ENDBRANCH   4   5
TORSDOF 4
ENDMDL
MODEL       35
REMARK 921   NORMALIZED FREE ENERGY PREDICTED BY IDOCK:   -4.92 KCAL/MOL
REMARK 922        TOTAL FREE ENERGY PREDICTED BY IDOCK:   -6.30 KCAL/MOL
REMARK 923 INTER-LIGAND FREE ENERGY PREDICTED BY IDOCK:   -6.04 KCAL/MOL
REMARK 924 INTRA-LIGAND FREE ENERGY PREDICTED BY IDOCK:   -0.26 KCAL/MOL
REMARK 927      BINDING AFFINITY PREDICTED BY RF-SCORE:    0.00 PKD
ROOT
HETATM    1  O   UNL     1     -12.888  12.928  64.233  1.00  0.00    -0.676 OA 
HETATM    2  N   UNL     1     -11.820  12.506  64.674  1.00  0.00    -0.359 N  
HETATM    3  O   UNL     1     -10.698  12.509  64.164  1.00  0.00    -0.334 OA 
HETATM    4  O   UNL     1     -11.955  11.910  65.951  1.00  0.00    -0.480 OA 
ENDROOT
BRANCH   4   5
HETATM    5  C   UNL     1     -10.704  11.474  66.477  1.00  0.00    -0.273 C  
BRANCH   5   6
HETATM    6  C   UNL     1     -10.908  11.085  67.943  1.00  0.00    -0.237 C  
BRANCH   6   7
HETATM    7  N   UNL     1     -11.485  12.145  68.747  1.00  0.00    -0.281 N  
HETATM    8  C   UNL     1     -11.927  11.904  70.033  1.00  0.00    -0.332 C  
HETATM    9  H   UNL     1     -11.566  13.083  68.357  1.00  0.00     0.000 HD 
HETATM   10  O   UNL     1     -11.893  10.800  70.561  1.00  0.00    -0.304 OA 
BRANCH   8  11
HETATM   11  C   UNL     1     -12.497  13.056  70.760  1.00  0.00    -0.384 A  
HETATM   12  C   UNL     1     -13.373  12.911  71.837  1.00  0.00    -0.530 A  
HETATM   13  C   UNL     1     -13.885  14.051  72.453  1.00  0.00    -0.653 A  
HETATM   14  C   UNL     1     -13.501  15.293  71.968  1.00  0.00    -0.448 A  
HETATM   15  N   UNL     1     -12.656  15.464  70.929  1.00  0.00    -0.406 NA 
HETATM   16  C   UNL     1     -12.180  14.340  70.337  1.00  0.00    -0.342 A  
ENDBRANCH   8  11
ENDBRANCH   6   7
ENDBRANCH   5   6
ENDBRANCH   4   5
TORSDOF 4
ENDMDL
MODEL       36
REMARK 921   NORMALIZED FREE ENERGY PREDICTED BY IDOCK:   -4.92 KCAL/MOL
REMARK 922        TOTAL FREE ENERGY PREDICTED BY IDOCK:   -6.29 KCAL/MOL
REMARK 923 INTER-LIGAND FREE ENERGY PREDICTED BY IDOCK:   -6.02 KCAL/MOL
REMARK 924 INTRA-LIGAND FREE ENERGY PREDICTED BY IDOCK:   -0.27 KCAL/MOL
REMARK 927      BINDING AFFINITY PREDICTED BY RF-SCORE:    0.00 PKD
ROOT
HETATM    1  O   UNL     1      -8.128  19.205  65.787  1.00  0.00    -0.452 OA 
HETATM    2  N   UNL     1      -8.704  18.993  66.854  1.00  0.00    -0.293 N  
HETATM    3  O   UNL     1      -8.405  19.347  67.996  1.00  0.00    -0.300 OA 
HETATM    4  O   UNL     1      -9.862  18.194  66.699  1.00  0.00    -0.316 OA 
ENDROOT
BRANCH   4   5
HETATM    5  C   UNL     1     -10.551  18.000  67.931  1.00  0.00    -0.372 C  
BRANCH   5   6
HETATM    6  C   UNL     1     -10.615  16.497  68.214  1.00  0.00    -0.326 C  
BRANCH   6   7
HETATM    7  N   UNL     1     -10.860  15.695  67.031  1.00  0.00    -0.315 N  
HETATM    8  C   UNL     1     -11.569  14.513  67.105  1.00  0.00    -0.388 C  
HETATM    9  H   UNL     1     -10.503  16.010  66.130  1.00  0.00     0.000 HD 
HETATM   10  O   UNL     1     -12.004  14.052  68.153  1.00  0.00    -0.357 OA 
BRANCH   8  11
HETATM   11  C   UNL     1     -11.758  13.778  65.838  1.00  0.00    -0.370 A  
HETATM   12  C   UNL     1     -11.336  12.460  65.659  1.00  0.00    -0.387 A  
HETATM   13  C   UNL     1     -11.532  11.847  64.422  1.00  0.00    -0.393 A  
HETATM   14  C   UNL     1     -12.142  12.576  63.413  1.00  0.00    -0.529 A  
HETATM   15  N   UNL     1     -12.560  13.853  63.557  1.00  0.00    -0.805 NA 
HETATM   16  C   UNL     1     -12.348  14.432  64.765  1.00  0.00    -0.414 A  
ENDBRANCH   8  11
ENDBRANCH   6   7
ENDBRANCH   5   6
ENDBRANCH   4   5
TORSDOF 4
ENDMDL
MODEL       37
REMARK 921   NORMALIZED FREE ENERGY PREDICTED BY IDOCK:   -4.83 KCAL/MOL
REMARK 922        TOTAL FREE ENERGY PREDICTED BY IDOCK:   -6.18 KCAL/MOL
REMARK 923 INTER-LIGAND FREE ENERGY PREDICTED BY IDOCK:   -6.00 KCAL/MOL
REMARK 924 INTRA-LIGAND FREE ENERGY PREDICTED BY IDOCK:   -0.18 KCAL/MOL
REMARK 927      BINDING AFFINITY PREDICTED BY RF-SCORE:    0.00 PKD
ROOT
HETATM    1  O   UNL     1     -12.834  15.771  73.772  1.00  0.00    -0.526 OA 
HETATM    2  N   UNL     1     -13.176  15.643  72.597  1.00  0.00    -0.460 N  
HETATM    3  O   UNL     1     -14.302  15.656  72.096  1.00  0.00    -0.514 OA 
HETATM    4  O   UNL     1     -12.079  15.420  71.731  1.00  0.00    -0.320 OA 
ENDROOT
BRANCH   4   5
HETATM    5  C   UNL     1     -12.479  15.328  70.367  1.00  0.00    -0.381 C  
BRANCH   5   6
HETATM    6  C   UNL     1     -12.213  13.901  69.883  1.00  0.00    -0.333 C  
BRANCH   6   7
HETATM    7  N   UNL     1     -11.934  13.815  68.462  1.00  0.00    -0.370 N  
HETATM    8  C   UNL     1     -11.944  12.600  67.806  1.00  0.00    -0.243 C  
HETATM    9  H   UNL     1     -11.727  14.665  67.940  1.00  0.00     0.000 HD 
HETATM   10  O   UNL     1     -12.153  11.532  68.367  1.00  0.00    -0.556 OA 
BRANCH   8  11
HETATM   11  C   UNL     1     -11.646  12.631  66.360  1.00  0.00    -0.441 A  
HETATM   12  C   UNL     1     -12.601  12.964  65.398  1.00  0.00    -0.440 A  
HETATM   13  C   UNL     1     -12.243  12.944  64.051  1.00  0.00    -0.500 A  
HETATM   14  C   UNL     1     -10.944  12.592  63.718  1.00  0.00    -0.435 A  
HETATM   15  N   UNL     1      -9.999  12.265  64.626  1.00  0.00    -0.228 NA 
HETATM   16  C   UNL     1     -10.373  12.279  65.929  1.00  0.00    -0.252 A  
ENDBRANCH   8  11
ENDBRANCH   6   7
ENDBRANCH   5   6
ENDBRANCH   4   5
TORSDOF 4
ENDMDL
MODEL       38
REMARK 921   NORMALIZED FREE ENERGY PREDICTED BY IDOCK:   -4.82 KCAL/MOL
REMARK 922        TOTAL FREE ENERGY PREDICTED BY IDOCK:   -6.17 KCAL/MOL
REMARK 923 INTER-LIGAND FREE ENERGY PREDICTED BY IDOCK:   -5.91 KCAL/MOL
REMARK 924 INTRA-LIGAND FREE ENERGY PREDICTED BY IDOCK:   -0.26 KCAL/MOL
REMARK 927      BINDING AFFINITY PREDICTED BY RF-SCORE:    0.00 PKD
ROOT
HETATM    1  O   UNL     1      -9.406  11.050  65.751  1.00  0.00    -0.196 OA 
HETATM    2  N   UNL     1      -9.942  12.151  65.629  1.00  0.00    -0.247 N  
HETATM    3  O   UNL     1     -10.397  12.700  64.624  1.00  0.00    -0.313 OA 
HETATM    4  O   UNL     1      -9.997  12.869  66.848  1.00  0.00    -0.229 OA 
ENDROOT
BRANCH   4   5
HETATM    5  C   UNL     1     -10.668  14.118  66.707  1.00  0.00    -0.286 C  
BRANCH   5   6
HETATM    6  C   UNL     1     -12.100  13.955  67.223  1.00  0.00    -0.368 C  
BRANCH   6   7
HETATM    7  N   UNL     1     -12.311  14.534  68.536  1.00  0.00    -0.595 N  
HETATM    8  C   UNL     1     -12.206  13.768  69.679  1.00  0.00    -0.305 C  
HETATM    9  H   UNL     1     -12.541  15.524  68.615  1.00  0.00     0.000 HD 
HETATM   10  O   UNL     1     -11.964  12.567  69.666  1.00  0.00    -0.303 OA 
BRANCH   8  11
HETATM   11  C   UNL     1     -12.442  14.461  70.961  1.00  0.00    -0.425 A  
HETATM   12  C   UNL     1     -11.722  15.592  71.352  1.00  0.00    -0.491 A  
HETATM   13  C   UNL     1     -11.991  16.172  72.590  1.00  0.00    -0.653 A  
HETATM   14  C   UNL     1     -12.968  15.599  73.390  1.00  0.00    -0.559 A  
HETATM   15  N   UNL     1     -13.679  14.506  73.040  1.00  0.00    -0.528 NA 
HETATM   16  C   UNL     1     -13.392  13.951  71.835  1.00  0.00    -0.412 A  
ENDBRANCH   8  11
ENDBRANCH   6   7
ENDBRANCH   5   6
ENDBRANCH   4   5
TORSDOF 4
ENDMDL
MODEL       39
REMARK 921   NORMALIZED FREE ENERGY PREDICTED BY IDOCK:   -4.78 KCAL/MOL
REMARK 922        TOTAL FREE ENERGY PREDICTED BY IDOCK:   -6.13 KCAL/MOL
REMARK 923 INTER-LIGAND FREE ENERGY PREDICTED BY IDOCK:   -5.67 KCAL/MOL
REMARK 924 INTRA-LIGAND FREE ENERGY PREDICTED BY IDOCK:   -0.46 KCAL/MOL
REMARK 927      BINDING AFFINITY PREDICTED BY RF-SCORE:    0.00 PKD
ROOT
HETATM    1  O   UNL     1      -7.442  18.998  68.231  1.00  0.00    -0.271 OA 
HETATM    2  N   UNL     1      -8.657  18.813  68.158  1.00  0.00    -0.300 N  
HETATM    3  O   UNL     1      -9.570  19.284  68.838  1.00  0.00    -0.396 OA 
HETATM    4  O   UNL     1      -9.008  17.891  67.142  1.00  0.00    -0.243 OA 
ENDROOT
BRANCH   4   5
HETATM    5  C   UNL     1     -10.418  17.726  67.029  1.00  0.00    -0.322 C  
BRANCH   5   6
HETATM    6  C   UNL     1     -10.763  16.278  67.384  1.00  0.00    -0.287 C  
BRANCH   6   7
HETATM    7  N   UNL     1     -11.633  16.157  68.538  1.00  0.00    -0.340 N  
HETATM    8  C   UNL     1     -11.119  15.928  69.799  1.00  0.00    -0.324 C  
HETATM    9  H   UNL     1     -12.642  16.243  68.416  1.00  0.00     0.000 HD 
HETATM   10  O   UNL     1      -9.924  15.783  70.022  1.00  0.00    -0.264 OA 
BRANCH   8  11
HETATM   11  C   UNL     1     -12.097  15.822  70.900  1.00  0.00    -0.459 A  
HETATM   12  C   UNL     1     -11.761  16.058  72.234  1.00  0.00    -0.581 A  
HETATM   13  C   UNL     1     -12.739  15.913  73.216  1.00  0.00    -0.650 A  
HETATM   14  C   UNL     1     -14.015  15.536  72.826  1.00  0.00    -0.459 A  
HETATM   15  N   UNL     1     -14.370  15.301  71.544  1.00  0.00    -0.535 NA 
HETATM   16  C   UNL     1     -13.398  15.437  70.607  1.00  0.00    -0.238 A  
ENDBRANCH   8  11
ENDBRANCH   6   7
ENDBRANCH   5   6
ENDBRANCH   4   5
TORSDOF 4
ENDMDL
MODEL       40
REMARK 921   NORMALIZED FREE ENERGY PREDICTED BY IDOCK:   -4.76 KCAL/MOL
REMARK 922        TOTAL FREE ENERGY PREDICTED BY IDOCK:   -6.10 KCAL/MOL
REMARK 923 INTER-LIGAND FREE ENERGY PREDICTED BY IDOCK:   -5.67 KCAL/MOL
REMARK 924 INTRA-LIGAND FREE ENERGY PREDICTED BY IDOCK:   -0.43 KCAL/MOL
REMARK 927      BINDING AFFINITY PREDICTED BY RF-SCORE:    0.00 PKD
ROOT
HETATM    1  O   UNL     1     -13.127  12.543  64.609  1.00  0.00    -0.845 OA 
HETATM    2  N   UNL     1     -12.290  12.468  65.507  1.00  0.00    -0.402 N  
HETATM    3  O   UNL     1     -12.340  12.875  66.669  1.00  0.00    -0.422 OA 
HETATM    4  O   UNL     1     -11.095  11.835  65.087  1.00  0.00    -0.308 OA 
ENDROOT
BRANCH   4   5
HETATM    5  C   UNL     1     -10.154  11.703  66.149  1.00  0.00    -0.224 C  
BRANCH   5   6
HETATM    6  C   UNL     1     -10.183  10.254  66.640  1.00  0.00    -0.233 C  
BRANCH   6   7
HETATM    7  N   UNL     1     -11.043  10.051  67.790  1.00  0.00    -0.452 N  
HETATM    8  C   UNL     1     -10.563  10.203  69.076  1.00  0.00    -0.223 C  
HETATM    9  H   UNL     1     -12.018   9.790  67.647  1.00  0.00     0.000 HD 
HETATM   10  O   UNL     1      -9.399  10.484  69.331  1.00  0.00    -0.190 OA 
BRANCH   8  11
HETATM   11  C   UNL     1     -11.526   9.971  70.171  1.00  0.00    -0.344 A  
HETATM   12  C   UNL     1     -12.289  10.994  70.736  1.00  0.00    -0.496 A  
HETATM   13  C   UNL     1     -13.157  10.693  71.783  1.00  0.00    -0.571 A  
HETATM   14  C   UNL     1     -13.229   9.381  72.225  1.00  0.00    -0.446 A  
HETATM   15  N   UNL     1     -12.504   8.371  71.699  1.00  0.00    -0.316 NA 
HETATM   16  C   UNL     1     -11.656   8.689  70.689  1.00  0.00    -0.200 A  
ENDBRANCH   8  11
ENDBRANCH   6   7
ENDBRANCH   5   6
ENDBRANCH   4   5
TORSDOF 4
ENDMDL
MODEL       41
REMARK 921   NORMALIZED FREE ENERGY PREDICTED BY IDOCK:   -4.75 KCAL/MOL
REMARK 922        TOTAL FREE ENERGY PREDICTED BY IDOCK:   -6.09 KCAL/MOL
REMARK 923 INTER-LIGAND FREE ENERGY PREDICTED BY IDOCK:   -5.68 KCAL/MOL
REMARK 924 INTRA-LIGAND FREE ENERGY PREDICTED BY IDOCK:   -0.41 KCAL/MOL
REMARK 927      BINDING AFFINITY PREDICTED BY RF-SCORE:    0.00 PKD
ROOT
HETATM    1  O   UNL     1     -10.558  18.535  65.525  1.00  0.00    -0.621 OA 
HETATM    2  N   UNL     1     -10.224  17.515  66.125  1.00  0.00    -0.353 N  
HETATM    3  O   UNL     1      -9.464  16.608  65.778  1.00  0.00    -0.495 OA 
HETATM    4  O   UNL     1     -10.852  17.393  67.387  1.00  0.00    -0.290 OA 
ENDROOT
BRANCH   4   5
HETATM    5  C   UNL     1     -10.416  16.237  68.097  1.00  0.00    -0.289 C  
BRANCH   5   6
HETATM    6  C   UNL     1     -11.427  15.114  67.854  1.00  0.00    -0.332 C  
BRANCH   6   7
HETATM    7  N   UNL     1     -10.918  14.051  67.008  1.00  0.00    -0.294 N  
HETATM    8  C   UNL     1     -11.662  13.560  65.954  1.00  0.00    -0.352 C  
HETATM    9  H   UNL     1      -9.995  13.661  67.195  1.00  0.00     0.000 HD 
HETATM   10  O   UNL     1     -12.790  13.954  65.684  1.00  0.00    -0.541 OA 
BRANCH   8  11
HETATM   11  C   UNL     1     -11.046  12.478  65.160  1.00  0.00    -0.335 A  
HETATM   12  C   UNL     1     -10.537  11.314  65.736  1.00  0.00    -0.306 A  
HETATM   13  C   UNL     1      -9.949  10.352  64.917  1.00  0.00    -0.409 A  
HETATM   14  C   UNL     1      -9.894  10.592  63.552  1.00  0.00    -0.326 A  
HETATM   15  N   UNL     1     -10.377  11.708  62.966  1.00  0.00    -0.303 NA 
HETATM   16  C   UNL     1     -10.934  12.636  63.785  1.00  0.00    -0.435 A  
ENDBRANCH   8  11
ENDBRANCH   6   7
ENDBRANCH   5   6
ENDBRANCH   4   5
TORSDOF 4
ENDMDL
MODEL       42
REMARK 921   NORMALIZED FREE ENERGY PREDICTED BY IDOCK:   -4.75 KCAL/MOL
REMARK 922        TOTAL FREE ENERGY PREDICTED BY IDOCK:   -6.08 KCAL/MOL
REMARK 923 INTER-LIGAND FREE ENERGY PREDICTED BY IDOCK:   -5.82 KCAL/MOL
REMARK 924 INTRA-LIGAND FREE ENERGY PREDICTED BY IDOCK:   -0.27 KCAL/MOL
REMARK 927      BINDING AFFINITY PREDICTED BY RF-SCORE:    0.00 PKD
ROOT
HETATM    1  O   UNL     1     -13.011  11.999  63.274  1.00  0.00    -0.736 OA 
HETATM    2  N   UNL     1     -12.091  12.159  64.075  1.00  0.00    -0.433 N  
HETATM    3  O   UNL     1     -10.879  12.270  63.875  1.00  0.00    -0.339 OA 
HETATM    4  O   UNL     1     -12.536  12.186  65.418  1.00  0.00    -0.523 OA 
ENDROOT
BRANCH   4   5
HETATM    5  C   UNL     1     -11.471  12.427  66.334  1.00  0.00    -0.373 C  
BRANCH   5   6
HETATM    6  C   UNL     1     -11.859  13.610  67.223  1.00  0.00    -0.391 C  
BRANCH   6   7
HETATM    7  N   UNL     1     -10.900  14.698  67.189  1.00  0.00    -0.296 N  
HETATM    8  C   UNL     1     -10.773  15.503  66.075  1.00  0.00    -0.326 C  
HETATM    9  H   UNL     1     -10.310  14.870  68.002  1.00  0.00     0.000 HD 
HETATM   10  O   UNL     1     -11.423  15.342  65.050  1.00  0.00    -0.335 OA 
BRANCH   8  11
HETATM   11  C   UNL     1      -9.765  16.580  66.151  1.00  0.00    -0.344 A  
HETATM   12  C   UNL     1      -8.407  16.329  66.352  1.00  0.00    -0.365 A  
HETATM   13  C   UNL     1      -7.524  17.405  66.436  1.00  0.00    -0.341 A  
HETATM   14  C   UNL     1      -8.034  18.689  66.316  1.00  0.00    -0.252 A  
HETATM   15  N   UNL     1      -9.343  18.962  66.121  1.00  0.00    -0.467 NA 
HETATM   16  C   UNL     1     -10.184  17.900  66.055  1.00  0.00    -0.295 A  
ENDBRANCH   8  11
ENDBRANCH   6   7
ENDBRANCH   5   6
ENDBRANCH   4   5
TORSDOF 4
ENDMDL
MODEL       43
REMARK 921   NORMALIZED FREE ENERGY PREDICTED BY IDOCK:   -4.75 KCAL/MOL
REMARK 922        TOTAL FREE ENERGY PREDICTED BY IDOCK:   -6.08 KCAL/MOL
REMARK 923 INTER-LIGAND FREE ENERGY PREDICTED BY IDOCK:   -5.84 KCAL/MOL
REMARK 924 INTRA-LIGAND FREE ENERGY PREDICTED BY IDOCK:   -0.24 KCAL/MOL
REMARK 927      BINDING AFFINITY PREDICTED BY RF-SCORE:    0.00 PKD
ROOT
HETATM    1  O   UNL     1     -10.094   9.960  65.268  1.00  0.00    -0.313 OA 
HETATM    2  N   UNL     1     -10.111  10.959  64.550  1.00  0.00    -0.315 N  
HETATM    3  O   UNL     1      -9.745  11.099  63.381  1.00  0.00    -0.280 OA 
HETATM    4  O   UNL     1     -10.607  12.103  65.220  1.00  0.00    -0.263 OA 
ENDROOT
BRANCH   4   5
HETATM    5  C   UNL     1     -10.675  13.241  64.365  1.00  0.00    -0.415 C  
BRANCH   5   6
HETATM    6  C   UNL     1     -11.670  14.236  64.966  1.00  0.00    -0.383 C  
BRANCH   6   7
HETATM    7  N   UNL     1     -11.052  15.217  65.838  1.00  0.00    -0.338 N  
HETATM    8  C   UNL     1     -10.878  16.524  65.431  1.00  0.00    -0.206 C  
HETATM    9  H   UNL     1     -10.740  14.935  66.767  1.00  0.00     0.000 HD 
HETATM   10  O   UNL     1     -11.197  16.932  64.322  1.00  0.00    -1.204 OA 
BRANCH   8  11
HETATM   11  C   UNL     1     -10.237  17.436  66.400  1.00  0.00    -0.339 A  
HETATM   12  C   UNL     1     -10.521  18.802  66.454  1.00  0.00    -0.485 A  
HETATM   13  C   UNL     1      -9.853  19.597  67.383  1.00  0.00    -0.489 A  
HETATM   14  C   UNL     1      -8.928  18.996  68.223  1.00  0.00    -0.332 A  
HETATM   15  N   UNL     1      -8.632  17.679  68.194  1.00  0.00    -0.253 NA 
HETATM   16  C   UNL     1      -9.285  16.927  67.273  1.00  0.00    -0.226 A  
ENDBRANCH   8  11
ENDBRANCH   6   7
ENDBRANCH   5   6
ENDBRANCH   4   5
TORSDOF 4
ENDMDL
MODEL       44
REMARK 921   NORMALIZED FREE ENERGY PREDICTED BY IDOCK:   -4.74 KCAL/MOL
REMARK 922        TOTAL FREE ENERGY PREDICTED BY IDOCK:   -6.08 KCAL/MOL
REMARK 923 INTER-LIGAND FREE ENERGY PREDICTED BY IDOCK:   -5.84 KCAL/MOL
REMARK 924 INTRA-LIGAND FREE ENERGY PREDICTED BY IDOCK:   -0.23 KCAL/MOL
REMARK 927      BINDING AFFINITY PREDICTED BY RF-SCORE:    0.00 PKD
ROOT
HETATM    1  O   UNL     1      -9.206  10.991  66.038  1.00  0.00    -0.180 OA 
HETATM    2  N   UNL     1     -10.264  11.555  65.762  1.00  0.00    -0.239 N  
HETATM    3  O   UNL     1     -10.970  11.462  64.756  1.00  0.00    -0.296 OA 
HETATM    4  O   UNL     1     -10.679  12.459  66.770  1.00  0.00    -0.228 OA 
ENDROOT
BRANCH   4   5
HETATM    5  C   UNL     1     -11.932  13.065  66.466  1.00  0.00    -0.391 C  
BRANCH   5   6
HETATM    6  C   UNL     1     -11.933  14.482  67.045  1.00  0.00    -0.345 C  
BRANCH   6   7
HETATM    7  N   UNL     1     -12.378  14.543  68.425  1.00  0.00    -0.605 N  
HETATM    8  C   UNL     1     -11.788  15.404  69.328  1.00  0.00    -0.343 C  
HETATM    9  H   UNL     1     -13.140  13.938  68.732  1.00  0.00     0.000 HD 
HETATM   10  O   UNL     1     -10.849  16.138  69.044  1.00  0.00    -0.258 OA 
BRANCH   8  11
HETATM   11  C   UNL     1     -12.321  15.381  70.705  1.00  0.00    -0.451 A  
HETATM   12  C   UNL     1     -13.683  15.270  70.986  1.00  0.00    -0.452 A  
HETATM   13  C   UNL     1     -14.105  15.281  72.314  1.00  0.00    -0.651 A  
HETATM   14  C   UNL     1     -13.147  15.404  73.310  1.00  0.00    -0.524 A  
HETATM   15  N   UNL     1     -11.823  15.514  73.069  1.00  0.00    -0.454 NA 
HETATM   16  C   UNL     1     -11.437  15.513  71.768  1.00  0.00    -0.426 A  
ENDBRANCH   8  11
ENDBRANCH   6   7
ENDBRANCH   5   6
ENDBRANCH   4   5
TORSDOF 4
ENDMDL
MODEL       45
REMARK 921   NORMALIZED FREE ENERGY PREDICTED BY IDOCK:   -4.72 KCAL/MOL
REMARK 922        TOTAL FREE ENERGY PREDICTED BY IDOCK:   -6.04 KCAL/MOL
REMARK 923 INTER-LIGAND FREE ENERGY PREDICTED BY IDOCK:   -5.74 KCAL/MOL
REMARK 924 INTRA-LIGAND FREE ENERGY PREDICTED BY IDOCK:   -0.31 KCAL/MOL
REMARK 927      BINDING AFFINITY PREDICTED BY RF-SCORE:    0.00 PKD
ROOT
HETATM    1  O   UNL     1      -9.145   8.861  72.183  1.00  0.00    -0.375 OA 
HETATM    2  N   UNL     1     -10.173   9.110  71.553  1.00  0.00    -0.341 N  
HETATM    3  O   UNL     1     -11.352   8.932  71.864  1.00  0.00    -0.338 OA 
HETATM    4  O   UNL     1      -9.909   9.656  70.274  1.00  0.00    -0.241 OA 
ENDROOT
BRANCH   4   5
HETATM    5  C   UNL     1     -11.105   9.992  69.575  1.00  0.00    -0.238 C  
BRANCH   5   6
HETATM    6  C   UNL     1     -11.028  11.467  69.173  1.00  0.00    -0.236 C  
BRANCH   6   7
HETATM    7  N   UNL     1     -11.506  12.372  70.200  1.00  0.00    -0.520 N  
HETATM    8  C   UNL     1     -12.117  13.566  69.871  1.00  0.00    -0.341 C  
HETATM    9  H   UNL     1     -11.388  12.123  71.181  1.00  0.00     0.000 HD 
HETATM   10  O   UNL     1     -12.268  13.950  68.718  1.00  0.00    -0.348 OA 
BRANCH   8  11
HETATM   11  C   UNL     1     -12.564  14.410  70.997  1.00  0.00    -0.419 A  
HETATM   12  C   UNL     1     -13.903  14.738  71.211  1.00  0.00    -0.460 A  
HETATM   13  C   UNL     1     -14.237  15.561  72.284  1.00  0.00    -0.617 A  
HETATM   14  C   UNL     1     -13.218  16.024  73.104  1.00  0.00    -0.537 A  
HETATM   15  N   UNL     1     -11.914  15.724  72.922  1.00  0.00    -0.465 NA 
HETATM   16  C   UNL     1     -11.612  14.932  71.863  1.00  0.00    -0.260 A  
ENDBRANCH   8  11
ENDBRANCH   6   7
ENDBRANCH   5   6
ENDBRANCH   4   5
TORSDOF 4
ENDMDL
MODEL       46
REMARK 921   NORMALIZED FREE ENERGY PREDICTED BY IDOCK:   -4.69 KCAL/MOL
REMARK 922        TOTAL FREE ENERGY PREDICTED BY IDOCK:   -6.01 KCAL/MOL
REMARK 923 INTER-LIGAND FREE ENERGY PREDICTED BY IDOCK:   -5.73 KCAL/MOL
REMARK 924 INTRA-LIGAND FREE ENERGY PREDICTED BY IDOCK:   -0.28 KCAL/MOL
REMARK 927      BINDING AFFINITY PREDICTED BY RF-SCORE:    0.00 PKD
ROOT
HETATM    1  O   UNL     1      -9.325   8.716  72.332  1.00  0.00    -0.282 OA 
HETATM    2  N   UNL     1     -10.529   8.482  72.427  1.00  0.00    -0.325 N  
HETATM    3  O   UNL     1     -11.114   7.596  73.053  1.00  0.00    -0.387 OA 
HETATM    4  O   UNL     1     -11.321   9.371  71.661  1.00  0.00    -0.372 OA 
ENDROOT
BRANCH   4   5
HETATM    5  C   UNL     1     -12.715   9.126  71.820  1.00  0.00    -0.373 C  
BRANCH   5   6
HETATM    6  C   UNL     1     -13.409  10.460  72.102  1.00  0.00    -0.269 C  
BRANCH   6   7
HETATM    7  N   UNL     1     -12.831  11.576  71.378  1.00  0.00    -0.418 N  
HETATM    8  C   UNL     1     -13.135  12.880  71.716  1.00  0.00    -0.360 C  
HETATM    9  H   UNL     1     -12.190  11.395  70.606  1.00  0.00     0.000 HD 
HETATM   10  O   UNL     1     -13.918  13.180  72.608  1.00  0.00    -0.708 OA 
BRANCH   8  11
HETATM   11  C   UNL     1     -12.489  13.937  70.911  1.00  0.00    -0.447 A  
HETATM   12  C   UNL     1     -12.189  13.779  69.557  1.00  0.00    -0.344 A  
HETATM   13  C   UNL     1     -11.557  14.817  68.877  1.00  0.00    -0.340 A  
HETATM   14  C   UNL     1     -11.249  15.975  69.577  1.00  0.00    -0.348 A  
HETATM   15  N   UNL     1     -11.526  16.156  70.886  1.00  0.00    -0.416 NA 
HETATM   16  C   UNL     1     -12.131  15.127  71.530  1.00  0.00    -0.345 A  
ENDBRANCH   8  11
ENDBRANCH   6   7
ENDBRANCH   5   6
ENDBRANCH   4   5
TORSDOF 4
ENDMDL
MODEL       47
REMARK 921   NORMALIZED FREE ENERGY PREDICTED BY IDOCK:   -4.68 KCAL/MOL
REMARK 922        TOTAL FREE ENERGY PREDICTED BY IDOCK:   -6.00 KCAL/MOL
REMARK 923 INTER-LIGAND FREE ENERGY PREDICTED BY IDOCK:   -5.70 KCAL/MOL
REMARK 924 INTRA-LIGAND FREE ENERGY PREDICTED BY IDOCK:   -0.31 KCAL/MOL
REMARK 927      BINDING AFFINITY PREDICTED BY RF-SCORE:    0.00 PKD
ROOT
HETATM    1  O   UNL     1      -8.645   8.123  73.266  1.00  0.00    -0.207 OA 
HETATM    2  N   UNL     1      -9.848   7.866  73.215  1.00  0.00    -0.301 N  
HETATM    3  O   UNL     1     -10.503   7.028  73.836  1.00  0.00    -0.375 OA 
HETATM    4  O   UNL     1     -10.535   8.660  72.265  1.00  0.00    -0.330 OA 
ENDROOT
BRANCH   4   5
HETATM    5  C   UNL     1     -11.934   8.393  72.252  1.00  0.00    -0.389 C  
BRANCH   5   6
HETATM    6  C   UNL     1     -12.551   9.118  71.054  1.00  0.00    -0.155 C  
BRANCH   6   7
HETATM    7  N   UNL     1     -12.919  10.493  71.336  1.00  0.00    -0.414 N  
HETATM    8  C   UNL     1     -12.219  11.547  70.783  1.00  0.00    -0.363 C  
HETATM    9  H   UNL     1     -13.707  10.683  71.954  1.00  0.00     0.000 HD 
HETATM   10  O   UNL     1     -11.243  11.401  70.058  1.00  0.00    -0.212 OA 
BRANCH   8  11
HETATM   11  C   UNL     1     -12.680  12.903  71.140  1.00  0.00    -0.366 A  
HETATM   12  C   UNL     1     -12.357  14.033  70.387  1.00  0.00    -0.429 A  
HETATM   13  C   UNL     1     -12.813  15.281  70.807  1.00  0.00    -0.494 A  
HETATM   14  C   UNL     1     -13.576  15.351  71.963  1.00  0.00    -0.487 A  
HETATM   15  N   UNL     1     -13.904  14.276  72.712  1.00  0.00    -0.626 NA 
HETATM   16  C   UNL     1     -13.438  13.074  72.291  1.00  0.00    -0.547 A  
ENDBRANCH   8  11
ENDBRANCH   6   7
ENDBRANCH   5   6
ENDBRANCH   4   5
TORSDOF 4
ENDMDL
MODEL       48
REMARK 921   NORMALIZED FREE ENERGY PREDICTED BY IDOCK:   -4.68 KCAL/MOL
REMARK 922        TOTAL FREE ENERGY PREDICTED BY IDOCK:   -6.00 KCAL/MOL
REMARK 923 INTER-LIGAND FREE ENERGY PREDICTED BY IDOCK:   -5.53 KCAL/MOL
REMARK 924 INTRA-LIGAND FREE ENERGY PREDICTED BY IDOCK:   -0.47 KCAL/MOL
REMARK 927      BINDING AFFINITY PREDICTED BY RF-SCORE:    0.00 PKD
ROOT
HETATM    1  O   UNL     1     -11.052  19.428  67.360  1.00  0.00    -0.445 OA 
HETATM    2  N   UNL     1     -10.296  18.724  66.692  1.00  0.00    -0.397 N  
HETATM    3  O   UNL     1     -10.409  18.323  65.532  1.00  0.00    -0.575 OA 
HETATM    4  O   UNL     1      -9.150  18.315  67.416  1.00  0.00    -0.251 OA 
ENDROOT
BRANCH   4   5
HETATM    5  C   UNL     1      -8.254  17.548  66.617  1.00  0.00    -0.256 C  
BRANCH   5   6
HETATM    6  C   UNL     1      -8.285  16.101  67.115  1.00  0.00    -0.196 C  
BRANCH   6   7
HETATM    7  N   UNL     1      -8.927  15.185  66.192  1.00  0.00    -0.468 N  
HETATM    8  C   UNL     1     -10.233  14.779  66.381  1.00  0.00    -0.291 C  
HETATM    9  H   UNL     1      -8.405  14.835  65.389  1.00  0.00     0.000 HD 
HETATM   10  O   UNL     1     -10.915  15.130  67.335  1.00  0.00    -0.300 OA 
BRANCH   8  11
HETATM   11  C   UNL     1     -10.785  13.845  65.380  1.00  0.00    -0.330 A  
HETATM   12  C   UNL     1     -11.688  14.243  64.392  1.00  0.00    -0.405 A  
HETATM   13  C   UNL     1     -12.180  13.292  63.500  1.00  0.00    -0.513 A  
HETATM   14  C   UNL     1     -11.749  11.980  63.630  1.00  0.00    -0.493 A  
HETATM   15  N   UNL     1     -10.878  11.565  64.575  1.00  0.00    -0.328 NA 
HETATM   16  C   UNL     1     -10.422  12.506  65.439  1.00  0.00    -0.282 A  
ENDBRANCH   8  11
ENDBRANCH   6   7
ENDBRANCH   5   6
ENDBRANCH   4   5
TORSDOF 4
ENDMDL
MODEL       49
REMARK 921   NORMALIZED FREE ENERGY PREDICTED BY IDOCK:   -4.68 KCAL/MOL
REMARK 922        TOTAL FREE ENERGY PREDICTED BY IDOCK:   -5.99 KCAL/MOL
REMARK 923 INTER-LIGAND FREE ENERGY PREDICTED BY IDOCK:   -5.78 KCAL/MOL
REMARK 924 INTRA-LIGAND FREE ENERGY PREDICTED BY IDOCK:   -0.22 KCAL/MOL
REMARK 927      BINDING AFFINITY PREDICTED BY RF-SCORE:    0.00 PKD
ROOT
HETATM    1  O   UNL     1     -12.638  15.674  63.835  1.00  0.00    -0.697 OA 
HETATM    2  N   UNL     1     -12.377  14.762  64.619  1.00  0.00    -0.402 N  
HETATM    3  O   UNL     1     -13.131  13.976  65.195  1.00  0.00    -0.776 OA 
HETATM    4  O   UNL     1     -10.992  14.656  64.891  1.00  0.00    -0.374 OA 
ENDROOT
BRANCH   4   5
HETATM    5  C   UNL     1     -10.694  13.563  65.755  1.00  0.00    -0.275 C  
BRANCH   5   6
HETATM    6  C   UNL     1     -10.058  14.118  67.031  1.00  0.00    -0.261 C  
BRANCH   6   7
HETATM    7  N   UNL     1     -10.159  15.561  67.147  1.00  0.00    -0.250 N  
HETATM    8  C   UNL     1      -9.132  16.384  66.733  1.00  0.00    -0.234 C  
HETATM    9  H   UNL     1     -11.004  15.973  67.543  1.00  0.00     0.000 HD 
HETATM   10  O   UNL     1      -8.075  15.965  66.277  1.00  0.00    -0.243 OA 
BRANCH   8  11
HETATM   11  C   UNL     1      -9.343  17.836  66.899  1.00  0.00    -0.272 A  
HETATM   12  C   UNL     1      -8.635  18.601  67.828  1.00  0.00    -0.294 A  
HETATM   13  C   UNL     1      -8.913  19.962  67.938  1.00  0.00    -0.381 A  
HETATM   14  C   UNL     1      -9.888  20.506  67.115  1.00  0.00    -0.426 A  
HETATM   15  N   UNL     1     -10.589  19.791  66.209  1.00  0.00    -0.485 NA 
HETATM   16  C   UNL     1     -10.310  18.466  66.128  1.00  0.00    -0.407 A  
ENDBRANCH   8  11
ENDBRANCH   6   7
ENDBRANCH   5   6
ENDBRANCH   4   5
TORSDOF 4
ENDMDL
MODEL       50
REMARK 921   NORMALIZED FREE ENERGY PREDICTED BY IDOCK:   -4.67 KCAL/MOL
REMARK 922        TOTAL FREE ENERGY PREDICTED BY IDOCK:   -5.99 KCAL/MOL
REMARK 923 INTER-LIGAND FREE ENERGY PREDICTED BY IDOCK:   -5.65 KCAL/MOL
REMARK 924 INTRA-LIGAND FREE ENERGY PREDICTED BY IDOCK:   -0.34 KCAL/MOL
REMARK 927      BINDING AFFINITY PREDICTED BY RF-SCORE:    0.00 PKD
ROOT
HETATM    1  O   UNL     1     -10.005  12.520  66.084  1.00  0.00    -0.246 OA 
HETATM    2  N   UNL     1     -11.039  12.851  66.663  1.00  0.00    -0.276 N  
HETATM    3  O   UNL     1     -12.205  12.511  66.454  1.00  0.00    -0.584 OA 
HETATM    4  O   UNL     1     -10.808  13.788  67.699  1.00  0.00    -0.250 OA 
ENDROOT
BRANCH   4   5
HETATM    5  C   UNL     1     -12.002  14.123  68.398  1.00  0.00    -0.331 C  
BRANCH   5   6
HETATM    6  C   UNL     1     -11.796  13.809  69.881  1.00  0.00    -0.327 C  
BRANCH   6   7
HETATM    7  N   UNL     1     -11.745  12.389  70.170  1.00  0.00    -0.534 N  
HETATM    8  C   UNL     1     -12.546  11.830  71.146  1.00  0.00    -0.309 C  
HETATM    9  H   UNL     1     -11.107  11.793  69.643  1.00  0.00     0.000 HD 
HETATM   10  O   UNL     1     -13.314  12.482  71.842  1.00  0.00    -0.467 OA 
BRANCH   8  11
HETATM   11  C   UNL     1     -12.412  10.375  71.356  1.00  0.00    -0.521 A  
HETATM   12  C   UNL     1     -11.283   9.655  70.960  1.00  0.00    -0.445 A  
HETATM   13  C   UNL     1     -11.247   8.279  71.173  1.00  0.00    -0.296 A  
HETATM   14  C   UNL     1     -12.341   7.674  71.773  1.00  0.00    -0.319 A  
HETATM   15  N   UNL     1     -13.447   8.344  72.166  1.00  0.00    -0.332 NA 
HETATM   16  C   UNL     1     -13.464   9.681  71.938  1.00  0.00    -0.413 A  
ENDBRANCH   8  11
ENDBRANCH   6   7
ENDBRANCH   5   6
ENDBRANCH   4   5
TORSDOF 4
ENDMDL
MODEL       51
REMARK 921   NORMALIZED FREE ENERGY PREDICTED BY IDOCK:   -4.66 KCAL/MOL
REMARK 922        TOTAL FREE ENERGY PREDICTED BY IDOCK:   -5.98 KCAL/MOL
REMARK 923 INTER-LIGAND FREE ENERGY PREDICTED BY IDOCK:   -5.68 KCAL/MOL
REMARK 924 INTRA-LIGAND FREE ENERGY PREDICTED BY IDOCK:   -0.30 KCAL/MOL
REMARK 927      BINDING AFFINITY PREDICTED BY RF-SCORE:    0.00 PKD
ROOT
HETATM    1  O   UNL     1     -11.652  15.960  69.412  1.00  0.00    -0.337 OA 
HETATM    2  N   UNL     1     -10.706  16.579  68.925  1.00  0.00    -0.316 N  
HETATM    3  O   UNL     1      -9.495  16.449  69.116  1.00  0.00    -0.258 OA 
HETATM    4  O   UNL     1     -11.123  17.603  68.041  1.00  0.00    -0.219 OA 
ENDROOT
BRANCH   4   5
HETATM    5  C   UNL     1     -10.021  18.277  67.441  1.00  0.00    -0.334 C  
BRANCH   5   6
HETATM    6  C   UNL     1      -9.920  17.829  65.981  1.00  0.00    -0.209 C  
BRANCH   6   7
HETATM    7  N   UNL     1     -10.124  16.404  65.798  1.00  0.00    -0.341 N  
HETATM    8  C   UNL     1     -10.859  15.919  64.735  1.00  0.00    -0.324 C  
HETATM    9  H   UNL     1      -9.717  15.751  66.467  1.00  0.00     0.000 HD 
HETATM   10  O   UNL     1     -11.404  16.640  63.909  1.00  0.00    -1.104 OA 
BRANCH   8  11
HETATM   11  C   UNL     1     -11.003  14.452  64.648  1.00  0.00    -0.367 A  
HETATM   12  C   UNL     1     -12.055  13.835  63.970  1.00  0.00    -0.448 A  
HETATM   13  C   UNL     1     -12.130  12.444  63.956  1.00  0.00    -0.563 A  
HETATM   14  C   UNL     1     -11.149  11.723  64.621  1.00  0.00    -0.303 A  
HETATM   15  N   UNL     1     -10.120  12.292  65.286  1.00  0.00    -0.276 NA 
HETATM   16  C   UNL     1     -10.075  13.648  65.296  1.00  0.00    -0.275 A  
ENDBRANCH   8  11
ENDBRANCH   6   7
ENDBRANCH   5   6
ENDBRANCH   4   5
TORSDOF 4
ENDMDL
MODEL       52
REMARK 921   NORMALIZED FREE ENERGY PREDICTED BY IDOCK:   -4.64 KCAL/MOL
REMARK 922        TOTAL FREE ENERGY PREDICTED BY IDOCK:   -5.95 KCAL/MOL
REMARK 923 INTER-LIGAND FREE ENERGY PREDICTED BY IDOCK:   -5.74 KCAL/MOL
REMARK 924 INTRA-LIGAND FREE ENERGY PREDICTED BY IDOCK:   -0.21 KCAL/MOL
REMARK 927      BINDING AFFINITY PREDICTED BY RF-SCORE:    0.00 PKD
ROOT
HETATM    1  O   UNL     1     -11.078  16.874  64.365  1.00  0.00    -1.128 OA 
HETATM    2  N   UNL     1     -10.548  16.551  65.428  1.00  0.00    -0.337 N  
HETATM    3  O   UNL     1     -10.412  17.195  66.470  1.00  0.00    -0.312 OA 
HETATM    4  O   UNL     1     -10.001  15.246  65.390  1.00  0.00    -0.347 OA 
ENDROOT
BRANCH   4   5
HETATM    5  C   UNL     1      -9.438  14.861  66.641  1.00  0.00    -0.265 C  
BRANCH   5   6
HETATM    6  C   UNL     1      -9.876  13.427  66.944  1.00  0.00    -0.256 C  
BRANCH   6   7
HETATM    7  N   UNL     1     -10.519  13.279  68.236  1.00  0.00    -0.245 N  
HETATM    8  C   UNL     1     -11.767  13.818  68.477  1.00  0.00    -0.356 C  
HETATM    9  H   UNL     1     -10.041  12.769  68.978  1.00  0.00     0.000 HD 
HETATM   10  O   UNL     1     -12.392  14.469  67.648  1.00  0.00    -0.218 OA 
BRANCH   8  11
HETATM   11  C   UNL     1     -12.327  13.607  69.827  1.00  0.00    -0.285 A  
HETATM   12  C   UNL     1     -12.357  12.356  70.445  1.00  0.00    -0.307 A  
HETATM   13  C   UNL     1     -12.926  12.239  71.712  1.00  0.00    -0.431 A  
HETATM   14  C   UNL     1     -13.441  13.378  72.313  1.00  0.00    -0.586 A  
HETATM   15  N   UNL     1     -13.426  14.601  71.739  1.00  0.00    -0.346 NA 
HETATM   16  C   UNL     1     -12.879  14.688  70.501  1.00  0.00    -0.317 A  
ENDBRANCH   8  11
ENDBRANCH   6   7
ENDBRANCH   5   6
ENDBRANCH   4   5
TORSDOF 4
ENDMDL
MODEL       53
REMARK 921   NORMALIZED FREE ENERGY PREDICTED BY IDOCK:   -4.62 KCAL/MOL
REMARK 922        TOTAL FREE ENERGY PREDICTED BY IDOCK:   -5.93 KCAL/MOL
REMARK 923 INTER-LIGAND FREE ENERGY PREDICTED BY IDOCK:   -5.56 KCAL/MOL
REMARK 924 INTRA-LIGAND FREE ENERGY PREDICTED BY IDOCK:   -0.37 KCAL/MOL
REMARK 927      BINDING AFFINITY PREDICTED BY RF-SCORE:    0.00 PKD
ROOT
HETATM    1  O   UNL     1     -12.100   6.986  70.849  1.00  0.00    -0.353 OA 
HETATM    2  N   UNL     1     -11.395   7.987  70.973  1.00  0.00    -0.270 N  
HETATM    3  O   UNL     1     -11.246   8.733  71.943  1.00  0.00    -0.322 OA 
HETATM    4  O   UNL     1     -10.690   8.307  69.788  1.00  0.00    -0.239 OA 
ENDROOT
BRANCH   4   5
HETATM    5  C   UNL     1      -9.835   9.434  69.958  1.00  0.00    -0.221 C  
BRANCH   5   6
HETATM    6  C   UNL     1     -10.457  10.624  69.225  1.00  0.00    -0.227 C  
BRANCH   6   7
HETATM    7  N   UNL     1     -11.122  11.564  70.107  1.00  0.00    -0.431 N  
HETATM    8  C   UNL     1     -11.877  12.604  69.603  1.00  0.00    -0.311 C  
HETATM    9  H   UNL     1     -11.030  11.455  71.116  1.00  0.00     0.000 HD 
HETATM   10  O   UNL     1     -12.011  12.821  68.405  1.00  0.00    -0.319 OA 
BRANCH   8  11
HETATM   11  C   UNL     1     -12.508  13.500  70.593  1.00  0.00    -0.405 A  
HETATM   12  C   UNL     1     -12.336  14.885  70.576  1.00  0.00    -0.400 A  
HETATM   13  C   UNL     1     -12.948  15.657  71.562  1.00  0.00    -0.549 A  
HETATM   14  C   UNL     1     -13.709  15.013  72.527  1.00  0.00    -0.469 A  
HETATM   15  N   UNL     1     -13.893  13.676  72.569  1.00  0.00    -0.721 NA 
HETATM   16  C   UNL     1     -13.277  12.944  71.606  1.00  0.00    -0.324 A  
ENDBRANCH   8  11
ENDBRANCH   6   7
ENDBRANCH   5   6
ENDBRANCH   4   5
TORSDOF 4
ENDMDL
MODEL       54
REMARK 921   NORMALIZED FREE ENERGY PREDICTED BY IDOCK:   -4.62 KCAL/MOL
REMARK 922        TOTAL FREE ENERGY PREDICTED BY IDOCK:   -5.92 KCAL/MOL
REMARK 923 INTER-LIGAND FREE ENERGY PREDICTED BY IDOCK:   -5.73 KCAL/MOL
REMARK 924 INTRA-LIGAND FREE ENERGY PREDICTED BY IDOCK:   -0.20 KCAL/MOL
REMARK 927      BINDING AFFINITY PREDICTED BY RF-SCORE:    0.00 PKD
ROOT
HETATM    1  O   UNL     1     -13.545  14.288  73.045  1.00  0.00    -0.643 OA 
HETATM    2  N   UNL     1     -13.170  13.457  72.218  1.00  0.00    -0.467 N  
HETATM    3  O   UNL     1     -13.233  12.226  72.251  1.00  0.00    -0.470 OA 
HETATM    4  O   UNL     1     -12.554  14.050  71.090  1.00  0.00    -0.331 OA 
ENDROOT
BRANCH   4   5
HETATM    5  C   UNL     1     -12.173  13.083  70.115  1.00  0.00    -0.272 C  
BRANCH   5   6
HETATM    6  C   UNL     1     -11.804  13.821  68.826  1.00  0.00    -0.363 C  
BRANCH   6   7
HETATM    7  N   UNL     1     -11.201  12.965  67.822  1.00  0.00    -0.265 N  
HETATM    8  C   UNL     1     -11.596  13.028  66.500  1.00  0.00    -0.356 C  
HETATM    9  H   UNL     1     -10.475  12.305  68.097  1.00  0.00     0.000 HD 
HETATM   10  O   UNL     1     -12.482  13.771  66.097  1.00  0.00    -0.446 OA 
BRANCH   8  11
HETATM   11  C   UNL     1     -10.916  12.110  65.565  1.00  0.00    -0.343 A  
HETATM   12  C   UNL     1     -10.346  10.902  65.972  1.00  0.00    -0.304 A  
HETATM   13  C   UNL     1      -9.700  10.105  65.028  1.00  0.00    -0.384 A  
HETATM   14  C   UNL     1      -9.650  10.546  63.714  1.00  0.00    -0.311 A  
HETATM   15  N   UNL     1     -10.192  11.709  63.292  1.00  0.00    -0.406 NA 
HETATM   16  C   UNL     1     -10.804  12.474  64.230  1.00  0.00    -0.364 A  
ENDBRANCH   8  11
ENDBRANCH   6   7
ENDBRANCH   5   6
ENDBRANCH   4   5
TORSDOF 4
ENDMDL
MODEL       55
REMARK 921   NORMALIZED FREE ENERGY PREDICTED BY IDOCK:   -4.60 KCAL/MOL
REMARK 922        TOTAL FREE ENERGY PREDICTED BY IDOCK:   -5.90 KCAL/MOL
REMARK 923 INTER-LIGAND FREE ENERGY PREDICTED BY IDOCK:   -5.67 KCAL/MOL
REMARK 924 INTRA-LIGAND FREE ENERGY PREDICTED BY IDOCK:   -0.22 KCAL/MOL
REMARK 927      BINDING AFFINITY PREDICTED BY RF-SCORE:    0.00 PKD
ROOT
HETATM    1  O   UNL     1      -7.490   8.735  73.715  1.00  0.00    -0.393 OA 
HETATM    2  N   UNL     1      -8.604   8.358  73.355  1.00  0.00    -0.187 N  
HETATM    3  O   UNL     1      -9.338   7.492  73.835  1.00  0.00    -0.254 OA 
HETATM    4  O   UNL     1      -9.058   9.029  72.194  1.00  0.00    -0.372 OA 
ENDROOT
BRANCH   4   5
HETATM    5  C   UNL     1     -10.371   8.625  71.817  1.00  0.00    -0.316 C  
BRANCH   5   6
HETATM    6  C   UNL     1     -10.738   9.338  70.513  1.00  0.00    -0.257 C  
BRANCH   6   7
HETATM    7  N   UNL     1     -11.155  10.714  70.704  1.00  0.00    -0.405 N  
HETATM    8  C   UNL     1     -12.453  11.023  71.057  1.00  0.00    -0.409 C  
HETATM    9  H   UNL     1     -10.478  11.465  70.575  1.00  0.00     0.000 HD 
HETATM   10  O   UNL     1     -13.331  10.182  71.201  1.00  0.00    -0.376 OA 
BRANCH   8  11
HETATM   11  C   UNL     1     -12.767  12.457  71.224  1.00  0.00    -0.347 A  
HETATM   12  C   UNL     1     -13.590  12.936  72.244  1.00  0.00    -0.611 A  
HETATM   13  C   UNL     1     -13.855  14.302  72.316  1.00  0.00    -0.622 A  
HETATM   14  C   UNL     1     -13.286  15.136  71.365  1.00  0.00    -0.449 A  
HETATM   15  N   UNL     1     -12.486  14.702  70.368  1.00  0.00    -0.339 NA 
HETATM   16  C   UNL     1     -12.252  13.367  70.310  1.00  0.00    -0.335 A  
ENDBRANCH   8  11
ENDBRANCH   6   7
ENDBRANCH   5   6
ENDBRANCH   4   5
TORSDOF 4
ENDMDL
MODEL       56
REMARK 921   NORMALIZED FREE ENERGY PREDICTED BY IDOCK:   -4.54 KCAL/MOL
REMARK 922        TOTAL FREE ENERGY PREDICTED BY IDOCK:   -5.83 KCAL/MOL
REMARK 923 INTER-LIGAND FREE ENERGY PREDICTED BY IDOCK:   -5.56 KCAL/MOL
REMARK 924 INTRA-LIGAND FREE ENERGY PREDICTED BY IDOCK:   -0.27 KCAL/MOL
REMARK 927      BINDING AFFINITY PREDICTED BY RF-SCORE:    0.00 PKD
ROOT
HETATM    1  O   UNL     1     -13.629  13.311  72.504  1.00  0.00    -0.583 OA 
HETATM    2  N   UNL     1     -13.235  12.323  71.884  1.00  0.00    -0.451 N  
HETATM    3  O   UNL     1     -13.367  11.125  72.142  1.00  0.00    -0.452 OA 
HETATM    4  O   UNL     1     -12.500  12.665  70.724  1.00  0.00    -0.348 OA 
ENDROOT
BRANCH   4   5
HETATM    5  C   UNL     1     -12.095  11.516  69.985  1.00  0.00    -0.331 C  
BRANCH   5   6
HETATM    6  C   UNL     1     -11.816  11.946  68.543  1.00  0.00    -0.297 C  
BRANCH   6   7
HETATM    7  N   UNL     1     -11.354  13.316  68.427  1.00  0.00    -0.271 N  
HETATM    8  C   UNL     1     -11.691  14.093  67.336  1.00  0.00    -0.391 C  
HETATM    9  H   UNL     1     -10.770  13.711  69.163  1.00  0.00     0.000 HD 
HETATM   10  O   UNL     1     -12.362  13.682  66.398  1.00  0.00    -0.424 OA 
BRANCH   8  11
HETATM   11  C   UNL     1     -11.165  15.473  67.322  1.00  0.00    -0.226 A  
HETATM   12  C   UNL     1     -11.131  16.280  68.460  1.00  0.00    -0.368 A  
HETATM   13  C   UNL     1     -10.641  17.580  68.355  1.00  0.00    -0.339 A  
HETATM   14  C   UNL     1     -10.202  18.023  67.116  1.00  0.00    -0.360 A  
HETATM   15  N   UNL     1     -10.223  17.265  65.998  1.00  0.00    -0.475 NA 
HETATM   16  C   UNL     1     -10.716  16.008  66.122  1.00  0.00    -0.244 A  
ENDBRANCH   8  11
ENDBRANCH   6   7
ENDBRANCH   5   6
ENDBRANCH   4   5
TORSDOF 4
ENDMDL
MODEL       57
REMARK 921   NORMALIZED FREE ENERGY PREDICTED BY IDOCK:   -4.54 KCAL/MOL
REMARK 922        TOTAL FREE ENERGY PREDICTED BY IDOCK:   -5.83 KCAL/MOL
REMARK 923 INTER-LIGAND FREE ENERGY PREDICTED BY IDOCK:   -5.47 KCAL/MOL
REMARK 924 INTRA-LIGAND FREE ENERGY PREDICTED BY IDOCK:   -0.35 KCAL/MOL
REMARK 927      BINDING AFFINITY PREDICTED BY RF-SCORE:    0.00 PKD
ROOT
HETATM    1  O   UNL     1     -14.273   8.629  71.627  1.00  0.00    -0.412 OA 
HETATM    2  N   UNL     1     -13.234   9.281  71.726  1.00  0.00    -0.377 N  
HETATM    3  O   UNL     1     -13.034  10.369  72.270  1.00  0.00    -0.382 OA 
HETATM    4  O   UNL     1     -12.138   8.662  71.078  1.00  0.00    -0.287 OA 
ENDROOT
BRANCH   4   5
HETATM    5  C   UNL     1     -10.929   9.397  71.245  1.00  0.00    -0.370 C  
BRANCH   5   6
HETATM    6  C   UNL     1     -10.453   9.860  69.867  1.00  0.00    -0.269 C  
BRANCH   6   7
HETATM    7  N   UNL     1     -10.549  11.294  69.673  1.00  0.00    -0.454 N  
HETATM    8  C   UNL     1     -11.430  11.833  68.756  1.00  0.00    -0.291 C  
HETATM    9  H   UNL     1      -9.956  11.914  70.223  1.00  0.00     0.000 HD 
HETATM   10  O   UNL     1     -12.152  11.154  68.037  1.00  0.00    -0.635 OA 
BRANCH   8  11
HETATM   11  C   UNL     1     -11.443  13.305  68.642  1.00  0.00    -0.339 A  
HETATM   12  C   UNL     1     -11.068  13.975  67.476  1.00  0.00    -0.313 A  
HETATM   13  C   UNL     1     -11.086  15.369  67.460  1.00  0.00    -0.315 A  
HETATM   14  C   UNL     1     -11.479  16.038  68.610  1.00  0.00    -0.377 A  
HETATM   15  N   UNL     1     -11.846  15.416  69.752  1.00  0.00    -0.325 NA 
HETATM   16  C   UNL     1     -11.809  14.060  69.748  1.00  0.00    -0.324 A  
ENDBRANCH   8  11
ENDBRANCH   6   7
ENDBRANCH   5   6
ENDBRANCH   4   5
TORSDOF 4
ENDMDL
MODEL       58
REMARK 921   NORMALIZED FREE ENERGY PREDICTED BY IDOCK:   -4.54 KCAL/MOL
REMARK 922        TOTAL FREE ENERGY PREDICTED BY IDOCK:   -5.82 KCAL/MOL
REMARK 923 INTER-LIGAND FREE ENERGY PREDICTED BY IDOCK:   -5.61 KCAL/MOL
REMARK 924 INTRA-LIGAND FREE ENERGY PREDICTED BY IDOCK:   -0.21 KCAL/MOL
REMARK 927      BINDING AFFINITY PREDICTED BY RF-SCORE:    0.00 PKD
ROOT
HETATM    1  O   UNL     1      -9.144   8.858  72.354  1.00  0.00    -0.372 OA 
HETATM    2  N   UNL     1     -10.277   9.004  71.896  1.00  0.00    -0.335 N  
HETATM    3  O   UNL     1     -11.348   8.522  72.270  1.00  0.00    -0.350 OA 
HETATM    4  O   UNL     1     -10.299   9.835  70.750  1.00  0.00    -0.294 OA 
ENDROOT
BRANCH   4   5
HETATM    5  C   UNL     1     -11.621  10.041  70.260  1.00  0.00    -0.280 C  
BRANCH   5   6
HETATM    6  C   UNL     1     -11.715  11.469  69.718  1.00  0.00    -0.353 C  
BRANCH   6   7
HETATM    7  N   UNL     1     -11.888  11.532  68.280  1.00  0.00    -0.292 N  
HETATM    8  C   UNL     1     -11.098  12.354  67.501  1.00  0.00    -0.266 C  
HETATM    9  H   UNL     1     -12.607  10.960  67.836  1.00  0.00     0.000 HD 
HETATM   10  O   UNL     1     -10.236  13.092  67.961  1.00  0.00    -0.220 OA 
BRANCH   8  11
HETATM   11  C   UNL     1     -11.362  12.338  66.048  1.00  0.00    -0.398 A  
HETATM   12  C   UNL     1     -10.542  11.669  65.138  1.00  0.00    -0.343 A  
HETATM   13  C   UNL     1     -10.849  11.725  63.780  1.00  0.00    -0.490 A  
HETATM   14  C   UNL     1     -11.965  12.448  63.384  1.00  0.00    -0.504 A  
HETATM   15  N   UNL     1     -12.776  13.106  64.241  1.00  0.00    -0.674 NA 
HETATM   16  C   UNL     1     -12.450  13.047  65.556  1.00  0.00    -0.438 A  
ENDBRANCH   8  11
ENDBRANCH   6   7
ENDBRANCH   5   6
ENDBRANCH   4   5
TORSDOF 4
ENDMDL
MODEL       59
REMARK 921   NORMALIZED FREE ENERGY PREDICTED BY IDOCK:   -4.53 KCAL/MOL
REMARK 922        TOTAL FREE ENERGY PREDICTED BY IDOCK:   -5.81 KCAL/MOL
REMARK 923 INTER-LIGAND FREE ENERGY PREDICTED BY IDOCK:   -5.60 KCAL/MOL
REMARK 924 INTRA-LIGAND FREE ENERGY PREDICTED BY IDOCK:   -0.22 KCAL/MOL
REMARK 927      BINDING AFFINITY PREDICTED BY RF-SCORE:    0.00 PKD
ROOT
HETATM    1  O   UNL     1     -13.405  12.006  64.081  1.00  0.00    -0.725 OA 
HETATM    2  N   UNL     1     -12.496  12.826  63.958  1.00  0.00    -0.378 N  
HETATM    3  O   UNL     1     -11.486  12.785  63.252  1.00  0.00    -0.476 OA 
HETATM    4  O   UNL     1     -12.664  13.957  64.793  1.00  0.00    -0.650 OA 
ENDROOT
BRANCH   4   5
HETATM    5  C   UNL     1     -11.636  14.924  64.603  1.00  0.00    -0.395 C  
BRANCH   5   6
HETATM    6  C   UNL     1     -10.780  14.972  65.870  1.00  0.00    -0.331 C  
BRANCH   6   7
HETATM    7  N   UNL     1      -9.826  16.065  65.882  1.00  0.00    -0.328 N  
HETATM    8  C   UNL     1      -9.867  17.037  66.862  1.00  0.00    -0.271 C  
HETATM    9  H   UNL     1      -9.113  16.116  65.155  1.00  0.00     0.000 HD 
HETATM   10  O   UNL     1     -10.710  17.063  67.750  1.00  0.00    -0.347 OA 
BRANCH   8  11
HETATM   11  C   UNL     1      -8.848  18.102  66.776  1.00  0.00    -0.273 A  
HETATM   12  C   UNL     1      -9.106  19.425  67.139  1.00  0.00    -0.359 A  
HETATM   13  C   UNL     1      -8.095  20.374  67.004  1.00  0.00    -0.351 A  
HETATM   14  C   UNL     1      -6.865  19.964  66.512  1.00  0.00    -0.217 A  
HETATM   15  N   UNL     1      -6.586  18.692  66.153  1.00  0.00    -0.209 NA 
HETATM   16  C   UNL     1      -7.589  17.788  66.281  1.00  0.00    -0.287 A  
ENDBRANCH   8  11
ENDBRANCH   6   7
ENDBRANCH   5   6
ENDBRANCH   4   5
TORSDOF 4
ENDMDL
MODEL       60
REMARK 921   NORMALIZED FREE ENERGY PREDICTED BY IDOCK:   -4.52 KCAL/MOL
REMARK 922        TOTAL FREE ENERGY PREDICTED BY IDOCK:   -5.81 KCAL/MOL
REMARK 923 INTER-LIGAND FREE ENERGY PREDICTED BY IDOCK:   -5.62 KCAL/MOL
REMARK 924 INTRA-LIGAND FREE ENERGY PREDICTED BY IDOCK:   -0.19 KCAL/MOL
REMARK 927      BINDING AFFINITY PREDICTED BY RF-SCORE:    0.00 PKD
ROOT
HETATM    1  O   UNL     1     -13.219  13.175  64.836  1.00  0.00    -0.705 OA 
HETATM    2  N   UNL     1     -12.291  13.143  65.644  1.00  0.00    -0.462 N  
HETATM    3  O   UNL     1     -11.189  12.596  65.560  1.00  0.00    -0.286 OA 
HETATM    4  O   UNL     1     -12.591  13.827  66.846  1.00  0.00    -0.252 OA 
ENDROOT
BRANCH   4   5
HETATM    5  C   UNL     1     -11.491  13.832  67.752  1.00  0.00    -0.322 C  
BRANCH   5   6
HETATM    6  C   UNL     1     -12.038  13.686  69.174  1.00  0.00    -0.319 C  
BRANCH   6   7
HETATM    7  N   UNL     1     -11.478  12.559  69.896  1.00  0.00    -0.515 N  
HETATM    8  C   UNL     1     -11.764  11.260  69.525  1.00  0.00    -0.345 C  
HETATM    9  H   UNL     1     -10.863  12.730  70.691  1.00  0.00     0.000 HD 
HETATM   10  O   UNL     1     -12.516  10.974  68.602  1.00  0.00    -0.462 OA 
BRANCH   8  11
HETATM   11  C   UNL     1     -11.140  10.192  70.331  1.00  0.00    -0.393 A  
HETATM   12  C   UNL     1     -11.778   9.597  71.420  1.00  0.00    -0.478 A  
HETATM   13  C   UNL     1     -11.108   8.612  72.143  1.00  0.00    -0.434 A  
HETATM   14  C   UNL     1      -9.826   8.260  71.749  1.00  0.00    -0.218 A  
HETATM   15  N   UNL     1      -9.183   8.818  70.700  1.00  0.00    -0.179 NA 
HETATM   16  C   UNL     1      -9.850   9.783  70.019  1.00  0.00    -0.251 A  
ENDBRANCH   8  11
ENDBRANCH   6   7
ENDBRANCH   5   6
ENDBRANCH   4   5
TORSDOF 4
ENDMDL
MODEL       61
REMARK 921   NORMALIZED FREE ENERGY PREDICTED BY IDOCK:   -4.52 KCAL/MOL
REMARK 922        TOTAL FREE ENERGY PREDICTED BY IDOCK:   -5.81 KCAL/MOL
REMARK 923 INTER-LIGAND FREE ENERGY PREDICTED BY IDOCK:   -5.50 KCAL/MOL
REMARK 924 INTRA-LIGAND FREE ENERGY PREDICTED BY IDOCK:   -0.30 KCAL/MOL
REMARK 927      BINDING AFFINITY PREDICTED BY RF-SCORE:    0.00 PKD
ROOT
HETATM    1  O   UNL     1      -6.599  19.123  69.423  1.00  0.00    -0.298 OA 
HETATM    2  N   UNL     1      -7.167  18.084  69.090  1.00  0.00    -0.204 N  
HETATM    3  O   UNL     1      -6.913  16.915  69.387  1.00  0.00    -0.236 OA 
HETATM    4  O   UNL     1      -8.252  18.313  68.210  1.00  0.00    -0.281 OA 
ENDROOT
BRANCH   4   5
HETATM    5  C   UNL     1      -8.936  17.110  67.873  1.00  0.00    -0.230 C  
BRANCH   5   6
HETATM    6  C   UNL     1     -10.441  17.370  67.964  1.00  0.00    -0.383 C  
BRANCH   6   7
HETATM    7  N   UNL     1     -11.013  17.014  69.249  1.00  0.00    -0.308 N  
HETATM    8  C   UNL     1     -11.706  15.832  69.418  1.00  0.00    -0.370 C  
HETATM    9  H   UNL     1     -10.902  17.648  70.040  1.00  0.00     0.000 HD 
HETATM   10  O   UNL     1     -11.908  15.034  68.512  1.00  0.00    -0.331 OA 
BRANCH   8  11
HETATM   11  C   UNL     1     -12.245  15.572  70.768  1.00  0.00    -0.450 A  
HETATM   12  C   UNL     1     -13.439  14.882  70.984  1.00  0.00    -0.428 A  
HETATM   13  C   UNL     1     -13.890  14.700  72.290  1.00  0.00    -0.583 A  
HETATM   14  C   UNL     1     -13.130  15.216  73.329  1.00  0.00    -0.505 A  
HETATM   15  N   UNL     1     -11.972  15.888  73.151  1.00  0.00    -0.467 NA 
HETATM   16  C   UNL     1     -11.559  16.063  71.871  1.00  0.00    -0.431 A  
ENDBRANCH   8  11
ENDBRANCH   6   7
ENDBRANCH   5   6
ENDBRANCH   4   5
TORSDOF 4
ENDMDL
MODEL       62
REMARK 921   NORMALIZED FREE ENERGY PREDICTED BY IDOCK:   -4.49 KCAL/MOL
REMARK 922        TOTAL FREE ENERGY PREDICTED BY IDOCK:   -5.76 KCAL/MOL
REMARK 923 INTER-LIGAND FREE ENERGY PREDICTED BY IDOCK:   -5.35 KCAL/MOL
REMARK 924 INTRA-LIGAND FREE ENERGY PREDICTED BY IDOCK:   -0.41 KCAL/MOL
REMARK 927      BINDING AFFINITY PREDICTED BY RF-SCORE:    0.00 PKD
ROOT
HETATM    1  O   UNL     1     -12.645  15.690  63.837  1.00  0.00    -0.697 OA 
HETATM    2  N   UNL     1     -12.719  14.512  64.184  1.00  0.00    -0.022 N  
HETATM    3  O   UNL     1     -13.045  14.027  65.269  1.00  0.00    -0.782 OA 
HETATM    4  O   UNL     1     -12.335  13.616  63.157  1.00  0.00    -0.729 OA 
ENDROOT
BRANCH   4   5
HETATM    5  C   UNL     1     -12.477  12.254  63.550  1.00  0.00    -0.534 C  
BRANCH   5   6
HETATM    6  C   UNL     1     -11.081  11.677  63.798  1.00  0.00    -0.420 C  
BRANCH   6   7
HETATM    7  N   UNL     1     -10.189  12.595  64.480  1.00  0.00    -0.459 N  
HETATM    8  C   UNL     1     -10.107  12.620  65.858  1.00  0.00    -0.264 C  
HETATM    9  H   UNL     1      -9.612  13.233  63.932  1.00  0.00     0.000 HD 
HETATM   10  O   UNL     1     -10.788  11.908  66.586  1.00  0.00    -0.251 OA 
BRANCH   8  11
HETATM   11  C   UNL     1      -9.166  13.595  66.445  1.00  0.00    -0.142 A  
HETATM   12  C   UNL     1      -8.158  13.228  67.337  1.00  0.00    -0.179 A  
HETATM   13  C   UNL     1      -7.327  14.215  67.864  1.00  0.00    -0.163 A  
HETATM   14  C   UNL     1      -7.537  15.530  67.479  1.00  0.00    -0.175 A  
HETATM   15  N   UNL     1      -8.504  15.915  66.618  1.00  0.00    -0.261 NA 
HETATM   16  C   UNL     1      -9.308  14.939  66.127  1.00  0.00    -0.272 A  
ENDBRANCH   8  11
ENDBRANCH   6   7
ENDBRANCH   5   6
ENDBRANCH   4   5
TORSDOF 4
ENDMDL
MODEL       63
REMARK 921   NORMALIZED FREE ENERGY PREDICTED BY IDOCK:   -4.48 KCAL/MOL
REMARK 922        TOTAL FREE ENERGY PREDICTED BY IDOCK:   -5.76 KCAL/MOL
REMARK 923 INTER-LIGAND FREE ENERGY PREDICTED BY IDOCK:   -5.38 KCAL/MOL
REMARK 924 INTRA-LIGAND FREE ENERGY PREDICTED BY IDOCK:   -0.38 KCAL/MOL
REMARK 927      BINDING AFFINITY PREDICTED BY RF-SCORE:    0.00 PKD
ROOT
HETATM    1  O   UNL     1     -13.330  11.977  64.074  1.00  0.00    -0.703 OA 
HETATM    2  N   UNL     1     -12.354  12.727  64.083  1.00  0.00    -0.408 N  
HETATM    3  O   UNL     1     -11.222  12.555  63.628  1.00  0.00    -0.423 OA 
HETATM    4  O   UNL     1     -12.611  13.947  64.753  1.00  0.00    -0.603 OA 
ENDROOT
BRANCH   4   5
HETATM    5  C   UNL     1     -11.494  14.831  64.709  1.00  0.00    -0.410 C  
BRANCH   5   6
HETATM    6  C   UNL     1     -11.116  15.199  66.146  1.00  0.00    -0.311 C  
BRANCH   6   7
HETATM    7  N   UNL     1     -11.367  14.137  67.101  1.00  0.00    -0.317 N  
HETATM    8  C   UNL     1     -10.328  13.427  67.669  1.00  0.00    -0.238 C  
HETATM    9  H   UNL     1     -12.328  13.909  67.356  1.00  0.00     0.000 HD 
HETATM   10  O   UNL     1      -9.151  13.619  67.392  1.00  0.00    -0.202 OA 
BRANCH   8  11
HETATM   11  C   UNL     1     -10.700  12.368  68.627  1.00  0.00    -0.260 A  
HETATM   12  C   UNL     1     -10.035  11.142  68.694  1.00  0.00    -0.210 A  
HETATM   13  C   UNL     1     -10.466  10.186  69.612  1.00  0.00    -0.282 A  
HETATM   14  C   UNL     1     -11.544  10.493  70.428  1.00  0.00    -0.342 A  
HETATM   15  N   UNL     1     -12.207  11.669  70.386  1.00  0.00    -0.358 NA 
HETATM   16  C   UNL     1     -11.778  12.579  69.477  1.00  0.00    -0.309 A  
ENDBRANCH   8  11
ENDBRANCH   6   7
ENDBRANCH   5   6
ENDBRANCH   4   5
TORSDOF 4
ENDMDL
MODEL       64
REMARK 921   NORMALIZED FREE ENERGY PREDICTED BY IDOCK:   -4.48 KCAL/MOL
REMARK 922        TOTAL FREE ENERGY PREDICTED BY IDOCK:   -5.75 KCAL/MOL
REMARK 923 INTER-LIGAND FREE ENERGY PREDICTED BY IDOCK:   -5.38 KCAL/MOL
REMARK 924 INTRA-LIGAND FREE ENERGY PREDICTED BY IDOCK:   -0.37 KCAL/MOL
REMARK 927      BINDING AFFINITY PREDICTED BY RF-SCORE:    0.00 PKD
ROOT
HETATM    1  O   UNL     1      -8.384   8.624  73.016  1.00  0.00    -0.404 OA 
HETATM    2  N   UNL     1      -9.285   7.792  73.119  1.00  0.00    -0.214 N  
HETATM    3  O   UNL     1      -9.664   7.155  74.104  1.00  0.00    -0.274 OA 
HETATM    4  O   UNL     1      -9.939   7.542  71.888  1.00  0.00    -0.169 OA 
ENDROOT
BRANCH   4   5
HETATM    5  C   UNL     1     -11.016   6.620  72.028  1.00  0.00    -0.242 C  
BRANCH   5   6
HETATM    6  C   UNL     1     -12.229   7.181  71.284  1.00  0.00    -0.365 C  
BRANCH   6   7
HETATM    7  N   UNL     1     -12.108   8.589  70.958  1.00  0.00    -0.418 N  
HETATM    8  C   UNL     1     -12.832   9.545  71.643  1.00  0.00    -0.393 C  
HETATM    9  H   UNL     1     -11.477   8.877  70.211  1.00  0.00     0.000 HD 
HETATM   10  O   UNL     1     -13.631   9.276  72.531  1.00  0.00    -0.467 OA 
BRANCH   8  11
HETATM   11  C   UNL     1     -12.630  10.947  71.227  1.00  0.00    -0.526 A  
HETATM   12  C   UNL     1     -11.861  11.303  70.118  1.00  0.00    -0.449 A  
HETATM   13  C   UNL     1     -11.701  12.653  69.809  1.00  0.00    -0.354 A  
HETATM   14  C   UNL     1     -12.316  13.594  70.620  1.00  0.00    -0.368 A  
HETATM   15  N   UNL     1     -13.066  13.280  71.699  1.00  0.00    -0.384 NA 
HETATM   16  C   UNL     1     -13.197  11.961  71.988  1.00  0.00    -0.356 A  
ENDBRANCH   8  11
ENDBRANCH   6   7
ENDBRANCH   5   6
ENDBRANCH   4   5
TORSDOF 4
ENDMDL
MODEL       65
REMARK 921   NORMALIZED FREE ENERGY PREDICTED BY IDOCK:   -4.47 KCAL/MOL
REMARK 922        TOTAL FREE ENERGY PREDICTED BY IDOCK:   -5.74 KCAL/MOL
REMARK 923 INTER-LIGAND FREE ENERGY PREDICTED BY IDOCK:   -5.47 KCAL/MOL
REMARK 924 INTRA-LIGAND FREE ENERGY PREDICTED BY IDOCK:   -0.27 KCAL/MOL
REMARK 927      BINDING AFFINITY PREDICTED BY RF-SCORE:    0.00 PKD
ROOT
HETATM    1  O   UNL     1     -13.013  14.783  71.091  1.00  0.00    -0.320 OA 
HETATM    2  N   UNL     1     -13.340  13.733  71.643  1.00  0.00    -0.357 N  
HETATM    3  O   UNL     1     -14.198  13.528  72.504  1.00  0.00    -0.734 OA 
HETATM    4  O   UNL     1     -12.567  12.627  71.215  1.00  0.00    -0.350 OA 
ENDROOT
BRANCH   4   5
HETATM    5  C   UNL     1     -12.989  11.408  71.819  1.00  0.00    -0.414 C  
BRANCH   5   6
HETATM    6  C   UNL     1     -12.731  10.267  70.833  1.00  0.00    -0.370 C  
BRANCH   6   7
HETATM    7  N   UNL     1     -12.467  10.721  69.480  1.00  0.00    -0.484 N  
HETATM    8  C   UNL     1     -11.195  10.671  68.947  1.00  0.00    -0.275 C  
HETATM    9  H   UNL     1     -13.234  11.083  68.915  1.00  0.00     0.000 HD 
HETATM   10  O   UNL     1     -10.217  10.279  69.571  1.00  0.00    -0.216 OA 
BRANCH   8  11
HETATM   11  C   UNL     1     -11.042  11.159  67.561  1.00  0.00    -0.353 A  
HETATM   12  C   UNL     1     -10.256  10.504  66.612  1.00  0.00    -0.289 A  
HETATM   13  C   UNL     1     -10.146  11.045  65.333  1.00  0.00    -0.326 A  
HETATM   14  C   UNL     1     -10.825  12.221  65.052  1.00  0.00    -0.298 A  
HETATM   15  N   UNL     1     -11.591  12.878  65.950  1.00  0.00    -0.356 NA 
HETATM   16  C   UNL     1     -11.674  12.339  67.192  1.00  0.00    -0.326 A  
ENDBRANCH   8  11
ENDBRANCH   6   7
ENDBRANCH   5   6
ENDBRANCH   4   5
TORSDOF 4
ENDMDL
MODEL       66
REMARK 921   NORMALIZED FREE ENERGY PREDICTED BY IDOCK:   -4.46 KCAL/MOL
REMARK 922        TOTAL FREE ENERGY PREDICTED BY IDOCK:   -5.72 KCAL/MOL
REMARK 923 INTER-LIGAND FREE ENERGY PREDICTED BY IDOCK:   -5.46 KCAL/MOL
REMARK 924 INTRA-LIGAND FREE ENERGY PREDICTED BY IDOCK:   -0.26 KCAL/MOL
REMARK 927      BINDING AFFINITY PREDICTED BY RF-SCORE:    0.00 PKD
ROOT
HETATM    1  O   UNL     1     -11.711  10.389  69.538  1.00  0.00    -0.241 OA 
HETATM    2  N   UNL     1     -11.904  11.585  69.321  1.00  0.00    -0.329 N  
HETATM    3  O   UNL     1     -12.103  12.510  70.112  1.00  0.00    -0.340 OA 
HETATM    4  O   UNL     1     -11.921  11.892  67.939  1.00  0.00    -0.556 OA 
ENDROOT
BRANCH   4   5
HETATM    5  C   UNL     1     -12.091  13.287  67.700  1.00  0.00    -0.249 C  
BRANCH   5   6
HETATM    6  C   UNL     1     -10.773  13.846  67.161  1.00  0.00    -0.282 C  
BRANCH   6   7
HETATM    7  N   UNL     1     -10.589  15.259  67.434  1.00  0.00    -0.276 N  
HETATM    8  C   UNL     1     -10.526  16.181  66.409  1.00  0.00    -0.301 C  
HETATM    9  H   UNL     1     -10.506  15.575  68.400  1.00  0.00     0.000 HD 
HETATM   10  O   UNL     1     -10.587  15.877  65.225  1.00  0.00    -0.394 OA 
BRANCH   8  11
HETATM   11  C   UNL     1     -10.337  17.592  66.803  1.00  0.00    -0.314 A  
HETATM   12  C   UNL     1     -10.420  18.647  65.893  1.00  0.00    -0.395 A  
HETATM   13  C   UNL     1     -10.204  19.949  66.343  1.00  0.00    -0.617 A  
HETATM   14  C   UNL     1      -9.914  20.144  67.685  1.00  0.00    -0.420 A  
HETATM   15  N   UNL     1      -9.826  19.143  68.588  1.00  0.00    -0.400 NA 
HETATM   16  C   UNL     1     -10.028  17.884  68.124  1.00  0.00    -0.350 A  
ENDBRANCH   8  11
ENDBRANCH   6   7
ENDBRANCH   5   6
ENDBRANCH   4   5
TORSDOF 4
ENDMDL
MODEL       67
REMARK 921   NORMALIZED FREE ENERGY PREDICTED BY IDOCK:   -4.44 KCAL/MOL
REMARK 922        TOTAL FREE ENERGY PREDICTED BY IDOCK:   -5.71 KCAL/MOL
REMARK 923 INTER-LIGAND FREE ENERGY PREDICTED BY IDOCK:   -5.47 KCAL/MOL
REMARK 924 INTRA-LIGAND FREE ENERGY PREDICTED BY IDOCK:   -0.23 KCAL/MOL
REMARK 927      BINDING AFFINITY PREDICTED BY RF-SCORE:    0.00 PKD
ROOT
HETATM    1  O   UNL     1     -11.713   6.603  71.273  1.00  0.00    -0.303 OA 
HETATM    2  N   UNL     1     -11.296   6.859  70.145  1.00  0.00    -0.313 N  
HETATM    3  O   UNL     1     -11.350   6.189  69.111  1.00  0.00    -0.399 OA 
HETATM    4  O   UNL     1     -10.637   8.111  70.078  1.00  0.00    -0.231 OA 
ENDROOT
BRANCH   4   5
HETATM    5  C   UNL     1     -10.207   8.423  68.756  1.00  0.00    -0.207 C  
BRANCH   5   6
HETATM    6  C   UNL     1      -9.853   9.911  68.705  1.00  0.00    -0.158 C  
BRANCH   6   7
HETATM    7  N   UNL     1     -10.133  10.528  67.423  1.00  0.00    -0.188 N  
HETATM    8  C   UNL     1     -11.267  11.292  67.231  1.00  0.00    -0.296 C  
HETATM    9  H   UNL     1      -9.482  10.395  66.650  1.00  0.00     0.000 HD 
HETATM   10  O   UNL     1     -12.111  11.473  68.099  1.00  0.00    -0.604 OA 
BRANCH   8  11
HETATM   11  C   UNL     1     -11.452  11.872  65.886  1.00  0.00    -0.340 A  
HETATM   12  C   UNL     1     -10.799  11.379  64.755  1.00  0.00    -0.339 A  
HETATM   13  C   UNL     1     -11.010  12.000  63.525  1.00  0.00    -0.514 A  
HETATM   14  C   UNL     1     -11.866  13.090  63.475  1.00  0.00    -0.516 A  
HETATM   15  N   UNL     1     -12.511  13.589  64.551  1.00  0.00    -0.610 NA 
HETATM   16  C   UNL     1     -12.281  12.976  65.739  1.00  0.00    -0.453 A  
ENDBRANCH   8  11
ENDBRANCH   6   7
ENDBRANCH   5   6
ENDBRANCH   4   5
TORSDOF 4
ENDMDL
MODEL       68
REMARK 921   NORMALIZED FREE ENERGY PREDICTED BY IDOCK:   -4.42 KCAL/MOL
REMARK 922        TOTAL FREE ENERGY PREDICTED BY IDOCK:   -5.68 KCAL/MOL
REMARK 923 INTER-LIGAND FREE ENERGY PREDICTED BY IDOCK:   -5.45 KCAL/MOL
REMARK 924 INTRA-LIGAND FREE ENERGY PREDICTED BY IDOCK:   -0.23 KCAL/MOL
REMARK 927      BINDING AFFINITY PREDICTED BY RF-SCORE:    0.00 PKD
ROOT
HETATM    1  O   UNL     1     -10.402  18.477  65.968  1.00  0.00    -0.464 OA 
HETATM    2  N   UNL     1     -10.740  17.355  65.591  1.00  0.00    -0.228 N  
HETATM    3  O   UNL     1     -11.262  17.002  64.532  1.00  0.00    -1.091 OA 
HETATM    4  O   UNL     1     -10.498  16.357  66.565  1.00  0.00    -0.302 OA 
ENDROOT
BRANCH   4   5
HETATM    5  C   UNL     1     -10.841  15.055  66.098  1.00  0.00    -0.329 C  
BRANCH   5   6
HETATM    6  C   UNL     1     -11.848  14.444  67.075  1.00  0.00    -0.412 C  
BRANCH   6   7
HETATM    7  N   UNL     1     -11.261  13.471  67.977  1.00  0.00    -0.259 N  
HETATM    8  C   UNL     1     -11.409  12.116  67.760  1.00  0.00    -0.307 C  
HETATM    9  H   UNL     1     -10.729  13.794  68.785  1.00  0.00     0.000 HD 
HETATM   10  O   UNL     1     -12.057  11.649  66.832  1.00  0.00    -0.512 OA 
BRANCH   8  11
HETATM   11  C   UNL     1     -10.770  11.217  68.742  1.00  0.00    -0.240 A  
HETATM   12  C   UNL     1      -9.437  10.816  68.643  1.00  0.00    -0.188 A  
HETATM   13  C   UNL     1      -8.918   9.946  69.600  1.00  0.00    -0.232 A  
HETATM   14  C   UNL     1      -9.752   9.510  70.619  1.00  0.00    -0.245 A  
HETATM   15  N   UNL     1     -11.045   9.880  70.740  1.00  0.00    -0.327 NA 
HETATM   16  C   UNL     1     -11.532  10.718  69.791  1.00  0.00    -0.311 A  
ENDBRANCH   8  11
ENDBRANCH   6   7
ENDBRANCH   5   6
ENDBRANCH   4   5
TORSDOF 4
ENDMDL
MODEL       69
REMARK 921   NORMALIZED FREE ENERGY PREDICTED BY IDOCK:   -4.42 KCAL/MOL
REMARK 922        TOTAL FREE ENERGY PREDICTED BY IDOCK:   -5.67 KCAL/MOL
REMARK 923 INTER-LIGAND FREE ENERGY PREDICTED BY IDOCK:   -5.48 KCAL/MOL
REMARK 924 INTRA-LIGAND FREE ENERGY PREDICTED BY IDOCK:   -0.19 KCAL/MOL
REMARK 927      BINDING AFFINITY PREDICTED BY RF-SCORE:    0.00 PKD
ROOT
HETATM    1  O   UNL     1     -10.857   8.469  72.409  1.00  0.00    -0.346 OA 
HETATM    2  N   UNL     1     -11.773   9.050  71.830  1.00  0.00    -0.347 N  
HETATM    3  O   UNL     1     -12.988   8.840  71.863  1.00  0.00    -0.331 OA 
HETATM    4  O   UNL     1     -11.313  10.090  70.988  1.00  0.00    -0.347 OA 
ENDROOT
BRANCH   4   5
HETATM    5  C   UNL     1     -12.385  10.793  70.364  1.00  0.00    -0.353 C  
BRANCH   5   6
HETATM    6  C   UNL     1     -11.936  12.234  70.117  1.00  0.00    -0.298 C  
BRANCH   6   7
HETATM    7  N   UNL     1     -11.930  12.606  68.715  1.00  0.00    -0.289 N  
HETATM    8  C   UNL     1     -11.883  13.930  68.327  1.00  0.00    -0.376 C  
HETATM    9  H   UNL     1     -11.961  11.876  68.003  1.00  0.00     0.000 HD 
HETATM   10  O   UNL     1     -11.874  14.863  69.120  1.00  0.00    -0.299 OA 
BRANCH   8  11
HETATM   11  C   UNL     1     -11.882  14.192  66.874  1.00  0.00    -0.458 A  
HETATM   12  C   UNL     1     -11.053  15.145  66.279  1.00  0.00    -0.309 A  
HETATM   13  C   UNL     1     -11.133  15.347  64.902  1.00  0.00    -0.435 A  
HETATM   14  C   UNL     1     -12.037  14.588  64.174  1.00  0.00    -0.350 A  
HETATM   15  N   UNL     1     -12.851  13.661  64.722  1.00  0.00    -0.701 NA 
HETATM   16  C   UNL     1     -12.765  13.490  66.065  1.00  0.00    -0.245 A  
ENDBRANCH   8  11
ENDBRANCH   6   7
ENDBRANCH   5   6
ENDBRANCH   4   5
TORSDOF 4
ENDMDL
MODEL       70
REMARK 921   NORMALIZED FREE ENERGY PREDICTED BY IDOCK:   -4.40 KCAL/MOL
REMARK 922        TOTAL FREE ENERGY PREDICTED BY IDOCK:   -5.65 KCAL/MOL
REMARK 923 INTER-LIGAND FREE ENERGY PREDICTED BY IDOCK:   -5.40 KCAL/MOL
REMARK 924 INTRA-LIGAND FREE ENERGY PREDICTED BY IDOCK:   -0.25 KCAL/MOL
REMARK 927      BINDING AFFINITY PREDICTED BY RF-SCORE:    0.00 PKD
ROOT
HETATM    1  O   UNL     1     -10.801   6.292  66.772  1.00  0.00    -0.326 OA 
HETATM    2  N   UNL     1     -10.751   5.886  67.933  1.00  0.00    -0.263 N  
HETATM    3  O   UNL     1     -10.194   4.890  68.398  1.00  0.00    -0.121 OA 
HETATM    4  O   UNL     1     -11.482   6.704  68.828  1.00  0.00    -0.172 OA 
ENDROOT
BRANCH   4   5
HETATM    5  C   UNL     1     -11.373   6.258  70.176  1.00  0.00    -0.406 C  
BRANCH   5   6
HETATM    6  C   UNL     1     -12.278   7.132  71.047  1.00  0.00    -0.343 C  
BRANCH   6   7
HETATM    7  N   UNL     1     -12.157   8.549  70.767  1.00  0.00    -0.483 N  
HETATM    8  C   UNL     1     -12.809   9.488  71.540  1.00  0.00    -0.377 C  
HETATM    9  H   UNL     1     -11.580   8.857  69.984  1.00  0.00     0.000 HD 
HETATM   10  O   UNL     1     -13.543   9.197  72.476  1.00  0.00    -0.470 OA 
BRANCH   8  11
HETATM   11  C   UNL     1     -12.615  10.903  71.164  1.00  0.00    -0.532 A  
HETATM   12  C   UNL     1     -13.115  11.962  71.922  1.00  0.00    -0.474 A  
HETATM   13  C   UNL     1     -12.908  13.268  71.483  1.00  0.00    -0.419 A  
HETATM   14  C   UNL     1     -12.208  13.464  70.301  1.00  0.00    -0.335 A  
HETATM   15  N   UNL     1     -11.713  12.460  69.546  1.00  0.00    -0.315 NA 
HETATM   16  C   UNL     1     -11.938  11.197  69.988  1.00  0.00    -0.367 A  
ENDBRANCH   8  11
ENDBRANCH   6   7
ENDBRANCH   5   6
ENDBRANCH   4   5
TORSDOF 4
ENDMDL
MODEL       71
REMARK 921   NORMALIZED FREE ENERGY PREDICTED BY IDOCK:   -4.38 KCAL/MOL
REMARK 922        TOTAL FREE ENERGY PREDICTED BY IDOCK:   -5.63 KCAL/MOL
REMARK 923 INTER-LIGAND FREE ENERGY PREDICTED BY IDOCK:   -5.40 KCAL/MOL
REMARK 924 INTRA-LIGAND FREE ENERGY PREDICTED BY IDOCK:   -0.23 KCAL/MOL
REMARK 927      BINDING AFFINITY PREDICTED BY RF-SCORE:    0.00 PKD
ROOT
HETATM    1  O   UNL     1     -11.228  16.866  64.119  1.00  0.00    -1.176 OA 
HETATM    2  N   UNL     1     -10.925  16.122  65.051  1.00  0.00    -0.398 N  
HETATM    3  O   UNL     1     -10.332  16.374  66.101  1.00  0.00    -0.321 OA 
HETATM    4  O   UNL     1     -11.312  14.780  64.824  1.00  0.00    -0.384 OA 
ENDROOT
BRANCH   4   5
HETATM    5  C   UNL     1     -11.006  13.937  65.932  1.00  0.00    -0.284 C  
BRANCH   5   6
HETATM    6  C   UNL     1     -11.864  12.674  65.826  1.00  0.00    -0.444 C  
BRANCH   6   7
HETATM    7  N   UNL     1     -11.188  11.476  66.284  1.00  0.00    -0.271 N  
HETATM    8  C   UNL     1     -11.403  10.975  67.553  1.00  0.00    -0.257 C  
HETATM    9  H   UNL     1     -10.542  10.995  65.659  1.00  0.00     0.000 HD 
HETATM   10  O   UNL     1     -12.139  11.511  68.372  1.00  0.00    -0.556 OA 
BRANCH   8  11
HETATM   11  C   UNL     1     -10.662   9.750  67.913  1.00  0.00    -0.312 A  
HETATM   12  C   UNL     1      -9.953   8.994  66.978  1.00  0.00    -0.295 A  
HETATM   13  C   UNL     1      -9.299   7.837  67.397  1.00  0.00    -0.168 A  
HETATM   14  C   UNL     1      -9.381   7.480  68.735  1.00  0.00    -0.147 A  
HETATM   15  N   UNL     1     -10.059   8.191  69.661  1.00  0.00    -0.194 NA 
HETATM   16  C   UNL     1     -10.697   9.307  69.228  1.00  0.00    -0.196 A  
ENDBRANCH   8  11
ENDBRANCH   6   7
ENDBRANCH   5   6
ENDBRANCH   4   5
TORSDOF 4
ENDMDL
MODEL       72
REMARK 921   NORMALIZED FREE ENERGY PREDICTED BY IDOCK:   -4.38 KCAL/MOL
REMARK 922        TOTAL FREE ENERGY PREDICTED BY IDOCK:   -5.63 KCAL/MOL
REMARK 923 INTER-LIGAND FREE ENERGY PREDICTED BY IDOCK:   -5.41 KCAL/MOL
REMARK 924 INTRA-LIGAND FREE ENERGY PREDICTED BY IDOCK:   -0.22 KCAL/MOL
REMARK 927      BINDING AFFINITY PREDICTED BY RF-SCORE:    0.00 PKD
ROOT
HETATM    1  O   UNL     1     -10.469  18.703  65.695  1.00  0.00    -0.603 OA 
HETATM    2  N   UNL     1     -10.475  17.600  66.241  1.00  0.00    -0.330 N  
HETATM    3  O   UNL     1     -10.565  17.311  67.436  1.00  0.00    -0.344 OA 
HETATM    4  O   UNL     1     -10.327  16.535  65.320  1.00  0.00    -0.596 OA 
ENDROOT
BRANCH   4   5
HETATM    5  C   UNL     1     -10.391  15.261  65.955  1.00  0.00    -0.312 C  
BRANCH   5   6
HETATM    6  C   UNL     1     -10.556  14.192  64.873  1.00  0.00    -0.430 C  
BRANCH   6   7
HETATM    7  N   UNL     1     -10.116  12.874  65.290  1.00  0.00    -0.401 N  
HETATM    8  C   UNL     1     -10.999  11.971  65.847  1.00  0.00    -0.298 C  
HETATM    9  H   UNL     1      -9.138  12.612  65.170  1.00  0.00     0.000 HD 
HETATM   10  O   UNL     1     -12.180  12.222  66.052  1.00  0.00    -0.646 OA 
BRANCH   8  11
HETATM   11  C   UNL     1     -10.442  10.659  66.235  1.00  0.00    -0.268 A  
HETATM   12  C   UNL     1     -10.854   9.972  67.378  1.00  0.00    -0.313 A  
HETATM   13  C   UNL     1     -10.260   8.750  67.686  1.00  0.00    -0.298 A  
HETATM   14  C   UNL     1      -9.276   8.262  66.838  1.00  0.00    -0.158 A  
HETATM   15  N   UNL     1      -8.856   8.904  65.727  1.00  0.00    -0.174 NA 
HETATM   16  C   UNL     1      -9.441  10.098  65.454  1.00  0.00    -0.239 A  
ENDBRANCH   8  11
ENDBRANCH   6   7
ENDBRANCH   5   6
ENDBRANCH   4   5
TORSDOF 4
ENDMDL
MODEL       73
REMARK 921   NORMALIZED FREE ENERGY PREDICTED BY IDOCK:   -4.36 KCAL/MOL
REMARK 922        TOTAL FREE ENERGY PREDICTED BY IDOCK:   -5.60 KCAL/MOL
REMARK 923 INTER-LIGAND FREE ENERGY PREDICTED BY IDOCK:   -5.22 KCAL/MOL
REMARK 924 INTRA-LIGAND FREE ENERGY PREDICTED BY IDOCK:   -0.38 KCAL/MOL
REMARK 927      BINDING AFFINITY PREDICTED BY RF-SCORE:    0.00 PKD
ROOT
HETATM    1  O   UNL     1     -10.116   9.124  65.980  1.00  0.00    -0.284 OA 
HETATM    2  N   UNL     1      -9.678  10.098  65.369  1.00  0.00    -0.270 N  
HETATM    3  O   UNL     1      -8.651  10.753  65.560  1.00  0.00    -0.182 OA 
HETATM    4  O   UNL     1     -10.528  10.509  64.315  1.00  0.00    -0.287 OA 
ENDROOT
BRANCH   4   5
HETATM    5  C   UNL     1      -9.986  11.602  63.580  1.00  0.00    -0.405 C  
BRANCH   5   6
HETATM    6  C   UNL     1     -10.809  12.852  63.897  1.00  0.00    -0.367 C  
BRANCH   6   7
HETATM    7  N   UNL     1     -10.829  13.188  65.308  1.00  0.00    -0.290 N  
HETATM    8  C   UNL     1     -11.971  13.680  65.908  1.00  0.00    -0.405 C  
HETATM    9  H   UNL     1      -9.985  13.060  65.865  1.00  0.00     0.000 HD 
HETATM   10  O   UNL     1     -13.014  13.890  65.302  1.00  0.00    -0.747 OA 
BRANCH   8  11
HETATM   11  C   UNL     1     -11.878  13.989  67.349  1.00  0.00    -0.445 A  
HETATM   12  C   UNL     1     -11.641  15.277  67.831  1.00  0.00    -0.301 A  
HETATM   13  C   UNL     1     -11.542  15.479  69.207  1.00  0.00    -0.369 A  
HETATM   14  C   UNL     1     -11.684  14.384  70.047  1.00  0.00    -0.298 A  
HETATM   15  N   UNL     1     -11.913  13.127  69.610  1.00  0.00    -0.317 NA 
HETATM   16  C   UNL     1     -11.993  12.953  68.267  1.00  0.00    -0.254 A  
ENDBRANCH   8  11
ENDBRANCH   6   7
ENDBRANCH   5   6
ENDBRANCH   4   5
TORSDOF 4
ENDMDL
MODEL       74
REMARK 921   NORMALIZED FREE ENERGY PREDICTED BY IDOCK:   -4.34 KCAL/MOL
REMARK 922        TOTAL FREE ENERGY PREDICTED BY IDOCK:   -5.58 KCAL/MOL
REMARK 923 INTER-LIGAND FREE ENERGY PREDICTED BY IDOCK:   -5.04 KCAL/MOL
REMARK 924 INTRA-LIGAND FREE ENERGY PREDICTED BY IDOCK:   -0.54 KCAL/MOL
REMARK 927      BINDING AFFINITY PREDICTED BY RF-SCORE:    0.00 PKD
ROOT
HETATM    1  O   UNL     1     -10.084  10.530  64.836  1.00  0.00    -0.309 OA 
HETATM    2  N   UNL     1      -9.613  11.019  65.862  1.00  0.00    -0.208 N  
HETATM    3  O   UNL     1      -9.012  10.477  66.792  1.00  0.00    -0.136 OA 
HETATM    4  O   UNL     1      -9.844  12.412  65.959  1.00  0.00    -0.251 OA 
ENDROOT
BRANCH   4   5
HETATM    5  C   UNL     1      -9.247  12.978  67.122  1.00  0.00    -0.226 C  
BRANCH   5   6
HETATM    6  C   UNL     1     -10.363  13.386  68.086  1.00  0.00    -0.247 C  
BRANCH   6   7
HETATM    7  N   UNL     1     -10.597  12.419  69.141  1.00  0.00    -0.427 N  
HETATM    8  C   UNL     1     -11.512  11.397  68.984  1.00  0.00    -0.300 C  
HETATM    9  H   UNL     1     -10.077  12.496  70.015  1.00  0.00     0.000 HD 
HETATM   10  O   UNL     1     -12.196  11.255  67.978  1.00  0.00    -0.621 OA 
BRANCH   8  11
HETATM   11  C   UNL     1     -11.669  10.471  70.123  1.00  0.00    -0.410 A  
HETATM   12  C   UNL     1     -12.840  10.395  70.878  1.00  0.00    -0.482 A  
HETATM   13  C   UNL     1     -12.897   9.511  71.954  1.00  0.00    -0.508 A  
HETATM   14  C   UNL     1     -11.780   8.737  72.232  1.00  0.00    -0.328 A  
HETATM   15  N   UNL     1     -10.634   8.789  71.520  1.00  0.00    -0.281 NA 
HETATM   16  C   UNL     1     -10.597   9.666  70.486  1.00  0.00    -0.306 A  
ENDBRANCH   8  11
ENDBRANCH   6   7
ENDBRANCH   5   6
ENDBRANCH   4   5
TORSDOF 4
ENDMDL
MODEL       75
REMARK 921   NORMALIZED FREE ENERGY PREDICTED BY IDOCK:   -4.31 KCAL/MOL
REMARK 922        TOTAL FREE ENERGY PREDICTED BY IDOCK:   -5.55 KCAL/MOL
REMARK 923 INTER-LIGAND FREE ENERGY PREDICTED BY IDOCK:   -5.33 KCAL/MOL
REMARK 924 INTRA-LIGAND FREE ENERGY PREDICTED BY IDOCK:   -0.22 KCAL/MOL
REMARK 927      BINDING AFFINITY PREDICTED BY RF-SCORE:    0.00 PKD
ROOT
HETATM    1  O   UNL     1      -7.916  15.685  67.934  1.00  0.00    -0.135 OA 
HETATM    2  N   UNL     1      -8.951  15.941  68.548  1.00  0.00    -0.191 N  
HETATM    3  O   UNL     1      -9.451  17.031  68.833  1.00  0.00    -0.266 OA 
HETATM    4  O   UNL     1      -9.619  14.778  69.000  1.00  0.00    -0.213 OA 
ENDROOT
BRANCH   4   5
HETATM    5  C   UNL     1     -10.844  15.083  69.661  1.00  0.00    -0.271 C  
BRANCH   5   6
HETATM    6  C   UNL     1     -11.861  13.993  69.317  1.00  0.00    -0.344 C  
BRANCH   6   7
HETATM    7  N   UNL     1     -11.770  12.826  70.173  1.00  0.00    -0.535 N  
HETATM    8  C   UNL     1     -11.907  11.551  69.660  1.00  0.00    -0.354 C  
HETATM    9  H   UNL     1     -11.603  12.949  71.171  1.00  0.00     0.000 HD 
HETATM   10  O   UNL     1     -12.140  11.322  68.480  1.00  0.00    -0.573 OA 
BRANCH   8  11
HETATM   11  C   UNL     1     -11.797  10.437  70.623  1.00  0.00    -0.445 A  
HETATM   12  C   UNL     1     -10.619   9.713  70.809  1.00  0.00    -0.392 A  
HETATM   13  C   UNL     1     -10.607   8.660  71.721  1.00  0.00    -0.395 A  
HETATM   14  C   UNL     1     -11.774   8.372  72.413  1.00  0.00    -0.382 A  
HETATM   15  N   UNL     1     -12.929   9.054  72.254  1.00  0.00    -0.413 NA 
HETATM   16  C   UNL     1     -12.920  10.067  71.351  1.00  0.00    -0.418 A  
ENDBRANCH   8  11
ENDBRANCH   6   7
ENDBRANCH   5   6
ENDBRANCH   4   5
TORSDOF 4
ENDMDL
MODEL       76
REMARK 921   NORMALIZED FREE ENERGY PREDICTED BY IDOCK:   -4.30 KCAL/MOL
REMARK 922        TOTAL FREE ENERGY PREDICTED BY IDOCK:   -5.54 KCAL/MOL
REMARK 923 INTER-LIGAND FREE ENERGY PREDICTED BY IDOCK:   -5.35 KCAL/MOL
REMARK 924 INTRA-LIGAND FREE ENERGY PREDICTED BY IDOCK:   -0.18 KCAL/MOL
REMARK 927      BINDING AFFINITY PREDICTED BY RF-SCORE:    0.00 PKD
ROOT
HETATM    1  O   UNL     1     -14.327   7.323  71.687  1.00  0.00    -0.437 OA 
HETATM    2  N   UNL     1     -13.367   8.082  71.562  1.00  0.00    -0.316 N  
HETATM    3  O   UNL     1     -12.199   7.834  71.253  1.00  0.00    -0.307 OA 
HETATM    4  O   UNL     1     -13.693   9.428  71.853  1.00  0.00    -0.389 OA 
ENDROOT
BRANCH   4   5
HETATM    5  C   UNL     1     -12.590  10.306  71.651  1.00  0.00    -0.432 C  
BRANCH   5   6
HETATM    6  C   UNL     1     -13.098  11.747  71.740  1.00  0.00    -0.375 C  
BRANCH   6   7
HETATM    7  N   UNL     1     -12.416  12.657  70.841  1.00  0.00    -0.343 N  
HETATM    8  C   UNL     1     -12.720  14.004  70.823  1.00  0.00    -0.326 C  
HETATM    9  H   UNL     1     -11.700  12.297  70.211  1.00  0.00     0.000 HD 
HETATM   10  O   UNL     1     -13.587  14.508  71.525  1.00  0.00    -0.356 OA 
BRANCH   8  11
HETATM   11  C   UNL     1     -11.963  14.838  69.868  1.00  0.00    -0.378 A  
HETATM   12  C   UNL     1     -11.331  16.026  70.238  1.00  0.00    -0.391 A  
HETATM   13  C   UNL     1     -10.657  16.766  69.268  1.00  0.00    -0.336 A  
HETATM   14  C   UNL     1     -10.643  16.290  67.966  1.00  0.00    -0.308 A  
HETATM   15  N   UNL     1     -11.246  15.146  67.578  1.00  0.00    -0.327 NA 
HETATM   16  C   UNL     1     -11.905  14.448  68.536  1.00  0.00    -0.334 A  
ENDBRANCH   8  11
ENDBRANCH   6   7
ENDBRANCH   5   6
ENDBRANCH   4   5
TORSDOF 4
ENDMDL
MODEL       77
REMARK 921   NORMALIZED FREE ENERGY PREDICTED BY IDOCK:   -4.30 KCAL/MOL
REMARK 922        TOTAL FREE ENERGY PREDICTED BY IDOCK:   -5.53 KCAL/MOL
REMARK 923 INTER-LIGAND FREE ENERGY PREDICTED BY IDOCK:   -5.30 KCAL/MOL
REMARK 924 INTRA-LIGAND FREE ENERGY PREDICTED BY IDOCK:   -0.23 KCAL/MOL
REMARK 927      BINDING AFFINITY PREDICTED BY RF-SCORE:    0.00 PKD
ROOT
HETATM    1  O   UNL     1     -10.026   5.359  69.217  1.00  0.00    -0.171 OA 
HETATM    2  N   UNL     1     -10.721   5.604  70.203  1.00  0.00    -0.311 N  
HETATM    3  O   UNL     1     -10.659   5.147  71.346  1.00  0.00    -0.208 OA 
HETATM    4  O   UNL     1     -11.752   6.534  69.926  1.00  0.00    -0.406 OA 
ENDROOT
BRANCH   4   5
HETATM    5  C   UNL     1     -12.516   6.852  71.085  1.00  0.00    -0.349 C  
BRANCH   5   6
HETATM    6  C   UNL     1     -11.996   8.174  71.655  1.00  0.00    -0.300 C  
BRANCH   6   7
HETATM    7  N   UNL     1     -11.844   9.214  70.656  1.00  0.00    -0.437 N  
HETATM    8  C   UNL     1     -12.355  10.481  70.861  1.00  0.00    -0.390 C  
HETATM    9  H   UNL     1     -11.352   9.007  69.788  1.00  0.00     0.000 HD 
HETATM   10  O   UNL     1     -12.984  10.799  71.862  1.00  0.00    -0.462 OA 
BRANCH   8  11
HETATM   11  C   UNL     1     -12.141  11.461  69.777  1.00  0.00    -0.388 A  
HETATM   12  C   UNL     1     -12.080  12.836  70.004  1.00  0.00    -0.355 A  
HETATM   13  C   UNL     1     -11.901  13.695  68.921  1.00  0.00    -0.402 A  
HETATM   14  C   UNL     1     -11.789  13.144  67.653  1.00  0.00    -0.359 A  
HETATM   15  N   UNL     1     -11.845  11.818  67.403  1.00  0.00    -0.624 NA 
HETATM   16  C   UNL     1     -12.032  11.003  68.471  1.00  0.00    -0.135 A  
ENDBRANCH   8  11
ENDBRANCH   6   7
ENDBRANCH   5   6
ENDBRANCH   4   5
TORSDOF 4
ENDMDL
MODEL       78
REMARK 921   NORMALIZED FREE ENERGY PREDICTED BY IDOCK:   -4.29 KCAL/MOL
REMARK 922        TOTAL FREE ENERGY PREDICTED BY IDOCK:   -5.52 KCAL/MOL
REMARK 923 INTER-LIGAND FREE ENERGY PREDICTED BY IDOCK:   -5.05 KCAL/MOL
REMARK 924 INTRA-LIGAND FREE ENERGY PREDICTED BY IDOCK:   -0.47 KCAL/MOL
REMARK 927      BINDING AFFINITY PREDICTED BY RF-SCORE:    0.00 PKD
ROOT
HETATM    1  O   UNL     1      -5.752  19.009  68.243  1.00  0.00    -0.198 OA 
HETATM    2  N   UNL     1      -6.914  18.706  68.511  1.00  0.00    -0.256 N  
HETATM    3  O   UNL     1      -7.377  17.642  68.928  1.00  0.00    -0.258 OA 
HETATM    4  O   UNL     1      -7.825  19.760  68.261  1.00  0.00    -0.316 OA 
ENDROOT
BRANCH   4   5
HETATM    5  C   UNL     1      -9.159  19.418  68.626  1.00  0.00    -0.372 C  
BRANCH   5   6
HETATM    6  C   UNL     1     -10.017  19.410  67.359  1.00  0.00    -0.371 C  
BRANCH   6   7
HETATM    7  N   UNL     1     -10.600  18.115  67.064  1.00  0.00    -0.363 N  
HETATM    8  C   UNL     1      -9.917  17.178  66.315  1.00  0.00    -0.304 C  
HETATM    9  H   UNL     1     -11.531  17.893  67.416  1.00  0.00     0.000 HD 
HETATM   10  O   UNL     1      -8.809  17.380  65.832  1.00  0.00    -0.526 OA 
BRANCH   8  11
HETATM   11  C   UNL     1     -10.606  15.894  66.076  1.00  0.00    -0.331 A  
HETATM   12  C   UNL     1     -11.152  15.127  67.106  1.00  0.00    -0.335 A  
HETATM   13  C   UNL     1     -11.765  13.914  66.797  1.00  0.00    -0.423 A  
HETATM   14  C   UNL     1     -11.809  13.516  65.469  1.00  0.00    -0.363 A  
HETATM   15  N   UNL     1     -11.289  14.237  64.452  1.00  0.00    -0.317 NA 
HETATM   16  C   UNL     1     -10.687  15.407  64.778  1.00  0.00    -0.314 A  
ENDBRANCH   8  11
ENDBRANCH   6   7
ENDBRANCH   5   6
ENDBRANCH   4   5
TORSDOF 4
ENDMDL
MODEL       79
REMARK 921   NORMALIZED FREE ENERGY PREDICTED BY IDOCK:   -4.26 KCAL/MOL
REMARK 922        TOTAL FREE ENERGY PREDICTED BY IDOCK:   -5.48 KCAL/MOL
REMARK 923 INTER-LIGAND FREE ENERGY PREDICTED BY IDOCK:   -5.19 KCAL/MOL
REMARK 924 INTRA-LIGAND FREE ENERGY PREDICTED BY IDOCK:   -0.29 KCAL/MOL
REMARK 927      BINDING AFFINITY PREDICTED BY RF-SCORE:    0.00 PKD
ROOT
HETATM    1  O   UNL     1     -10.715  19.760  65.585  1.00  0.00    -0.505 OA 
HETATM    2  N   UNL     1     -10.191  19.680  66.695  1.00  0.00    -0.426 N  
HETATM    3  O   UNL     1      -9.834  20.574  67.466  1.00  0.00    -0.433 OA 
HETATM    4  O   UNL     1      -9.957  18.342  67.093  1.00  0.00    -0.309 OA 
ENDROOT
BRANCH   4   5
HETATM    5  C   UNL     1      -9.401  18.259  68.402  1.00  0.00    -0.314 C  
BRANCH   5   6
HETATM    6  C   UNL     1      -9.829  16.927  69.022  1.00  0.00    -0.247 C  
BRANCH   6   7
HETATM    7  N   UNL     1      -9.909  15.842  68.064  1.00  0.00    -0.216 N  
HETATM    8  C   UNL     1     -11.037  15.051  67.973  1.00  0.00    -0.300 C  
HETATM    9  H   UNL     1      -9.118  15.659  67.447  1.00  0.00     0.000 HD 
HETATM   10  O   UNL     1     -12.015  15.187  68.698  1.00  0.00    -0.315 OA 
BRANCH   8  11
HETATM   11  C   UNL     1     -11.008  13.975  66.963  1.00  0.00    -0.302 A  
HETATM   12  C   UNL     1     -10.264  14.064  65.786  1.00  0.00    -0.343 A  
HETATM   13  C   UNL     1     -10.311  13.012  64.872  1.00  0.00    -0.343 A  
HETATM   14  C   UNL     1     -11.102  11.913  65.172  1.00  0.00    -0.305 A  
HETATM   15  N   UNL     1     -11.833  11.799  66.301  1.00  0.00    -0.456 NA 
HETATM   16  C   UNL     1     -11.781  12.840  67.169  1.00  0.00    -0.380 A  
ENDBRANCH   8  11
ENDBRANCH   6   7
ENDBRANCH   5   6
ENDBRANCH   4   5
TORSDOF 4
ENDMDL
MODEL       80
REMARK 921   NORMALIZED FREE ENERGY PREDICTED BY IDOCK:   -4.24 KCAL/MOL
REMARK 922        TOTAL FREE ENERGY PREDICTED BY IDOCK:   -5.46 KCAL/MOL
REMARK 923 INTER-LIGAND FREE ENERGY PREDICTED BY IDOCK:   -5.27 KCAL/MOL
REMARK 924 INTRA-LIGAND FREE ENERGY PREDICTED BY IDOCK:   -0.19 KCAL/MOL
REMARK 927      BINDING AFFINITY PREDICTED BY RF-SCORE:    0.00 PKD
ROOT
HETATM    1  O   UNL     1     -11.069  19.380  67.294  1.00  0.00    -0.458 OA 
HETATM    2  N   UNL     1     -10.592  18.375  66.768  1.00  0.00    -0.368 N  
HETATM    3  O   UNL     1     -10.110  18.225  65.644  1.00  0.00    -0.532 OA 
HETATM    4  O   UNL     1     -10.655  17.238  67.609  1.00  0.00    -0.358 OA 
ENDROOT
BRANCH   4   5
HETATM    5  C   UNL     1     -10.052  16.093  67.013  1.00  0.00    -0.270 C  
BRANCH   5   6
HETATM    6  C   UNL     1     -11.147  15.060  66.739  1.00  0.00    -0.326 C  
BRANCH   6   7
HETATM    7  N   UNL     1     -10.662  13.694  66.721  1.00  0.00    -0.272 N  
HETATM    8  C   UNL     1     -11.446  12.664  66.241  1.00  0.00    -0.364 C  
HETATM    9  H   UNL     1      -9.725  13.490  67.069  1.00  0.00     0.000 HD 
HETATM   10  O   UNL     1     -12.590  12.822  65.834  1.00  0.00    -0.518 OA 
BRANCH   8  11
HETATM   11  C   UNL     1     -10.851  11.313  66.270  1.00  0.00    -0.296 A  
HETATM   12  C   UNL     1     -10.166  10.765  65.184  1.00  0.00    -0.365 A  
HETATM   13  C   UNL     1      -9.656   9.473  65.286  1.00  0.00    -0.314 A  
HETATM   14  C   UNL     1      -9.849   8.778  66.471  1.00  0.00    -0.279 A  
HETATM   15  N   UNL     1     -10.508   9.281  67.537  1.00  0.00    -0.261 NA 
HETATM   16  C   UNL     1     -11.006  10.536  67.410  1.00  0.00    -0.288 A  
ENDBRANCH   8  11
ENDBRANCH   6   7
ENDBRANCH   5   6
ENDBRANCH   4   5
TORSDOF 4
ENDMDL
MODEL       81
REMARK 921   NORMALIZED FREE ENERGY PREDICTED BY IDOCK:   -4.24 KCAL/MOL
REMARK 922        TOTAL FREE ENERGY PREDICTED BY IDOCK:   -5.45 KCAL/MOL
REMARK 923 INTER-LIGAND FREE ENERGY PREDICTED BY IDOCK:   -5.00 KCAL/MOL
REMARK 924 INTRA-LIGAND FREE ENERGY PREDICTED BY IDOCK:   -0.45 KCAL/MOL
REMARK 927      BINDING AFFINITY PREDICTED BY RF-SCORE:    0.00 PKD
ROOT
HETATM    1  O   UNL     1     -11.806  13.294  70.042  1.00  0.00    -0.319 OA 
HETATM    2  N   UNL     1     -12.030  13.994  69.054  1.00  0.00    -0.350 N  
HETATM    3  O   UNL     1     -12.224  15.208  68.975  1.00  0.00    -0.231 OA 
HETATM    4  O   UNL     1     -12.095  13.242  67.857  1.00  0.00    -0.331 OA 
ENDROOT
BRANCH   4   5
HETATM    5  C   UNL     1     -12.300  14.067  66.713  1.00  0.00    -0.332 C  
BRANCH   5   6
HETATM    6  C   UNL     1     -10.948  14.289  66.032  1.00  0.00    -0.312 C  
BRANCH   6   7
HETATM    7  N   UNL     1     -10.213  15.421  66.563  1.00  0.00    -0.271 N  
HETATM    8  C   UNL     1     -10.243  16.650  65.934  1.00  0.00    -0.340 C  
HETATM    9  H   UNL     1      -9.663  15.306  67.414  1.00  0.00     0.000 HD 
HETATM   10  O   UNL     1     -10.853  16.859  64.893  1.00  0.00    -0.715 OA 
BRANCH   8  11
HETATM   11  C   UNL     1      -9.456  17.731  66.562  1.00  0.00    -0.300 A  
HETATM   12  C   UNL     1      -8.101  17.932  66.295  1.00  0.00    -0.266 A  
HETATM   13  C   UNL     1      -7.427  18.961  66.949  1.00  0.00    -0.234 A  
HETATM   14  C   UNL     1      -8.133  19.749  67.845  1.00  0.00    -0.301 A  
HETATM   15  N   UNL     1      -9.444  19.578  68.124  1.00  0.00    -0.344 NA 
HETATM   16  C   UNL     1     -10.076  18.562  67.485  1.00  0.00    -0.357 A  
ENDBRANCH   8  11
ENDBRANCH   6   7
ENDBRANCH   5   6
ENDBRANCH   4   5
TORSDOF 4
ENDMDL
MODEL       82
REMARK 921   NORMALIZED FREE ENERGY PREDICTED BY IDOCK:   -4.24 KCAL/MOL
REMARK 922        TOTAL FREE ENERGY PREDICTED BY IDOCK:   -5.45 KCAL/MOL
REMARK 923 INTER-LIGAND FREE ENERGY PREDICTED BY IDOCK:   -5.27 KCAL/MOL
REMARK 924 INTRA-LIGAND FREE ENERGY PREDICTED BY IDOCK:   -0.19 KCAL/MOL
REMARK 927      BINDING AFFINITY PREDICTED BY RF-SCORE:    0.00 PKD
ROOT
HETATM    1  O   UNL     1      -9.790  18.443  67.216  1.00  0.00    -0.298 OA 
HETATM    2  N   UNL     1     -10.318  17.739  68.076  1.00  0.00    -0.375 N  
HETATM    3  O   UNL     1     -10.337  17.870  69.302  1.00  0.00    -0.290 OA 
HETATM    4  O   UNL     1     -10.966  16.605  67.530  1.00  0.00    -0.266 OA 
ENDROOT
BRANCH   4   5
HETATM    5  C   UNL     1     -11.621  15.827  68.528  1.00  0.00    -0.362 C  
BRANCH   5   6
HETATM    6  C   UNL     1     -11.943  14.455  67.933  1.00  0.00    -0.313 C  
BRANCH   6   7
HETATM    7  N   UNL     1     -11.843  13.371  68.892  1.00  0.00    -0.321 N  
HETATM    8  C   UNL     1     -11.878  12.052  68.484  1.00  0.00    -0.311 C  
HETATM    9  H   UNL     1     -11.746  13.587  69.883  1.00  0.00     0.000 HD 
HETATM   10  O   UNL     1     -12.022  11.711  67.317  1.00  0.00    -0.627 OA 
BRANCH   8  11
HETATM   11  C   UNL     1     -11.769  11.032  69.546  1.00  0.00    -0.400 A  
HETATM   12  C   UNL     1     -12.557  11.052  70.698  1.00  0.00    -0.427 A  
HETATM   13  C   UNL     1     -12.374  10.064  71.663  1.00  0.00    -0.486 A  
HETATM   14  C   UNL     1     -11.410   9.093  71.439  1.00  0.00    -0.344 A  
HETATM   15  N   UNL     1     -10.632   9.047  70.336  1.00  0.00    -0.207 NA 
HETATM   16  C   UNL     1     -10.820  10.026  69.416  1.00  0.00    -0.239 A  
ENDBRANCH   8  11
ENDBRANCH   6   7
ENDBRANCH   5   6
ENDBRANCH   4   5
TORSDOF 4
ENDMDL
MODEL       83
REMARK 921   NORMALIZED FREE ENERGY PREDICTED BY IDOCK:   -4.23 KCAL/MOL
REMARK 922        TOTAL FREE ENERGY PREDICTED BY IDOCK:   -5.45 KCAL/MOL
REMARK 923 INTER-LIGAND FREE ENERGY PREDICTED BY IDOCK:   -5.21 KCAL/MOL
REMARK 924 INTRA-LIGAND FREE ENERGY PREDICTED BY IDOCK:   -0.24 KCAL/MOL
REMARK 927      BINDING AFFINITY PREDICTED BY RF-SCORE:    0.00 PKD
ROOT
HETATM    1  O   UNL     1     -11.741   6.145  71.904  1.00  0.00    -0.309 OA 
HETATM    2  N   UNL     1     -11.376   7.306  72.085  1.00  0.00    -0.256 N  
HETATM    3  O   UNL     1     -10.830   7.819  73.064  1.00  0.00    -0.373 OA 
HETATM    4  O   UNL     1     -11.675   8.149  70.988  1.00  0.00    -0.285 OA 
ENDROOT
BRANCH   4   5
HETATM    5  C   UNL     1     -11.200   9.478  71.184  1.00  0.00    -0.376 C  
BRANCH   5   6
HETATM    6  C   UNL     1     -12.349  10.447  70.897  1.00  0.00    -0.381 C  
BRANCH   6   7
HETATM    7  N   UNL     1     -11.906  11.744  70.422  1.00  0.00    -0.499 N  
HETATM    8  C   UNL     1     -11.815  12.017  69.072  1.00  0.00    -0.315 C  
HETATM    9  H   UNL     1     -11.657  12.466  71.098  1.00  0.00     0.000 HD 
HETATM   10  O   UNL     1     -12.066  11.195  68.200  1.00  0.00    -0.633 OA 
BRANCH   8  11
HETATM   11  C   UNL     1     -11.353  13.370  68.703  1.00  0.00    -0.322 A  
HETATM   12  C   UNL     1     -11.993  14.532  69.137  1.00  0.00    -0.344 A  
HETATM   13  C   UNL     1     -11.506  15.770  68.722  1.00  0.00    -0.391 A  
HETATM   14  C   UNL     1     -10.397  15.798  67.889  1.00  0.00    -0.261 A  
HETATM   15  N   UNL     1      -9.758  14.692  67.452  1.00  0.00    -0.217 NA 
HETATM   16  C   UNL     1     -10.257  13.498  67.859  1.00  0.00    -0.247 A  
ENDBRANCH   8  11
ENDBRANCH   6   7
ENDBRANCH   5   6
ENDBRANCH   4   5
TORSDOF 4
ENDMDL
MODEL       84
REMARK 921   NORMALIZED FREE ENERGY PREDICTED BY IDOCK:   -4.21 KCAL/MOL
REMARK 922        TOTAL FREE ENERGY PREDICTED BY IDOCK:   -5.42 KCAL/MOL
REMARK 923 INTER-LIGAND FREE ENERGY PREDICTED BY IDOCK:   -5.19 KCAL/MOL
REMARK 924 INTRA-LIGAND FREE ENERGY PREDICTED BY IDOCK:   -0.23 KCAL/MOL
REMARK 927      BINDING AFFINITY PREDICTED BY RF-SCORE:    0.00 PKD
ROOT
HETATM    1  O   UNL     1     -12.116  11.169  70.571  1.00  0.00    -0.328 OA 
HETATM    2  N   UNL     1     -12.157  12.340  70.194  1.00  0.00    -0.321 N  
HETATM    3  O   UNL     1     -12.354  13.371  70.840  1.00  0.00    -0.366 OA 
HETATM    4  O   UNL     1     -11.971  12.470  68.797  1.00  0.00    -0.310 OA 
ENDROOT
BRANCH   4   5
HETATM    5  C   UNL     1     -11.964  13.831  68.379  1.00  0.00    -0.360 C  
BRANCH   5   6
HETATM    6  C   UNL     1     -10.601  14.136  67.753  1.00  0.00    -0.243 C  
BRANCH   6   7
HETATM    7  N   UNL     1     -10.468  15.505  67.294  1.00  0.00    -0.273 N  
HETATM    8  C   UNL     1     -10.047  16.506  68.148  1.00  0.00    -0.255 C  
HETATM    9  H   UNL     1     -10.690  15.733  66.326  1.00  0.00     0.000 HD 
HETATM   10  O   UNL     1      -9.792  16.319  69.330  1.00  0.00    -0.252 OA 
BRANCH   8  11
HETATM   11  C   UNL     1      -9.948  17.863  67.574  1.00  0.00    -0.322 A  
HETATM   12  C   UNL     1      -9.479  18.958  68.301  1.00  0.00    -0.395 A  
HETATM   13  C   UNL     1      -9.441  20.210  67.691  1.00  0.00    -0.514 A  
HETATM   14  C   UNL     1      -9.873  20.319  66.378  1.00  0.00    -0.373 A  
HETATM   15  N   UNL     1     -10.332  19.279  65.650  1.00  0.00    -0.498 NA 
HETATM   16  C   UNL     1     -10.372  18.072  66.268  1.00  0.00    -0.382 A  
ENDBRANCH   8  11
ENDBRANCH   6   7
ENDBRANCH   5   6
ENDBRANCH   4   5
TORSDOF 4
ENDMDL
MODEL       85
REMARK 921   NORMALIZED FREE ENERGY PREDICTED BY IDOCK:   -4.19 KCAL/MOL
REMARK 922        TOTAL FREE ENERGY PREDICTED BY IDOCK:   -5.39 KCAL/MOL
REMARK 923 INTER-LIGAND FREE ENERGY PREDICTED BY IDOCK:   -5.18 KCAL/MOL
REMARK 924 INTRA-LIGAND FREE ENERGY PREDICTED BY IDOCK:   -0.21 KCAL/MOL
REMARK 927      BINDING AFFINITY PREDICTED BY RF-SCORE:    0.00 PKD
ROOT
HETATM    1  O   UNL     1     -12.899   9.863  71.833  1.00  0.00    -0.395 OA 
HETATM    2  N   UNL     1     -12.240  10.556  71.059  1.00  0.00    -0.368 N  
HETATM    3  O   UNL     1     -11.215  10.283  70.432  1.00  0.00    -0.293 OA 
HETATM    4  O   UNL     1     -12.760  11.866  70.923  1.00  0.00    -0.297 OA 
ENDROOT
BRANCH   4   5
HETATM    5  C   UNL     1     -12.022  12.643  69.984  1.00  0.00    -0.306 C  
BRANCH   5   6
HETATM    6  C   UNL     1     -12.478  14.099  70.102  1.00  0.00    -0.331 C  
BRANCH   6   7
HETATM    7  N   UNL     1     -11.913  14.966  69.085  1.00  0.00    -0.448 N  
HETATM    8  C   UNL     1     -11.272  16.141  69.423  1.00  0.00    -0.335 C  
HETATM    9  H   UNL     1     -11.992  14.702  68.103  1.00  0.00     0.000 HD 
HETATM   10  O   UNL     1     -11.164  16.541  70.576  1.00  0.00    -0.330 OA 
BRANCH   8  11
HETATM   11  C   UNL     1     -10.736  16.945  68.307  1.00  0.00    -0.377 A  
HETATM   12  C   UNL     1     -10.309  18.264  68.463  1.00  0.00    -0.341 A  
HETATM   13  C   UNL     1      -9.839  18.961  67.352  1.00  0.00    -0.373 A  
HETATM   14  C   UNL     1      -9.814  18.311  66.127  1.00  0.00    -0.260 A  
HETATM   15  N   UNL     1     -10.222  17.037  65.945  1.00  0.00    -0.511 NA 
HETATM   16  C   UNL     1     -10.687  16.382  67.038  1.00  0.00    -0.217 A  
ENDBRANCH   8  11
ENDBRANCH   6   7
ENDBRANCH   5   6
ENDBRANCH   4   5
TORSDOF 4
ENDMDL
MODEL       86
REMARK 921   NORMALIZED FREE ENERGY PREDICTED BY IDOCK:   -4.17 KCAL/MOL
REMARK 922        TOTAL FREE ENERGY PREDICTED BY IDOCK:   -5.36 KCAL/MOL
REMARK 923 INTER-LIGAND FREE ENERGY PREDICTED BY IDOCK:   -5.13 KCAL/MOL
REMARK 924 INTRA-LIGAND FREE ENERGY PREDICTED BY IDOCK:   -0.23 KCAL/MOL
REMARK 927      BINDING AFFINITY PREDICTED BY RF-SCORE:    0.00 PKD
ROOT
HETATM    1  O   UNL     1      -9.130   8.840  72.506  1.00  0.00    -0.367 OA 
HETATM    2  N   UNL     1     -10.277   8.794  72.065  1.00  0.00    -0.334 N  
HETATM    3  O   UNL     1     -11.237   8.113  72.431  1.00  0.00    -0.330 OA 
HETATM    4  O   UNL     1     -10.468   9.646  70.951  1.00  0.00    -0.300 OA 
ENDROOT
BRANCH   4   5
HETATM    5  C   UNL     1     -11.813   9.627  70.482  1.00  0.00    -0.215 C  
BRANCH   5   6
HETATM    6  C   UNL     1     -12.224  11.061  70.140  1.00  0.00    -0.344 C  
BRANCH   6   7
HETATM    7  N   UNL     1     -12.159  11.358  68.722  1.00  0.00    -0.277 N  
HETATM    8  C   UNL     1     -11.573  12.521  68.262  1.00  0.00    -0.328 C  
HETATM    9  H   UNL     1     -12.553  10.697  68.053  1.00  0.00     0.000 HD 
HETATM   10  O   UNL     1     -11.105  13.377  69.003  1.00  0.00    -0.255 OA 
BRANCH   8  11
HETATM   11  C   UNL     1     -11.563  12.721  66.799  1.00  0.00    -0.431 A  
HETATM   12  C   UNL     1     -12.142  13.832  66.185  1.00  0.00    -0.477 A  
HETATM   13  C   UNL     1     -12.110  13.932  64.796  1.00  0.00    -0.443 A  
HETATM   14  C   UNL     1     -11.501  12.917  64.074  1.00  0.00    -0.422 A  
HETATM   15  N   UNL     1     -10.933  11.830  64.640  1.00  0.00    -0.305 NA 
HETATM   16  C   UNL     1     -10.987  11.748  65.993  1.00  0.00    -0.306 A  
ENDBRANCH   8  11
ENDBRANCH   6   7
ENDBRANCH   5   6
ENDBRANCH   4   5
TORSDOF 4
ENDMDL
MODEL       87
REMARK 921   NORMALIZED FREE ENERGY PREDICTED BY IDOCK:   -4.16 KCAL/MOL
REMARK 922        TOTAL FREE ENERGY PREDICTED BY IDOCK:   -5.36 KCAL/MOL
REMARK 923 INTER-LIGAND FREE ENERGY PREDICTED BY IDOCK:   -5.18 KCAL/MOL
REMARK 924 INTRA-LIGAND FREE ENERGY PREDICTED BY IDOCK:   -0.18 KCAL/MOL
REMARK 927      BINDING AFFINITY PREDICTED BY RF-SCORE:    0.00 PKD
ROOT
HETATM    1  O   UNL     1      -7.821  19.480  65.637  1.00  0.00    -0.426 OA 
HETATM    2  N   UNL     1      -8.666  18.948  66.355  1.00  0.00    -0.315 N  
HETATM    3  O   UNL     1      -9.095  19.291  67.459  1.00  0.00    -0.290 OA 
HETATM    4  O   UNL     1      -9.174  17.748  65.802  1.00  0.00    -0.505 OA 
ENDROOT
BRANCH   4   5
HETATM    5  C   UNL     1     -10.191  17.168  66.614  1.00  0.00    -0.319 C  
BRANCH   5   6
HETATM    6  C   UNL     1     -10.897  16.082  65.799  1.00  0.00    -0.230 C  
BRANCH   6   7
HETATM    7  N   UNL     1     -10.746  14.752  66.356  1.00  0.00    -0.306 N  
HETATM    8  C   UNL     1     -11.695  13.773  66.133  1.00  0.00    -0.370 C  
HETATM    9  H   UNL     1      -9.926  14.535  66.921  1.00  0.00     0.000 HD 
HETATM   10  O   UNL     1     -12.720  13.963  65.491  1.00  0.00    -0.520 OA 
BRANCH   8  11
HETATM   11  C   UNL     1     -11.439  12.455  66.748  1.00  0.00    -0.423 A  
HETATM   12  C   UNL     1     -11.841  12.137  68.046  1.00  0.00    -0.351 A  
HETATM   13  C   UNL     1     -11.539  10.878  68.560  1.00  0.00    -0.360 A  
HETATM   14  C   UNL     1     -10.846   9.985  67.756  1.00  0.00    -0.282 A  
HETATM   15  N   UNL     1     -10.444  10.265  66.498  1.00  0.00    -0.203 NA 
HETATM   16  C   UNL     1     -10.739  11.501  66.023  1.00  0.00    -0.281 A  
ENDBRANCH   8  11
ENDBRANCH   6   7
ENDBRANCH   5   6
ENDBRANCH   4   5
TORSDOF 4
ENDMDL
MODEL       88
REMARK 921   NORMALIZED FREE ENERGY PREDICTED BY IDOCK:   -4.15 KCAL/MOL
REMARK 922        TOTAL FREE ENERGY PREDICTED BY IDOCK:   -5.34 KCAL/MOL
REMARK 923 INTER-LIGAND FREE ENERGY PREDICTED BY IDOCK:   -5.22 KCAL/MOL
REMARK 924 INTRA-LIGAND FREE ENERGY PREDICTED BY IDOCK:   -0.13 KCAL/MOL
REMARK 927      BINDING AFFINITY PREDICTED BY RF-SCORE:    0.00 PKD
ROOT
HETATM    1  O   UNL     1     -11.804  11.178  67.731  1.00  0.00    -0.608 OA 
HETATM    2  N   UNL     1     -11.754  12.127  66.949  1.00  0.00    -0.337 N  
HETATM    3  O   UNL     1     -12.097  12.195  65.767  1.00  0.00    -0.572 OA 
HETATM    4  O   UNL     1     -11.183  13.284  67.531  1.00  0.00    -0.262 OA 
ENDROOT
BRANCH   4   5
HETATM    5  C   UNL     1     -11.180  14.392  66.636  1.00  0.00    -0.339 C  
BRANCH   5   6
HETATM    6  C   UNL     1     -11.342  15.674  67.456  1.00  0.00    -0.198 C  
BRANCH   6   7
HETATM    7  N   UNL     1     -10.178  16.539  67.413  1.00  0.00    -0.281 N  
HETATM    8  C   UNL     1      -9.926  17.341  66.319  1.00  0.00    -0.300 C  
HETATM    9  H   UNL     1      -9.536  16.554  68.205  1.00  0.00     0.000 HD 
HETATM   10  O   UNL     1     -10.631  17.357  65.318  1.00  0.00    -0.667 OA 
BRANCH   8  11
HETATM   11  C   UNL     1      -8.713  18.181  66.383  1.00  0.00    -0.252 A  
HETATM   12  C   UNL     1      -7.436  17.686  66.114  1.00  0.00    -0.334 A  
HETATM   13  C   UNL     1      -6.340  18.540  66.221  1.00  0.00    -0.228 A  
HETATM   14  C   UNL     1      -6.564  19.857  66.593  1.00  0.00    -0.196 A  
HETATM   15  N   UNL     1      -7.787  20.364  66.861  1.00  0.00    -0.312 NA 
HETATM   16  C   UNL     1      -8.837  19.511  66.761  1.00  0.00    -0.332 A  
ENDBRANCH   8  11
ENDBRANCH   6   7
ENDBRANCH   5   6
ENDBRANCH   4   5
TORSDOF 4
ENDMDL
MODEL       89
REMARK 921   NORMALIZED FREE ENERGY PREDICTED BY IDOCK:   -4.15 KCAL/MOL
REMARK 922        TOTAL FREE ENERGY PREDICTED BY IDOCK:   -5.34 KCAL/MOL
REMARK 923 INTER-LIGAND FREE ENERGY PREDICTED BY IDOCK:   -5.14 KCAL/MOL
REMARK 924 INTRA-LIGAND FREE ENERGY PREDICTED BY IDOCK:   -0.20 KCAL/MOL
REMARK 927      BINDING AFFINITY PREDICTED BY RF-SCORE:    0.00 PKD
ROOT
HETATM    1  O   UNL     1     -14.021   8.709  72.211  1.00  0.00    -0.412 OA 
HETATM    2  N   UNL     1     -12.987   9.258  71.833  1.00  0.00    -0.378 N  
HETATM    3  O   UNL     1     -11.810   8.968  72.059  1.00  0.00    -0.358 OA 
HETATM    4  O   UNL     1     -13.236  10.408  71.046  1.00  0.00    -0.373 OA 
ENDROOT
BRANCH   4   5
HETATM    5  C   UNL     1     -12.034  11.005  70.568  1.00  0.00    -0.379 C  
BRANCH   5   6
HETATM    6  C   UNL     1     -12.133  11.133  69.046  1.00  0.00    -0.246 C  
BRANCH   6   7
HETATM    7  N   UNL     1     -11.486  12.320  68.522  1.00  0.00    -0.277 N  
HETATM    8  C   UNL     1     -11.484  12.594  67.169  1.00  0.00    -0.346 C  
HETATM    9  H   UNL     1     -11.024  12.963  69.164  1.00  0.00     0.000 HD 
HETATM   10  O   UNL     1     -11.990  11.856  66.332  1.00  0.00    -0.572 OA 
BRANCH   8  11
HETATM   11  C   UNL     1     -10.795  13.830  66.747  1.00  0.00    -0.284 A  
HETATM   12  C   UNL     1     -11.429  14.836  66.017  1.00  0.00    -0.316 A  
HETATM   13  C   UNL     1     -10.698  15.961  65.637  1.00  0.00    -0.350 A  
HETATM   14  C   UNL     1      -9.363  16.036  66.003  1.00  0.00    -0.345 A  
HETATM   15  N   UNL     1      -8.723  15.078  66.709  1.00  0.00    -0.257 NA 
HETATM   16  C   UNL     1      -9.451  13.987  67.057  1.00  0.00    -0.250 A  
ENDBRANCH   8  11
ENDBRANCH   6   7
ENDBRANCH   5   6
ENDBRANCH   4   5
TORSDOF 4
ENDMDL
MODEL       90
REMARK 921   NORMALIZED FREE ENERGY PREDICTED BY IDOCK:   -4.14 KCAL/MOL
REMARK 922        TOTAL FREE ENERGY PREDICTED BY IDOCK:   -5.33 KCAL/MOL
REMARK 923 INTER-LIGAND FREE ENERGY PREDICTED BY IDOCK:   -5.03 KCAL/MOL
REMARK 924 INTRA-LIGAND FREE ENERGY PREDICTED BY IDOCK:   -0.30 KCAL/MOL
REMARK 927      BINDING AFFINITY PREDICTED BY RF-SCORE:    0.00 PKD
ROOT
HETATM    1  O   UNL     1     -11.939  12.827  65.695  1.00  0.00    -0.406 OA 
HETATM    2  N   UNL     1     -12.017  12.731  66.919  1.00  0.00    -0.366 N  
HETATM    3  O   UNL     1     -12.015  11.727  67.634  1.00  0.00    -0.599 OA 
HETATM    4  O   UNL     1     -12.158  13.987  67.557  1.00  0.00    -0.391 OA 
ENDROOT
BRANCH   4   5
HETATM    5  C   UNL     1     -12.192  13.869  68.977  1.00  0.00    -0.239 C  
BRANCH   5   6
HETATM    6  C   UNL     1     -10.983  14.611  69.550  1.00  0.00    -0.245 C  
BRANCH   6   7
HETATM    7  N   UNL     1     -10.617  15.792  68.792  1.00  0.00    -0.229 N  
HETATM    8  C   UNL     1      -9.338  16.310  68.850  1.00  0.00    -0.248 C  
HETATM    9  H   UNL     1     -11.316  16.248  68.206  1.00  0.00     0.000 HD 
HETATM   10  O   UNL     1      -8.452  15.839  69.553  1.00  0.00    -0.246 OA 
BRANCH   8  11
HETATM   11  C   UNL     1      -9.077  17.515  68.038  1.00  0.00    -0.269 A  
HETATM   12  C   UNL     1      -8.471  18.660  68.558  1.00  0.00    -0.367 A  
HETATM   13  C   UNL     1      -8.284  19.764  67.729  1.00  0.00    -0.340 A  
HETATM   14  C   UNL     1      -8.709  19.681  66.412  1.00  0.00    -0.368 A  
HETATM   15  N   UNL     1      -9.298  18.588  65.881  1.00  0.00    -0.445 NA 
HETATM   16  C   UNL     1      -9.482  17.530  66.710  1.00  0.00    -0.275 A  
ENDBRANCH   8  11
ENDBRANCH   6   7
ENDBRANCH   5   6
ENDBRANCH   4   5
TORSDOF 4
ENDMDL
MODEL       91
REMARK 921   NORMALIZED FREE ENERGY PREDICTED BY IDOCK:   -4.13 KCAL/MOL
REMARK 922        TOTAL FREE ENERGY PREDICTED BY IDOCK:   -5.32 KCAL/MOL
REMARK 923 INTER-LIGAND FREE ENERGY PREDICTED BY IDOCK:   -5.19 KCAL/MOL
REMARK 924 INTRA-LIGAND FREE ENERGY PREDICTED BY IDOCK:   -0.12 KCAL/MOL
REMARK 927      BINDING AFFINITY PREDICTED BY RF-SCORE:    0.00 PKD
ROOT
HETATM    1  O   UNL     1      -9.238  10.394  62.355  1.00  0.00    -0.251 OA 
HETATM    2  N   UNL     1      -9.524  10.402  63.552  1.00  0.00    -0.292 N  
HETATM    3  O   UNL     1      -9.205   9.614  64.445  1.00  0.00    -0.249 OA 
HETATM    4  O   UNL     1     -10.373  11.479  63.904  1.00  0.00    -0.298 OA 
ENDROOT
BRANCH   4   5
HETATM    5  C   UNL     1     -10.653  11.510  65.300  1.00  0.00    -0.283 C  
BRANCH   5   6
HETATM    6  C   UNL     1     -11.830  12.460  65.533  1.00  0.00    -0.412 C  
BRANCH   6   7
HETATM    7  N   UNL     1     -11.673  13.299  66.706  1.00  0.00    -0.364 N  
HETATM    8  C   UNL     1     -11.827  12.784  67.977  1.00  0.00    -0.336 C  
HETATM    9  H   UNL     1     -11.446  14.286  66.588  1.00  0.00     0.000 HD 
HETATM   10  O   UNL     1     -12.130  11.618  68.200  1.00  0.00    -0.577 OA 
BRANCH   8  11
HETATM   11  C   UNL     1     -11.645  13.728  69.098  1.00  0.00    -0.363 A  
HETATM   12  C   UNL     1     -12.251  13.550  70.342  1.00  0.00    -0.426 A  
HETATM   13  C   UNL     1     -12.047  14.502  71.339  1.00  0.00    -0.420 A  
HETATM   14  C   UNL     1     -11.244  15.596  71.052  1.00  0.00    -0.364 A  
HETATM   15  N   UNL     1     -10.646  15.796  69.858  1.00  0.00    -0.306 NA 
HETATM   16  C   UNL     1     -10.869  14.862  68.899  1.00  0.00    -0.250 A  
ENDBRANCH   8  11
ENDBRANCH   6   7
ENDBRANCH   5   6
ENDBRANCH   4   5
TORSDOF 4
ENDMDL
MODEL       92
REMARK 921   NORMALIZED FREE ENERGY PREDICTED BY IDOCK:   -4.11 KCAL/MOL
REMARK 922        TOTAL FREE ENERGY PREDICTED BY IDOCK:   -5.30 KCAL/MOL
REMARK 923 INTER-LIGAND FREE ENERGY PREDICTED BY IDOCK:   -5.00 KCAL/MOL
REMARK 924 INTRA-LIGAND FREE ENERGY PREDICTED BY IDOCK:   -0.29 KCAL/MOL
REMARK 927      BINDING AFFINITY PREDICTED BY RF-SCORE:    0.00 PKD
ROOT
HETATM    1  O   UNL     1     -10.933  19.801  65.712  1.00  0.00    -0.375 OA 
HETATM    2  N   UNL     1     -10.002  19.067  66.042  1.00  0.00    -0.345 N  
HETATM    3  O   UNL     1      -8.786  19.224  65.907  1.00  0.00    -0.440 OA 
HETATM    4  O   UNL     1     -10.442  17.860  66.635  1.00  0.00    -0.354 OA 
ENDROOT
BRANCH   4   5
HETATM    5  C   UNL     1      -9.357  17.042  67.063  1.00  0.00    -0.241 C  
BRANCH   5   6
HETATM    6  C   UNL     1      -9.500  15.669  66.403  1.00  0.00    -0.292 C  
BRANCH   6   7
HETATM    7  N   UNL     1      -9.913  14.626  67.322  1.00  0.00    -0.234 N  
HETATM    8  C   UNL     1     -11.248  14.326  67.507  1.00  0.00    -0.307 C  
HETATM    9  H   UNL     1      -9.206  14.106  67.840  1.00  0.00     0.000 HD 
HETATM   10  O   UNL     1     -12.157  14.925  66.946  1.00  0.00    -0.222 OA 
BRANCH   8  11
HETATM   11  C   UNL     1     -11.554  13.246  68.467  1.00  0.00    -0.368 A  
HETATM   12  C   UNL     1     -11.428  11.894  68.147  1.00  0.00    -0.384 A  
HETATM   13  C   UNL     1     -11.761  10.937  69.104  1.00  0.00    -0.397 A  
HETATM   14  C   UNL     1     -12.208  11.370  70.344  1.00  0.00    -0.362 A  
HETATM   15  N   UNL     1     -12.340  12.671  70.681  1.00  0.00    -0.342 NA 
HETATM   16  C   UNL     1     -12.022  13.584  69.730  1.00  0.00    -0.340 A  
ENDBRANCH   8  11
ENDBRANCH   6   7
ENDBRANCH   5   6
ENDBRANCH   4   5
TORSDOF 4
ENDMDL
MODEL       93
REMARK 921   NORMALIZED FREE ENERGY PREDICTED BY IDOCK:   -4.10 KCAL/MOL
REMARK 922        TOTAL FREE ENERGY PREDICTED BY IDOCK:   -5.28 KCAL/MOL
REMARK 923 INTER-LIGAND FREE ENERGY PREDICTED BY IDOCK:   -4.96 KCAL/MOL
REMARK 924 INTRA-LIGAND FREE ENERGY PREDICTED BY IDOCK:   -0.32 KCAL/MOL
REMARK 927      BINDING AFFINITY PREDICTED BY RF-SCORE:    0.00 PKD
ROOT
HETATM    1  O   UNL     1     -11.030   6.596  67.174  1.00  0.00    -0.363 OA 
HETATM    2  N   UNL     1     -10.610   7.666  67.614  1.00  0.00    -0.240 N  
HETATM    3  O   UNL     1     -10.421   8.738  67.036  1.00  0.00    -0.283 OA 
HETATM    4  O   UNL     1     -10.283   7.599  68.990  1.00  0.00    -0.196 OA 
ENDROOT
BRANCH   4   5
HETATM    5  C   UNL     1      -9.851   8.855  69.503  1.00  0.00    -0.180 C  
BRANCH   5   6
HETATM    6  C   UNL     1     -10.979   9.440  70.356  1.00  0.00    -0.266 C  
BRANCH   6   7
HETATM    7  N   UNL     1     -11.033  10.889  70.329  1.00  0.00    -0.456 N  
HETATM    8  C   UNL     1     -11.785  11.557  69.384  1.00  0.00    -0.346 C  
HETATM    9  H   UNL     1     -10.507  11.423  71.020  1.00  0.00     0.000 HD 
HETATM   10  O   UNL     1     -12.419  10.990  68.503  1.00  0.00    -0.440 OA 
BRANCH   8  11
HETATM   11  C   UNL     1     -11.767  13.032  69.450  1.00  0.00    -0.386 A  
HETATM   12  C   UNL     1     -12.192  13.743  70.573  1.00  0.00    -0.440 A  
HETATM   13  C   UNL     1     -12.165  15.137  70.544  1.00  0.00    -0.389 A  
HETATM   14  C   UNL     1     -11.714  15.764  69.392  1.00  0.00    -0.370 A  
HETATM   15  N   UNL     1     -11.298  15.104  68.291  1.00  0.00    -0.313 NA 
HETATM   16  C   UNL     1     -11.344  13.749  68.338  1.00  0.00    -0.293 A  
ENDBRANCH   8  11
ENDBRANCH   6   7
ENDBRANCH   5   6
ENDBRANCH   4   5
TORSDOF 4
ENDMDL
MODEL       94
REMARK 921   NORMALIZED FREE ENERGY PREDICTED BY IDOCK:   -4.08 KCAL/MOL
REMARK 922        TOTAL FREE ENERGY PREDICTED BY IDOCK:   -5.26 KCAL/MOL
REMARK 923 INTER-LIGAND FREE ENERGY PREDICTED BY IDOCK:   -4.97 KCAL/MOL
REMARK 924 INTRA-LIGAND FREE ENERGY PREDICTED BY IDOCK:   -0.29 KCAL/MOL
REMARK 927      BINDING AFFINITY PREDICTED BY RF-SCORE:    0.00 PKD
ROOT
HETATM    1  O   UNL     1     -12.207  13.867  69.071  1.00  0.00    -0.350 OA 
HETATM    2  N   UNL     1     -11.819  13.828  67.904  1.00  0.00    -0.365 N  
HETATM    3  O   UNL     1     -12.047  12.996  67.024  1.00  0.00    -0.362 OA 
HETATM    4  O   UNL     1     -10.962  14.906  67.578  1.00  0.00    -0.285 OA 
ENDROOT
BRANCH   4   5
HETATM    5  C   UNL     1     -10.563  14.883  66.211  1.00  0.00    -0.308 C  
BRANCH   5   6
HETATM    6  C   UNL     1     -10.644  16.309  65.662  1.00  0.00    -0.346 C  
BRANCH   6   7
HETATM    7  N   UNL     1      -9.575  17.170  66.129  1.00  0.00    -0.248 N  
HETATM    8  C   UNL     1      -9.834  18.247  66.954  1.00  0.00    -0.331 C  
HETATM    9  H   UNL     1      -8.615  16.977  65.843  1.00  0.00     0.000 HD 
HETATM   10  O   UNL     1     -10.961  18.562  67.316  1.00  0.00    -0.365 OA 
BRANCH   8  11
HETATM   11  C   UNL     1      -8.670  19.055  67.368  1.00  0.00    -0.301 A  
HETATM   12  C   UNL     1      -8.000  19.916  66.497  1.00  0.00    -0.346 A  
HETATM   13  C   UNL     1      -6.894  20.625  66.962  1.00  0.00    -0.358 A  
HETATM   14  C   UNL     1      -6.501  20.446  68.280  1.00  0.00    -0.309 A  
HETATM   15  N   UNL     1      -7.129  19.621  69.145  1.00  0.00    -0.355 NA 
HETATM   16  C   UNL     1      -8.195  18.932  68.667  1.00  0.00    -0.345 A  
ENDBRANCH   8  11
ENDBRANCH   6   7
ENDBRANCH   5   6
ENDBRANCH   4   5
TORSDOF 4
ENDMDL
MODEL       95
REMARK 921   NORMALIZED FREE ENERGY PREDICTED BY IDOCK:   -4.08 KCAL/MOL
REMARK 922        TOTAL FREE ENERGY PREDICTED BY IDOCK:   -5.26 KCAL/MOL
REMARK 923 INTER-LIGAND FREE ENERGY PREDICTED BY IDOCK:   -5.02 KCAL/MOL
REMARK 924 INTRA-LIGAND FREE ENERGY PREDICTED BY IDOCK:   -0.24 KCAL/MOL
REMARK 927      BINDING AFFINITY PREDICTED BY RF-SCORE:    0.00 PKD
ROOT
HETATM    1  O   UNL     1      -6.133  19.183  67.879  1.00  0.00    -0.203 OA 
HETATM    2  N   UNL     1      -7.059  18.572  68.409  1.00  0.00    -0.262 N  
HETATM    3  O   UNL     1      -7.033  17.608  69.177  1.00  0.00    -0.257 OA 
HETATM    4  O   UNL     1      -8.329  19.069  68.029  1.00  0.00    -0.283 OA 
ENDROOT
BRANCH   4   5
HETATM    5  C   UNL     1      -9.393  18.392  68.691  1.00  0.00    -0.318 C  
BRANCH   5   6
HETATM    6  C   UNL     1     -10.574  18.290  67.723  1.00  0.00    -0.393 C  
BRANCH   6   7
HETATM    7  N   UNL     1     -10.637  17.024  67.019  1.00  0.00    -0.272 N  
HETATM    8  C   UNL     1     -11.218  15.913  67.597  1.00  0.00    -0.219 C  
HETATM    9  H   UNL     1     -10.244  16.953  66.080  1.00  0.00     0.000 HD 
HETATM   10  O   UNL     1     -11.683  15.909  68.730  1.00  0.00    -0.387 OA 
BRANCH   8  11
HETATM   11  C   UNL     1     -11.226  14.677  66.790  1.00  0.00    -0.344 A  
HETATM   12  C   UNL     1     -10.502  14.545  65.603  1.00  0.00    -0.351 A  
HETATM   13  C   UNL     1     -10.584  13.352  64.888  1.00  0.00    -0.398 A  
HETATM   14  C   UNL     1     -11.386  12.336  65.387  1.00  0.00    -0.343 A  
HETATM   15  N   UNL     1     -12.097  12.435  66.531  1.00  0.00    -0.598 NA 
HETATM   16  C   UNL     1     -12.012  13.610  67.204  1.00  0.00    -0.393 A  
ENDBRANCH   8  11
ENDBRANCH   6   7
ENDBRANCH   5   6
ENDBRANCH   4   5
TORSDOF 4
ENDMDL
MODEL       96
REMARK 921   NORMALIZED FREE ENERGY PREDICTED BY IDOCK:   -4.06 KCAL/MOL
REMARK 922        TOTAL FREE ENERGY PREDICTED BY IDOCK:   -5.24 KCAL/MOL
REMARK 923 INTER-LIGAND FREE ENERGY PREDICTED BY IDOCK:   -4.74 KCAL/MOL
REMARK 924 INTRA-LIGAND FREE ENERGY PREDICTED BY IDOCK:   -0.50 KCAL/MOL
REMARK 927      BINDING AFFINITY PREDICTED BY RF-SCORE:    0.00 PKD
ROOT
HETATM    1  O   UNL     1     -12.566  13.759  63.075  1.00  0.00    -0.721 OA 
HETATM    2  N   UNL     1     -12.514  13.633  64.297  1.00  0.00    -0.301 N  
HETATM    3  O   UNL     1     -13.094  12.833  65.034  1.00  0.00    -0.811 OA 
HETATM    4  O   UNL     1     -11.669  14.590  64.909  1.00  0.00    -0.367 OA 
ENDROOT
BRANCH   4   5
HETATM    5  C   UNL     1     -11.572  14.401  66.318  1.00  0.00    -0.372 C  
BRANCH   5   6
HETATM    6  C   UNL     1     -10.145  13.958  66.646  1.00  0.00    -0.273 C  
BRANCH   6   7
HETATM    7  N   UNL     1     -10.072  12.633  67.234  1.00  0.00    -0.213 N  
HETATM    8  C   UNL     1      -9.957  11.507  66.443  1.00  0.00    -0.209 C  
HETATM    9  H   UNL     1     -10.107  12.533  68.248  1.00  0.00     0.000 HD 
HETATM   10  O   UNL     1      -9.939  11.543  65.219  1.00  0.00    -0.240 OA 
BRANCH   8  11
HETATM   11  C   UNL     1      -9.891  10.211  67.148  1.00  0.00    -0.231 A  
HETATM   12  C   UNL     1      -9.752  10.111  68.533  1.00  0.00    -0.161 A  
HETATM   13  C   UNL     1      -9.673   8.848  69.117  1.00  0.00    -0.168 A  
HETATM   14  C   UNL     1      -9.736   7.734  68.292  1.00  0.00    -0.159 A  
HETATM   15  N   UNL     1      -9.869   7.800  66.950  1.00  0.00    -0.214 NA 
HETATM   16  C   UNL     1      -9.932   9.040  66.403  1.00  0.00    -0.300 A  
ENDBRANCH   8  11
ENDBRANCH   6   7
ENDBRANCH   5   6
ENDBRANCH   4   5
TORSDOF 4
ENDMDL
MODEL       97
REMARK 921   NORMALIZED FREE ENERGY PREDICTED BY IDOCK:   -4.06 KCAL/MOL
REMARK 922        TOTAL FREE ENERGY PREDICTED BY IDOCK:   -5.24 KCAL/MOL
REMARK 923 INTER-LIGAND FREE ENERGY PREDICTED BY IDOCK:   -5.03 KCAL/MOL
REMARK 924 INTRA-LIGAND FREE ENERGY PREDICTED BY IDOCK:   -0.20 KCAL/MOL
REMARK 927      BINDING AFFINITY PREDICTED BY RF-SCORE:    0.00 PKD
ROOT
HETATM    1  O   UNL     1     -12.062  11.944  66.007  1.00  0.00    -0.500 OA 
HETATM    2  N   UNL     1     -11.401  11.723  67.022  1.00  0.00    -0.323 N  
HETATM    3  O   UNL     1     -10.222  11.384  67.138  1.00  0.00    -0.195 OA 
HETATM    4  O   UNL     1     -12.161  11.865  68.208  1.00  0.00    -0.485 OA 
ENDROOT
BRANCH   4   5
HETATM    5  C   UNL     1     -11.374  11.661  69.378  1.00  0.00    -0.278 C  
BRANCH   5   6
HETATM    6  C   UNL     1     -12.242  10.956  70.424  1.00  0.00    -0.365 C  
BRANCH   6   7
HETATM    7  N   UNL     1     -11.676   9.708  70.897  1.00  0.00    -0.310 N  
HETATM    8  C   UNL     1     -12.248   9.018  71.947  1.00  0.00    -0.381 C  
HETATM    9  H   UNL     1     -10.841   9.333  70.447  1.00  0.00     0.000 HD 
HETATM   10  O   UNL     1     -13.231   9.416  72.559  1.00  0.00    -0.426 OA 
BRANCH   8  11
HETATM   11  C   UNL     1     -11.588   7.758  72.346  1.00  0.00    -0.410 A  
HETATM   12  C   UNL     1     -12.061   6.503  71.961  1.00  0.00    -0.358 A  
HETATM   13  C   UNL     1     -11.393   5.362  72.402  1.00  0.00    -0.242 A  
HETATM   14  C   UNL     1     -10.277   5.521  73.210  1.00  0.00    -0.195 A  
HETATM   15  N   UNL     1      -9.797   6.722  73.599  1.00  0.00    -0.215 NA 
HETATM   16  C   UNL     1     -10.471   7.818  73.168  1.00  0.00    -0.349 A  
ENDBRANCH   8  11
ENDBRANCH   6   7
ENDBRANCH   5   6
ENDBRANCH   4   5
TORSDOF 4
ENDMDL
MODEL       98
REMARK 921   NORMALIZED FREE ENERGY PREDICTED BY IDOCK:   -4.06 KCAL/MOL
REMARK 922        TOTAL FREE ENERGY PREDICTED BY IDOCK:   -5.23 KCAL/MOL
REMARK 923 INTER-LIGAND FREE ENERGY PREDICTED BY IDOCK:   -5.00 KCAL/MOL
REMARK 924 INTRA-LIGAND FREE ENERGY PREDICTED BY IDOCK:   -0.23 KCAL/MOL
REMARK 927      BINDING AFFINITY PREDICTED BY RF-SCORE:    0.00 PKD
ROOT
HETATM    1  O   UNL     1      -8.784  10.446  66.327  1.00  0.00    -0.146 OA 
HETATM    2  N   UNL     1      -9.738  11.032  65.818  1.00  0.00    -0.213 N  
HETATM    3  O   UNL     1     -10.524  10.654  64.946  1.00  0.00    -0.312 OA 
HETATM    4  O   UNL     1      -9.903  12.346  66.319  1.00  0.00    -0.237 OA 
ENDROOT
BRANCH   4   5
HETATM    5  C   UNL     1     -11.042  12.996  65.764  1.00  0.00    -0.278 C  
BRANCH   5   6
HETATM    6  C   UNL     1     -11.605  13.958  66.812  1.00  0.00    -0.378 C  
BRANCH   6   7
HETATM    7  N   UNL     1     -11.092  15.310  66.690  1.00  0.00    -0.309 N  
HETATM    8  C   UNL     1     -11.057  16.160  67.777  1.00  0.00    -0.254 C  
HETATM    9  H   UNL     1     -10.753  15.637  65.787  1.00  0.00     0.000 HD 
HETATM   10  O   UNL     1     -11.474  15.853  68.887  1.00  0.00    -0.348 OA 
BRANCH   8  11
HETATM   11  C   UNL     1     -10.516  17.513  67.538  1.00  0.00    -0.355 A  
HETATM   12  C   UNL     1     -10.152  18.375  68.574  1.00  0.00    -0.413 A  
HETATM   13  C   UNL     1      -9.672  19.646  68.261  1.00  0.00    -0.500 A  
HETATM   14  C   UNL     1      -9.574  20.005  66.925  1.00  0.00    -0.412 A  
HETATM   15  N   UNL     1      -9.919  19.193  65.903  1.00  0.00    -0.483 NA 
HETATM   16  C   UNL     1     -10.395  17.966  66.231  1.00  0.00    -0.364 A  
ENDBRANCH   8  11
ENDBRANCH   6   7
ENDBRANCH   5   6
ENDBRANCH   4   5
TORSDOF 4
ENDMDL
MODEL       99
REMARK 921   NORMALIZED FREE ENERGY PREDICTED BY IDOCK:   -4.04 KCAL/MOL
REMARK 922        TOTAL FREE ENERGY PREDICTED BY IDOCK:   -5.21 KCAL/MOL
REMARK 923 INTER-LIGAND FREE ENERGY PREDICTED BY IDOCK:   -4.99 KCAL/MOL
REMARK 924 INTRA-LIGAND FREE ENERGY PREDICTED BY IDOCK:   -0.23 KCAL/MOL
REMARK 927      BINDING AFFINITY PREDICTED BY RF-SCORE:    0.00 PKD
ROOT
HETATM    1  O   UNL     1     -12.383  14.862  71.591  1.00  0.00    -0.307 OA 
HETATM    2  N   UNL     1     -12.957  13.821  71.908  1.00  0.00    -0.351 N  
HETATM    3  O   UNL     1     -13.868  13.636  72.717  1.00  0.00    -0.727 OA 
HETATM    4  O   UNL     1     -12.438  12.687  71.237  1.00  0.00    -0.309 OA 
ENDROOT
BRANCH   4   5
HETATM    5  C   UNL     1     -13.145  11.495  71.569  1.00  0.00    -0.326 C  
BRANCH   5   6
HETATM    6  C   UNL     1     -12.652  10.373  70.654  1.00  0.00    -0.348 C  
BRANCH   6   7
HETATM    7  N   UNL     1     -11.845   9.381  71.338  1.00  0.00    -0.346 N  
HETATM    8  C   UNL     1     -12.377   8.163  71.711  1.00  0.00    -0.321 C  
HETATM    9  H   UNL     1     -10.869   9.587  71.547  1.00  0.00     0.000 HD 
HETATM   10  O   UNL     1     -13.546   7.852  71.524  1.00  0.00    -0.341 OA 
BRANCH   8  11
HETATM   11  C   UNL     1     -11.465   7.229  72.403  1.00  0.00    -0.327 A  
HETATM   12  C   UNL     1     -10.362   7.659  73.142  1.00  0.00    -0.411 A  
HETATM   13  C   UNL     1      -9.537   6.711  73.743  1.00  0.00    -0.226 A  
HETATM   14  C   UNL     1      -9.847   5.369  73.582  1.00  0.00    -0.163 A  
HETATM   15  N   UNL     1     -10.906   4.923  72.873  1.00  0.00    -0.232 NA 
HETATM   16  C   UNL     1     -11.688   5.864  72.286  1.00  0.00    -0.252 A  
ENDBRANCH   8  11
ENDBRANCH   6   7
ENDBRANCH   5   6
ENDBRANCH   4   5
TORSDOF 4
ENDMDL
MODEL      100
REMARK 921   NORMALIZED FREE ENERGY PREDICTED BY IDOCK:   -4.01 KCAL/MOL
REMARK 922        TOTAL FREE ENERGY PREDICTED BY IDOCK:   -5.18 KCAL/MOL
REMARK 923 INTER-LIGAND FREE ENERGY PREDICTED BY IDOCK:   -4.86 KCAL/MOL
REMARK 924 INTRA-LIGAND FREE ENERGY PREDICTED BY IDOCK:   -0.32 KCAL/MOL
REMARK 927      BINDING AFFINITY PREDICTED BY RF-SCORE:    0.00 PKD
ROOT
HETATM    1  O   UNL     1      -7.096  19.403  65.137  1.00  0.00    -0.418 OA 
HETATM    2  N   UNL     1      -7.791  19.753  66.090  1.00  0.00    -0.327 N  
HETATM    3  O   UNL     1      -7.499  20.443  67.069  1.00  0.00    -0.283 OA 
HETATM    4  O   UNL     1      -9.109  19.240  66.022  1.00  0.00    -0.433 OA 
ENDROOT
BRANCH   4   5
HETATM    5  C   UNL     1      -9.921  19.696  67.100  1.00  0.00    -0.387 C  
BRANCH   5   6
HETATM    6  C   UNL     1     -10.300  18.489  67.961  1.00  0.00    -0.383 C  
BRANCH   6   7
HETATM    7  N   UNL     1     -10.264  17.231  67.240  1.00  0.00    -0.311 N  
HETATM    8  C   UNL     1     -10.574  16.041  67.867  1.00  0.00    -0.301 C  
HETATM    9  H   UNL     1     -10.004  17.226  66.254  1.00  0.00     0.000 HD 
HETATM   10  O   UNL     1     -10.865  15.960  69.054  1.00  0.00    -0.233 OA 
BRANCH   8  11
HETATM   11  C   UNL     1     -10.503  14.821  67.037  1.00  0.00    -0.270 A  
HETATM   12  C   UNL     1     -10.258  13.556  67.573  1.00  0.00    -0.234 A  
HETATM   13  C   UNL     1     -10.183  12.460  66.716  1.00  0.00    -0.234 A  
HETATM   14  C   UNL     1     -10.357  12.671  65.357  1.00  0.00    -0.291 A  
HETATM   15  N   UNL     1     -10.594  13.882  64.809  1.00  0.00    -0.413 NA 
HETATM   16  C   UNL     1     -10.651  14.936  65.661  1.00  0.00    -0.344 A  
ENDBRANCH   8  11
ENDBRANCH   6   7
ENDBRANCH   5   6
ENDBRANCH   4   5
TORSDOF 4
ENDMDL
MODEL      101
REMARK 921   NORMALIZED FREE ENERGY PREDICTED BY IDOCK:   -4.00 KCAL/MOL
REMARK 922        TOTAL FREE ENERGY PREDICTED BY IDOCK:   -5.16 KCAL/MOL
REMARK 923 INTER-LIGAND FREE ENERGY PREDICTED BY IDOCK:   -4.91 KCAL/MOL
REMARK 924 INTRA-LIGAND FREE ENERGY PREDICTED BY IDOCK:   -0.26 KCAL/MOL
REMARK 927      BINDING AFFINITY PREDICTED BY RF-SCORE:    0.00 PKD
ROOT
HETATM    1  O   UNL     1      -8.647   8.114  64.694  1.00  0.00    -0.081 OA 
HETATM    2  N   UNL     1      -8.501   9.212  64.158  1.00  0.00    -0.187 N  
HETATM    3  O   UNL     1      -7.482   9.745  63.714  1.00  0.00    -0.118 OA 
HETATM    4  O   UNL     1      -9.707   9.950  64.090  1.00  0.00    -0.234 OA 
ENDROOT
BRANCH   4   5
HETATM    5  C   UNL     1      -9.539  11.195  63.419  1.00  0.00    -0.332 C  
BRANCH   5   6
HETATM    6  C   UNL     1     -10.872  11.946  63.457  1.00  0.00    -0.434 C  
BRANCH   6   7
HETATM    7  N   UNL     1     -10.742  13.335  63.851  1.00  0.00    -0.523 N  
HETATM    8  C   UNL     1     -10.817  13.711  65.177  1.00  0.00    -0.334 C  
HETATM    9  H   UNL     1     -10.593  14.047  63.136  1.00  0.00     0.000 HD 
HETATM   10  O   UNL     1     -11.024  12.922  66.090  1.00  0.00    -0.275 OA 
BRANCH   8  11
HETATM   11  C   UNL     1     -10.672  15.153  65.463  1.00  0.00    -0.379 A  
HETATM   12  C   UNL     1     -10.062  15.635  66.622  1.00  0.00    -0.280 A  
HETATM   13  C   UNL     1      -9.988  17.012  66.827  1.00  0.00    -0.297 A  
HETATM   14  C   UNL     1     -10.526  17.852  65.863  1.00  0.00    -0.253 A  
HETATM   15  N   UNL     1     -11.122  17.415  64.733  1.00  0.00    -0.883 NA 
HETATM   16  C   UNL     1     -11.193  16.071  64.562  1.00  0.00    -0.297 A  
ENDBRANCH   8  11
ENDBRANCH   6   7
ENDBRANCH   5   6
ENDBRANCH   4   5
TORSDOF 4
ENDMDL
MODEL      102
REMARK 921   NORMALIZED FREE ENERGY PREDICTED BY IDOCK:   -3.98 KCAL/MOL
REMARK 922        TOTAL FREE ENERGY PREDICTED BY IDOCK:   -5.14 KCAL/MOL
REMARK 923 INTER-LIGAND FREE ENERGY PREDICTED BY IDOCK:   -4.60 KCAL/MOL
REMARK 924 INTRA-LIGAND FREE ENERGY PREDICTED BY IDOCK:   -0.54 KCAL/MOL
REMARK 927      BINDING AFFINITY PREDICTED BY RF-SCORE:    0.00 PKD
ROOT
HETATM    1  O   UNL     1     -10.223   9.905  70.039  1.00  0.00    -0.244 OA 
HETATM    2  N   UNL     1     -10.650   9.657  68.912  1.00  0.00    -0.214 N  
HETATM    3  O   UNL     1     -11.643  10.099  68.328  1.00  0.00    -0.193 OA 
HETATM    4  O   UNL     1      -9.868   8.694  68.231  1.00  0.00    -0.156 OA 
ENDROOT
BRANCH   4   5
HETATM    5  C   UNL     1     -10.338   8.455  66.908  1.00  0.00    -0.307 C  
BRANCH   5   6
HETATM    6  C   UNL     1      -9.564   9.364  65.951  1.00  0.00    -0.270 C  
BRANCH   6   7
HETATM    7  N   UNL     1     -10.303  10.546  65.552  1.00  0.00    -0.251 N  
HETATM    8  C   UNL     1      -9.834  11.812  65.842  1.00  0.00    -0.238 C  
HETATM    9  H   UNL     1     -11.183  10.440  65.049  1.00  0.00     0.000 HD 
HETATM   10  O   UNL     1      -8.803  12.022  66.468  1.00  0.00    -0.205 OA 
BRANCH   8  11
HETATM   11  C   UNL     1     -10.668  12.943  65.388  1.00  0.00    -0.307 A  
HETATM   12  C   UNL     1     -10.165  14.235  65.225  1.00  0.00    -0.408 A  
HETATM   13  C   UNL     1     -11.026  15.252  64.817  1.00  0.00    -0.403 A  
HETATM   14  C   UNL     1     -12.357  14.937  64.586  1.00  0.00    -0.278 A  
HETATM   15  N   UNL     1     -12.872  13.697  64.735  1.00  0.00    -0.701 NA 
HETATM   16  C   UNL     1     -12.018  12.727  65.145  1.00  0.00    -0.424 A  
ENDBRANCH   8  11
ENDBRANCH   6   7
ENDBRANCH   5   6
ENDBRANCH   4   5
TORSDOF 4
ENDMDL
MODEL      103
REMARK 921   NORMALIZED FREE ENERGY PREDICTED BY IDOCK:   -3.98 KCAL/MOL
REMARK 922        TOTAL FREE ENERGY PREDICTED BY IDOCK:   -5.14 KCAL/MOL
REMARK 923 INTER-LIGAND FREE ENERGY PREDICTED BY IDOCK:   -4.91 KCAL/MOL
REMARK 924 INTRA-LIGAND FREE ENERGY PREDICTED BY IDOCK:   -0.22 KCAL/MOL
REMARK 927      BINDING AFFINITY PREDICTED BY RF-SCORE:    0.00 PKD
ROOT
HETATM    1  O   UNL     1      -8.618   5.373  65.781  1.00  0.00    -0.128 OA 
HETATM    2  N   UNL     1      -9.613   5.982  66.171  1.00  0.00    -0.107 N  
HETATM    3  O   UNL     1     -10.750   5.569  66.407  1.00  0.00    -0.281 OA 
HETATM    4  O   UNL     1      -9.376   7.369  66.330  1.00  0.00    -0.177 OA 
ENDROOT
BRANCH   4   5
HETATM    5  C   UNL     1     -10.518   8.056  66.835  1.00  0.00    -0.317 C  
BRANCH   5   6
HETATM    6  C   UNL     1     -10.043   9.339  67.519  1.00  0.00    -0.218 C  
BRANCH   6   7
HETATM    7  N   UNL     1     -10.236  10.530  66.713  1.00  0.00    -0.226 N  
HETATM    8  C   UNL     1     -11.267  11.409  66.975  1.00  0.00    -0.283 C  
HETATM    9  H   UNL     1      -9.598  10.720  65.940  1.00  0.00     0.000 HD 
HETATM   10  O   UNL     1     -12.091  11.236  67.864  1.00  0.00    -0.634 OA 
BRANCH   8  11
HETATM   11  C   UNL     1     -11.369  12.588  66.091  1.00  0.00    -0.388 A  
HETATM   12  C   UNL     1     -10.363  13.551  65.997  1.00  0.00    -0.303 A  
HETATM   13  C   UNL     1     -10.549  14.646  65.156  1.00  0.00    -0.441 A  
HETATM   14  C   UNL     1     -11.734  14.736  64.440  1.00  0.00    -0.336 A  
HETATM   15  N   UNL     1     -12.724  13.820  64.511  1.00  0.00    -0.660 NA 
HETATM   16  C   UNL     1     -12.526  12.769  65.345  1.00  0.00    -0.416 A  
ENDBRANCH   8  11
ENDBRANCH   6   7
ENDBRANCH   5   6
ENDBRANCH   4   5
TORSDOF 4
ENDMDL
MODEL      104
REMARK 921   NORMALIZED FREE ENERGY PREDICTED BY IDOCK:   -3.95 KCAL/MOL
REMARK 922        TOTAL FREE ENERGY PREDICTED BY IDOCK:   -5.10 KCAL/MOL
REMARK 923 INTER-LIGAND FREE ENERGY PREDICTED BY IDOCK:   -4.85 KCAL/MOL
REMARK 924 INTRA-LIGAND FREE ENERGY PREDICTED BY IDOCK:   -0.25 KCAL/MOL
REMARK 927      BINDING AFFINITY PREDICTED BY RF-SCORE:    0.00 PKD
ROOT
HETATM    1  O   UNL     1     -12.574  12.601  65.492  1.00  0.00    -0.634 OA 
HETATM    2  N   UNL     1     -11.817  12.622  66.462  1.00  0.00    -0.410 N  
HETATM    3  O   UNL     1     -10.830  13.328  66.678  1.00  0.00    -0.278 OA 
HETATM    4  O   UNL     1     -12.154  11.654  67.438  1.00  0.00    -0.605 OA 
ENDROOT
BRANCH   4   5
HETATM    5  C   UNL     1     -11.307  11.724  68.581  1.00  0.00    -0.270 C  
BRANCH   5   6
HETATM    6  C   UNL     1     -11.939  10.894  69.700  1.00  0.00    -0.343 C  
BRANCH   6   7
HETATM    7  N   UNL     1     -11.613   9.483  69.629  1.00  0.00    -0.441 N  
HETATM    8  C   UNL     1     -10.766   8.899  70.551  1.00  0.00    -0.230 C  
HETATM    9  H   UNL     1     -12.015   8.913  68.886  1.00  0.00     0.000 HD 
HETATM   10  O   UNL     1     -10.220   9.522  71.453  1.00  0.00    -0.283 OA 
BRANCH   8  11
HETATM   11  C   UNL     1     -10.503   7.456  70.382  1.00  0.00    -0.230 A  
HETATM   12  C   UNL     1      -9.984   6.659  71.403  1.00  0.00    -0.198 A  
HETATM   13  C   UNL     1      -9.742   5.309  71.153  1.00  0.00    -0.232 A  
HETATM   14  C   UNL     1     -10.029   4.809  69.892  1.00  0.00    -0.236 A  
HETATM   15  N   UNL     1     -10.532   5.556  68.885  1.00  0.00    -0.225 NA 
HETATM   16  C   UNL     1     -10.747   6.869  69.148  1.00  0.00    -0.234 A  
ENDBRANCH   8  11
ENDBRANCH   6   7
ENDBRANCH   5   6
ENDBRANCH   4   5
TORSDOF 4
ENDMDL
MODEL      105
REMARK 921   NORMALIZED FREE ENERGY PREDICTED BY IDOCK:   -3.94 KCAL/MOL
REMARK 922        TOTAL FREE ENERGY PREDICTED BY IDOCK:   -5.09 KCAL/MOL
REMARK 923 INTER-LIGAND FREE ENERGY PREDICTED BY IDOCK:   -4.66 KCAL/MOL
REMARK 924 INTRA-LIGAND FREE ENERGY PREDICTED BY IDOCK:   -0.42 KCAL/MOL
REMARK 927      BINDING AFFINITY PREDICTED BY RF-SCORE:    0.00 PKD
ROOT
HETATM    1  O   UNL     1      -9.947  11.678  66.201  1.00  0.00    -0.209 OA 
HETATM    2  N   UNL     1     -10.967  11.884  66.857  1.00  0.00    -0.273 N  
HETATM    3  O   UNL     1     -12.119  12.108  66.478  1.00  0.00    -0.627 OA 
HETATM    4  O   UNL     1     -10.728  11.881  68.252  1.00  0.00    -0.204 OA 
ENDROOT
BRANCH   4   5
HETATM    5  C   UNL     1     -11.924  12.064  69.004  1.00  0.00    -0.264 C  
BRANCH   5   6
HETATM    6  C   UNL     1     -11.879  13.451  69.649  1.00  0.00    -0.331 C  
BRANCH   6   7
HETATM    7  N   UNL     1     -11.713  14.529  68.692  1.00  0.00    -0.317 N  
HETATM    8  C   UNL     1     -10.676  15.432  68.807  1.00  0.00    -0.241 C  
HETATM    9  H   UNL     1     -12.375  14.621  67.922  1.00  0.00     0.000 HD 
HETATM   10  O   UNL     1      -9.859  15.407  69.719  1.00  0.00    -0.268 OA 
BRANCH   8  11
HETATM   11  C   UNL     1     -10.605  16.489  67.778  1.00  0.00    -0.332 A  
HETATM   12  C   UNL     1     -10.517  16.209  66.413  1.00  0.00    -0.304 A  
HETATM   13  C   UNL     1     -10.429  17.265  65.509  1.00  0.00    -0.135 A  
HETATM   14  C   UNL     1     -10.432  18.561  66.004  1.00  0.00    -0.400 A  
HETATM   15  N   UNL     1     -10.515  18.862  67.318  1.00  0.00    -0.416 NA 
HETATM   16  C   UNL     1     -10.587  17.817  68.180  1.00  0.00    -0.344 A  
ENDBRANCH   8  11
ENDBRANCH   6   7
ENDBRANCH   5   6
ENDBRANCH   4   5
TORSDOF 4
ENDMDL
MODEL      106
REMARK 921   NORMALIZED FREE ENERGY PREDICTED BY IDOCK:   -3.94 KCAL/MOL
REMARK 922        TOTAL FREE ENERGY PREDICTED BY IDOCK:   -5.08 KCAL/MOL
REMARK 923 INTER-LIGAND FREE ENERGY PREDICTED BY IDOCK:   -4.82 KCAL/MOL
REMARK 924 INTRA-LIGAND FREE ENERGY PREDICTED BY IDOCK:   -0.26 KCAL/MOL
REMARK 927      BINDING AFFINITY PREDICTED BY RF-SCORE:    0.00 PKD
ROOT
HETATM    1  O   UNL     1     -12.694  14.241  71.078  1.00  0.00    -0.321 OA 
HETATM    2  N   UNL     1     -13.169  13.285  71.691  1.00  0.00    -0.380 N  
HETATM    3  O   UNL     1     -13.919  13.268  72.669  1.00  0.00    -0.741 OA 
HETATM    4  O   UNL     1     -12.738  12.039  71.177  1.00  0.00    -0.364 OA 
ENDROOT
BRANCH   4   5
HETATM    5  C   UNL     1     -13.335  10.939  71.858  1.00  0.00    -0.324 C  
BRANCH   5   6
HETATM    6  C   UNL     1     -12.763   9.645  71.276  1.00  0.00    -0.352 C  
BRANCH   6   7
HETATM    7  N   UNL     1     -11.329   9.516  71.452  1.00  0.00    -0.376 N  
HETATM    8  C   UNL     1     -10.796   8.537  72.266  1.00  0.00    -0.348 C  
HETATM    9  H   UNL     1     -10.705  10.159  70.966  1.00  0.00     0.000 HD 
HETATM   10  O   UNL     1     -11.479   7.747  72.906  1.00  0.00    -0.378 OA 
BRANCH   8  11
HETATM   11  C   UNL     1      -9.323   8.498  72.372  1.00  0.00    -0.349 A  
HETATM   12  C   UNL     1      -8.660   8.160  73.553  1.00  0.00    -0.313 A  
HETATM   13  C   UNL     1      -7.266   8.172  73.574  1.00  0.00    -0.174 A  
HETATM   14  C   UNL     1      -6.591   8.520  72.414  1.00  0.00    -0.082 A  
HETATM   15  N   UNL     1      -7.205   8.852  71.258  1.00  0.00    -0.120 NA 
HETATM   16  C   UNL     1      -8.562   8.846  71.265  1.00  0.00    -0.198 A  
ENDBRANCH   8  11
ENDBRANCH   6   7
ENDBRANCH   5   6
ENDBRANCH   4   5
TORSDOF 4
ENDMDL
MODEL      107
REMARK 921   NORMALIZED FREE ENERGY PREDICTED BY IDOCK:   -3.94 KCAL/MOL
REMARK 922        TOTAL FREE ENERGY PREDICTED BY IDOCK:   -5.08 KCAL/MOL
REMARK 923 INTER-LIGAND FREE ENERGY PREDICTED BY IDOCK:   -4.78 KCAL/MOL
REMARK 924 INTRA-LIGAND FREE ENERGY PREDICTED BY IDOCK:   -0.30 KCAL/MOL
REMARK 927      BINDING AFFINITY PREDICTED BY RF-SCORE:    0.00 PKD
ROOT
HETATM    1  O   UNL     1     -11.050   6.941  67.255  1.00  0.00    -0.339 OA 
HETATM    2  N   UNL     1     -10.103   7.582  67.709  1.00  0.00    -0.174 N  
HETATM    3  O   UNL     1      -8.899   7.498  67.457  1.00  0.00    -0.127 OA 
HETATM    4  O   UNL     1     -10.502   8.527  68.685  1.00  0.00    -0.208 OA 
ENDROOT
BRANCH   4   5
HETATM    5  C   UNL     1      -9.406   9.302  69.163  1.00  0.00    -0.157 C  
BRANCH   5   6
HETATM    6  C   UNL     1      -9.536  10.718  68.599  1.00  0.00    -0.188 C  
BRANCH   6   7
HETATM    7  N   UNL     1     -10.209  11.638  69.496  1.00  0.00    -0.330 N  
HETATM    8  C   UNL     1     -11.561  11.891  69.376  1.00  0.00    -0.325 C  
HETATM    9  H   UNL     1      -9.674  12.106  70.227  1.00  0.00     0.000 HD 
HETATM   10  O   UNL     1     -12.265  11.393  68.506  1.00  0.00    -0.557 OA 
BRANCH   8  11
HETATM   11  C   UNL     1     -12.141  12.846  70.342  1.00  0.00    -0.385 A  
HETATM   12  C   UNL     1     -11.864  14.213  70.313  1.00  0.00    -0.373 A  
HETATM   13  C   UNL     1     -12.434  15.041  71.277  1.00  0.00    -0.402 A  
HETATM   14  C   UNL     1     -13.260  14.470  72.233  1.00  0.00    -0.389 A  
HETATM   15  N   UNL     1     -13.547  13.152  72.287  1.00  0.00    -0.581 NA 
HETATM   16  C   UNL     1     -12.970  12.363  71.345  1.00  0.00    -0.250 A  
ENDBRANCH   8  11
ENDBRANCH   6   7
ENDBRANCH   5   6
ENDBRANCH   4   5
TORSDOF 4
ENDMDL
MODEL      108
REMARK 921   NORMALIZED FREE ENERGY PREDICTED BY IDOCK:   -3.92 KCAL/MOL
REMARK 922        TOTAL FREE ENERGY PREDICTED BY IDOCK:   -5.06 KCAL/MOL
REMARK 923 INTER-LIGAND FREE ENERGY PREDICTED BY IDOCK:   -4.86 KCAL/MOL
REMARK 924 INTRA-LIGAND FREE ENERGY PREDICTED BY IDOCK:   -0.20 KCAL/MOL
REMARK 927      BINDING AFFINITY PREDICTED BY RF-SCORE:    0.00 PKD
ROOT
HETATM    1  O   UNL     1      -5.709  17.184  70.397  1.00  0.00    -0.220 OA 
HETATM    2  N   UNL     1      -6.089  16.090  69.981  1.00  0.00    -0.172 N  
HETATM    3  O   UNL     1      -5.542  14.987  70.046  1.00  0.00    -0.110 OA 
HETATM    4  O   UNL     1      -7.332  16.164  69.309  1.00  0.00    -0.219 OA 
ENDROOT
BRANCH   4   5
HETATM    5  C   UNL     1      -7.790  14.885  68.879  1.00  0.00    -0.161 C  
BRANCH   5   6
HETATM    6  C   UNL     1      -9.246  15.021  68.430  1.00  0.00    -0.193 C  
BRANCH   6   7
HETATM    7  N   UNL     1     -10.204  14.774  69.490  1.00  0.00    -0.394 N  
HETATM    8  C   UNL     1     -11.533  14.528  69.208  1.00  0.00    -0.288 C  
HETATM    9  H   UNL     1      -9.891  14.782  70.460  1.00  0.00     0.000 HD 
HETATM   10  O   UNL     1     -11.993  14.531  68.073  1.00  0.00    -0.326 OA 
BRANCH   8  11
HETATM   11  C   UNL     1     -12.420  14.290  70.365  1.00  0.00    -0.426 A  
HETATM   12  C   UNL     1     -13.181  15.300  70.954  1.00  0.00    -0.506 A  
HETATM   13  C   UNL     1     -13.973  14.996  72.059  1.00  0.00    -0.605 A  
HETATM   14  C   UNL     1     -13.974  13.692  72.533  1.00  0.00    -0.466 A  
HETATM   15  N   UNL     1     -13.248  12.694  71.984  1.00  0.00    -0.460 NA 
HETATM   16  C   UNL     1     -12.475  13.017  70.917  1.00  0.00    -0.310 A  
ENDBRANCH   8  11
ENDBRANCH   6   7
ENDBRANCH   5   6
ENDBRANCH   4   5
TORSDOF 4
ENDMDL
MODEL      109
REMARK 921   NORMALIZED FREE ENERGY PREDICTED BY IDOCK:   -3.90 KCAL/MOL
REMARK 922        TOTAL FREE ENERGY PREDICTED BY IDOCK:   -5.03 KCAL/MOL
REMARK 923 INTER-LIGAND FREE ENERGY PREDICTED BY IDOCK:   -4.81 KCAL/MOL
REMARK 924 INTRA-LIGAND FREE ENERGY PREDICTED BY IDOCK:   -0.22 KCAL/MOL
REMARK 927      BINDING AFFINITY PREDICTED BY RF-SCORE:    0.00 PKD
ROOT
HETATM    1  O   UNL     1     -14.377   6.796  71.991  1.00  0.00    -0.274 OA 
HETATM    2  N   UNL     1     -13.379   7.394  71.591  1.00  0.00    -0.372 N  
HETATM    3  O   UNL     1     -12.498   7.027  70.810  1.00  0.00    -0.338 OA 
HETATM    4  O   UNL     1     -13.250   8.683  72.161  1.00  0.00    -0.349 OA 
ENDROOT
BRANCH   4   5
HETATM    5  C   UNL     1     -12.123   9.388  71.650  1.00  0.00    -0.388 C  
BRANCH   5   6
HETATM    6  C   UNL     1     -12.581  10.786  71.228  1.00  0.00    -0.426 C  
BRANCH   6   7
HETATM    7  N   UNL     1     -12.095  11.184  69.921  1.00  0.00    -0.330 N  
HETATM    8  C   UNL     1     -11.749  12.494  69.656  1.00  0.00    -0.302 C  
HETATM    9  H   UNL     1     -12.010  10.484  69.184  1.00  0.00     0.000 HD 
HETATM   10  O   UNL     1     -11.852  13.397  70.477  1.00  0.00    -0.278 OA 
BRANCH   8  11
HETATM   11  C   UNL     1     -11.267  12.786  68.291  1.00  0.00    -0.308 A  
HETATM   12  C   UNL     1     -12.130  13.045  67.225  1.00  0.00    -0.304 A  
HETATM   13  C   UNL     1     -11.594  13.287  65.962  1.00  0.00    -0.384 A  
HETATM   14  C   UNL     1     -10.216  13.260  65.813  1.00  0.00    -0.292 A  
HETATM   15  N   UNL     1      -9.356  13.012  66.825  1.00  0.00    -0.240 NA 
HETATM   16  C   UNL     1      -9.901  12.767  68.043  1.00  0.00    -0.226 A  
ENDBRANCH   8  11
ENDBRANCH   6   7
ENDBRANCH   5   6
ENDBRANCH   4   5
TORSDOF 4
ENDMDL
MODEL      110
REMARK 921   NORMALIZED FREE ENERGY PREDICTED BY IDOCK:   -3.89 KCAL/MOL
REMARK 922        TOTAL FREE ENERGY PREDICTED BY IDOCK:   -5.03 KCAL/MOL
REMARK 923 INTER-LIGAND FREE ENERGY PREDICTED BY IDOCK:   -4.80 KCAL/MOL
REMARK 924 INTRA-LIGAND FREE ENERGY PREDICTED BY IDOCK:   -0.23 KCAL/MOL
REMARK 927      BINDING AFFINITY PREDICTED BY RF-SCORE:    0.00 PKD
ROOT
HETATM    1  O   UNL     1     -12.866  14.296  70.927  1.00  0.00    -0.330 OA 
HETATM    2  N   UNL     1     -13.252  13.330  71.584  1.00  0.00    -0.380 N  
HETATM    3  O   UNL     1     -14.031  13.284  72.539  1.00  0.00    -0.701 OA 
HETATM    4  O   UNL     1     -12.664  12.114  71.163  1.00  0.00    -0.358 OA 
ENDROOT
BRANCH   4   5
HETATM    5  C   UNL     1     -13.158  10.995  71.893  1.00  0.00    -0.419 C  
BRANCH   5   6
HETATM    6  C   UNL     1     -13.359   9.834  70.916  1.00  0.00    -0.166 C  
BRANCH   6   7
HETATM    7  N   UNL     1     -12.177   9.012  70.745  1.00  0.00    -0.483 N  
HETATM    8  C   UNL     1     -12.181   7.674  71.088  1.00  0.00    -0.285 C  
HETATM    9  H   UNL     1     -11.328   9.429  70.364  1.00  0.00     0.000 HD 
HETATM   10  O   UNL     1     -13.150   7.109  71.579  1.00  0.00    -0.381 OA 
BRANCH   8  11
HETATM   11  C   UNL     1     -10.922   6.934  70.871  1.00  0.00    -0.290 A  
HETATM   12  C   UNL     1     -10.875   5.697  70.226  1.00  0.00    -0.336 A  
HETATM   13  C   UNL     1      -9.647   5.053  70.084  1.00  0.00    -0.257 A  
HETATM   14  C   UNL     1      -8.515   5.671  70.592  1.00  0.00    -0.126 A  
HETATM   15  N   UNL     1      -8.529   6.866  71.221  1.00  0.00    -0.119 NA 
HETATM   16  C   UNL     1      -9.737   7.468  71.358  1.00  0.00    -0.166 A  
ENDBRANCH   8  11
ENDBRANCH   6   7
ENDBRANCH   5   6
ENDBRANCH   4   5
TORSDOF 4
ENDMDL
MODEL      111
REMARK 921   NORMALIZED FREE ENERGY PREDICTED BY IDOCK:   -3.88 KCAL/MOL
REMARK 922        TOTAL FREE ENERGY PREDICTED BY IDOCK:   -5.01 KCAL/MOL
REMARK 923 INTER-LIGAND FREE ENERGY PREDICTED BY IDOCK:   -4.60 KCAL/MOL
REMARK 924 INTRA-LIGAND FREE ENERGY PREDICTED BY IDOCK:   -0.40 KCAL/MOL
REMARK 927      BINDING AFFINITY PREDICTED BY RF-SCORE:    0.00 PKD
ROOT
HETATM    1  O   UNL     1     -11.839  11.485  67.408  1.00  0.00    -0.607 OA 
HETATM    2  N   UNL     1     -11.580  11.081  68.541  1.00  0.00    -0.307 N  
HETATM    3  O   UNL     1     -10.540  10.592  68.986  1.00  0.00    -0.193 OA 
HETATM    4  O   UNL     1     -12.682  11.188  69.423  1.00  0.00    -0.240 OA 
ENDROOT
BRANCH   4   5
HETATM    5  C   UNL     1     -12.356  10.770  70.745  1.00  0.00    -0.383 C  
BRANCH   5   6
HETATM    6  C   UNL     1     -13.134   9.488  71.050  1.00  0.00    -0.198 C  
BRANCH   6   7
HETATM    7  N   UNL     1     -12.408   8.278  70.717  1.00  0.00    -0.494 N  
HETATM    8  C   UNL     1     -11.658   7.612  71.665  1.00  0.00    -0.267 C  
HETATM    9  H   UNL     1     -12.453   7.913  69.766  1.00  0.00     0.000 HD 
HETATM   10  O   UNL     1     -11.530   8.002  72.819  1.00  0.00    -0.402 OA 
BRANCH   8  11
HETATM   11  C   UNL     1     -10.960   6.390  71.215  1.00  0.00    -0.321 A  
HETATM   12  C   UNL     1     -10.573   5.375  72.091  1.00  0.00    -0.284 A  
HETATM   13  C   UNL     1      -9.896   4.266  71.587  1.00  0.00    -0.257 A  
HETATM   14  C   UNL     1      -9.633   4.215  70.227  1.00  0.00    -0.199 A  
HETATM   15  N   UNL     1      -9.995   5.181  69.355  1.00  0.00    -0.202 NA 
HETATM   16  C   UNL     1     -10.641   6.257  69.870  1.00  0.00    -0.249 A  
ENDBRANCH   8  11
ENDBRANCH   6   7
ENDBRANCH   5   6
ENDBRANCH   4   5
TORSDOF 4
ENDMDL
MODEL      112
REMARK 921   NORMALIZED FREE ENERGY PREDICTED BY IDOCK:   -3.87 KCAL/MOL
REMARK 922        TOTAL FREE ENERGY PREDICTED BY IDOCK:   -5.00 KCAL/MOL
REMARK 923 INTER-LIGAND FREE ENERGY PREDICTED BY IDOCK:   -4.69 KCAL/MOL
REMARK 924 INTRA-LIGAND FREE ENERGY PREDICTED BY IDOCK:   -0.31 KCAL/MOL
REMARK 927      BINDING AFFINITY PREDICTED BY RF-SCORE:    0.00 PKD
ROOT
HETATM    1  O   UNL     1      -6.726  15.856  66.719  1.00  0.00    -0.249 OA 
HETATM    2  N   UNL     1      -7.341  16.849  67.104  1.00  0.00    -0.163 N  
HETATM    3  O   UNL     1      -7.060  18.044  66.993  1.00  0.00    -0.186 OA 
HETATM    4  O   UNL     1      -8.530  16.520  67.798  1.00  0.00    -0.172 OA 
ENDROOT
BRANCH   4   5
HETATM    5  C   UNL     1      -9.263  17.676  68.192  1.00  0.00    -0.282 C  
BRANCH   5   6
HETATM    6  C   UNL     1     -10.739  17.292  68.314  1.00  0.00    -0.349 C  
BRANCH   6   7
HETATM    7  N   UNL     1     -10.954  15.866  68.465  1.00  0.00    -0.306 N  
HETATM    8  C   UNL     1     -11.736  15.366  69.487  1.00  0.00    -0.346 C  
HETATM    9  H   UNL     1     -10.521  15.222  67.804  1.00  0.00     0.000 HD 
HETATM   10  O   UNL     1     -12.265  16.071  70.337  1.00  0.00    -0.312 OA 
BRANCH   8  11
HETATM   11  C   UNL     1     -11.887  13.898  69.544  1.00  0.00    -0.383 A  
HETATM   12  C   UNL     1     -12.182  13.215  70.725  1.00  0.00    -0.375 A  
HETATM   13  C   UNL     1     -12.282  11.825  70.697  1.00  0.00    -0.443 A  
HETATM   14  C   UNL     1     -12.085  11.173  69.489  1.00  0.00    -0.326 A  
HETATM   15  N   UNL     1     -11.798  11.807  68.332  1.00  0.00    -0.447 NA 
HETATM   16  C   UNL     1     -11.692  13.158  68.386  1.00  0.00    -0.351 A  
ENDBRANCH   8  11
ENDBRANCH   6   7
ENDBRANCH   5   6
ENDBRANCH   4   5
TORSDOF 4
ENDMDL
MODEL      113
REMARK 921   NORMALIZED FREE ENERGY PREDICTED BY IDOCK:   -3.86 KCAL/MOL
REMARK 922        TOTAL FREE ENERGY PREDICTED BY IDOCK:   -4.99 KCAL/MOL
REMARK 923 INTER-LIGAND FREE ENERGY PREDICTED BY IDOCK:   -4.76 KCAL/MOL
REMARK 924 INTRA-LIGAND FREE ENERGY PREDICTED BY IDOCK:   -0.23 KCAL/MOL
REMARK 927      BINDING AFFINITY PREDICTED BY RF-SCORE:    0.00 PKD
ROOT
HETATM    1  O   UNL     1     -11.146  12.135  63.671  1.00  0.00    -0.386 OA 
HETATM    2  N   UNL     1     -11.776  12.916  64.383  1.00  0.00    -0.349 N  
HETATM    3  O   UNL     1     -12.503  13.860  64.069  1.00  0.00    -0.679 OA 
HETATM    4  O   UNL     1     -11.584  12.670  65.764  1.00  0.00    -0.345 OA 
ENDROOT
BRANCH   4   5
HETATM    5  C   UNL     1     -12.361  13.542  66.579  1.00  0.00    -0.327 C  
BRANCH   5   6
HETATM    6  C   UNL     1     -11.799  13.498  68.002  1.00  0.00    -0.365 C  
BRANCH   6   7
HETATM    7  N   UNL     1     -10.596  14.289  68.173  1.00  0.00    -0.240 N  
HETATM    8  C   UNL     1     -10.662  15.649  68.401  1.00  0.00    -0.271 C  
HETATM    9  H   UNL     1      -9.685  13.833  68.124  1.00  0.00     0.000 HD 
HETATM   10  O   UNL     1     -11.714  16.275  68.444  1.00  0.00    -0.271 OA 
BRANCH   8  11
HETATM   11  C   UNL     1      -9.374  16.355  68.560  1.00  0.00    -0.225 A  
HETATM   12  C   UNL     1      -9.147  17.635  68.053  1.00  0.00    -0.267 A  
HETATM   13  C   UNL     1      -7.894  18.220  68.226  1.00  0.00    -0.310 A  
HETATM   14  C   UNL     1      -6.916  17.501  68.898  1.00  0.00    -0.252 A  
HETATM   15  N   UNL     1      -7.107  16.261  69.398  1.00  0.00    -0.221 NA 
HETATM   16  C   UNL     1      -8.330  15.708  69.207  1.00  0.00    -0.256 A  
ENDBRANCH   8  11
ENDBRANCH   6   7
ENDBRANCH   5   6
ENDBRANCH   4   5
TORSDOF 4
ENDMDL
MODEL      114
REMARK 921   NORMALIZED FREE ENERGY PREDICTED BY IDOCK:   -3.84 KCAL/MOL
REMARK 922        TOTAL FREE ENERGY PREDICTED BY IDOCK:   -4.96 KCAL/MOL
REMARK 923 INTER-LIGAND FREE ENERGY PREDICTED BY IDOCK:   -4.57 KCAL/MOL
REMARK 924 INTRA-LIGAND FREE ENERGY PREDICTED BY IDOCK:   -0.39 KCAL/MOL
REMARK 927      BINDING AFFINITY PREDICTED BY RF-SCORE:    0.00 PKD
ROOT
HETATM    1  O   UNL     1     -13.625   7.121  71.461  1.00  0.00    -0.380 OA 
HETATM    2  N   UNL     1     -12.924   8.123  71.597  1.00  0.00    -0.330 N  
HETATM    3  O   UNL     1     -11.706   8.220  71.759  1.00  0.00    -0.270 OA 
HETATM    4  O   UNL     1     -13.678   9.321  71.586  1.00  0.00    -0.384 OA 
ENDROOT
BRANCH   4   5
HETATM    5  C   UNL     1     -12.853  10.478  71.688  1.00  0.00    -0.475 C  
BRANCH   5   6
HETATM    6  C   UNL     1     -12.856  11.192  70.335  1.00  0.00    -0.099 C  
BRANCH   6   7
HETATM    7  N   UNL     1     -11.933  10.618  69.376  1.00  0.00    -0.490 N  
HETATM    8  C   UNL     1     -11.514  11.333  68.271  1.00  0.00    -0.308 C  
HETATM    9  H   UNL     1     -11.587   9.669  69.519  1.00  0.00     0.000 HD 
HETATM   10  O   UNL     1     -11.907  12.464  68.013  1.00  0.00    -0.348 OA 
BRANCH   8  11
HETATM   11  C   UNL     1     -10.573  10.650  67.361  1.00  0.00    -0.304 A  
HETATM   12  C   UNL     1     -10.474   9.260  67.282  1.00  0.00    -0.334 A  
HETATM   13  C   UNL     1      -9.541   8.695  66.414  1.00  0.00    -0.316 A  
HETATM   14  C   UNL     1      -8.745   9.542  65.658  1.00  0.00    -0.149 A  
HETATM   15  N   UNL     1      -8.818  10.889  65.713  1.00  0.00    -0.188 NA 
HETATM   16  C   UNL     1      -9.724  11.417  66.575  1.00  0.00    -0.200 A  
ENDBRANCH   8  11
ENDBRANCH   6   7
ENDBRANCH   5   6
ENDBRANCH   4   5
TORSDOF 4
ENDMDL
MODEL      115
REMARK 921   NORMALIZED FREE ENERGY PREDICTED BY IDOCK:   -3.83 KCAL/MOL
REMARK 922        TOTAL FREE ENERGY PREDICTED BY IDOCK:   -4.96 KCAL/MOL
REMARK 923 INTER-LIGAND FREE ENERGY PREDICTED BY IDOCK:   -4.64 KCAL/MOL
REMARK 924 INTRA-LIGAND FREE ENERGY PREDICTED BY IDOCK:   -0.32 KCAL/MOL
REMARK 927      BINDING AFFINITY PREDICTED BY RF-SCORE:    0.00 PKD
ROOT
HETATM    1  O   UNL     1      -8.416   8.174  66.258  1.00  0.00    -0.118 OA 
HETATM    2  N   UNL     1      -8.474   9.366  65.957  1.00  0.00    -0.122 N  
HETATM    3  O   UNL     1      -7.583  10.218  65.932  1.00  0.00    -0.122 OA 
HETATM    4  O   UNL     1      -9.785   9.782  65.625  1.00  0.00    -0.251 OA 
ENDROOT
BRANCH   4   5
HETATM    5  C   UNL     1      -9.832  11.148  65.225  1.00  0.00    -0.249 C  
BRANCH   5   6
HETATM    6  C   UNL     1     -11.258  11.662  65.436  1.00  0.00    -0.199 C  
BRANCH   6   7
HETATM    7  N   UNL     1     -11.362  12.668  66.476  1.00  0.00    -0.307 N  
HETATM    8  C   UNL     1     -11.752  12.331  67.757  1.00  0.00    -0.337 C  
HETATM    9  H   UNL     1     -11.144  13.639  66.257  1.00  0.00     0.000 HD 
HETATM   10  O   UNL     1     -12.060  11.193  68.090  1.00  0.00    -0.633 OA 
BRANCH   8  11
HETATM   11  C   UNL     1     -11.824  13.435  68.735  1.00  0.00    -0.386 A  
HETATM   12  C   UNL     1     -12.114  13.230  70.085  1.00  0.00    -0.403 A  
HETATM   13  C   UNL     1     -12.188  14.330  70.938  1.00  0.00    -0.425 A  
HETATM   14  C   UNL     1     -11.968  15.592  70.407  1.00  0.00    -0.376 A  
HETATM   15  N   UNL     1     -11.686  15.821  69.106  1.00  0.00    -0.388 NA 
HETATM   16  C   UNL     1     -11.632  14.737  68.293  1.00  0.00    -0.323 A  
ENDBRANCH   8  11
ENDBRANCH   6   7
ENDBRANCH   5   6
ENDBRANCH   4   5
TORSDOF 4
ENDMDL
MODEL      116
REMARK 921   NORMALIZED FREE ENERGY PREDICTED BY IDOCK:   -3.82 KCAL/MOL
REMARK 922        TOTAL FREE ENERGY PREDICTED BY IDOCK:   -4.94 KCAL/MOL
REMARK 923 INTER-LIGAND FREE ENERGY PREDICTED BY IDOCK:   -4.91 KCAL/MOL
REMARK 924 INTRA-LIGAND FREE ENERGY PREDICTED BY IDOCK:   -0.03 KCAL/MOL
REMARK 927      BINDING AFFINITY PREDICTED BY RF-SCORE:    0.00 PKD
ROOT
HETATM    1  O   UNL     1     -13.710  14.553  73.007  1.00  0.00    -0.573 OA 
HETATM    2  N   UNL     1     -12.959  14.091  72.148  1.00  0.00    -0.365 N  
HETATM    3  O   UNL     1     -12.054  14.637  71.515  1.00  0.00    -0.332 OA 
HETATM    4  O   UNL     1     -13.234  12.733  71.857  1.00  0.00    -0.442 OA 
ENDROOT
BRANCH   4   5
HETATM    5  C   UNL     1     -12.325  12.193  70.902  1.00  0.00    -0.273 C  
BRANCH   5   6
HETATM    6  C   UNL     1     -12.849  10.825  70.459  1.00  0.00    -0.256 C  
BRANCH   6   7
HETATM    7  N   UNL     1     -11.912  10.085  69.636  1.00  0.00    -0.475 N  
HETATM    8  C   UNL     1     -11.570  10.524  68.373  1.00  0.00    -0.128 C  
HETATM    9  H   UNL     1     -11.499   9.226  69.997  1.00  0.00     0.000 HD 
HETATM   10  O   UNL     1     -12.046  11.528  67.857  1.00  0.00    -0.630 OA 
BRANCH   8  11
HETATM   11  C   UNL     1     -10.607   9.692  67.624  1.00  0.00    -0.334 A  
HETATM   12  C   UNL     1     -10.125  10.045  66.362  1.00  0.00    -0.307 A  
HETATM   13  C   UNL     1      -9.237   9.190  65.712  1.00  0.00    -0.294 A  
HETATM   14  C   UNL     1      -8.864   8.016  66.350  1.00  0.00    -0.157 A  
HETATM   15  N   UNL     1      -9.314   7.648  67.569  1.00  0.00    -0.137 NA 
HETATM   16  C   UNL     1     -10.188   8.490  68.177  1.00  0.00    -0.208 A  
ENDBRANCH   8  11
ENDBRANCH   6   7
ENDBRANCH   5   6
ENDBRANCH   4   5
TORSDOF 4
ENDMDL
MODEL      117
REMARK 921   NORMALIZED FREE ENERGY PREDICTED BY IDOCK:   -3.82 KCAL/MOL
REMARK 922        TOTAL FREE ENERGY PREDICTED BY IDOCK:   -4.94 KCAL/MOL
REMARK 923 INTER-LIGAND FREE ENERGY PREDICTED BY IDOCK:   -4.87 KCAL/MOL
REMARK 924 INTRA-LIGAND FREE ENERGY PREDICTED BY IDOCK:   -0.07 KCAL/MOL
REMARK 927      BINDING AFFINITY PREDICTED BY RF-SCORE:    0.00 PKD
ROOT
HETATM    1  O   UNL     1     -10.909   9.244  67.596  1.00  0.00    -0.250 OA 
HETATM    2  N   UNL     1     -11.015  10.443  67.850  1.00  0.00    -0.280 N  
HETATM    3  O   UNL     1     -11.971  11.073  68.308  1.00  0.00    -0.593 OA 
HETATM    4  O   UNL     1      -9.847  11.174  67.525  1.00  0.00    -0.174 OA 
ENDROOT
BRANCH   4   5
HETATM    5  C   UNL     1      -9.959  12.551  67.874  1.00  0.00    -0.212 C  
BRANCH   5   6
HETATM    6  C   UNL     1      -9.321  13.383  66.759  1.00  0.00    -0.256 C  
BRANCH   6   7
HETATM    7  N   UNL     1      -9.296  14.806  67.041  1.00  0.00    -0.223 N  
HETATM    8  C   UNL     1     -10.457  15.553  67.049  1.00  0.00    -0.304 C  
HETATM    9  H   UNL     1      -8.405  15.261  67.237  1.00  0.00     0.000 HD 
HETATM   10  O   UNL     1     -11.560  15.086  66.794  1.00  0.00    -0.312 OA 
BRANCH   8  11
HETATM   11  C   UNL     1     -10.313  16.991  67.348  1.00  0.00    -0.319 A  
HETATM   12  C   UNL     1     -10.192  17.962  66.352  1.00  0.00    -0.372 A  
HETATM   13  C   UNL     1     -10.035  19.296  66.721  1.00  0.00    -0.446 A  
HETATM   14  C   UNL     1     -10.006  19.609  68.072  1.00  0.00    -0.427 A  
HETATM   15  N   UNL     1     -10.119  18.693  69.057  1.00  0.00    -0.347 NA 
HETATM   16  C   UNL     1     -10.259  17.399  68.674  1.00  0.00    -0.361 A  
ENDBRANCH   8  11
ENDBRANCH   6   7
ENDBRANCH   5   6
ENDBRANCH   4   5
TORSDOF 4
ENDMDL
MODEL      118
REMARK 921   NORMALIZED FREE ENERGY PREDICTED BY IDOCK:   -3.80 KCAL/MOL
REMARK 922        TOTAL FREE ENERGY PREDICTED BY IDOCK:   -4.91 KCAL/MOL
REMARK 923 INTER-LIGAND FREE ENERGY PREDICTED BY IDOCK:   -4.53 KCAL/MOL
REMARK 924 INTRA-LIGAND FREE ENERGY PREDICTED BY IDOCK:   -0.39 KCAL/MOL
REMARK 927      BINDING AFFINITY PREDICTED BY RF-SCORE:    0.00 PKD
ROOT
HETATM    1  O   UNL     1     -11.011  10.406  70.640  1.00  0.00    -0.289 OA 
HETATM    2  N   UNL     1     -11.185  10.970  69.560  1.00  0.00    -0.258 N  
HETATM    3  O   UNL     1     -11.720  12.052  69.311  1.00  0.00    -0.287 OA 
HETATM    4  O   UNL     1     -10.708  10.210  68.465  1.00  0.00    -0.207 OA 
ENDROOT
BRANCH   4   5
HETATM    5  C   UNL     1     -10.864  10.895  67.225  1.00  0.00    -0.287 C  
BRANCH   5   6
HETATM    6  C   UNL     1      -9.596  11.710  66.963  1.00  0.00    -0.184 C  
BRANCH   6   7
HETATM    7  N   UNL     1      -9.760  13.130  67.212  1.00  0.00    -0.225 N  
HETATM    8  C   UNL     1     -10.194  13.983  66.218  1.00  0.00    -0.296 C  
HETATM    9  H   UNL     1      -9.550  13.503  68.138  1.00  0.00     0.000 HD 
HETATM   10  O   UNL     1     -10.436  13.617  65.075  1.00  0.00    -0.347 OA 
BRANCH   8  11
HETATM   11  C   UNL     1     -10.324  15.408  66.582  1.00  0.00    -0.281 A  
HETATM   12  C   UNL     1     -10.471  15.840  67.901  1.00  0.00    -0.270 A  
HETATM   13  C   UNL     1     -10.612  17.203  68.157  1.00  0.00    -0.380 A  
HETATM   14  C   UNL     1     -10.600  18.081  67.084  1.00  0.00    -0.325 A  
HETATM   15  N   UNL     1     -10.461  17.693  65.798  1.00  0.00    -0.578 NA 
HETATM   16  C   UNL     1     -10.337  16.361  65.572  1.00  0.00    -0.313 A  
ENDBRANCH   8  11
ENDBRANCH   6   7
ENDBRANCH   5   6
ENDBRANCH   4   5
TORSDOF 4
ENDMDL
MODEL      119
REMARK 921   NORMALIZED FREE ENERGY PREDICTED BY IDOCK:   -3.80 KCAL/MOL
REMARK 922        TOTAL FREE ENERGY PREDICTED BY IDOCK:   -4.91 KCAL/MOL
REMARK 923 INTER-LIGAND FREE ENERGY PREDICTED BY IDOCK:   -4.60 KCAL/MOL
REMARK 924 INTRA-LIGAND FREE ENERGY PREDICTED BY IDOCK:   -0.32 KCAL/MOL
REMARK 927      BINDING AFFINITY PREDICTED BY RF-SCORE:    0.00 PKD
ROOT
HETATM    1  O   UNL     1      -7.580  12.364  66.894  1.00  0.00    -0.086 OA 
HETATM    2  N   UNL     1      -8.750  12.419  67.268  1.00  0.00    -0.183 N  
HETATM    3  O   UNL     1      -9.257  12.056  68.332  1.00  0.00    -0.189 OA 
HETATM    4  O   UNL     1      -9.613  12.961  66.286  1.00  0.00    -0.265 OA 
ENDROOT
BRANCH   4   5
HETATM    5  C   UNL     1     -10.956  13.071  66.749  1.00  0.00    -0.276 C  
BRANCH   5   6
HETATM    6  C   UNL     1     -11.499  14.438  66.327  1.00  0.00    -0.359 C  
BRANCH   6   7
HETATM    7  N   UNL     1     -10.677  15.548  66.768  1.00  0.00    -0.306 N  
HETATM    8  C   UNL     1     -10.455  16.640  65.952  1.00  0.00    -0.313 C  
HETATM    9  H   UNL     1     -10.255  15.522  67.696  1.00  0.00     0.000 HD 
HETATM   10  O   UNL     1     -10.900  16.733  64.815  1.00  0.00    -0.745 OA 
BRANCH   8  11
HETATM   11  C   UNL     1      -9.602  17.712  66.504  1.00  0.00    -0.301 A  
HETATM   12  C   UNL     1      -8.208  17.654  66.482  1.00  0.00    -0.307 A  
HETATM   13  C   UNL     1      -7.477  18.698  67.046  1.00  0.00    -0.229 A  
HETATM   14  C   UNL     1      -8.169  19.760  67.610  1.00  0.00    -0.305 A  
HETATM   15  N   UNL     1      -9.516  19.843  67.646  1.00  0.00    -0.348 NA 
HETATM   16  C   UNL     1     -10.207  18.810  67.102  1.00  0.00    -0.386 A  
ENDBRANCH   8  11
ENDBRANCH   6   7
ENDBRANCH   5   6
ENDBRANCH   4   5
TORSDOF 4
ENDMDL
MODEL      120
REMARK 921   NORMALIZED FREE ENERGY PREDICTED BY IDOCK:   -3.79 KCAL/MOL
REMARK 922        TOTAL FREE ENERGY PREDICTED BY IDOCK:   -4.90 KCAL/MOL
REMARK 923 INTER-LIGAND FREE ENERGY PREDICTED BY IDOCK:   -4.26 KCAL/MOL
REMARK 924 INTRA-LIGAND FREE ENERGY PREDICTED BY IDOCK:   -0.64 KCAL/MOL
REMARK 927      BINDING AFFINITY PREDICTED BY RF-SCORE:    0.00 PKD
ROOT
HETATM    1  O   UNL     1     -10.087   7.586  69.074  1.00  0.00    -0.181 OA 
HETATM    2  N   UNL     1     -10.092   7.359  67.864  1.00  0.00    -0.169 N  
HETATM    3  O   UNL     1     -11.022   7.400  67.057  1.00  0.00    -0.332 OA 
HETATM    4  O   UNL     1      -8.821   6.969  67.378  1.00  0.00    -0.119 OA 
ENDROOT
BRANCH   4   5
HETATM    5  C   UNL     1      -8.825   6.762  65.968  1.00  0.00    -0.135 C  
BRANCH   5   6
HETATM    6  C   UNL     1      -8.169   7.974  65.303  1.00  0.00    -0.146 C  
BRANCH   6   7
HETATM    7  N   UNL     1      -9.114   9.004  64.917  1.00  0.00    -0.424 N  
HETATM    8  C   UNL     1      -9.274  10.146  65.676  1.00  0.00    -0.187 C  
HETATM    9  H   UNL     1      -9.669   8.882  64.071  1.00  0.00     0.000 HD 
HETATM   10  O   UNL     1      -8.668  10.352  66.720  1.00  0.00    -0.127 OA 
BRANCH   8  11
HETATM   11  C   UNL     1     -10.265  11.127  65.189  1.00  0.00    -0.347 A  
HETATM   12  C   UNL     1     -11.140  11.803  66.041  1.00  0.00    -0.363 A  
HETATM   13  C   UNL     1     -12.061  12.696  65.496  1.00  0.00    -0.515 A  
HETATM   14  C   UNL     1     -12.072  12.878  64.122  1.00  0.00    -0.432 A  
HETATM   15  N   UNL     1     -11.238  12.238  63.273  1.00  0.00    -0.393 NA 
HETATM   16  C   UNL     1     -10.358  11.365  63.824  1.00  0.00    -0.393 A  
ENDBRANCH   8  11
ENDBRANCH   6   7
ENDBRANCH   5   6
ENDBRANCH   4   5
TORSDOF 4
ENDMDL
MODEL      121
REMARK 921   NORMALIZED FREE ENERGY PREDICTED BY IDOCK:   -3.79 KCAL/MOL
REMARK 922        TOTAL FREE ENERGY PREDICTED BY IDOCK:   -4.90 KCAL/MOL
REMARK 923 INTER-LIGAND FREE ENERGY PREDICTED BY IDOCK:   -4.70 KCAL/MOL
REMARK 924 INTRA-LIGAND FREE ENERGY PREDICTED BY IDOCK:   -0.20 KCAL/MOL
REMARK 927      BINDING AFFINITY PREDICTED BY RF-SCORE:    0.00 PKD
ROOT
HETATM    1  O   UNL     1     -12.049  11.966  66.692  1.00  0.00    -0.587 OA 
HETATM    2  N   UNL     1     -11.706  13.082  66.304  1.00  0.00    -0.367 N  
HETATM    3  O   UNL     1     -12.393  14.062  66.009  1.00  0.00    -0.445 OA 
HETATM    4  O   UNL     1     -10.302  13.203  66.163  1.00  0.00    -0.272 OA 
ENDROOT
BRANCH   4   5
HETATM    5  C   UNL     1      -9.912  14.514  65.766  1.00  0.00    -0.334 C  
BRANCH   5   6
HETATM    6  C   UNL     1      -8.814  14.997  66.718  1.00  0.00    -0.268 C  
BRANCH   6   7
HETATM    7  N   UNL     1      -8.485  16.400  66.556  1.00  0.00    -0.270 N  
HETATM    8  C   UNL     1      -7.182  16.845  66.662  1.00  0.00    -0.259 C  
HETATM    9  H   UNL     1      -9.229  17.070  66.361  1.00  0.00     0.000 HD 
HETATM   10  O   UNL     1      -6.239  16.109  66.925  1.00  0.00    -0.316 OA 
BRANCH   8  11
HETATM   11  C   UNL     1      -6.963  18.293  66.480  1.00  0.00    -0.250 A  
HETATM   12  C   UNL     1      -7.497  19.253  67.341  1.00  0.00    -0.254 A  
HETATM   13  C   UNL     1      -7.262  20.602  67.083  1.00  0.00    -0.389 A  
HETATM   14  C   UNL     1      -6.502  20.939  65.974  1.00  0.00    -0.203 A  
HETATM   15  N   UNL     1      -5.973  20.034  65.122  1.00  0.00    -0.203 NA 
HETATM   16  C   UNL     1      -6.225  18.728  65.387  1.00  0.00    -0.282 A  
ENDBRANCH   8  11
ENDBRANCH   6   7
ENDBRANCH   5   6
ENDBRANCH   4   5
TORSDOF 4
ENDMDL
MODEL      122
REMARK 921   NORMALIZED FREE ENERGY PREDICTED BY IDOCK:   -3.78 KCAL/MOL
REMARK 922        TOTAL FREE ENERGY PREDICTED BY IDOCK:   -4.89 KCAL/MOL
REMARK 923 INTER-LIGAND FREE ENERGY PREDICTED BY IDOCK:   -4.57 KCAL/MOL
REMARK 924 INTRA-LIGAND FREE ENERGY PREDICTED BY IDOCK:   -0.32 KCAL/MOL
REMARK 927      BINDING AFFINITY PREDICTED BY RF-SCORE:    0.00 PKD
ROOT
HETATM    1  O   UNL     1      -8.238  11.174  67.713  1.00  0.00    -0.114 OA 
HETATM    2  N   UNL     1      -8.762  12.217  68.102  1.00  0.00    -0.182 N  
HETATM    3  O   UNL     1      -8.242  13.245  68.543  1.00  0.00    -0.147 OA 
HETATM    4  O   UNL     1     -10.175  12.173  68.043  1.00  0.00    -0.189 OA 
ENDROOT
BRANCH   4   5
HETATM    5  C   UNL     1     -10.770  13.404  68.443  1.00  0.00    -0.256 C  
BRANCH   5   6
HETATM    6  C   UNL     1     -11.767  13.114  69.567  1.00  0.00    -0.319 C  
BRANCH   6   7
HETATM    7  N   UNL     1     -11.919  11.700  69.854  1.00  0.00    -0.332 N  
HETATM    8  C   UNL     1     -12.616  11.269  70.965  1.00  0.00    -0.394 C  
HETATM    9  H   UNL     1     -11.504  11.014  69.224  1.00  0.00     0.000 HD 
HETATM   10  O   UNL     1     -13.116  12.030  71.784  1.00  0.00    -0.445 OA 
BRANCH   8  11
HETATM   11  C   UNL     1     -12.707   9.808  71.159  1.00  0.00    -0.433 A  
HETATM   12  C   UNL     1     -13.885   9.170  71.552  1.00  0.00    -0.353 A  
HETATM   13  C   UNL     1     -13.879   7.789  71.737  1.00  0.00    -0.440 A  
HETATM   14  C   UNL     1     -12.696   7.099  71.521  1.00  0.00    -0.393 A  
HETATM   15  N   UNL     1     -11.542   7.688  71.141  1.00  0.00    -0.276 NA 
HETATM   16  C   UNL     1     -11.568   9.034  70.979  1.00  0.00    -0.300 A  
ENDBRANCH   8  11
ENDBRANCH   6   7
ENDBRANCH   5   6
ENDBRANCH   4   5
TORSDOF 4
ENDMDL
MODEL      123
REMARK 921   NORMALIZED FREE ENERGY PREDICTED BY IDOCK:   -3.76 KCAL/MOL
REMARK 922        TOTAL FREE ENERGY PREDICTED BY IDOCK:   -4.86 KCAL/MOL
REMARK 923 INTER-LIGAND FREE ENERGY PREDICTED BY IDOCK:   -4.54 KCAL/MOL
REMARK 924 INTRA-LIGAND FREE ENERGY PREDICTED BY IDOCK:   -0.32 KCAL/MOL
REMARK 927      BINDING AFFINITY PREDICTED BY RF-SCORE:    0.00 PKD
ROOT
HETATM    1  O   UNL     1     -12.789  14.288  70.798  1.00  0.00    -0.339 OA 
HETATM    2  N   UNL     1     -13.158  13.462  71.632  1.00  0.00    -0.385 N  
HETATM    3  O   UNL     1     -13.707  13.632  72.722  1.00  0.00    -0.707 OA 
HETATM    4  O   UNL     1     -12.861  12.132  71.250  1.00  0.00    -0.358 OA 
ENDROOT
BRANCH   4   5
HETATM    5  C   UNL     1     -13.342  11.180  72.195  1.00  0.00    -0.165 C  
BRANCH   5   6
HETATM    6  C   UNL     1     -13.190   9.783  71.590  1.00  0.00    -0.420 C  
BRANCH   6   7
HETATM    7  N   UNL     1     -12.331   9.748  70.422  1.00  0.00    -0.484 N  
HETATM    8  C   UNL     1     -11.053   9.229  70.491  1.00  0.00    -0.265 C  
HETATM    9  H   UNL     1     -12.676  10.114  69.535  1.00  0.00     0.000 HD 
HETATM   10  O   UNL     1     -10.556   8.800  71.524  1.00  0.00    -0.255 OA 
BRANCH   8  11
HETATM   11  C   UNL     1     -10.267   9.245  69.241  1.00  0.00    -0.211 A  
HETATM   12  C   UNL     1     -10.772   9.738  68.037  1.00  0.00    -0.298 A  
HETATM   13  C   UNL     1      -9.972   9.694  66.897  1.00  0.00    -0.272 A  
HETATM   14  C   UNL     1      -8.697   9.159  67.006  1.00  0.00    -0.123 A  
HETATM   15  N   UNL     1      -8.182   8.674  68.156  1.00  0.00    -0.115 NA 
HETATM   16  C   UNL     1      -8.983   8.716  69.249  1.00  0.00    -0.145 A  
ENDBRANCH   8  11
ENDBRANCH   6   7
ENDBRANCH   5   6
ENDBRANCH   4   5
TORSDOF 4
ENDMDL
MODEL      124
REMARK 921   NORMALIZED FREE ENERGY PREDICTED BY IDOCK:   -3.75 KCAL/MOL
REMARK 922        TOTAL FREE ENERGY PREDICTED BY IDOCK:   -4.86 KCAL/MOL
REMARK 923 INTER-LIGAND FREE ENERGY PREDICTED BY IDOCK:   -4.44 KCAL/MOL
REMARK 924 INTRA-LIGAND FREE ENERGY PREDICTED BY IDOCK:   -0.42 KCAL/MOL
REMARK 927      BINDING AFFINITY PREDICTED BY RF-SCORE:    0.00 PKD
ROOT
HETATM    1  O   UNL     1     -11.031  13.315  68.558  1.00  0.00    -0.246 OA 
HETATM    2  N   UNL     1     -11.642  12.290  68.858  1.00  0.00    -0.293 N  
HETATM    3  O   UNL     1     -12.095  11.399  68.136  1.00  0.00    -0.623 OA 
HETATM    4  O   UNL     1     -11.858  12.173  70.252  1.00  0.00    -0.329 OA 
ENDROOT
BRANCH   4   5
HETATM    5  C   UNL     1     -12.517  10.957  70.595  1.00  0.00    -0.369 C  
BRANCH   5   6
HETATM    6  C   UNL     1     -11.463   9.958  71.079  1.00  0.00    -0.388 C  
BRANCH   6   7
HETATM    7  N   UNL     1     -11.041   9.021  70.055  1.00  0.00    -0.345 N  
HETATM    8  C   UNL     1     -10.998   7.664  70.304  1.00  0.00    -0.252 C  
HETATM    9  H   UNL     1     -10.772   9.371  69.136  1.00  0.00     0.000 HD 
HETATM   10  O   UNL     1     -11.277   7.169  71.389  1.00  0.00    -0.243 OA 
BRANCH   8  11
HETATM   11  C   UNL     1     -10.553   6.803  69.190  1.00  0.00    -0.261 A  
HETATM   12  C   UNL     1     -10.531   7.236  67.863  1.00  0.00    -0.267 A  
HETATM   13  C   UNL     1     -10.120   6.351  66.868  1.00  0.00    -0.244 A  
HETATM   14  C   UNL     1      -9.747   5.068  67.238  1.00  0.00    -0.162 A  
HETATM   15  N   UNL     1      -9.759   4.621  68.512  1.00  0.00    -0.155 NA 
HETATM   16  C   UNL     1     -10.174   5.495  69.462  1.00  0.00    -0.261 A  
ENDBRANCH   8  11
ENDBRANCH   6   7
ENDBRANCH   5   6
ENDBRANCH   4   5
TORSDOF 4
ENDMDL
MODEL      125
REMARK 921   NORMALIZED FREE ENERGY PREDICTED BY IDOCK:   -3.75 KCAL/MOL
REMARK 922        TOTAL FREE ENERGY PREDICTED BY IDOCK:   -4.85 KCAL/MOL
REMARK 923 INTER-LIGAND FREE ENERGY PREDICTED BY IDOCK:   -4.51 KCAL/MOL
REMARK 924 INTRA-LIGAND FREE ENERGY PREDICTED BY IDOCK:   -0.34 KCAL/MOL
REMARK 927      BINDING AFFINITY PREDICTED BY RF-SCORE:    0.00 PKD
ROOT
HETATM    1  O   UNL     1      -8.618   8.041  67.667  1.00  0.00    -0.129 OA 
HETATM    2  N   UNL     1      -9.093   7.759  68.767  1.00  0.00    -0.141 N  
HETATM    3  O   UNL     1      -8.651   7.026  69.654  1.00  0.00    -0.132 OA 
HETATM    4  O   UNL     1     -10.350   8.370  68.991  1.00  0.00    -0.215 OA 
ENDROOT
BRANCH   4   5
HETATM    5  C   UNL     1     -10.866   8.083  70.288  1.00  0.00    -0.241 C  
BRANCH   5   6
HETATM    6  C   UNL     1     -10.838   9.371  71.112  1.00  0.00    -0.357 C  
BRANCH   6   7
HETATM    7  N   UNL     1     -10.876  10.576  70.305  1.00  0.00    -0.446 N  
HETATM    8  C   UNL     1     -11.976  11.410  70.319  1.00  0.00    -0.373 C  
HETATM    9  H   UNL     1     -10.076  10.810  69.717  1.00  0.00     0.000 HD 
HETATM   10  O   UNL     1     -12.986  11.182  70.973  1.00  0.00    -0.335 OA 
BRANCH   8  11
HETATM   11  C   UNL     1     -11.906  12.608  69.458  1.00  0.00    -0.376 A  
HETATM   12  C   UNL     1     -11.732  12.535  68.075  1.00  0.00    -0.410 A  
HETATM   13  C   UNL     1     -11.652  13.715  67.338  1.00  0.00    -0.389 A  
HETATM   14  C   UNL     1     -11.748  14.923  68.014  1.00  0.00    -0.320 A  
HETATM   15  N   UNL     1     -11.915  15.025  69.350  1.00  0.00    -0.312 NA 
HETATM   16  C   UNL     1     -11.978  13.863  70.047  1.00  0.00    -0.336 A  
ENDBRANCH   8  11
ENDBRANCH   6   7
ENDBRANCH   5   6
ENDBRANCH   4   5
TORSDOF 4
ENDMDL
MODEL      126
REMARK 921   NORMALIZED FREE ENERGY PREDICTED BY IDOCK:   -3.74 KCAL/MOL
REMARK 922        TOTAL FREE ENERGY PREDICTED BY IDOCK:   -4.84 KCAL/MOL
REMARK 923 INTER-LIGAND FREE ENERGY PREDICTED BY IDOCK:   -4.89 KCAL/MOL
REMARK 924 INTRA-LIGAND FREE ENERGY PREDICTED BY IDOCK:    0.04 KCAL/MOL
REMARK 927      BINDING AFFINITY PREDICTED BY RF-SCORE:    0.00 PKD
ROOT
HETATM    1  O   UNL     1     -14.050  13.489  72.661  1.00  0.00    -0.762 OA 
HETATM    2  N   UNL     1     -13.328  12.786  71.956  1.00  0.00    -0.501 N  
HETATM    3  O   UNL     1     -12.506  13.109  71.096  1.00  0.00    -0.361 OA 
HETATM    4  O   UNL     1     -13.527  11.402  72.180  1.00  0.00    -0.397 OA 
ENDROOT
BRANCH   4   5
HETATM    5  C   UNL     1     -12.649  10.597  71.399  1.00  0.00    -0.421 C  
BRANCH   5   6
HETATM    6  C   UNL     1     -13.106   9.141  71.509  1.00  0.00    -0.349 C  
BRANCH   6   7
HETATM    7  N   UNL     1     -12.295   8.221  70.734  1.00  0.00    -0.494 N  
HETATM    8  C   UNL     1     -10.959   8.028  71.024  1.00  0.00    -0.241 C  
HETATM    9  H   UNL     1     -12.720   7.709  69.961  1.00  0.00     0.000 HD 
HETATM   10  O   UNL     1     -10.370   8.627  71.915  1.00  0.00    -0.278 OA 
BRANCH   8  11
HETATM   11  C   UNL     1     -10.231   7.069  70.170  1.00  0.00    -0.206 A  
HETATM   12  C   UNL     1      -9.027   7.383  69.538  1.00  0.00    -0.144 A  
HETATM   13  C   UNL     1      -8.417   6.427  68.728  1.00  0.00    -0.121 A  
HETATM   14  C   UNL     1      -9.034   5.193  68.582  1.00  0.00    -0.105 A  
HETATM   15  N   UNL     1     -10.199   4.861  69.180  1.00  0.00    -0.165 NA 
HETATM   16  C   UNL     1     -10.780   5.812  69.954  1.00  0.00    -0.342 A  
ENDBRANCH   8  11
ENDBRANCH   6   7
ENDBRANCH   5   6
ENDBRANCH   4   5
TORSDOF 4
ENDMDL
MODEL      127
REMARK 921   NORMALIZED FREE ENERGY PREDICTED BY IDOCK:   -3.74 KCAL/MOL
REMARK 922        TOTAL FREE ENERGY PREDICTED BY IDOCK:   -4.84 KCAL/MOL
REMARK 923 INTER-LIGAND FREE ENERGY PREDICTED BY IDOCK:   -4.63 KCAL/MOL
REMARK 924 INTRA-LIGAND FREE ENERGY PREDICTED BY IDOCK:   -0.21 KCAL/MOL
REMARK 927      BINDING AFFINITY PREDICTED BY RF-SCORE:    0.00 PKD
ROOT
HETATM    1  O   UNL     1      -8.962   4.207  66.167  1.00  0.00    -0.118 OA 
HETATM    2  N   UNL     1      -9.680   5.200  66.273  1.00  0.00    -0.162 N  
HETATM    3  O   UNL     1     -10.910   5.288  66.282  1.00  0.00    -0.285 OA 
HETATM    4  O   UNL     1      -8.939   6.403  66.366  1.00  0.00    -0.144 OA 
ENDROOT
BRANCH   4   5
HETATM    5  C   UNL     1      -9.778   7.540  66.543  1.00  0.00    -0.168 C  
BRANCH   5   6
HETATM    6  C   UNL     1      -9.241   8.675  65.668  1.00  0.00    -0.139 C  
BRANCH   6   7
HETATM    7  N   UNL     1     -10.061   9.871  65.704  1.00  0.00    -0.276 N  
HETATM    8  C   UNL     1     -10.228  10.655  64.580  1.00  0.00    -0.329 C  
HETATM    9  H   UNL     1     -10.522  10.136  66.573  1.00  0.00     0.000 HD 
HETATM   10  O   UNL     1      -9.684  10.421  63.508  1.00  0.00    -0.307 OA 
BRANCH   8  11
HETATM   11  C   UNL     1     -11.084  11.849  64.731  1.00  0.00    -0.367 A  
HETATM   12  C   UNL     1     -11.563  12.284  65.967  1.00  0.00    -0.451 A  
HETATM   13  C   UNL     1     -12.386  13.407  66.019  1.00  0.00    -0.471 A  
HETATM   14  C   UNL     1     -12.698  14.052  64.831  1.00  0.00    -0.273 A  
HETATM   15  N   UNL     1     -12.250  13.655  63.621  1.00  0.00    -0.644 NA 
HETATM   16  C   UNL     1     -11.461  12.552  63.594  1.00  0.00    -0.493 A  
ENDBRANCH   8  11
ENDBRANCH   6   7
ENDBRANCH   5   6
ENDBRANCH   4   5
TORSDOF 4
ENDMDL
MODEL      128
REMARK 921   NORMALIZED FREE ENERGY PREDICTED BY IDOCK:   -3.74 KCAL/MOL
REMARK 922        TOTAL FREE ENERGY PREDICTED BY IDOCK:   -4.84 KCAL/MOL
REMARK 923 INTER-LIGAND FREE ENERGY PREDICTED BY IDOCK:   -4.62 KCAL/MOL
REMARK 924 INTRA-LIGAND FREE ENERGY PREDICTED BY IDOCK:   -0.22 KCAL/MOL
REMARK 927      BINDING AFFINITY PREDICTED BY RF-SCORE:    0.00 PKD
ROOT
HETATM    1  O   UNL     1      -5.664  16.619  70.266  1.00  0.00    -0.210 OA 
HETATM    2  N   UNL     1      -6.123  15.781  69.491  1.00  0.00    -0.138 N  
HETATM    3  O   UNL     1      -5.795  14.605  69.314  1.00  0.00    -0.097 OA 
HETATM    4  O   UNL     1      -7.162  16.298  68.681  1.00  0.00    -0.148 OA 
ENDROOT
BRANCH   4   5
HETATM    5  C   UNL     1      -7.723  15.305  67.826  1.00  0.00    -0.149 C  
BRANCH   5   6
HETATM    6  C   UNL     1      -9.246  15.458  67.847  1.00  0.00    -0.180 C  
BRANCH   6   7
HETATM    7  N   UNL     1      -9.907  14.813  66.728  1.00  0.00    -0.247 N  
HETATM    8  C   UNL     1     -10.433  13.542  66.847  1.00  0.00    -0.271 C  
HETATM    9  H   UNL     1      -9.984  15.307  65.840  1.00  0.00     0.000 HD 
HETATM   10  O   UNL     1     -10.354  12.873  67.869  1.00  0.00    -0.220 OA 
BRANCH   8  11
HETATM   11  C   UNL     1     -11.083  12.983  65.645  1.00  0.00    -0.301 A  
HETATM   12  C   UNL     1     -10.364  12.417  64.591  1.00  0.00    -0.332 A  
HETATM   13  C   UNL     1     -11.054  11.934  63.481  1.00  0.00    -0.506 A  
HETATM   14  C   UNL     1     -12.437  12.036  63.468  1.00  0.00    -0.540 A  
HETATM   15  N   UNL     1     -13.160  12.580  64.471  1.00  0.00    -0.839 NA 
HETATM   16  C   UNL     1     -12.466  13.054  65.535  1.00  0.00    -0.438 A  
ENDBRANCH   8  11
ENDBRANCH   6   7
ENDBRANCH   5   6
ENDBRANCH   4   5
TORSDOF 4
ENDMDL
MODEL      129
REMARK 921   NORMALIZED FREE ENERGY PREDICTED BY IDOCK:   -3.74 KCAL/MOL
REMARK 922        TOTAL FREE ENERGY PREDICTED BY IDOCK:   -4.84 KCAL/MOL
REMARK 923 INTER-LIGAND FREE ENERGY PREDICTED BY IDOCK:   -4.53 KCAL/MOL
REMARK 924 INTRA-LIGAND FREE ENERGY PREDICTED BY IDOCK:   -0.30 KCAL/MOL
REMARK 927      BINDING AFFINITY PREDICTED BY RF-SCORE:    0.00 PKD
ROOT
HETATM    1  O   UNL     1     -11.802   5.895  72.173  1.00  0.00    -0.285 OA 
HETATM    2  N   UNL     1     -11.317   6.987  72.470  1.00  0.00    -0.270 N  
HETATM    3  O   UNL     1     -10.806   7.363  73.526  1.00  0.00    -0.379 OA 
HETATM    4  O   UNL     1     -11.409   7.928  71.417  1.00  0.00    -0.244 OA 
ENDROOT
BRANCH   4   5
HETATM    5  C   UNL     1     -10.797   9.171  71.750  1.00  0.00    -0.345 C  
BRANCH   5   6
HETATM    6  C   UNL     1      -9.598   9.381  70.822  1.00  0.00    -0.255 C  
BRANCH   6   7
HETATM    7  N   UNL     1      -9.887  10.239  69.689  1.00  0.00    -0.336 N  
HETATM    8  C   UNL     1     -10.309   9.712  68.485  1.00  0.00    -0.205 C  
HETATM    9  H   UNL     1      -9.777  11.248  69.785  1.00  0.00     0.000 HD 
HETATM   10  O   UNL     1     -10.436   8.511  68.282  1.00  0.00    -0.210 OA 
BRANCH   8  11
HETATM   11  C   UNL     1     -10.574  10.678  67.400  1.00  0.00    -0.304 A  
HETATM   12  C   UNL     1      -9.793  10.751  66.246  1.00  0.00    -0.262 A  
HETATM   13  C   UNL     1     -10.096  11.710  65.280  1.00  0.00    -0.305 A  
HETATM   14  C   UNL     1     -11.170  12.558  65.507  1.00  0.00    -0.314 A  
HETATM   15  N   UNL     1     -11.943  12.511  66.613  1.00  0.00    -0.574 NA 
HETATM   16  C   UNL     1     -11.621  11.579  67.544  1.00  0.00    -0.246 A  
ENDBRANCH   8  11
ENDBRANCH   6   7
ENDBRANCH   5   6
ENDBRANCH   4   5
TORSDOF 4
ENDMDL
MODEL      130
REMARK 921   NORMALIZED FREE ENERGY PREDICTED BY IDOCK:   -3.73 KCAL/MOL
REMARK 922        TOTAL FREE ENERGY PREDICTED BY IDOCK:   -4.83 KCAL/MOL
REMARK 923 INTER-LIGAND FREE ENERGY PREDICTED BY IDOCK:   -4.56 KCAL/MOL
REMARK 924 INTRA-LIGAND FREE ENERGY PREDICTED BY IDOCK:   -0.27 KCAL/MOL
REMARK 927      BINDING AFFINITY PREDICTED BY RF-SCORE:    0.00 PKD
ROOT
HETATM    1  O   UNL     1      -8.363   8.948  71.910  1.00  0.00    -0.349 OA 
HETATM    2  N   UNL     1      -9.481   8.775  71.426  1.00  0.00    -0.235 N  
HETATM    3  O   UNL     1     -10.267   7.836  71.568  1.00  0.00    -0.181 OA 
HETATM    4  O   UNL     1      -9.868   9.826  70.559  1.00  0.00    -0.260 OA 
ENDROOT
BRANCH   4   5
HETATM    5  C   UNL     1     -11.186   9.644  70.048  1.00  0.00    -0.231 C  
BRANCH   5   6
HETATM    6  C   UNL     1     -11.934  10.974  70.163  1.00  0.00    -0.360 C  
BRANCH   6   7
HETATM    7  N   UNL     1     -11.268  12.072  69.490  1.00  0.00    -0.440 N  
HETATM    8  C   UNL     1     -11.452  12.300  68.141  1.00  0.00    -0.316 C  
HETATM    9  H   UNL     1     -10.652  12.686  70.022  1.00  0.00     0.000 HD 
HETATM   10  O   UNL     1     -12.150  11.590  67.427  1.00  0.00    -0.593 OA 
BRANCH   8  11
HETATM   11  C   UNL     1     -10.724  13.446  67.560  1.00  0.00    -0.263 A  
HETATM   12  C   UNL     1     -10.874  13.841  66.230  1.00  0.00    -0.283 A  
HETATM   13  C   UNL     1     -10.131  14.919  65.754  1.00  0.00    -0.367 A  
HETATM   14  C   UNL     1      -9.265  15.561  66.628  1.00  0.00    -0.271 A  
HETATM   15  N   UNL     1      -9.099  15.201  67.919  1.00  0.00    -0.178 NA 
HETATM   16  C   UNL     1      -9.824  14.141  68.356  1.00  0.00    -0.231 A  
ENDBRANCH   8  11
ENDBRANCH   6   7
ENDBRANCH   5   6
ENDBRANCH   4   5
TORSDOF 4
ENDMDL
MODEL      131
REMARK 921   NORMALIZED FREE ENERGY PREDICTED BY IDOCK:   -3.72 KCAL/MOL
REMARK 922        TOTAL FREE ENERGY PREDICTED BY IDOCK:   -4.81 KCAL/MOL
REMARK 923 INTER-LIGAND FREE ENERGY PREDICTED BY IDOCK:   -4.54 KCAL/MOL
REMARK 924 INTRA-LIGAND FREE ENERGY PREDICTED BY IDOCK:   -0.28 KCAL/MOL
REMARK 927      BINDING AFFINITY PREDICTED BY RF-SCORE:    0.00 PKD
ROOT
HETATM    1  O   UNL     1     -11.427  16.826  63.962  1.00  0.00    -1.198 OA 
HETATM    2  N   UNL     1     -10.971  17.089  65.074  1.00  0.00    -0.158 N  
HETATM    3  O   UNL     1     -10.505  18.145  65.508  1.00  0.00    -0.626 OA 
HETATM    4  O   UNL     1     -10.975  15.971  65.943  1.00  0.00    -0.242 OA 
ENDROOT
BRANCH   4   5
HETATM    5  C   UNL     1     -10.496  16.299  67.244  1.00  0.00    -0.300 C  
BRANCH   5   6
HETATM    6  C   UNL     1     -10.997  15.235  68.223  1.00  0.00    -0.276 C  
BRANCH   6   7
HETATM    7  N   UNL     1     -10.211  14.016  68.204  1.00  0.00    -0.237 N  
HETATM    8  C   UNL     1     -10.767  12.814  67.811  1.00  0.00    -0.220 C  
HETATM    9  H   UNL     1      -9.232  14.047  68.485  1.00  0.00     0.000 HD 
HETATM   10  O   UNL     1     -11.942  12.689  67.489  1.00  0.00    -0.382 OA 
BRANCH   8  11
HETATM   11  C   UNL     1      -9.875  11.638  67.830  1.00  0.00    -0.189 A  
HETATM   12  C   UNL     1      -8.628  11.625  67.204  1.00  0.00    -0.164 A  
HETATM   13  C   UNL     1      -7.858  10.464  67.249  1.00  0.00    -0.106 A  
HETATM   14  C   UNL     1      -8.365   9.361  67.920  1.00  0.00    -0.115 A  
HETATM   15  N   UNL     1      -9.568   9.344  68.534  1.00  0.00    -0.145 NA 
HETATM   16  C   UNL     1     -10.304  10.481  68.467  1.00  0.00    -0.179 A  
ENDBRANCH   8  11
ENDBRANCH   6   7
ENDBRANCH   5   6
ENDBRANCH   4   5
TORSDOF 4
ENDMDL
MODEL      132
REMARK 921   NORMALIZED FREE ENERGY PREDICTED BY IDOCK:   -3.71 KCAL/MOL
REMARK 922        TOTAL FREE ENERGY PREDICTED BY IDOCK:   -4.80 KCAL/MOL
REMARK 923 INTER-LIGAND FREE ENERGY PREDICTED BY IDOCK:   -4.42 KCAL/MOL
REMARK 924 INTRA-LIGAND FREE ENERGY PREDICTED BY IDOCK:   -0.37 KCAL/MOL
REMARK 927      BINDING AFFINITY PREDICTED BY RF-SCORE:    0.00 PKD
ROOT
HETATM    1  O   UNL     1     -12.735  13.449  65.431  1.00  0.00    -0.526 OA 
HETATM    2  N   UNL     1     -11.595  13.023  65.251  1.00  0.00    -0.315 N  
HETATM    3  O   UNL     1     -10.958  12.889  64.204  1.00  0.00    -0.363 OA 
HETATM    4  O   UNL     1     -10.970  12.612  66.453  1.00  0.00    -0.260 OA 
ENDROOT
BRANCH   4   5
HETATM    5  C   UNL     1      -9.631  12.173  66.242  1.00  0.00    -0.237 C  
BRANCH   5   6
HETATM    6  C   UNL     1      -8.719  12.929  67.210  1.00  0.00    -0.204 C  
BRANCH   6   7
HETATM    7  N   UNL     1      -8.694  14.361  66.983  1.00  0.00    -0.243 N  
HETATM    8  C   UNL     1      -8.895  15.251  68.019  1.00  0.00    -0.169 C  
HETATM    9  H   UNL     1      -8.527  14.716  66.042  1.00  0.00     0.000 HD 
HETATM   10  O   UNL     1      -9.131  14.904  69.169  1.00  0.00    -0.192 OA 
BRANCH   8  11
HETATM   11  C   UNL     1      -8.849  16.686  67.674  1.00  0.00    -0.203 A  
HETATM   12  C   UNL     1      -9.520  17.662  68.412  1.00  0.00    -0.298 A  
HETATM   13  C   UNL     1      -9.445  18.992  68.003  1.00  0.00    -0.370 A  
HETATM   14  C   UNL     1      -8.702  19.295  66.872  1.00  0.00    -0.299 A  
HETATM   15  N   UNL     1      -8.043  18.372  66.138  1.00  0.00    -0.460 NA 
HETATM   16  C   UNL     1      -8.140  17.083  66.548  1.00  0.00    -0.285 A  
ENDBRANCH   8  11
ENDBRANCH   6   7
ENDBRANCH   5   6
ENDBRANCH   4   5
TORSDOF 4
ENDMDL
MODEL      133
REMARK 921   NORMALIZED FREE ENERGY PREDICTED BY IDOCK:   -3.70 KCAL/MOL
REMARK 922        TOTAL FREE ENERGY PREDICTED BY IDOCK:   -4.79 KCAL/MOL
REMARK 923 INTER-LIGAND FREE ENERGY PREDICTED BY IDOCK:   -4.59 KCAL/MOL
REMARK 924 INTRA-LIGAND FREE ENERGY PREDICTED BY IDOCK:   -0.20 KCAL/MOL
REMARK 927      BINDING AFFINITY PREDICTED BY RF-SCORE:    0.00 PKD
ROOT
HETATM    1  O   UNL     1     -12.018   7.187  72.388  1.00  0.00    -0.239 OA 
HETATM    2  N   UNL     1     -11.332   8.112  71.955  1.00  0.00    -0.277 N  
HETATM    3  O   UNL     1     -10.145   8.378  72.158  1.00  0.00    -0.249 OA 
HETATM    4  O   UNL     1     -12.065   8.993  71.124  1.00  0.00    -0.291 OA 
ENDROOT
BRANCH   4   5
HETATM    5  C   UNL     1     -11.250  10.028  70.584  1.00  0.00    -0.350 C  
BRANCH   5   6
HETATM    6  C   UNL     1     -12.127  11.261  70.354  1.00  0.00    -0.384 C  
BRANCH   6   7
HETATM    7  N   UNL     1     -11.492  12.279  69.539  1.00  0.00    -0.405 N  
HETATM    8  C   UNL     1     -11.861  13.605  69.638  1.00  0.00    -0.335 C  
HETATM    9  H   UNL     1     -10.761  12.009  68.881  1.00  0.00     0.000 HD 
HETATM   10  O   UNL     1     -12.750  14.004  70.380  1.00  0.00    -0.326 OA 
BRANCH   8  11
HETATM   11  C   UNL     1     -11.148  14.555  68.760  1.00  0.00    -0.267 A  
HETATM   12  C   UNL     1     -10.204  14.148  67.816  1.00  0.00    -0.242 A  
HETATM   13  C   UNL     1      -9.558  15.112  67.044  1.00  0.00    -0.235 A  
HETATM   14  C   UNL     1      -9.883  16.446  67.245  1.00  0.00    -0.245 A  
HETATM   15  N   UNL     1     -10.791  16.869  68.150  1.00  0.00    -0.370 NA 
HETATM   16  C   UNL     1     -11.398  15.914  68.899  1.00  0.00    -0.377 A  
ENDBRANCH   8  11
ENDBRANCH   6   7
ENDBRANCH   5   6
ENDBRANCH   4   5
TORSDOF 4
ENDMDL
MODEL      134
REMARK 921   NORMALIZED FREE ENERGY PREDICTED BY IDOCK:   -3.70 KCAL/MOL
REMARK 922        TOTAL FREE ENERGY PREDICTED BY IDOCK:   -4.79 KCAL/MOL
REMARK 923 INTER-LIGAND FREE ENERGY PREDICTED BY IDOCK:   -4.56 KCAL/MOL
REMARK 924 INTRA-LIGAND FREE ENERGY PREDICTED BY IDOCK:   -0.23 KCAL/MOL
REMARK 927      BINDING AFFINITY PREDICTED BY RF-SCORE:    0.00 PKD
ROOT
HETATM    1  O   UNL     1     -13.124  13.263  65.096  1.00  0.00    -0.705 OA 
HETATM    2  N   UNL     1     -12.500  14.278  64.793  1.00  0.00    -0.412 N  
HETATM    3  O   UNL     1     -12.702  15.089  63.886  1.00  0.00    -0.775 OA 
HETATM    4  O   UNL     1     -11.370  14.492  65.619  1.00  0.00    -0.326 OA 
ENDROOT
BRANCH   4   5
HETATM    5  C   UNL     1     -10.686  15.699  65.295  1.00  0.00    -0.425 C  
BRANCH   5   6
HETATM    6  C   UNL     1      -9.296  15.650  65.934  1.00  0.00    -0.321 C  
BRANCH   6   7
HETATM    7  N   UNL     1      -8.831  14.303  66.205  1.00  0.00    -0.460 N  
HETATM    8  C   UNL     1      -8.823  13.797  67.490  1.00  0.00    -0.197 C  
HETATM    9  H   UNL     1      -8.505  13.721  65.434  1.00  0.00     0.000 HD 
HETATM   10  O   UNL     1      -9.170  14.442  68.471  1.00  0.00    -0.194 OA 
BRANCH   8  11
HETATM   11  C   UNL     1      -8.329  12.414  67.649  1.00  0.00    -0.169 A  
HETATM   12  C   UNL     1      -7.375  12.059  68.605  1.00  0.00    -0.111 A  
HETATM   13  C   UNL     1      -6.944  10.735  68.673  1.00  0.00    -0.070 A  
HETATM   14  C   UNL     1      -7.484   9.818  67.783  1.00  0.00    -0.090 A  
HETATM   15  N   UNL     1      -8.406  10.133  66.848  1.00  0.00    -0.122 NA 
HETATM   16  C   UNL     1      -8.801  11.429  66.793  1.00  0.00    -0.179 A  
ENDBRANCH   8  11
ENDBRANCH   6   7
ENDBRANCH   5   6
ENDBRANCH   4   5
TORSDOF 4
ENDMDL
MODEL      135
REMARK 921   NORMALIZED FREE ENERGY PREDICTED BY IDOCK:   -3.69 KCAL/MOL
REMARK 922        TOTAL FREE ENERGY PREDICTED BY IDOCK:   -4.78 KCAL/MOL
REMARK 923 INTER-LIGAND FREE ENERGY PREDICTED BY IDOCK:   -4.39 KCAL/MOL
REMARK 924 INTRA-LIGAND FREE ENERGY PREDICTED BY IDOCK:   -0.39 KCAL/MOL
REMARK 927      BINDING AFFINITY PREDICTED BY RF-SCORE:    0.00 PKD
ROOT
HETATM    1  O   UNL     1     -12.298  12.294  65.619  1.00  0.00    -0.619 OA 
HETATM    2  N   UNL     1     -11.510  12.102  66.544  1.00  0.00    -0.363 N  
HETATM    3  O   UNL     1     -10.286  11.965  66.523  1.00  0.00    -0.199 OA 
HETATM    4  O   UNL     1     -12.157  12.003  67.800  1.00  0.00    -0.537 OA 
ENDROOT
BRANCH   4   5
HETATM    5  C   UNL     1     -11.232  11.836  68.870  1.00  0.00    -0.253 C  
BRANCH   5   6
HETATM    6  C   UNL     1     -11.368  10.409  69.405  1.00  0.00    -0.250 C  
BRANCH   6   7
HETATM    7  N   UNL     1     -10.983   9.392  68.445  1.00  0.00    -0.463 N  
HETATM    8  C   UNL     1     -10.461   8.183  68.858  1.00  0.00    -0.185 C  
HETATM    9  H   UNL     1     -11.099   9.575  67.449  1.00  0.00     0.000 HD 
HETATM   10  O   UNL     1     -10.262   7.900  70.032  1.00  0.00    -0.200 OA 
BRANCH   8  11
HETATM   11  C   UNL     1     -10.103   7.222  67.794  1.00  0.00    -0.225 A  
HETATM   12  C   UNL     1     -10.783   6.019  67.603  1.00  0.00    -0.377 A  
HETATM   13  C   UNL     1     -10.365   5.157  66.591  1.00  0.00    -0.325 A  
HETATM   14  C   UNL     1      -9.283   5.532  65.809  1.00  0.00    -0.120 A  
HETATM   15  N   UNL     1      -8.605   6.690  65.970  1.00  0.00    -0.145 NA 
HETATM   16  C   UNL     1      -9.022   7.507  66.970  1.00  0.00    -0.130 A  
ENDBRANCH   8  11
ENDBRANCH   6   7
ENDBRANCH   5   6
ENDBRANCH   4   5
TORSDOF 4
ENDMDL
MODEL      136
REMARK 921   NORMALIZED FREE ENERGY PREDICTED BY IDOCK:   -3.69 KCAL/MOL
REMARK 922        TOTAL FREE ENERGY PREDICTED BY IDOCK:   -4.78 KCAL/MOL
REMARK 923 INTER-LIGAND FREE ENERGY PREDICTED BY IDOCK:   -4.50 KCAL/MOL
REMARK 924 INTRA-LIGAND FREE ENERGY PREDICTED BY IDOCK:   -0.28 KCAL/MOL
REMARK 927      BINDING AFFINITY PREDICTED BY RF-SCORE:    0.00 PKD
ROOT
HETATM    1  O   UNL     1     -14.410   7.453  71.418  1.00  0.00    -0.445 OA 
HETATM    2  N   UNL     1     -13.736   8.408  71.801  1.00  0.00    -0.379 N  
HETATM    3  O   UNL     1     -13.999   9.277  72.636  1.00  0.00    -0.438 OA 
HETATM    4  O   UNL     1     -12.491   8.499  71.134  1.00  0.00    -0.273 OA 
ENDROOT
BRANCH   4   5
HETATM    5  C   UNL     1     -11.695   9.575  71.623  1.00  0.00    -0.390 C  
BRANCH   5   6
HETATM    6  C   UNL     1     -10.339   9.530  70.916  1.00  0.00    -0.302 C  
BRANCH   6   7
HETATM    7  N   UNL     1     -10.288  10.336  69.711  1.00  0.00    -0.292 N  
HETATM    8  C   UNL     1     -10.565   9.788  68.474  1.00  0.00    -0.221 C  
HETATM    9  H   UNL     1     -10.044  11.323  69.779  1.00  0.00     0.000 HD 
HETATM   10  O   UNL     1     -10.835   8.605  68.307  1.00  0.00    -0.098 OA 
BRANCH   8  11
HETATM   11  C   UNL     1     -10.483  10.700  67.316  1.00  0.00    -0.293 A  
HETATM   12  C   UNL     1     -11.445  11.677  67.054  1.00  0.00    -0.336 A  
HETATM   13  C   UNL     1     -11.305  12.481  65.925  1.00  0.00    -0.380 A  
HETATM   14  C   UNL     1     -10.208  12.277  65.101  1.00  0.00    -0.279 A  
HETATM   15  N   UNL     1      -9.262  11.340  65.328  1.00  0.00    -0.204 NA 
HETATM   16  C   UNL     1      -9.426  10.562  66.426  1.00  0.00    -0.171 A  
ENDBRANCH   8  11
ENDBRANCH   6   7
ENDBRANCH   5   6
ENDBRANCH   4   5
TORSDOF 4
ENDMDL
MODEL      137
REMARK 921   NORMALIZED FREE ENERGY PREDICTED BY IDOCK:   -3.67 KCAL/MOL
REMARK 922        TOTAL FREE ENERGY PREDICTED BY IDOCK:   -4.75 KCAL/MOL
REMARK 923 INTER-LIGAND FREE ENERGY PREDICTED BY IDOCK:   -4.47 KCAL/MOL
REMARK 924 INTRA-LIGAND FREE ENERGY PREDICTED BY IDOCK:   -0.28 KCAL/MOL
REMARK 927      BINDING AFFINITY PREDICTED BY RF-SCORE:    0.00 PKD
ROOT
HETATM    1  O   UNL     1     -13.267  13.708  65.240  1.00  0.00    -0.724 OA 
HETATM    2  N   UNL     1     -12.556  13.270  64.336  1.00  0.00    -0.265 N  
HETATM    3  O   UNL     1     -12.334  13.728  63.213  1.00  0.00    -0.756 OA 
HETATM    4  O   UNL     1     -11.944  12.039  64.672  1.00  0.00    -0.323 OA 
ENDROOT
BRANCH   4   5
HETATM    5  C   UNL     1     -11.080  11.568  63.642  1.00  0.00    -0.385 C  
BRANCH   5   6
HETATM    6  C   UNL     1      -9.763  11.125  64.283  1.00  0.00    -0.271 C  
BRANCH   6   7
HETATM    7  N   UNL     1      -9.238  12.078  65.242  1.00  0.00    -0.427 N  
HETATM    8  C   UNL     1      -9.309  11.838  66.600  1.00  0.00    -0.198 C  
HETATM    9  H   UNL     1      -8.809  12.941  64.907  1.00  0.00     0.000 HD 
HETATM   10  O   UNL     1      -9.834  10.842  67.081  1.00  0.00    -0.179 OA 
BRANCH   8  11
HETATM   11  C   UNL     1      -8.743  12.877  67.484  1.00  0.00    -0.190 A  
HETATM   12  C   UNL     1      -9.517  13.891  68.049  1.00  0.00    -0.208 A  
HETATM   13  C   UNL     1      -8.899  14.848  68.852  1.00  0.00    -0.184 A  
HETATM   14  C   UNL     1      -7.531  14.752  69.060  1.00  0.00    -0.142 A  
HETATM   15  N   UNL     1      -6.757  13.783  68.527  1.00  0.00    -0.085 NA 
HETATM   16  C   UNL     1      -7.378  12.870  67.738  1.00  0.00    -0.134 A  
ENDBRANCH   8  11
ENDBRANCH   6   7
ENDBRANCH   5   6
ENDBRANCH   4   5
TORSDOF 4
ENDMDL
MODEL      138
REMARK 921   NORMALIZED FREE ENERGY PREDICTED BY IDOCK:   -3.67 KCAL/MOL
REMARK 922        TOTAL FREE ENERGY PREDICTED BY IDOCK:   -4.75 KCAL/MOL
REMARK 923 INTER-LIGAND FREE ENERGY PREDICTED BY IDOCK:   -4.54 KCAL/MOL
REMARK 924 INTRA-LIGAND FREE ENERGY PREDICTED BY IDOCK:   -0.21 KCAL/MOL
REMARK 927      BINDING AFFINITY PREDICTED BY RF-SCORE:    0.00 PKD
ROOT
HETATM    1  O   UNL     1     -12.121  13.659  63.176  1.00  0.00    -0.459 OA 
HETATM    2  N   UNL     1     -12.330  12.913  64.132  1.00  0.00    -0.384 N  
HETATM    3  O   UNL     1     -13.391  12.449  64.556  1.00  0.00    -0.800 OA 
HETATM    4  O   UNL     1     -11.147  12.587  64.838  1.00  0.00    -0.284 OA 
ENDROOT
BRANCH   4   5
HETATM    5  C   UNL     1     -11.391  11.679  65.908  1.00  0.00    -0.199 C  
BRANCH   5   6
HETATM    6  C   UNL     1     -10.060  11.390  66.606  1.00  0.00    -0.212 C  
BRANCH   6   7
HETATM    7  N   UNL     1     -10.208  10.669  67.856  1.00  0.00    -0.171 N  
HETATM    8  C   UNL     1     -10.244   9.289  67.885  1.00  0.00    -0.214 C  
HETATM    9  H   UNL     1     -10.286  11.191  68.729  1.00  0.00     0.000 HD 
HETATM   10  O   UNL     1     -10.187   8.593  66.879  1.00  0.00    -0.256 OA 
BRANCH   8  11
HETATM   11  C   UNL     1     -10.398   8.661  69.212  1.00  0.00    -0.228 A  
HETATM   12  C   UNL     1     -10.248   9.370  70.405  1.00  0.00    -0.310 A  
HETATM   13  C   UNL     1     -10.386   8.695  71.617  1.00  0.00    -0.366 A  
HETATM   14  C   UNL     1     -10.668   7.338  71.588  1.00  0.00    -0.215 A  
HETATM   15  N   UNL     1     -10.818   6.626  70.451  1.00  0.00    -0.248 NA 
HETATM   16  C   UNL     1     -10.668   7.301  69.284  1.00  0.00    -0.198 A  
ENDBRANCH   8  11
ENDBRANCH   6   7
ENDBRANCH   5   6
ENDBRANCH   4   5
TORSDOF 4
ENDMDL
MODEL      139
REMARK 921   NORMALIZED FREE ENERGY PREDICTED BY IDOCK:   -3.64 KCAL/MOL
REMARK 922        TOTAL FREE ENERGY PREDICTED BY IDOCK:   -4.72 KCAL/MOL
REMARK 923 INTER-LIGAND FREE ENERGY PREDICTED BY IDOCK:   -4.53 KCAL/MOL
REMARK 924 INTRA-LIGAND FREE ENERGY PREDICTED BY IDOCK:   -0.19 KCAL/MOL
REMARK 927      BINDING AFFINITY PREDICTED BY RF-SCORE:    0.00 PKD
ROOT
HETATM    1  O   UNL     1      -6.879   7.148  68.126  1.00  0.00    -0.068 OA 
HETATM    2  N   UNL     1      -7.630   7.568  69.005  1.00  0.00    -0.106 N  
HETATM    3  O   UNL     1      -8.159   6.969  69.945  1.00  0.00    -0.121 OA 
HETATM    4  O   UNL     1      -7.925   8.944  68.859  1.00  0.00    -0.101 OA 
ENDROOT
BRANCH   4   5
HETATM    5  C   UNL     1      -8.751   9.433  69.913  1.00  0.00    -0.197 C  
BRANCH   5   6
HETATM    6  C   UNL     1     -10.066   9.925  69.305  1.00  0.00    -0.203 C  
BRANCH   6   7
HETATM    7  N   UNL     1     -10.729  10.937  70.103  1.00  0.00    -0.440 N  
HETATM    8  C   UNL     1     -11.881  11.555  69.659  1.00  0.00    -0.354 C  
HETATM    9  H   UNL     1     -10.338  11.198  71.008  1.00  0.00     0.000 HD 
HETATM   10  O   UNL     1     -12.395  11.320  68.573  1.00  0.00    -0.543 OA 
BRANCH   8  11
HETATM   11  C   UNL     1     -12.471  12.571  70.553  1.00  0.00    -0.266 A  
HETATM   12  C   UNL     1     -13.244  12.240  71.667  1.00  0.00    -0.356 A  
HETATM   13  C   UNL     1     -13.784  13.262  72.446  1.00  0.00    -0.678 A  
HETATM   14  C   UNL     1     -13.531  14.575  72.080  1.00  0.00    -0.400 A  
HETATM   15  N   UNL     1     -12.789  14.926  71.008  1.00  0.00    -0.337 NA 
HETATM   16  C   UNL     1     -12.283  13.915  70.258  1.00  0.00    -0.358 A  
ENDBRANCH   8  11
ENDBRANCH   6   7
ENDBRANCH   5   6
ENDBRANCH   4   5
TORSDOF 4
ENDMDL
MODEL      140
REMARK 921   NORMALIZED FREE ENERGY PREDICTED BY IDOCK:   -3.62 KCAL/MOL
REMARK 922        TOTAL FREE ENERGY PREDICTED BY IDOCK:   -4.70 KCAL/MOL
REMARK 923 INTER-LIGAND FREE ENERGY PREDICTED BY IDOCK:   -4.27 KCAL/MOL
REMARK 924 INTRA-LIGAND FREE ENERGY PREDICTED BY IDOCK:   -0.43 KCAL/MOL
REMARK 927      BINDING AFFINITY PREDICTED BY RF-SCORE:    0.00 PKD
ROOT
HETATM    1  O   UNL     1      -8.896   9.433  71.090  1.00  0.00    -0.272 OA 
HETATM    2  N   UNL     1     -10.125   9.468  71.049  1.00  0.00    -0.272 N  
HETATM    3  O   UNL     1     -10.873  10.084  70.288  1.00  0.00    -0.272 OA 
HETATM    4  O   UNL     1     -10.727   8.689  72.067  1.00  0.00    -0.311 OA 
ENDROOT
BRANCH   4   5
HETATM    5  C   UNL     1     -12.149   8.691  71.978  1.00  0.00    -0.375 C  
BRANCH   5   6
HETATM    6  C   UNL     1     -12.603   7.306  71.513  1.00  0.00    -0.379 C  
BRANCH   6   7
HETATM    7  N   UNL     1     -12.068   6.926  70.219  1.00  0.00    -0.627 N  
HETATM    8  C   UNL     1     -11.109   5.940  70.106  1.00  0.00    -0.325 C  
HETATM    9  H   UNL     1     -12.406   7.396  69.380  1.00  0.00     0.000 HD 
HETATM   10  O   UNL     1     -10.631   5.351  71.068  1.00  0.00    -0.238 OA 
BRANCH   8  11
HETATM   11  C   UNL     1     -10.635   5.634  68.741  1.00  0.00    -0.286 A  
HETATM   12  C   UNL     1     -10.801   6.514  67.670  1.00  0.00    -0.419 A  
HETATM   13  C   UNL     1     -10.346   6.138  66.407  1.00  0.00    -0.102 A  
HETATM   14  C   UNL     1      -9.744   4.897  66.265  1.00  0.00    -0.190 A  
HETATM   15  N   UNL     1      -9.571   4.025  67.282  1.00  0.00    -0.198 NA 
HETATM   16  C   UNL     1     -10.032   4.408  68.499  1.00  0.00     0.000 A  
ENDBRANCH   8  11
ENDBRANCH   6   7
ENDBRANCH   5   6
ENDBRANCH   4   5
TORSDOF 4
ENDMDL
MODEL      141
REMARK 921   NORMALIZED FREE ENERGY PREDICTED BY IDOCK:   -3.60 KCAL/MOL
REMARK 922        TOTAL FREE ENERGY PREDICTED BY IDOCK:   -4.67 KCAL/MOL
REMARK 923 INTER-LIGAND FREE ENERGY PREDICTED BY IDOCK:   -4.34 KCAL/MOL
REMARK 924 INTRA-LIGAND FREE ENERGY PREDICTED BY IDOCK:   -0.33 KCAL/MOL
REMARK 927      BINDING AFFINITY PREDICTED BY RF-SCORE:    0.00 PKD
ROOT
HETATM    1  O   UNL     1      -8.968   9.486  67.055  1.00  0.00    -0.133 OA 
HETATM    2  N   UNL     1      -8.798   8.269  66.998  1.00  0.00    -0.132 N  
HETATM    3  O   UNL     1      -7.769   7.607  67.147  1.00  0.00    -0.107 OA 
HETATM    4  O   UNL     1      -9.986   7.566  66.683  1.00  0.00    -0.225 OA 
ENDROOT
BRANCH   4   5
HETATM    5  C   UNL     1      -9.791   6.155  66.673  1.00  0.00    -0.159 C  
BRANCH   5   6
HETATM    6  C   UNL     1     -10.629   5.546  67.799  1.00  0.00    -0.154 C  
BRANCH   6   7
HETATM    7  N   UNL     1     -11.305   6.535  68.617  1.00  0.00    -0.582 N  
HETATM    8  C   UNL     1     -11.168   6.540  69.990  1.00  0.00    -0.393 C  
HETATM    9  H   UNL     1     -11.892   7.238  68.169  1.00  0.00     0.000 HD 
HETATM   10  O   UNL     1     -10.507   5.713  70.604  1.00  0.00    -0.236 OA 
BRANCH   8  11
HETATM   11  C   UNL     1     -11.902   7.592  70.722  1.00  0.00    -0.227 A  
HETATM   12  C   UNL     1     -11.432   8.901  70.837  1.00  0.00    -0.339 A  
HETATM   13  C   UNL     1     -12.175   9.827  71.566  1.00  0.00    -0.493 A  
HETATM   14  C   UNL     1     -13.360   9.408  72.153  1.00  0.00    -0.468 A  
HETATM   15  N   UNL     1     -13.840   8.149  72.059  1.00  0.00    -0.335 NA 
HETATM   16  C   UNL     1     -13.093   7.262  71.355  1.00  0.00    -0.361 A  
ENDBRANCH   8  11
ENDBRANCH   6   7
ENDBRANCH   5   6
ENDBRANCH   4   5
TORSDOF 4
ENDMDL
MODEL      142
REMARK 921   NORMALIZED FREE ENERGY PREDICTED BY IDOCK:   -3.59 KCAL/MOL
REMARK 922        TOTAL FREE ENERGY PREDICTED BY IDOCK:   -4.66 KCAL/MOL
REMARK 923 INTER-LIGAND FREE ENERGY PREDICTED BY IDOCK:   -4.34 KCAL/MOL
REMARK 924 INTRA-LIGAND FREE ENERGY PREDICTED BY IDOCK:   -0.32 KCAL/MOL
REMARK 927      BINDING AFFINITY PREDICTED BY RF-SCORE:    0.00 PKD
ROOT
HETATM    1  O   UNL     1     -12.522  10.953  69.009  1.00  0.00    -0.425 OA 
HETATM    2  N   UNL     1     -12.085  12.100  69.095  1.00  0.00    -0.229 N  
HETATM    3  O   UNL     1     -11.666  12.713  70.079  1.00  0.00    -0.293 OA 
HETATM    4  O   UNL     1     -12.112  12.789  67.859  1.00  0.00    -0.313 OA 
ENDROOT
BRANCH   4   5
HETATM    5  C   UNL     1     -11.553  14.095  67.958  1.00  0.00    -0.334 C  
BRANCH   5   6
HETATM    6  C   UNL     1     -10.906  14.444  66.616  1.00  0.00    -0.304 C  
BRANCH   6   7
HETATM    7  N   UNL     1     -10.247  13.319  65.981  1.00  0.00    -0.286 N  
HETATM    8  C   UNL     1     -10.679  12.832  64.764  1.00  0.00    -0.316 C  
HETATM    9  H   UNL     1      -9.451  12.879  66.443  1.00  0.00     0.000 HD 
HETATM   10  O   UNL     1     -11.644  13.285  64.162  1.00  0.00    -0.373 OA 
BRANCH   8  11
HETATM   11  C   UNL     1      -9.934  11.683  64.211  1.00  0.00    -0.303 A  
HETATM   12  C   UNL     1      -9.955  11.350  62.856  1.00  0.00    -0.278 A  
HETATM   13  C   UNL     1      -9.243  10.234  62.420  1.00  0.00    -0.311 A  
HETATM   14  C   UNL     1      -8.537   9.494  63.357  1.00  0.00    -0.210 A  
HETATM   15  N   UNL     1      -8.499   9.791  64.674  1.00  0.00    -0.158 NA 
HETATM   16  C   UNL     1      -9.209  10.874  65.077  1.00  0.00    -0.207 A  
ENDBRANCH   8  11
ENDBRANCH   6   7
ENDBRANCH   5   6
ENDBRANCH   4   5
TORSDOF 4
ENDMDL
MODEL      143
REMARK 921   NORMALIZED FREE ENERGY PREDICTED BY IDOCK:   -3.58 KCAL/MOL
REMARK 922        TOTAL FREE ENERGY PREDICTED BY IDOCK:   -4.64 KCAL/MOL
REMARK 923 INTER-LIGAND FREE ENERGY PREDICTED BY IDOCK:   -4.20 KCAL/MOL
REMARK 924 INTRA-LIGAND FREE ENERGY PREDICTED BY IDOCK:   -0.44 KCAL/MOL
REMARK 927      BINDING AFFINITY PREDICTED BY RF-SCORE:    0.00 PKD
ROOT
HETATM    1  O   UNL     1      -8.507   6.104  65.427  1.00  0.00    -0.148 OA 
HETATM    2  N   UNL     1      -8.427   7.226  65.924  1.00  0.00    -0.140 N  
HETATM    3  O   UNL     1      -9.250   7.853  66.596  1.00  0.00    -0.157 OA 
HETATM    4  O   UNL     1      -7.200   7.867  65.630  1.00  0.00    -0.068 OA 
ENDROOT
BRANCH   4   5
HETATM    5  C   UNL     1      -7.095   9.143  66.255  1.00  0.00    -0.087 C  
BRANCH   5   6
HETATM    6  C   UNL     1      -7.200  10.220  65.172  1.00  0.00    -0.125 C  
BRANCH   6   7
HETATM    7  N   UNL     1      -8.425  10.992  65.242  1.00  0.00    -0.365 N  
HETATM    8  C   UNL     1      -9.451  10.786  64.341  1.00  0.00    -0.256 C  
HETATM    9  H   UNL     1      -8.530  11.700  65.968  1.00  0.00     0.000 HD 
HETATM   10  O   UNL     1      -9.389   9.977  63.424  1.00  0.00    -0.279 OA 
BRANCH   8  11
HETATM   11  C   UNL     1     -10.652  11.630  64.505  1.00  0.00    -0.373 A  
HETATM   12  C   UNL     1     -11.268  12.283  63.437  1.00  0.00    -0.497 A  
HETATM   13  C   UNL     1     -12.384  13.080  63.682  1.00  0.00    -0.499 A  
HETATM   14  C   UNL     1     -12.841  13.194  64.986  1.00  0.00    -0.302 A  
HETATM   15  N   UNL     1     -12.265  12.575  66.040  1.00  0.00    -0.620 NA 
HETATM   16  C   UNL     1     -11.173  11.814  65.779  1.00  0.00    -0.281 A  
ENDBRANCH   8  11
ENDBRANCH   6   7
ENDBRANCH   5   6
ENDBRANCH   4   5
TORSDOF 4
ENDMDL
MODEL      144
REMARK 921   NORMALIZED FREE ENERGY PREDICTED BY IDOCK:   -3.56 KCAL/MOL
REMARK 922        TOTAL FREE ENERGY PREDICTED BY IDOCK:   -4.62 KCAL/MOL
REMARK 923 INTER-LIGAND FREE ENERGY PREDICTED BY IDOCK:   -4.17 KCAL/MOL
REMARK 924 INTRA-LIGAND FREE ENERGY PREDICTED BY IDOCK:   -0.45 KCAL/MOL
REMARK 927      BINDING AFFINITY PREDICTED BY RF-SCORE:    0.00 PKD
ROOT
HETATM    1  O   UNL     1      -8.409   9.574  71.409  1.00  0.00    -0.225 OA 
HETATM    2  N   UNL     1      -9.438   8.998  71.057  1.00  0.00    -0.253 N  
HETATM    3  O   UNL     1     -10.617   9.285  71.274  1.00  0.00    -0.299 OA 
HETATM    4  O   UNL     1      -9.178   7.819  70.318  1.00  0.00    -0.155 OA 
ENDROOT
BRANCH   4   5
HETATM    5  C   UNL     1     -10.375   7.191  69.868  1.00  0.00    -0.213 C  
BRANCH   5   6
HETATM    6  C   UNL     1     -10.484   7.390  68.355  1.00  0.00    -0.185 C  
BRANCH   6   7
HETATM    7  N   UNL     1     -10.857   8.739  67.974  1.00  0.00    -0.476 N  
HETATM    8  C   UNL     1     -10.140   9.436  67.022  1.00  0.00    -0.240 C  
HETATM    9  H   UNL     1     -11.662   9.180  68.418  1.00  0.00     0.000 HD 
HETATM   10  O   UNL     1      -9.145   8.988  66.467  1.00  0.00    -0.146 OA 
BRANCH   8  11
HETATM   11  C   UNL     1     -10.609  10.802  66.714  1.00  0.00    -0.307 A  
HETATM   12  C   UNL     1     -11.327  11.578  67.625  1.00  0.00    -0.358 A  
HETATM   13  C   UNL     1     -11.754  12.849  67.244  1.00  0.00    -0.431 A  
HETATM   14  C   UNL     1     -11.445  13.295  65.968  1.00  0.00    -0.330 A  
HETATM   15  N   UNL     1     -10.752  12.568  65.066  1.00  0.00    -0.285 NA 
HETATM   16  C   UNL     1     -10.358  11.329  65.454  1.00  0.00    -0.272 A  
ENDBRANCH   8  11
ENDBRANCH   6   7
ENDBRANCH   5   6
ENDBRANCH   4   5
TORSDOF 4
ENDMDL
MODEL      145
REMARK 921   NORMALIZED FREE ENERGY PREDICTED BY IDOCK:   -3.56 KCAL/MOL
REMARK 922        TOTAL FREE ENERGY PREDICTED BY IDOCK:   -4.62 KCAL/MOL
REMARK 923 INTER-LIGAND FREE ENERGY PREDICTED BY IDOCK:   -4.24 KCAL/MOL
REMARK 924 INTRA-LIGAND FREE ENERGY PREDICTED BY IDOCK:   -0.37 KCAL/MOL
REMARK 927      BINDING AFFINITY PREDICTED BY RF-SCORE:    0.00 PKD
ROOT
HETATM    1  O   UNL     1      -9.508  12.774  66.806  1.00  0.00    -0.230 OA 
HETATM    2  N   UNL     1     -10.485  13.489  67.024  1.00  0.00    -0.264 N  
HETATM    3  O   UNL     1     -11.534  13.609  66.388  1.00  0.00    -0.318 OA 
HETATM    4  O   UNL     1     -10.320  14.301  68.172  1.00  0.00    -0.224 OA 
ENDROOT
BRANCH   4   5
HETATM    5  C   UNL     1     -11.477  15.085  68.447  1.00  0.00    -0.323 C  
BRANCH   5   6
HETATM    6  C   UNL     1     -11.144  16.551  68.163  1.00  0.00    -0.303 C  
BRANCH   6   7
HETATM    7  N   UNL     1      -9.737  16.783  67.896  1.00  0.00    -0.241 N  
HETATM    8  C   UNL     1      -9.291  17.078  66.623  1.00  0.00    -0.255 C  
HETATM    9  H   UNL     1      -9.066  16.727  68.662  1.00  0.00     0.000 HD 
HETATM   10  O   UNL     1     -10.029  17.133  65.647  1.00  0.00    -0.558 OA 
BRANCH   8  11
HETATM   11  C   UNL     1      -7.839  17.294  66.467  1.00  0.00    -0.322 A  
HETATM   12  C   UNL     1      -7.306  18.420  65.838  1.00  0.00    -0.238 A  
HETATM   13  C   UNL     1      -5.923  18.536  65.711  1.00  0.00    -0.245 A  
HETATM   14  C   UNL     1      -5.126  17.520  66.218  1.00  0.00    -0.181 A  
HETATM   15  N   UNL     1      -5.613  16.419  66.831  1.00  0.00    -0.350 NA 
HETATM   16  C   UNL     1      -6.962  16.323  66.932  1.00  0.00    -0.191 A  
ENDBRANCH   8  11
ENDBRANCH   6   7
ENDBRANCH   5   6
ENDBRANCH   4   5
TORSDOF 4
ENDMDL
MODEL      146
REMARK 921   NORMALIZED FREE ENERGY PREDICTED BY IDOCK:   -3.56 KCAL/MOL
REMARK 922        TOTAL FREE ENERGY PREDICTED BY IDOCK:   -4.62 KCAL/MOL
REMARK 923 INTER-LIGAND FREE ENERGY PREDICTED BY IDOCK:   -4.30 KCAL/MOL
REMARK 924 INTRA-LIGAND FREE ENERGY PREDICTED BY IDOCK:   -0.32 KCAL/MOL
REMARK 927      BINDING AFFINITY PREDICTED BY RF-SCORE:    0.00 PKD
ROOT
HETATM    1  O   UNL     1     -11.082  18.121  65.006  1.00  0.00    -0.650 OA 
HETATM    2  N   UNL     1     -10.689  18.993  65.779  1.00  0.00    -0.407 N  
HETATM    3  O   UNL     1     -10.226  20.110  65.540  1.00  0.00    -0.364 OA 
HETATM    4  O   UNL     1     -10.773  18.597  67.136  1.00  0.00    -0.421 OA 
ENDROOT
BRANCH   4   5
HETATM    5  C   UNL     1     -10.367  19.633  68.025  1.00  0.00    -0.453 C  
BRANCH   5   6
HETATM    6  C   UNL     1      -9.020  19.241  68.638  1.00  0.00    -0.374 C  
BRANCH   6   7
HETATM    7  N   UNL     1      -8.759  17.815  68.594  1.00  0.00    -0.284 N  
HETATM    8  C   UNL     1      -7.892  17.277  67.664  1.00  0.00    -0.182 C  
HETATM    9  H   UNL     1      -9.224  17.200  69.261  1.00  0.00     0.000 HD 
HETATM   10  O   UNL     1      -7.320  17.944  66.812  1.00  0.00    -0.182 OA 
BRANCH   8  11
HETATM   11  C   UNL     1      -7.701  15.813  67.711  1.00  0.00    -0.159 A  
HETATM   12  C   UNL     1      -6.515  15.220  68.145  1.00  0.00    -0.133 A  
HETATM   13  C   UNL     1      -6.408  13.830  68.134  1.00  0.00    -0.125 A  
HETATM   14  C   UNL     1      -7.492  13.088  67.690  1.00  0.00    -0.156 A  
HETATM   15  N   UNL     1      -8.652  13.634  67.264  1.00  0.00    -0.208 NA 
HETATM   16  C   UNL     1      -8.728  14.989  67.272  1.00  0.00    -0.203 A  
ENDBRANCH   8  11
ENDBRANCH   6   7
ENDBRANCH   5   6
ENDBRANCH   4   5
TORSDOF 4
ENDMDL
MODEL      147
REMARK 921   NORMALIZED FREE ENERGY PREDICTED BY IDOCK:   -3.55 KCAL/MOL
REMARK 922        TOTAL FREE ENERGY PREDICTED BY IDOCK:   -4.61 KCAL/MOL
REMARK 923 INTER-LIGAND FREE ENERGY PREDICTED BY IDOCK:   -4.37 KCAL/MOL
REMARK 924 INTRA-LIGAND FREE ENERGY PREDICTED BY IDOCK:   -0.24 KCAL/MOL
REMARK 927      BINDING AFFINITY PREDICTED BY RF-SCORE:    0.00 PKD
ROOT
HETATM    1  O   UNL     1     -11.152  13.300  64.476  1.00  0.00    -0.337 OA 
HETATM    2  N   UNL     1     -11.542  12.978  65.597  1.00  0.00    -0.337 N  
HETATM    3  O   UNL     1     -12.392  13.502  66.320  1.00  0.00    -0.417 OA 
HETATM    4  O   UNL     1     -10.863  11.844  66.105  1.00  0.00    -0.270 OA 
ENDROOT
BRANCH   4   5
HETATM    5  C   UNL     1     -11.359  11.445  67.380  1.00  0.00    -0.288 C  
BRANCH   5   6
HETATM    6  C   UNL     1     -10.216  11.546  68.393  1.00  0.00    -0.205 C  
BRANCH   6   7
HETATM    7  N   UNL     1     -10.430  10.748  69.585  1.00  0.00    -0.406 N  
HETATM    8  C   UNL     1      -9.823   9.517  69.738  1.00  0.00    -0.215 C  
HETATM    9  H   UNL     1     -11.038  11.102  70.323  1.00  0.00     0.000 HD 
HETATM   10  O   UNL     1      -9.104   9.010  68.887  1.00  0.00    -0.138 OA 
BRANCH   8  11
HETATM   11  C   UNL     1     -10.111   8.792  70.992  1.00  0.00    -0.301 A  
HETATM   12  C   UNL     1     -11.375   8.779  71.584  1.00  0.00    -0.390 A  
HETATM   13  C   UNL     1     -11.556   8.089  72.781  1.00  0.00    -0.390 A  
HETATM   14  C   UNL     1     -10.466   7.438  73.340  1.00  0.00    -0.368 A  
HETATM   15  N   UNL     1      -9.232   7.434  72.791  1.00  0.00    -0.141 NA 
HETATM   16  C   UNL     1      -9.077   8.122  71.632  1.00  0.00    -0.163 A  
ENDBRANCH   8  11
ENDBRANCH   6   7
ENDBRANCH   5   6
ENDBRANCH   4   5
TORSDOF 4
ENDMDL
MODEL      148
REMARK 921   NORMALIZED FREE ENERGY PREDICTED BY IDOCK:   -3.55 KCAL/MOL
REMARK 922        TOTAL FREE ENERGY PREDICTED BY IDOCK:   -4.60 KCAL/MOL
REMARK 923 INTER-LIGAND FREE ENERGY PREDICTED BY IDOCK:   -4.25 KCAL/MOL
REMARK 924 INTRA-LIGAND FREE ENERGY PREDICTED BY IDOCK:   -0.35 KCAL/MOL
REMARK 927      BINDING AFFINITY PREDICTED BY RF-SCORE:    0.00 PKD
ROOT
HETATM    1  O   UNL     1      -5.810  18.443  69.912  1.00  0.00    -0.233 OA 
HETATM    2  N   UNL     1      -6.077  17.811  68.891  1.00  0.00    -0.194 N  
HETATM    3  O   UNL     1      -5.994  16.601  68.666  1.00  0.00    -0.130 OA 
HETATM    4  O   UNL     1      -6.516  18.643  67.833  1.00  0.00    -0.204 OA 
ENDROOT
BRANCH   4   5
HETATM    5  C   UNL     1      -6.876  17.897  66.674  1.00  0.00    -0.203 C  
BRANCH   5   6
HETATM    6  C   UNL     1      -8.390  18.005  66.483  1.00  0.00    -0.268 C  
BRANCH   6   7
HETATM    7  N   UNL     1      -9.139  17.006  67.220  1.00  0.00    -0.220 N  
HETATM    8  C   UNL     1     -10.342  17.317  67.823  1.00  0.00    -0.356 C  
HETATM    9  H   UNL     1      -8.771  16.058  67.295  1.00  0.00     0.000 HD 
HETATM   10  O   UNL     1     -10.834  18.438  67.805  1.00  0.00    -0.384 OA 
BRANCH   8  11
HETATM   11  C   UNL     1     -11.018  16.222  68.548  1.00  0.00    -0.345 A  
HETATM   12  C   UNL     1     -11.260  16.262  69.922  1.00  0.00    -0.319 A  
HETATM   13  C   UNL     1     -11.882  15.175  70.533  1.00  0.00    -0.361 A  
HETATM   14  C   UNL     1     -12.239  14.091  69.746  1.00  0.00    -0.341 A  
HETATM   15  N   UNL     1     -12.018  14.023  68.415  1.00  0.00    -0.357 NA 
HETATM   16  C   UNL     1     -11.400  15.087  67.845  1.00  0.00    -0.333 A  
ENDBRANCH   8  11
ENDBRANCH   6   7
ENDBRANCH   5   6
ENDBRANCH   4   5
TORSDOF 4
ENDMDL
MODEL      149
REMARK 921   NORMALIZED FREE ENERGY PREDICTED BY IDOCK:   -3.54 KCAL/MOL
REMARK 922        TOTAL FREE ENERGY PREDICTED BY IDOCK:   -4.60 KCAL/MOL
REMARK 923 INTER-LIGAND FREE ENERGY PREDICTED BY IDOCK:   -4.31 KCAL/MOL
REMARK 924 INTRA-LIGAND FREE ENERGY PREDICTED BY IDOCK:   -0.29 KCAL/MOL
REMARK 927      BINDING AFFINITY PREDICTED BY RF-SCORE:    0.00 PKD
ROOT
HETATM    1  O   UNL     1      -9.932  13.051  66.449  1.00  0.00    -0.263 OA 
HETATM    2  N   UNL     1     -10.939  13.079  67.156  1.00  0.00    -0.264 N  
HETATM    3  O   UNL     1     -12.124  12.931  66.849  1.00  0.00    -0.388 OA 
HETATM    4  O   UNL     1     -10.645  13.355  68.513  1.00  0.00    -0.244 OA 
ENDROOT
BRANCH   4   5
HETATM    5  C   UNL     1     -11.810  13.331  69.332  1.00  0.00    -0.329 C  
BRANCH   5   6
HETATM    6  C   UNL     1     -12.036  14.739  69.889  1.00  0.00    -0.332 C  
BRANCH   6   7
HETATM    7  N   UNL     1     -10.870  15.595  69.786  1.00  0.00    -0.280 N  
HETATM    8  C   UNL     1     -10.715  16.466  68.726  1.00  0.00    -0.321 C  
HETATM    9  H   UNL     1     -10.152  15.552  70.509  1.00  0.00     0.000 HD 
HETATM   10  O   UNL     1     -11.516  16.554  67.804  1.00  0.00    -0.090 OA 
BRANCH   8  11
HETATM   11  C   UNL     1      -9.489  17.289  68.724  1.00  0.00    -0.256 A  
HETATM   12  C   UNL     1      -9.517  18.685  68.700  1.00  0.00    -0.396 A  
HETATM   13  C   UNL     1      -8.313  19.386  68.675  1.00  0.00    -0.397 A  
HETATM   14  C   UNL     1      -7.128  18.665  68.673  1.00  0.00    -0.288 A  
HETATM   15  N   UNL     1      -7.070  17.316  68.695  1.00  0.00    -0.217 NA 
HETATM   16  C   UNL     1      -8.255  16.655  68.707  1.00  0.00    -0.249 A  
ENDBRANCH   8  11
ENDBRANCH   6   7
ENDBRANCH   5   6
ENDBRANCH   4   5
TORSDOF 4
ENDMDL
MODEL      150
REMARK 921   NORMALIZED FREE ENERGY PREDICTED BY IDOCK:   -3.54 KCAL/MOL
REMARK 922        TOTAL FREE ENERGY PREDICTED BY IDOCK:   -4.60 KCAL/MOL
REMARK 923 INTER-LIGAND FREE ENERGY PREDICTED BY IDOCK:   -4.29 KCAL/MOL
REMARK 924 INTRA-LIGAND FREE ENERGY PREDICTED BY IDOCK:   -0.31 KCAL/MOL
REMARK 927      BINDING AFFINITY PREDICTED BY RF-SCORE:    0.00 PKD
ROOT
HETATM    1  O   UNL     1      -5.427  15.328  67.542  1.00  0.00    -0.310 OA 
HETATM    2  N   UNL     1      -6.190  14.522  68.072  1.00  0.00    -0.141 N  
HETATM    3  O   UNL     1      -6.096  13.938  69.153  1.00  0.00    -0.087 OA 
HETATM    4  O   UNL     1      -7.319  14.230  67.268  1.00  0.00    -0.170 OA 
ENDROOT
BRANCH   4   5
HETATM    5  C   UNL     1      -8.224  13.339  67.914  1.00  0.00    -0.163 C  
BRANCH   5   6
HETATM    6  C   UNL     1      -9.645  13.873  67.721  1.00  0.00    -0.222 C  
BRANCH   6   7
HETATM    7  N   UNL     1      -9.751  15.309  67.895  1.00  0.00    -0.211 N  
HETATM    8  C   UNL     1      -9.963  16.145  66.816  1.00  0.00    -0.258 C  
HETATM    9  H   UNL     1      -9.668  15.708  68.829  1.00  0.00     0.000 HD 
HETATM   10  O   UNL     1     -10.044  15.746  65.661  1.00  0.00    -0.330 OA 
BRANCH   8  11
HETATM   11  C   UNL     1     -10.055  17.589  67.110  1.00  0.00    -0.321 A  
HETATM   12  C   UNL     1      -9.797  18.121  68.374  1.00  0.00    -0.380 A  
HETATM   13  C   UNL     1      -9.931  19.494  68.573  1.00  0.00    -0.538 A  
HETATM   14  C   UNL     1     -10.317  20.282  67.499  1.00  0.00    -0.274 A  
HETATM   15  N   UNL     1     -10.574  19.796  66.265  1.00  0.00    -0.485 NA 
HETATM   16  C   UNL     1     -10.449  18.455  66.099  1.00  0.00    -0.395 A  
ENDBRANCH   8  11
ENDBRANCH   6   7
ENDBRANCH   5   6
ENDBRANCH   4   5
TORSDOF 4
ENDMDL
MODEL      151
REMARK 921   NORMALIZED FREE ENERGY PREDICTED BY IDOCK:   -3.51 KCAL/MOL
REMARK 922        TOTAL FREE ENERGY PREDICTED BY IDOCK:   -4.56 KCAL/MOL
REMARK 923 INTER-LIGAND FREE ENERGY PREDICTED BY IDOCK:   -4.35 KCAL/MOL
REMARK 924 INTRA-LIGAND FREE ENERGY PREDICTED BY IDOCK:   -0.21 KCAL/MOL
REMARK 927      BINDING AFFINITY PREDICTED BY RF-SCORE:    0.00 PKD
ROOT
HETATM    1  O   UNL     1      -9.478   4.196  65.577  1.00  0.00    -0.152 OA 
HETATM    2  N   UNL     1      -9.815   4.768  66.613  1.00  0.00    -0.192 N  
HETATM    3  O   UNL     1      -9.537   4.507  67.785  1.00  0.00    -0.150 OA 
HETATM    4  O   UNL     1     -10.674   5.867  66.374  1.00  0.00    -0.211 OA 
ENDROOT
BRANCH   4   5
HETATM    5  C   UNL     1     -11.013   6.556  67.574  1.00  0.00    -0.359 C  
BRANCH   5   6
HETATM    6  C   UNL     1     -10.321   7.920  67.559  1.00  0.00    -0.259 C  
BRANCH   6   7
HETATM    7  N   UNL     1     -11.057   8.950  68.267  1.00  0.00    -0.446 N  
HETATM    8  C   UNL     1     -10.558   9.518  69.422  1.00  0.00    -0.219 C  
HETATM    9  H   UNL     1     -11.958   9.260  67.904  1.00  0.00     0.000 HD 
HETATM   10  O   UNL     1      -9.500   9.178  69.937  1.00  0.00    -0.166 OA 
BRANCH   8  11
HETATM   11  C   UNL     1     -11.392  10.557  70.059  1.00  0.00    -0.392 A  
HETATM   12  C   UNL     1     -12.260  10.285  71.118  1.00  0.00    -0.500 A  
HETATM   13  C   UNL     1     -13.030  11.319  71.646  1.00  0.00    -0.537 A  
HETATM   14  C   UNL     1     -12.902  12.586  71.095  1.00  0.00    -0.211 A  
HETATM   15  N   UNL     1     -12.071  12.879  70.071  1.00  0.00    -0.317 NA 
HETATM   16  C   UNL     1     -11.341  11.853  69.565  1.00  0.00    -0.236 A  
ENDBRANCH   8  11
ENDBRANCH   6   7
ENDBRANCH   5   6
ENDBRANCH   4   5
TORSDOF 4
ENDMDL
MODEL      152
REMARK 921   NORMALIZED FREE ENERGY PREDICTED BY IDOCK:   -3.50 KCAL/MOL
REMARK 922        TOTAL FREE ENERGY PREDICTED BY IDOCK:   -4.54 KCAL/MOL
REMARK 923 INTER-LIGAND FREE ENERGY PREDICTED BY IDOCK:   -4.38 KCAL/MOL
REMARK 924 INTRA-LIGAND FREE ENERGY PREDICTED BY IDOCK:   -0.16 KCAL/MOL
REMARK 927      BINDING AFFINITY PREDICTED BY RF-SCORE:    0.00 PKD
ROOT
HETATM    1  O   UNL     1     -12.682  14.182  63.386  1.00  0.00    -0.767 OA 
HETATM    2  N   UNL     1     -12.551  13.737  64.526  1.00  0.00    -0.261 N  
HETATM    3  O   UNL     1     -12.920  12.662  65.001  1.00  0.00    -0.812 OA 
HETATM    4  O   UNL     1     -11.896  14.644  65.393  1.00  0.00    -0.350 OA 
ENDROOT
BRANCH   4   5
HETATM    5  C   UNL     1     -11.700  14.099  66.694  1.00  0.00    -0.403 C  
BRANCH   5   6
HETATM    6  C   UNL     1     -10.250  13.624  66.803  1.00  0.00    -0.268 C  
BRANCH   6   7
HETATM    7  N   UNL     1      -9.388  14.551  67.512  1.00  0.00    -0.189 N  
HETATM    8  C   UNL     1      -8.133  14.172  67.943  1.00  0.00    -0.154 C  
HETATM    9  H   UNL     1      -9.716  15.499  67.694  1.00  0.00     0.000 HD 
HETATM   10  O   UNL     1      -7.681  13.044  67.790  1.00  0.00    -0.122 OA 
BRANCH   8  11
HETATM   11  C   UNL     1      -7.343  15.197  68.654  1.00  0.00    -0.121 A  
HETATM   12  C   UNL     1      -7.409  16.555  68.339  1.00  0.00    -0.179 A  
HETATM   13  C   UNL     1      -6.611  17.454  69.043  1.00  0.00    -0.232 A  
HETATM   14  C   UNL     1      -5.777  16.961  70.036  1.00  0.00    -0.224 A  
HETATM   15  N   UNL     1      -5.692  15.653  70.363  1.00  0.00    -0.148 NA 
HETATM   16  C   UNL     1      -6.469  14.795  69.656  1.00  0.00    -0.150 A  
ENDBRANCH   8  11
ENDBRANCH   6   7
ENDBRANCH   5   6
ENDBRANCH   4   5
TORSDOF 4
ENDMDL
MODEL      153
REMARK 921   NORMALIZED FREE ENERGY PREDICTED BY IDOCK:   -3.49 KCAL/MOL
REMARK 922        TOTAL FREE ENERGY PREDICTED BY IDOCK:   -4.53 KCAL/MOL
REMARK 923 INTER-LIGAND FREE ENERGY PREDICTED BY IDOCK:   -4.18 KCAL/MOL
REMARK 924 INTRA-LIGAND FREE ENERGY PREDICTED BY IDOCK:   -0.35 KCAL/MOL
REMARK 927      BINDING AFFINITY PREDICTED BY RF-SCORE:    0.00 PKD
ROOT
HETATM    1  O   UNL     1     -12.182  11.271  68.300  1.00  0.00    -0.611 OA 
HETATM    2  N   UNL     1     -11.622  12.154  67.651  1.00  0.00    -0.338 N  
HETATM    3  O   UNL     1     -10.890  13.070  68.032  1.00  0.00    -0.229 OA 
HETATM    4  O   UNL     1     -11.914  12.083  66.268  1.00  0.00    -0.596 OA 
ENDROOT
BRANCH   4   5
HETATM    5  C   UNL     1     -11.218  13.074  65.519  1.00  0.00    -0.288 C  
BRANCH   5   6
HETATM    6  C   UNL     1     -10.119  12.381  64.709  1.00  0.00    -0.236 C  
BRANCH   6   7
HETATM    7  N   UNL     1     -10.039  10.953  64.947  1.00  0.00    -0.290 N  
HETATM    8  C   UNL     1      -9.148  10.430  65.862  1.00  0.00    -0.165 C  
HETATM    9  H   UNL     1     -10.652  10.324  64.428  1.00  0.00     0.000 HD 
HETATM   10  O   UNL     1      -8.359  11.115  66.501  1.00  0.00    -0.157 OA 
BRANCH   8  11
HETATM   11  C   UNL     1      -9.152   8.962  66.023  1.00  0.00    -0.265 A  
HETATM   12  C   UNL     1      -9.972   8.305  66.941  1.00  0.00    -0.343 A  
HETATM   13  C   UNL     1      -9.897   6.918  67.046  1.00  0.00    -0.228 A  
HETATM   14  C   UNL     1      -9.005   6.241  66.229  1.00  0.00    -0.155 A  
HETATM   15  N   UNL     1      -8.199   6.849  65.332  1.00  0.00    -0.133 NA 
HETATM   16  C   UNL     1      -8.281   8.201  65.256  1.00  0.00    -0.149 A  
ENDBRANCH   8  11
ENDBRANCH   6   7
ENDBRANCH   5   6
ENDBRANCH   4   5
TORSDOF 4
ENDMDL
MODEL      154
REMARK 921   NORMALIZED FREE ENERGY PREDICTED BY IDOCK:   -3.47 KCAL/MOL
REMARK 922        TOTAL FREE ENERGY PREDICTED BY IDOCK:   -4.51 KCAL/MOL
REMARK 923 INTER-LIGAND FREE ENERGY PREDICTED BY IDOCK:   -4.19 KCAL/MOL
REMARK 924 INTRA-LIGAND FREE ENERGY PREDICTED BY IDOCK:   -0.32 KCAL/MOL
REMARK 927      BINDING AFFINITY PREDICTED BY RF-SCORE:    0.00 PKD
ROOT
HETATM    1  O   UNL     1     -10.026  10.194  66.300  1.00  0.00    -0.217 OA 
HETATM    2  N   UNL     1     -10.321  11.038  67.145  1.00  0.00    -0.210 N  
HETATM    3  O   UNL     1      -9.659  11.982  67.583  1.00  0.00    -0.180 OA 
HETATM    4  O   UNL     1     -11.613  10.839  67.687  1.00  0.00    -0.523 OA 
ENDROOT
BRANCH   4   5
HETATM    5  C   UNL     1     -11.966  11.852  68.624  1.00  0.00    -0.233 C  
BRANCH   5   6
HETATM    6  C   UNL     1     -12.288  11.181  69.961  1.00  0.00    -0.279 C  
BRANCH   6   7
HETATM    7  N   UNL     1     -11.755   9.837  70.076  1.00  0.00    -0.435 N  
HETATM    8  C   UNL     1     -12.019   9.056  71.184  1.00  0.00    -0.298 C  
HETATM    9  H   UNL     1     -11.176   9.462  69.325  1.00  0.00     0.000 HD 
HETATM   10  O   UNL     1     -12.680   9.445  72.139  1.00  0.00    -0.384 OA 
BRANCH   8  11
HETATM   11  C   UNL     1     -11.426   7.704  71.195  1.00  0.00    -0.296 A  
HETATM   12  C   UNL     1     -10.446   7.302  70.286  1.00  0.00    -0.231 A  
HETATM   13  C   UNL     1      -9.956   5.999  70.349  1.00  0.00    -0.233 A  
HETATM   14  C   UNL     1     -10.465   5.149  71.320  1.00  0.00    -0.175 A  
HETATM   15  N   UNL     1     -11.413   5.509  72.211  1.00  0.00    -0.208 NA 
HETATM   16  C   UNL     1     -11.883   6.778  72.123  1.00  0.00    -0.290 A  
ENDBRANCH   8  11
ENDBRANCH   6   7
ENDBRANCH   5   6
ENDBRANCH   4   5
TORSDOF 4
ENDMDL
MODEL      155
REMARK 921   NORMALIZED FREE ENERGY PREDICTED BY IDOCK:   -3.47 KCAL/MOL
REMARK 922        TOTAL FREE ENERGY PREDICTED BY IDOCK:   -4.51 KCAL/MOL
REMARK 923 INTER-LIGAND FREE ENERGY PREDICTED BY IDOCK:   -4.18 KCAL/MOL
REMARK 924 INTRA-LIGAND FREE ENERGY PREDICTED BY IDOCK:   -0.33 KCAL/MOL
REMARK 927      BINDING AFFINITY PREDICTED BY RF-SCORE:    0.00 PKD
ROOT
HETATM    1  O   UNL     1     -10.735   5.238  66.220  1.00  0.00    -0.294 OA 
HETATM    2  N   UNL     1     -10.091   4.781  67.164  1.00  0.00    -0.188 N  
HETATM    3  O   UNL     1      -9.198   3.931  67.173  1.00  0.00    -0.147 OA 
HETATM    4  O   UNL     1     -10.490   5.323  68.410  1.00  0.00    -0.154 OA 
ENDROOT
BRANCH   4   5
HETATM    5  C   UNL     1      -9.702   4.829  69.489  1.00  0.00    -0.201 C  
BRANCH   5   6
HETATM    6  C   UNL     1      -9.000   6.016  70.154  1.00  0.00    -0.147 C  
BRANCH   6   7
HETATM    7  N   UNL     1      -9.821   7.209  70.222  1.00  0.00    -0.176 N  
HETATM    8  C   UNL     1     -10.664   7.436  71.291  1.00  0.00    -0.221 C  
HETATM    9  H   UNL     1      -9.776   7.892  69.466  1.00  0.00     0.000 HD 
HETATM   10  O   UNL     1     -10.799   6.650  72.221  1.00  0.00    -0.216 OA 
BRANCH   8  11
HETATM   11  C   UNL     1     -11.454   8.683  71.256  1.00  0.00    -0.341 A  
HETATM   12  C   UNL     1     -11.069   9.800  70.514  1.00  0.00    -0.384 A  
HETATM   13  C   UNL     1     -11.859  10.947  70.555  1.00  0.00    -0.457 A  
HETATM   14  C   UNL     1     -13.005  10.932  71.336  1.00  0.00    -0.424 A  
HETATM   15  N   UNL     1     -13.403   9.867  72.064  1.00  0.00    -0.442 NA 
HETATM   16  C   UNL     1     -12.611   8.766  72.019  1.00  0.00    -0.385 A  
ENDBRANCH   8  11
ENDBRANCH   6   7
ENDBRANCH   5   6
ENDBRANCH   4   5
TORSDOF 4
ENDMDL
MODEL      156
REMARK 921   NORMALIZED FREE ENERGY PREDICTED BY IDOCK:   -3.47 KCAL/MOL
REMARK 922        TOTAL FREE ENERGY PREDICTED BY IDOCK:   -4.51 KCAL/MOL
REMARK 923 INTER-LIGAND FREE ENERGY PREDICTED BY IDOCK:   -4.22 KCAL/MOL
REMARK 924 INTRA-LIGAND FREE ENERGY PREDICTED BY IDOCK:   -0.29 KCAL/MOL
REMARK 927      BINDING AFFINITY PREDICTED BY RF-SCORE:    0.00 PKD
ROOT
HETATM    1  O   UNL     1      -6.446   7.655  68.209  1.00  0.00    -0.046 OA 
HETATM    2  N   UNL     1      -7.215   8.601  68.381  1.00  0.00    -0.083 N  
HETATM    3  O   UNL     1      -7.029   9.809  68.222  1.00  0.00    -0.071 OA 
HETATM    4  O   UNL     1      -8.482   8.193  68.861  1.00  0.00    -0.127 OA 
ENDROOT
BRANCH   4   5
HETATM    5  C   UNL     1      -9.382   9.288  69.004  1.00  0.00    -0.151 C  
BRANCH   5   6
HETATM    6  C   UNL     1     -10.433   9.196  67.896  1.00  0.00    -0.237 C  
BRANCH   6   7
HETATM    7  N   UNL     1     -10.520  10.391  67.080  1.00  0.00    -0.243 N  
HETATM    8  C   UNL     1     -11.448  11.376  67.353  1.00  0.00    -0.251 C  
HETATM    9  H   UNL     1      -9.884  10.506  66.291  1.00  0.00     0.000 HD 
HETATM   10  O   UNL     1     -12.265  11.298  68.262  1.00  0.00    -0.611 OA 
BRANCH   8  11
HETATM   11  C   UNL     1     -11.447  12.550  66.457  1.00  0.00    -0.418 A  
HETATM   12  C   UNL     1     -12.179  12.594  65.269  1.00  0.00    -0.532 A  
HETATM   13  C   UNL     1     -12.104  13.732  64.468  1.00  0.00    -0.463 A  
HETATM   14  C   UNL     1     -11.299  14.781  64.886  1.00  0.00    -0.410 A  
HETATM   15  N   UNL     1     -10.579  14.767  66.028  1.00  0.00    -0.300 NA 
HETATM   16  C   UNL     1     -10.659  13.644  66.786  1.00  0.00    -0.273 A  
ENDBRANCH   8  11
ENDBRANCH   6   7
ENDBRANCH   5   6
ENDBRANCH   4   5
TORSDOF 4
ENDMDL
MODEL      157
REMARK 921   NORMALIZED FREE ENERGY PREDICTED BY IDOCK:   -3.46 KCAL/MOL
REMARK 922        TOTAL FREE ENERGY PREDICTED BY IDOCK:   -4.49 KCAL/MOL
REMARK 923 INTER-LIGAND FREE ENERGY PREDICTED BY IDOCK:   -4.25 KCAL/MOL
REMARK 924 INTRA-LIGAND FREE ENERGY PREDICTED BY IDOCK:   -0.24 KCAL/MOL
REMARK 927      BINDING AFFINITY PREDICTED BY RF-SCORE:    0.00 PKD
ROOT
HETATM    1  O   UNL     1      -5.955  11.310  67.083  1.00  0.00    -0.061 OA 
HETATM    2  N   UNL     1      -6.402  10.544  67.936  1.00  0.00    -0.059 N  
HETATM    3  O   UNL     1      -5.815   9.726  68.647  1.00  0.00    -0.039 OA 
HETATM    4  O   UNL     1      -7.808  10.633  68.066  1.00  0.00    -0.102 OA 
ENDROOT
BRANCH   4   5
HETATM    5  C   UNL     1      -8.309   9.783  69.095  1.00  0.00    -0.137 C  
BRANCH   5   6
HETATM    6  C   UNL     1      -9.836   9.887  69.104  1.00  0.00    -0.198 C  
BRANCH   6   7
HETATM    7  N   UNL     1     -10.325  11.164  69.590  1.00  0.00    -0.440 N  
HETATM    8  C   UNL     1     -11.440  11.758  69.034  1.00  0.00    -0.297 C  
HETATM    9  H   UNL     1      -9.836  11.630  70.354  1.00  0.00     0.000 HD 
HETATM   10  O   UNL     1     -12.062  11.278  68.095  1.00  0.00    -0.635 OA 
BRANCH   8  11
HETATM   11  C   UNL     1     -11.848  13.057  69.606  1.00  0.00    -0.385 A  
HETATM   12  C   UNL     1     -12.438  13.176  70.866  1.00  0.00    -0.407 A  
HETATM   13  C   UNL     1     -12.816  14.438  71.321  1.00  0.00    -0.412 A  
HETATM   14  C   UNL     1     -12.590  15.532  70.499  1.00  0.00    -0.416 A  
HETATM   15  N   UNL     1     -12.023  15.448  69.276  1.00  0.00    -0.329 NA 
HETATM   16  C   UNL     1     -11.674  14.208  68.849  1.00  0.00    -0.334 A  
ENDBRANCH   8  11
ENDBRANCH   6   7
ENDBRANCH   5   6
ENDBRANCH   4   5
TORSDOF 4
ENDMDL
MODEL      158
REMARK 921   NORMALIZED FREE ENERGY PREDICTED BY IDOCK:   -3.45 KCAL/MOL
REMARK 922        TOTAL FREE ENERGY PREDICTED BY IDOCK:   -4.48 KCAL/MOL
REMARK 923 INTER-LIGAND FREE ENERGY PREDICTED BY IDOCK:   -4.14 KCAL/MOL
REMARK 924 INTRA-LIGAND FREE ENERGY PREDICTED BY IDOCK:   -0.34 KCAL/MOL
REMARK 927      BINDING AFFINITY PREDICTED BY RF-SCORE:    0.00 PKD
ROOT
HETATM    1  O   UNL     1     -10.365   8.371  66.401  1.00  0.00    -0.235 OA 
HETATM    2  N   UNL     1     -10.042   9.518  66.708  1.00  0.00    -0.231 N  
HETATM    3  O   UNL     1     -10.639  10.581  66.527  1.00  0.00    -0.231 OA 
HETATM    4  O   UNL     1      -8.774   9.579  67.333  1.00  0.00    -0.125 OA 
ENDROOT
BRANCH   4   5
HETATM    5  C   UNL     1      -8.433  10.903  67.733  1.00  0.00    -0.124 C  
BRANCH   5   6
HETATM    6  C   UNL     1      -8.629  11.013  69.247  1.00  0.00     0.087 C  
BRANCH   6   7
HETATM    7  N   UNL     1      -9.905  10.499  69.704  1.00  0.00    -0.409 N  
HETATM    8  C   UNL     1      -9.973   9.467  70.618  1.00  0.00    -0.284 C  
HETATM    9  H   UNL     1     -10.767  10.908  69.345  1.00  0.00     0.000 HD 
HETATM   10  O   UNL     1      -8.985   8.904  71.073  1.00  0.00    -0.200 OA 
BRANCH   8  11
HETATM   11  C   UNL     1     -11.325   9.023  71.013  1.00  0.00    -0.362 A  
HETATM   12  C   UNL     1     -12.280   9.892  71.542  1.00  0.00    -0.505 A  
HETATM   13  C   UNL     1     -13.525   9.387  71.912  1.00  0.00    -0.500 A  
HETATM   14  C   UNL     1     -13.767   8.032  71.738  1.00  0.00    -0.359 A  
HETATM   15  N   UNL     1     -12.862   7.168  71.230  1.00  0.00    -0.382 NA 
HETATM   16  C   UNL     1     -11.653   7.680  70.888  1.00  0.00    -0.280 A  
ENDBRANCH   8  11
ENDBRANCH   6   7
ENDBRANCH   5   6
ENDBRANCH   4   5
TORSDOF 4
ENDMDL
MODEL      159
REMARK 921   NORMALIZED FREE ENERGY PREDICTED BY IDOCK:   -3.44 KCAL/MOL
REMARK 922        TOTAL FREE ENERGY PREDICTED BY IDOCK:   -4.47 KCAL/MOL
REMARK 923 INTER-LIGAND FREE ENERGY PREDICTED BY IDOCK:   -4.25 KCAL/MOL
REMARK 924 INTRA-LIGAND FREE ENERGY PREDICTED BY IDOCK:   -0.23 KCAL/MOL
REMARK 927      BINDING AFFINITY PREDICTED BY RF-SCORE:    0.00 PKD
ROOT
HETATM    1  O   UNL     1     -11.426   6.245  69.799  1.00  0.00    -0.430 OA 
HETATM    2  N   UNL     1     -10.374   6.494  69.211  1.00  0.00    -0.189 N  
HETATM    3  O   UNL     1      -9.347   5.820  69.111  1.00  0.00    -0.121 OA 
HETATM    4  O   UNL     1     -10.382   7.768  68.595  1.00  0.00    -0.199 OA 
ENDROOT
BRANCH   4   5
HETATM    5  C   UNL     1      -9.182   8.024  67.871  1.00  0.00    -0.131 C  
BRANCH   5   6
HETATM    6  C   UNL     1      -9.556   8.644  66.523  1.00  0.00    -0.237 C  
BRANCH   6   7
HETATM    7  N   UNL     1      -9.999  10.021  66.624  1.00  0.00    -0.205 N  
HETATM    8  C   UNL     1     -10.409  10.723  65.507  1.00  0.00    -0.241 C  
HETATM    9  H   UNL     1     -10.007  10.479  67.535  1.00  0.00     0.000 HD 
HETATM   10  O   UNL     1     -10.399  10.254  64.376  1.00  0.00    -0.235 OA 
BRANCH   8  11
HETATM   11  C   UNL     1     -10.839  12.118  65.727  1.00  0.00    -0.319 A  
HETATM   12  C   UNL     1     -11.558  12.519  66.854  1.00  0.00    -0.436 A  
HETATM   13  C   UNL     1     -11.947  13.852  66.972  1.00  0.00    -0.459 A  
HETATM   14  C   UNL     1     -11.601  14.733  65.958  1.00  0.00    -0.286 A  
HETATM   15  N   UNL     1     -10.907  14.374  64.856  1.00  0.00    -0.399 NA 
HETATM   16  C   UNL     1     -10.550  13.069  64.757  1.00  0.00    -0.362 A  
ENDBRANCH   8  11
ENDBRANCH   6   7
ENDBRANCH   5   6
ENDBRANCH   4   5
TORSDOF 4
ENDMDL
MODEL      160
REMARK 921   NORMALIZED FREE ENERGY PREDICTED BY IDOCK:   -3.44 KCAL/MOL
REMARK 922        TOTAL FREE ENERGY PREDICTED BY IDOCK:   -4.47 KCAL/MOL
REMARK 923 INTER-LIGAND FREE ENERGY PREDICTED BY IDOCK:   -4.06 KCAL/MOL
REMARK 924 INTRA-LIGAND FREE ENERGY PREDICTED BY IDOCK:   -0.41 KCAL/MOL
REMARK 927      BINDING AFFINITY PREDICTED BY RF-SCORE:    0.00 PKD
ROOT
HETATM    1  O   UNL     1     -11.598  15.884  70.264  1.00  0.00    -0.320 OA 
HETATM    2  N   UNL     1     -10.813  16.370  69.452  1.00  0.00    -0.314 N  
HETATM    3  O   UNL     1      -9.596  16.551  69.540  1.00  0.00    -0.164 OA 
HETATM    4  O   UNL     1     -11.452  16.798  68.263  1.00  0.00    -0.184 OA 
ENDROOT
BRANCH   4   5
HETATM    5  C   UNL     1     -10.527  17.309  67.308  1.00  0.00    -0.319 C  
BRANCH   5   6
HETATM    6  C   UNL     1     -10.521  16.374  66.096  1.00  0.00    -0.314 C  
BRANCH   6   7
HETATM    7  N   UNL     1     -10.875  15.005  66.420  1.00  0.00    -0.322 N  
HETATM    8  C   UNL     1      -9.903  14.040  66.598  1.00  0.00    -0.284 C  
HETATM    9  H   UNL     1     -11.857  14.751  66.518  1.00  0.00     0.000 HD 
HETATM   10  O   UNL     1      -8.705  14.259  66.468  1.00  0.00    -0.143 OA 
BRANCH   8  11
HETATM   11  C   UNL     1     -10.377  12.680  66.925  1.00  0.00    -0.244 A  
HETATM   12  C   UNL     1      -9.866  11.535  66.312  1.00  0.00    -0.245 A  
HETATM   13  C   UNL     1     -10.386  10.290  66.661  1.00  0.00    -0.283 A  
HETATM   14  C   UNL     1     -11.397  10.239  67.609  1.00  0.00    -0.008 A  
HETATM   15  N   UNL     1     -11.912  11.329  68.218  1.00  0.00    -0.621 NA 
HETATM   16  C   UNL     1     -11.398  12.531  67.853  1.00  0.00    -0.291 A  
ENDBRANCH   8  11
ENDBRANCH   6   7
ENDBRANCH   5   6
ENDBRANCH   4   5
TORSDOF 4
ENDMDL
MODEL      161
REMARK 921   NORMALIZED FREE ENERGY PREDICTED BY IDOCK:   -3.43 KCAL/MOL
REMARK 922        TOTAL FREE ENERGY PREDICTED BY IDOCK:   -4.46 KCAL/MOL
REMARK 923 INTER-LIGAND FREE ENERGY PREDICTED BY IDOCK:   -3.84 KCAL/MOL
REMARK 924 INTRA-LIGAND FREE ENERGY PREDICTED BY IDOCK:   -0.62 KCAL/MOL
REMARK 927      BINDING AFFINITY PREDICTED BY RF-SCORE:    0.00 PKD
ROOT
HETATM    1  O   UNL     1      -6.766   9.446  64.415  1.00  0.00    -0.085 OA 
HETATM    2  N   UNL     1      -7.921   9.203  64.766  1.00  0.00    -0.119 N  
HETATM    3  O   UNL     1      -8.986   9.437  64.191  1.00  0.00    -0.214 OA 
HETATM    4  O   UNL     1      -7.986   8.588  66.039  1.00  0.00    -0.101 OA 
ENDROOT
BRANCH   4   5
HETATM    5  C   UNL     1      -9.322   8.261  66.411  1.00  0.00    -0.213 C  
BRANCH   5   6
HETATM    6  C   UNL     1      -9.804   9.296  67.430  1.00  0.00    -0.178 C  
BRANCH   6   7
HETATM    7  N   UNL     1     -10.467  10.436  66.827  1.00  0.00    -0.237 N  
HETATM    8  C   UNL     1      -9.827  11.653  66.708  1.00  0.00    -0.200 C  
HETATM    9  H   UNL     1     -11.423  10.337  66.486  1.00  0.00     0.000 HD 
HETATM   10  O   UNL     1      -8.693  11.861  67.120  1.00  0.00    -0.163 OA 
BRANCH   8  11
HETATM   11  C   UNL     1     -10.598  12.745  66.078  1.00  0.00    -0.289 A  
HETATM   12  C   UNL     1     -11.962  12.645  65.805  1.00  0.00    -0.503 A  
HETATM   13  C   UNL     1     -12.609  13.713  65.186  1.00  0.00    -0.474 A  
HETATM   14  C   UNL     1     -11.866  14.839  64.865  1.00  0.00    -0.377 A  
HETATM   15  N   UNL     1     -10.546  14.964  65.117  1.00  0.00    -0.399 NA 
HETATM   16  C   UNL     1      -9.935  13.907  65.709  1.00  0.00    -0.284 A  
ENDBRANCH   8  11
ENDBRANCH   6   7
ENDBRANCH   5   6
ENDBRANCH   4   5
TORSDOF 4
ENDMDL
MODEL      162
REMARK 921   NORMALIZED FREE ENERGY PREDICTED BY IDOCK:   -3.43 KCAL/MOL
REMARK 922        TOTAL FREE ENERGY PREDICTED BY IDOCK:   -4.45 KCAL/MOL
REMARK 923 INTER-LIGAND FREE ENERGY PREDICTED BY IDOCK:   -4.00 KCAL/MOL
REMARK 924 INTRA-LIGAND FREE ENERGY PREDICTED BY IDOCK:   -0.45 KCAL/MOL
REMARK 927      BINDING AFFINITY PREDICTED BY RF-SCORE:    0.00 PKD
ROOT
HETATM    1  O   UNL     1     -10.128  18.923  65.425  1.00  0.00    -0.270 OA 
HETATM    2  N   UNL     1     -10.539  17.809  65.747  1.00  0.00    -0.284 N  
HETATM    3  O   UNL     1     -10.677  17.311  66.866  1.00  0.00    -0.253 OA 
HETATM    4  O   UNL     1     -10.865  17.004  64.629  1.00  0.00    -0.855 OA 
ENDROOT
BRANCH   4   5
HETATM    5  C   UNL     1     -11.392  15.737  65.014  1.00  0.00    -0.220 C  
BRANCH   5   6
HETATM    6  C   UNL     1     -10.304  14.681  64.808  1.00  0.00    -0.253 C  
BRANCH   6   7
HETATM    7  N   UNL     1      -9.244  14.743  65.796  1.00  0.00    -0.488 N  
HETATM    8  C   UNL     1      -9.162  13.815  66.814  1.00  0.00    -0.244 C  
HETATM    9  H   UNL     1      -8.548  15.486  65.737  1.00  0.00     0.000 HD 
HETATM   10  O   UNL     1      -9.976  12.913  66.971  1.00  0.00    -0.235 OA 
BRANCH   8  11
HETATM   11  C   UNL     1      -8.042  13.975  67.763  1.00  0.00    -0.170 A  
HETATM   12  C   UNL     1      -6.828  13.302  67.619  1.00  0.00    -0.168 A  
HETATM   13  C   UNL     1      -5.831  13.490  68.574  1.00  0.00    -0.090 A  
HETATM   14  C   UNL     1      -6.086  14.345  69.636  1.00  0.00    -0.119 A  
HETATM   15  N   UNL     1      -7.250  15.009  69.802  1.00  0.00    -0.185 NA 
HETATM   16  C   UNL     1      -8.210  14.801  68.867  1.00  0.00    -0.165 A  
ENDBRANCH   8  11
ENDBRANCH   6   7
ENDBRANCH   5   6
ENDBRANCH   4   5
TORSDOF 4
ENDMDL
MODEL      163
REMARK 921   NORMALIZED FREE ENERGY PREDICTED BY IDOCK:   -3.41 KCAL/MOL
REMARK 922        TOTAL FREE ENERGY PREDICTED BY IDOCK:   -4.43 KCAL/MOL
REMARK 923 INTER-LIGAND FREE ENERGY PREDICTED BY IDOCK:   -4.19 KCAL/MOL
REMARK 924 INTRA-LIGAND FREE ENERGY PREDICTED BY IDOCK:   -0.24 KCAL/MOL
REMARK 927      BINDING AFFINITY PREDICTED BY RF-SCORE:    0.00 PKD
ROOT
HETATM    1  O   UNL     1      -6.523  19.021  68.264  1.00  0.00    -0.226 OA 
HETATM    2  N   UNL     1      -7.003  17.920  67.995  1.00  0.00    -0.198 N  
HETATM    3  O   UNL     1      -6.943  17.266  66.952  1.00  0.00    -0.158 OA 
HETATM    4  O   UNL     1      -7.752  17.375  69.066  1.00  0.00    -0.238 OA 
ENDROOT
BRANCH   4   5
HETATM    5  C   UNL     1      -8.257  16.078  68.764  1.00  0.00    -0.211 C  
BRANCH   5   6
HETATM    6  C   UNL     1      -9.785  16.152  68.732  1.00  0.00    -0.233 C  
BRANCH   6   7
HETATM    7  N   UNL     1     -10.432  15.052  69.421  1.00  0.00    -0.245 N  
HETATM    8  C   UNL     1     -10.895  13.950  68.728  1.00  0.00    -0.263 C  
HETATM    9  H   UNL     1     -10.547  15.092  70.433  1.00  0.00     0.000 HD 
HETATM   10  O   UNL     1     -10.822  13.841  67.511  1.00  0.00    -0.261 OA 
BRANCH   8  11
HETATM   11  C   UNL     1     -11.537  12.890  69.531  1.00  0.00    -0.348 A  
HETATM   12  C   UNL     1     -11.446  11.536  69.204  1.00  0.00    -0.362 A  
HETATM   13  C   UNL     1     -12.103  10.601  70.001  1.00  0.00    -0.393 A  
HETATM   14  C   UNL     1     -12.826  11.056  71.094  1.00  0.00    -0.392 A  
HETATM   15  N   UNL     1     -12.933  12.358  71.433  1.00  0.00    -0.321 NA 
HETATM   16  C   UNL     1     -12.295  13.251  70.636  1.00  0.00    -0.339 A  
ENDBRANCH   8  11
ENDBRANCH   6   7
ENDBRANCH   5   6
ENDBRANCH   4   5
TORSDOF 4
ENDMDL
MODEL      164
REMARK 921   NORMALIZED FREE ENERGY PREDICTED BY IDOCK:   -3.40 KCAL/MOL
REMARK 922        TOTAL FREE ENERGY PREDICTED BY IDOCK:   -4.42 KCAL/MOL
REMARK 923 INTER-LIGAND FREE ENERGY PREDICTED BY IDOCK:   -4.12 KCAL/MOL
REMARK 924 INTRA-LIGAND FREE ENERGY PREDICTED BY IDOCK:   -0.30 KCAL/MOL
REMARK 927      BINDING AFFINITY PREDICTED BY RF-SCORE:    0.00 PKD
ROOT
HETATM    1  O   UNL     1      -6.680   7.747  66.190  1.00  0.00    -0.052 OA 
HETATM    2  N   UNL     1      -7.705   8.278  65.766  1.00  0.00    -0.088 N  
HETATM    3  O   UNL     1      -7.932   8.794  64.670  1.00  0.00    -0.119 OA 
HETATM    4  O   UNL     1      -8.745   8.300  66.726  1.00  0.00    -0.125 OA 
ENDROOT
BRANCH   4   5
HETATM    5  C   UNL     1      -9.945   8.866  66.207  1.00  0.00    -0.266 C  
BRANCH   5   6
HETATM    6  C   UNL     1     -10.214  10.181  66.943  1.00  0.00    -0.236 C  
BRANCH   6   7
HETATM    7  N   UNL     1     -11.090  10.033  68.089  1.00  0.00    -0.457 N  
HETATM    8  C   UNL     1     -10.579   9.902  69.365  1.00  0.00    -0.229 C  
HETATM    9  H   UNL     1     -12.100  10.026  67.950  1.00  0.00     0.000 HD 
HETATM   10  O   UNL     1      -9.380   9.871  69.611  1.00  0.00    -0.203 OA 
BRANCH   8  11
HETATM   11  C   UNL     1     -11.562   9.758  70.457  1.00  0.00    -0.365 A  
HETATM   12  C   UNL     1     -12.300  10.833  70.957  1.00  0.00    -0.509 A  
HETATM   13  C   UNL     1     -13.190  10.615  72.006  1.00  0.00    -0.473 A  
HETATM   14  C   UNL     1     -13.309   9.331  72.516  1.00  0.00    -0.391 A  
HETATM   15  N   UNL     1     -12.609   8.272  72.054  1.00  0.00    -0.336 NA 
HETATM   16  C   UNL     1     -11.740   8.510  71.040  1.00  0.00    -0.275 A  
ENDBRANCH   8  11
ENDBRANCH   6   7
ENDBRANCH   5   6
ENDBRANCH   4   5
TORSDOF 4
ENDMDL
MODEL      165
REMARK 921   NORMALIZED FREE ENERGY PREDICTED BY IDOCK:   -3.40 KCAL/MOL
REMARK 922        TOTAL FREE ENERGY PREDICTED BY IDOCK:   -4.42 KCAL/MOL
REMARK 923 INTER-LIGAND FREE ENERGY PREDICTED BY IDOCK:   -4.23 KCAL/MOL
REMARK 924 INTRA-LIGAND FREE ENERGY PREDICTED BY IDOCK:   -0.20 KCAL/MOL
REMARK 927      BINDING AFFINITY PREDICTED BY RF-SCORE:    0.00 PKD
ROOT
HETATM    1  O   UNL     1     -12.487  14.621  71.503  1.00  0.00    -0.313 OA 
HETATM    2  N   UNL     1     -12.445  13.471  71.068  1.00  0.00    -0.373 N  
HETATM    3  O   UNL     1     -12.837  12.419  71.577  1.00  0.00    -0.366 OA 
HETATM    4  O   UNL     1     -11.820  13.390  69.800  1.00  0.00    -0.303 OA 
ENDROOT
BRANCH   4   5
HETATM    5  C   UNL     1     -11.826  12.064  69.280  1.00  0.00    -0.318 C  
BRANCH   5   6
HETATM    6  C   UNL     1     -11.890  12.147  67.753  1.00  0.00    -0.257 C  
BRANCH   6   7
HETATM    7  N   UNL     1     -11.024  11.194  67.086  1.00  0.00    -0.280 N  
HETATM    8  C   UNL     1     -10.766  11.290  65.733  1.00  0.00    -0.223 C  
HETATM    9  H   UNL     1     -10.599  10.440  67.625  1.00  0.00     0.000 HD 
HETATM   10  O   UNL     1     -11.261  12.146  65.012  1.00  0.00    -0.307 OA 
BRANCH   8  11
HETATM   11  C   UNL     1      -9.871  10.265  65.159  1.00  0.00    -0.389 A  
HETATM   12  C   UNL     1      -9.466   9.133  65.867  1.00  0.00    -0.326 A  
HETATM   13  C   UNL     1      -8.599   8.227  65.259  1.00  0.00    -0.159 A  
HETATM   14  C   UNL     1      -8.171   8.488  63.966  1.00  0.00    -0.131 A  
HETATM   15  N   UNL     1      -8.544   9.575  63.257  1.00  0.00    -0.201 NA 
HETATM   16  C   UNL     1      -9.379  10.449  63.873  1.00  0.00    -0.279 A  
ENDBRANCH   8  11
ENDBRANCH   6   7
ENDBRANCH   5   6
ENDBRANCH   4   5
TORSDOF 4
ENDMDL
MODEL      166
REMARK 921   NORMALIZED FREE ENERGY PREDICTED BY IDOCK:   -3.39 KCAL/MOL
REMARK 922        TOTAL FREE ENERGY PREDICTED BY IDOCK:   -4.41 KCAL/MOL
REMARK 923 INTER-LIGAND FREE ENERGY PREDICTED BY IDOCK:   -4.17 KCAL/MOL
REMARK 924 INTRA-LIGAND FREE ENERGY PREDICTED BY IDOCK:   -0.25 KCAL/MOL
REMARK 927      BINDING AFFINITY PREDICTED BY RF-SCORE:    0.00 PKD
ROOT
HETATM    1  O   UNL     1      -5.483  19.003  65.112  1.00  0.00    -0.161 OA 
HETATM    2  N   UNL     1      -6.559  18.644  65.589  1.00  0.00    -0.265 N  
HETATM    3  O   UNL     1      -7.657  19.204  65.570  1.00  0.00    -0.452 OA 
HETATM    4  O   UNL     1      -6.467  17.411  66.277  1.00  0.00    -0.222 OA 
ENDROOT
BRANCH   4   5
HETATM    5  C   UNL     1      -7.728  16.977  66.778  1.00  0.00    -0.239 C  
BRANCH   5   6
HETATM    6  C   UNL     1      -7.579  16.689  68.273  1.00  0.00    -0.181 C  
BRANCH   6   7
HETATM    7  N   UNL     1      -8.841  16.439  68.943  1.00  0.00    -0.252 N  
HETATM    8  C   UNL     1      -9.364  15.164  69.027  1.00  0.00    -0.219 C  
HETATM    9  H   UNL     1      -9.351  17.218  69.358  1.00  0.00     0.000 HD 
HETATM   10  O   UNL     1      -8.828  14.182  68.528  1.00  0.00    -0.187 OA 
BRANCH   8  11
HETATM   11  C   UNL     1     -10.655  15.026  69.731  1.00  0.00    -0.232 A  
HETATM   12  C   UNL     1     -11.427  13.865  69.672  1.00  0.00    -0.310 A  
HETATM   13  C   UNL     1     -12.646  13.827  70.346  1.00  0.00    -0.325 A  
HETATM   14  C   UNL     1     -13.046  14.951  71.053  1.00  0.00    -0.398 A  
HETATM   15  N   UNL     1     -12.321  16.088  71.127  1.00  0.00    -0.374 NA 
HETATM   16  C   UNL     1     -11.144  16.107  70.453  1.00  0.00    -0.351 A  
ENDBRANCH   8  11
ENDBRANCH   6   7
ENDBRANCH   5   6
ENDBRANCH   4   5
TORSDOF 4
ENDMDL
MODEL      167
REMARK 921   NORMALIZED FREE ENERGY PREDICTED BY IDOCK:   -3.37 KCAL/MOL
REMARK 922        TOTAL FREE ENERGY PREDICTED BY IDOCK:   -4.39 KCAL/MOL
REMARK 923 INTER-LIGAND FREE ENERGY PREDICTED BY IDOCK:   -4.11 KCAL/MOL
REMARK 924 INTRA-LIGAND FREE ENERGY PREDICTED BY IDOCK:   -0.28 KCAL/MOL
REMARK 927      BINDING AFFINITY PREDICTED BY RF-SCORE:    0.00 PKD
ROOT
HETATM    1  O   UNL     1     -12.536  14.211  71.515  1.00  0.00    -0.328 OA 
HETATM    2  N   UNL     1     -13.161  13.216  71.882  1.00  0.00    -0.437 N  
HETATM    3  O   UNL     1     -14.114  13.125  72.659  1.00  0.00    -0.701 OA 
HETATM    4  O   UNL     1     -12.655  12.017  71.325  1.00  0.00    -0.347 OA 
ENDROOT
BRANCH   4   5
HETATM    5  C   UNL     1     -13.419  10.879  71.713  1.00  0.00    -0.182 C  
BRANCH   5   6
HETATM    6  C   UNL     1     -12.522   9.643  71.620  1.00  0.00    -0.407 C  
BRANCH   6   7
HETATM    7  N   UNL     1     -11.143   9.953  71.291  1.00  0.00    -0.312 N  
HETATM    8  C   UNL     1     -10.321   9.012  70.705  1.00  0.00    -0.229 C  
HETATM    9  H   UNL     1     -10.776  10.881  71.497  1.00  0.00     0.000 HD 
HETATM   10  O   UNL     1     -10.678   7.867  70.455  1.00  0.00    -0.225 OA 
BRANCH   8  11
HETATM   11  C   UNL     1      -8.936   9.436  70.414  1.00  0.00    -0.294 A  
HETATM   12  C   UNL     1      -8.590  10.146  69.264  1.00  0.00    -0.180 A  
HETATM   13  C   UNL     1      -7.255  10.487  69.054  1.00  0.00    -0.090 A  
HETATM   14  C   UNL     1      -6.318  10.104  70.003  1.00  0.00    -0.088 A  
HETATM   15  N   UNL     1      -6.624   9.416  71.124  1.00  0.00    -0.198 NA 
HETATM   16  C   UNL     1      -7.927   9.085  71.301  1.00  0.00    -0.091 A  
ENDBRANCH   8  11
ENDBRANCH   6   7
ENDBRANCH   5   6
ENDBRANCH   4   5
TORSDOF 4
ENDMDL
MODEL      168
REMARK 921   NORMALIZED FREE ENERGY PREDICTED BY IDOCK:   -3.37 KCAL/MOL
REMARK 922        TOTAL FREE ENERGY PREDICTED BY IDOCK:   -4.38 KCAL/MOL
REMARK 923 INTER-LIGAND FREE ENERGY PREDICTED BY IDOCK:   -4.05 KCAL/MOL
REMARK 924 INTRA-LIGAND FREE ENERGY PREDICTED BY IDOCK:   -0.33 KCAL/MOL
REMARK 927      BINDING AFFINITY PREDICTED BY RF-SCORE:    0.00 PKD
ROOT
HETATM    1  O   UNL     1     -11.743  11.134  67.585  1.00  0.00    -0.573 OA 
HETATM    2  N   UNL     1     -11.843  12.359  67.521  1.00  0.00    -0.339 N  
HETATM    3  O   UNL     1     -12.061  13.181  68.414  1.00  0.00    -0.318 OA 
HETATM    4  O   UNL     1     -11.709  12.849  66.200  1.00  0.00    -0.355 OA 
ENDROOT
BRANCH   4   5
HETATM    5  C   UNL     1     -11.772  14.271  66.145  1.00  0.00    -0.390 C  
BRANCH   5   6
HETATM    6  C   UNL     1     -10.422  14.793  65.648  1.00  0.00    -0.349 C  
BRANCH   6   7
HETATM    7  N   UNL     1      -9.395  14.807  66.672  1.00  0.00    -0.254 N  
HETATM    8  C   UNL     1      -8.386  15.749  66.659  1.00  0.00    -0.284 C  
HETATM    9  H   UNL     1      -9.419  14.108  67.415  1.00  0.00     0.000 HD 
HETATM   10  O   UNL     1      -8.271  16.601  65.787  1.00  0.00    -0.344 OA 
BRANCH   8  11
HETATM   11  C   UNL     1      -7.394  15.669  67.750  1.00  0.00    -0.169 A  
HETATM   12  C   UNL     1      -7.433  14.680  68.734  1.00  0.00    -0.135 A  
HETATM   13  C   UNL     1      -6.472  14.690  69.744  1.00  0.00    -0.159 A  
HETATM   14  C   UNL     1      -5.510  15.689  69.730  1.00  0.00    -0.118 A  
HETATM   15  N   UNL     1      -5.448  16.659  68.792  1.00  0.00    -0.122 NA 
HETATM   16  C   UNL     1      -6.401  16.635  67.827  1.00  0.00    -0.140 A  
ENDBRANCH   8  11
ENDBRANCH   6   7
ENDBRANCH   5   6
ENDBRANCH   4   5
TORSDOF 4
ENDMDL
MODEL      169
REMARK 921   NORMALIZED FREE ENERGY PREDICTED BY IDOCK:   -3.36 KCAL/MOL
REMARK 922        TOTAL FREE ENERGY PREDICTED BY IDOCK:   -4.37 KCAL/MOL
REMARK 923 INTER-LIGAND FREE ENERGY PREDICTED BY IDOCK:   -4.21 KCAL/MOL
REMARK 924 INTRA-LIGAND FREE ENERGY PREDICTED BY IDOCK:   -0.16 KCAL/MOL
REMARK 927      BINDING AFFINITY PREDICTED BY RF-SCORE:    0.00 PKD
ROOT
HETATM    1  O   UNL     1     -12.727  14.179  63.261  1.00  0.00    -0.714 OA 
HETATM    2  N   UNL     1     -12.516  13.661  64.357  1.00  0.00    -0.311 N  
HETATM    3  O   UNL     1     -12.962  12.616  64.835  1.00  0.00    -0.830 OA 
HETATM    4  O   UNL     1     -11.646  14.430  65.166  1.00  0.00    -0.335 OA 
ENDROOT
BRANCH   4   5
HETATM    5  C   UNL     1     -11.365  13.794  66.410  1.00  0.00    -0.317 C  
BRANCH   5   6
HETATM    6  C   UNL     1      -9.997  13.116  66.305  1.00  0.00    -0.285 C  
BRANCH   6   7
HETATM    7  N   UNL     1      -9.119  13.408  67.421  1.00  0.00    -0.205 N  
HETATM    8  C   UNL     1      -7.965  12.680  67.632  1.00  0.00    -0.169 C  
HETATM    9  H   UNL     1      -9.358  14.165  68.062  1.00  0.00     0.000 HD 
HETATM   10  O   UNL     1      -7.625  11.738  66.927  1.00  0.00    -0.152 OA 
BRANCH   8  11
HETATM   11  C   UNL     1      -7.147  13.064  68.800  1.00  0.00    -0.097 A  
HETATM   12  C   UNL     1      -6.385  12.146  69.524  1.00  0.00    -0.122 A  
HETATM   13  C   UNL     1      -5.660  12.588  70.629  1.00  0.00    -0.175 A  
HETATM   14  C   UNL     1      -5.725  13.931  70.967  1.00  0.00    -0.216 A  
HETATM   15  N   UNL     1      -6.453  14.842  70.287  1.00  0.00    -0.157 NA 
HETATM   16  C   UNL     1      -7.161  14.387  69.222  1.00  0.00    -0.124 A  
ENDBRANCH   8  11
ENDBRANCH   6   7
ENDBRANCH   5   6
ENDBRANCH   4   5
TORSDOF 4
ENDMDL
MODEL      170
REMARK 921   NORMALIZED FREE ENERGY PREDICTED BY IDOCK:   -3.36 KCAL/MOL
REMARK 922        TOTAL FREE ENERGY PREDICTED BY IDOCK:   -4.37 KCAL/MOL
REMARK 923 INTER-LIGAND FREE ENERGY PREDICTED BY IDOCK:   -4.15 KCAL/MOL
REMARK 924 INTRA-LIGAND FREE ENERGY PREDICTED BY IDOCK:   -0.22 KCAL/MOL
REMARK 927      BINDING AFFINITY PREDICTED BY RF-SCORE:    0.00 PKD
ROOT
HETATM    1  O   UNL     1     -10.659   7.147  67.524  1.00  0.00    -0.230 OA 
HETATM    2  N   UNL     1     -10.316   8.217  67.021  1.00  0.00    -0.314 N  
HETATM    3  O   UNL     1      -9.570   8.436  66.064  1.00  0.00    -0.207 OA 
HETATM    4  O   UNL     1     -10.862   9.336  67.694  1.00  0.00    -0.250 OA 
ENDROOT
BRANCH   4   5
HETATM    5  C   UNL     1     -10.504  10.566  67.071  1.00  0.00    -0.249 C  
BRANCH   5   6
HETATM    6  C   UNL     1     -11.597  11.594  67.373  1.00  0.00    -0.254 C  
BRANCH   6   7
HETATM    7  N   UNL     1     -11.234  12.949  67.004  1.00  0.00    -0.276 N  
HETATM    8  C   UNL     1     -11.103  13.937  67.959  1.00  0.00    -0.259 C  
HETATM    9  H   UNL     1     -11.074  13.175  66.023  1.00  0.00     0.000 HD 
HETATM   10  O   UNL     1     -11.307  13.753  69.152  1.00  0.00    -0.255 OA 
BRANCH   8  11
HETATM   11  C   UNL     1     -10.730  15.280  67.471  1.00  0.00    -0.285 A  
HETATM   12  C   UNL     1     -10.390  15.533  66.141  1.00  0.00    -0.327 A  
HETATM   13  C   UNL     1     -10.027  16.825  65.768  1.00  0.00    -0.242 A  
HETATM   14  C   UNL     1     -10.018  17.816  66.739  1.00  0.00    -0.333 A  
HETATM   15  N   UNL     1     -10.342  17.601  68.032  1.00  0.00    -0.357 NA 
HETATM   16  C   UNL     1     -10.680  16.333  68.375  1.00  0.00    -0.311 A  
ENDBRANCH   8  11
ENDBRANCH   6   7
ENDBRANCH   5   6
ENDBRANCH   4   5
TORSDOF 4
ENDMDL
MODEL      171
REMARK 921   NORMALIZED FREE ENERGY PREDICTED BY IDOCK:   -3.34 KCAL/MOL
REMARK 922        TOTAL FREE ENERGY PREDICTED BY IDOCK:   -4.34 KCAL/MOL
REMARK 923 INTER-LIGAND FREE ENERGY PREDICTED BY IDOCK:   -3.99 KCAL/MOL
REMARK 924 INTRA-LIGAND FREE ENERGY PREDICTED BY IDOCK:   -0.35 KCAL/MOL
REMARK 927      BINDING AFFINITY PREDICTED BY RF-SCORE:    0.00 PKD
ROOT
HETATM    1  O   UNL     1     -12.722  11.668  63.123  1.00  0.00    -0.447 OA 
HETATM    2  N   UNL     1     -12.540  12.725  63.726  1.00  0.00    -0.332 N  
HETATM    3  O   UNL     1     -12.033  13.779  63.337  1.00  0.00    -0.301 OA 
HETATM    4  O   UNL     1     -12.968  12.664  65.074  1.00  0.00    -0.812 OA 
ENDROOT
BRANCH   4   5
HETATM    5  C   UNL     1     -12.804  13.909  65.748  1.00  0.00    -0.391 C  
BRANCH   5   6
HETATM    6  C   UNL     1     -12.123  13.642  67.092  1.00  0.00    -0.362 C  
BRANCH   6   7
HETATM    7  N   UNL     1     -10.772  13.128  66.964  1.00  0.00    -0.261 N  
HETATM    8  C   UNL     1     -10.394  11.953  67.582  1.00  0.00    -0.200 C  
HETATM    9  H   UNL     1     -10.091  13.645  66.409  1.00  0.00     0.000 HD 
HETATM   10  O   UNL     1     -11.144  11.293  68.289  1.00  0.00    -0.202 OA 
BRANCH   8  11
HETATM   11  C   UNL     1      -8.994  11.525  67.384  1.00  0.00    -0.156 A  
HETATM   12  C   UNL     1      -8.649  10.384  66.659  1.00  0.00    -0.128 A  
HETATM   13  C   UNL     1      -7.304  10.037  66.540  1.00  0.00    -0.101 A  
HETATM   14  C   UNL     1      -6.357  10.845  67.152  1.00  0.00    -0.074 A  
HETATM   15  N   UNL     1      -6.662  11.954  67.861  1.00  0.00    -0.073 NA 
HETATM   16  C   UNL     1      -7.977  12.265  67.973  1.00  0.00    -0.150 A  
ENDBRANCH   8  11
ENDBRANCH   6   7
ENDBRANCH   5   6
ENDBRANCH   4   5
TORSDOF 4
ENDMDL
MODEL      172
REMARK 921   NORMALIZED FREE ENERGY PREDICTED BY IDOCK:   -3.34 KCAL/MOL
REMARK 922        TOTAL FREE ENERGY PREDICTED BY IDOCK:   -4.34 KCAL/MOL
REMARK 923 INTER-LIGAND FREE ENERGY PREDICTED BY IDOCK:   -4.19 KCAL/MOL
REMARK 924 INTRA-LIGAND FREE ENERGY PREDICTED BY IDOCK:   -0.16 KCAL/MOL
REMARK 927      BINDING AFFINITY PREDICTED BY RF-SCORE:    0.00 PKD
ROOT
HETATM    1  O   UNL     1     -12.546  11.740  69.866  1.00  0.00    -0.062 OA 
HETATM    2  N   UNL     1     -12.280  10.837  70.659  1.00  0.00    -0.345 N  
HETATM    3  O   UNL     1     -11.196  10.315  70.926  1.00  0.00    -0.336 OA 
HETATM    4  O   UNL     1     -13.427  10.336  71.319  1.00  0.00    -0.319 OA 
ENDROOT
BRANCH   4   5
HETATM    5  C   UNL     1     -13.102   9.330  72.274  1.00  0.00    -0.441 C  
BRANCH   5   6
HETATM    6  C   UNL     1     -13.267   7.962  71.607  1.00  0.00    -0.334 C  
BRANCH   6   7
HETATM    7  N   UNL     1     -12.409   6.937  72.170  1.00  0.00    -0.504 N  
HETATM    8  C   UNL     1     -11.574   6.185  71.367  1.00  0.00    -0.219 C  
HETATM    9  H   UNL     1     -12.423   6.769  73.175  1.00  0.00     0.000 HD 
HETATM   10  O   UNL     1     -11.522   6.306  70.150  1.00  0.00    -0.400 OA 
BRANCH   8  11
HETATM   11  C   UNL     1     -10.745   5.170  72.047  1.00  0.00    -0.236 A  
HETATM   12  C   UNL     1      -9.662   4.542  71.430  1.00  0.00    -0.248 A  
HETATM   13  C   UNL     1      -8.947   3.576  72.135  1.00  0.00    -0.138 A  
HETATM   14  C   UNL     1      -9.341   3.275  73.430  1.00  0.00    -0.096 A  
HETATM   15  N   UNL     1     -10.384   3.865  74.053  1.00  0.00    -0.164 NA 
HETATM   16  C   UNL     1     -11.074   4.794  73.343  1.00  0.00    -0.344 A  
ENDBRANCH   8  11
ENDBRANCH   6   7
ENDBRANCH   5   6
ENDBRANCH   4   5
TORSDOF 4
ENDMDL
MODEL      173
REMARK 921   NORMALIZED FREE ENERGY PREDICTED BY IDOCK:   -3.33 KCAL/MOL
REMARK 922        TOTAL FREE ENERGY PREDICTED BY IDOCK:   -4.34 KCAL/MOL
REMARK 923 INTER-LIGAND FREE ENERGY PREDICTED BY IDOCK:   -4.06 KCAL/MOL
REMARK 924 INTRA-LIGAND FREE ENERGY PREDICTED BY IDOCK:   -0.28 KCAL/MOL
REMARK 927      BINDING AFFINITY PREDICTED BY RF-SCORE:    0.00 PKD
ROOT
HETATM    1  O   UNL     1      -6.671  10.296  64.478  1.00  0.00    -0.128 OA 
HETATM    2  N   UNL     1      -7.728   9.691  64.655  1.00  0.00    -0.123 N  
HETATM    3  O   UNL     1      -8.048   8.546  64.328  1.00  0.00    -0.146 OA 
HETATM    4  O   UNL     1      -8.703  10.479  65.313  1.00  0.00    -0.177 OA 
ENDROOT
BRANCH   4   5
HETATM    5  C   UNL     1      -9.903   9.752  65.564  1.00  0.00    -0.308 C  
BRANCH   5   6
HETATM    6  C   UNL     1     -10.722  10.521  66.603  1.00  0.00    -0.155 C  
BRANCH   6   7
HETATM    7  N   UNL     1     -10.372  11.925  66.692  1.00  0.00    -0.207 N  
HETATM    8  C   UNL     1     -11.296  12.911  66.409  1.00  0.00    -0.319 C  
HETATM    9  H   UNL     1      -9.427  12.189  66.968  1.00  0.00     0.000 HD 
HETATM   10  O   UNL     1     -12.440  12.676  66.041  1.00  0.00    -0.555 OA 
BRANCH   8  11
HETATM   11  C   UNL     1     -10.830  14.307  66.532  1.00  0.00    -0.304 A  
HETATM   12  C   UNL     1      -9.882  14.865  65.673  1.00  0.00    -0.372 A  
HETATM   13  C   UNL     1      -9.478  16.184  65.874  1.00  0.00    -0.337 A  
HETATM   14  C   UNL     1     -10.039  16.893  66.925  1.00  0.00    -0.289 A  
HETATM   15  N   UNL     1     -10.957  16.380  67.772  1.00  0.00    -0.302 NA 
HETATM   16  C   UNL     1     -11.326  15.091  67.565  1.00  0.00    -0.333 A  
ENDBRANCH   8  11
ENDBRANCH   6   7
ENDBRANCH   5   6
ENDBRANCH   4   5
TORSDOF 4
ENDMDL
MODEL      174
REMARK 921   NORMALIZED FREE ENERGY PREDICTED BY IDOCK:   -3.32 KCAL/MOL
REMARK 922        TOTAL FREE ENERGY PREDICTED BY IDOCK:   -4.32 KCAL/MOL
REMARK 923 INTER-LIGAND FREE ENERGY PREDICTED BY IDOCK:   -4.12 KCAL/MOL
REMARK 924 INTRA-LIGAND FREE ENERGY PREDICTED BY IDOCK:   -0.20 KCAL/MOL
REMARK 927      BINDING AFFINITY PREDICTED BY RF-SCORE:    0.00 PKD
ROOT
HETATM    1  O   UNL     1      -6.880   7.148  68.126  1.00  0.00    -0.068 OA 
HETATM    2  N   UNL     1      -7.634   7.563  69.005  1.00  0.00    -0.106 N  
HETATM    3  O   UNL     1      -8.160   6.961  69.943  1.00  0.00    -0.121 OA 
HETATM    4  O   UNL     1      -7.937   8.938  68.860  1.00  0.00    -0.101 OA 
ENDROOT
BRANCH   4   5
HETATM    5  C   UNL     1      -8.765   9.421  69.914  1.00  0.00    -0.197 C  
BRANCH   5   6
HETATM    6  C   UNL     1     -10.085   9.901  69.306  1.00  0.00    -0.203 C  
BRANCH   6   7
HETATM    7  N   UNL     1     -10.201  11.346  69.243  1.00  0.00    -0.426 N  
HETATM    8  C   UNL     1     -11.288  11.949  68.642  1.00  0.00    -0.276 C  
HETATM    9  H   UNL     1      -9.467  11.925  69.649  1.00  0.00     0.000 HD 
HETATM   10  O   UNL     1     -12.194  11.323  68.105  1.00  0.00    -0.622 OA 
BRANCH   8  11
HETATM   11  C   UNL     1     -11.301  13.425  68.634  1.00  0.00    -0.322 A  
HETATM   12  C   UNL     1     -11.671  14.183  69.746  1.00  0.00    -0.370 A  
HETATM   13  C   UNL     1     -11.681  15.573  69.647  1.00  0.00    -0.371 A  
HETATM   14  C   UNL     1     -11.320  16.151  68.440  1.00  0.00    -0.345 A  
HETATM   15  N   UNL     1     -10.958  15.445  67.347  1.00  0.00    -0.311 NA 
HETATM   16  C   UNL     1     -10.968  14.093  67.463  1.00  0.00    -0.283 A  
ENDBRANCH   8  11
ENDBRANCH   6   7
ENDBRANCH   5   6
ENDBRANCH   4   5
TORSDOF 4
ENDMDL
MODEL      175
REMARK 921   NORMALIZED FREE ENERGY PREDICTED BY IDOCK:   -3.31 KCAL/MOL
REMARK 922        TOTAL FREE ENERGY PREDICTED BY IDOCK:   -4.31 KCAL/MOL
REMARK 923 INTER-LIGAND FREE ENERGY PREDICTED BY IDOCK:   -4.05 KCAL/MOL
REMARK 924 INTRA-LIGAND FREE ENERGY PREDICTED BY IDOCK:   -0.25 KCAL/MOL
REMARK 927      BINDING AFFINITY PREDICTED BY RF-SCORE:    0.00 PKD
ROOT
HETATM    1  O   UNL     1      -8.261   5.783  71.020  1.00  0.00    -0.117 OA 
HETATM    2  N   UNL     1      -9.420   6.067  70.721  1.00  0.00    -0.167 N  
HETATM    3  O   UNL     1     -10.473   5.496  71.010  1.00  0.00    -0.229 OA 
HETATM    4  O   UNL     1      -9.505   7.215  69.896  1.00  0.00    -0.154 OA 
ENDROOT
BRANCH   4   5
HETATM    5  C   UNL     1     -10.853   7.568  69.601  1.00  0.00    -0.202 C  
BRANCH   5   6
HETATM    6  C   UNL     1     -11.211   8.818  70.407  1.00  0.00    -0.223 C  
BRANCH   6   7
HETATM    7  N   UNL     1     -11.593   9.948  69.582  1.00  0.00    -0.443 N  
HETATM    8  C   UNL     1     -10.646  10.816  69.077  1.00  0.00    -0.219 C  
HETATM    9  H   UNL     1     -12.579  10.104  69.372  1.00  0.00     0.000 HD 
HETATM   10  O   UNL     1      -9.448  10.715  69.309  1.00  0.00    -0.197 OA 
BRANCH   8  11
HETATM   11  C   UNL     1     -11.148  11.932  68.250  1.00  0.00    -0.289 A  
HETATM   12  C   UNL     1     -11.584  11.760  66.935  1.00  0.00    -0.310 A  
HETATM   13  C   UNL     1     -12.020  12.871  66.215  1.00  0.00    -0.472 A  
HETATM   14  C   UNL     1     -12.005  14.110  66.838  1.00  0.00    -0.449 A  
HETATM   15  N   UNL     1     -11.589  14.306  68.108  1.00  0.00    -0.313 NA 
HETATM   16  C   UNL     1     -11.157  13.213  68.785  1.00  0.00    -0.269 A  
ENDBRANCH   8  11
ENDBRANCH   6   7
ENDBRANCH   5   6
ENDBRANCH   4   5
TORSDOF 4
ENDMDL
MODEL      176
REMARK 921   NORMALIZED FREE ENERGY PREDICTED BY IDOCK:   -3.30 KCAL/MOL
REMARK 922        TOTAL FREE ENERGY PREDICTED BY IDOCK:   -4.29 KCAL/MOL
REMARK 923 INTER-LIGAND FREE ENERGY PREDICTED BY IDOCK:   -4.12 KCAL/MOL
REMARK 924 INTRA-LIGAND FREE ENERGY PREDICTED BY IDOCK:   -0.18 KCAL/MOL
REMARK 927      BINDING AFFINITY PREDICTED BY RF-SCORE:    0.00 PKD
ROOT
HETATM    1  O   UNL     1     -10.714   9.728  67.950  1.00  0.00    -0.245 OA 
HETATM    2  N   UNL     1     -11.011  10.922  67.917  1.00  0.00    -0.249 N  
HETATM    3  O   UNL     1     -12.116  11.463  67.990  1.00  0.00    -0.629 OA 
HETATM    4  O   UNL     1      -9.884  11.759  67.739  1.00  0.00    -0.175 OA 
ENDROOT
BRANCH   4   5
HETATM    5  C   UNL     1     -10.231  13.141  67.757  1.00  0.00    -0.231 C  
BRANCH   5   6
HETATM    6  C   UNL     1      -9.093  13.932  67.109  1.00  0.00    -0.239 C  
BRANCH   6   7
HETATM    7  N   UNL     1      -9.278  15.369  67.172  1.00  0.00    -0.206 N  
HETATM    8  C   UNL     1      -8.211  16.233  67.027  1.00  0.00    -0.205 C  
HETATM    9  H   UNL     1     -10.212  15.747  67.328  1.00  0.00     0.000 HD 
HETATM   10  O   UNL     1      -7.057  15.857  66.868  1.00  0.00    -0.198 OA 
BRANCH   8  11
HETATM   11  C   UNL     1      -8.515  17.676  67.110  1.00  0.00    -0.239 A  
HETATM   12  C   UNL     1      -8.975  18.285  68.278  1.00  0.00    -0.318 A  
HETATM   13  C   UNL     1      -9.262  19.648  68.265  1.00  0.00    -0.412 A  
HETATM   14  C   UNL     1      -9.077  20.350  67.083  1.00  0.00    -0.362 A  
HETATM   15  N   UNL     1      -8.635  19.789  65.937  1.00  0.00    -0.386 NA 
HETATM   16  C   UNL     1      -8.374  18.458  65.971  1.00  0.00    -0.023 A  
ENDBRANCH   8  11
ENDBRANCH   6   7
ENDBRANCH   5   6
ENDBRANCH   4   5
TORSDOF 4
ENDMDL
MODEL      177
REMARK 921   NORMALIZED FREE ENERGY PREDICTED BY IDOCK:   -3.27 KCAL/MOL
REMARK 922        TOTAL FREE ENERGY PREDICTED BY IDOCK:   -4.26 KCAL/MOL
REMARK 923 INTER-LIGAND FREE ENERGY PREDICTED BY IDOCK:   -3.88 KCAL/MOL
REMARK 924 INTRA-LIGAND FREE ENERGY PREDICTED BY IDOCK:   -0.38 KCAL/MOL
REMARK 927      BINDING AFFINITY PREDICTED BY RF-SCORE:    0.00 PKD
ROOT
HETATM    1  O   UNL     1     -12.143  11.178  68.525  1.00  0.00    -0.586 OA 
HETATM    2  N   UNL     1     -11.984  12.252  67.947  1.00  0.00    -0.280 N  
HETATM    3  O   UNL     1     -11.816  13.382  68.411  1.00  0.00    -0.337 OA 
HETATM    4  O   UNL     1     -12.038  12.126  66.538  1.00  0.00    -0.627 OA 
ENDROOT
BRANCH   4   5
HETATM    5  C   UNL     1     -11.799  13.365  65.877  1.00  0.00    -0.376 C  
BRANCH   5   6
HETATM    6  C   UNL     1     -10.465  13.264  65.134  1.00  0.00    -0.333 C  
BRANCH   6   7
HETATM    7  N   UNL     1      -9.509  12.383  65.778  1.00  0.00    -0.422 N  
HETATM    8  C   UNL     1      -8.699  12.834  66.801  1.00  0.00    -0.121 C  
HETATM    9  H   UNL     1      -9.435  11.414  65.470  1.00  0.00     0.000 HD 
HETATM   10  O   UNL     1      -8.707  13.990  67.206  1.00  0.00    -0.196 OA 
BRANCH   8  11
HETATM   11  C   UNL     1      -7.764  11.851  67.383  1.00  0.00    -0.158 A  
HETATM   12  C   UNL     1      -6.560  11.499  66.771  1.00  0.00    -0.119 A  
HETATM   13  C   UNL     1      -5.746  10.544  67.376  1.00  0.00    -0.044 A  
HETATM   14  C   UNL     1      -6.167   9.978  68.570  1.00  0.00    -0.045 A  
HETATM   15  N   UNL     1      -7.326  10.297  69.185  1.00  0.00    -0.086 NA 
HETATM   16  C   UNL     1      -8.108  11.221  68.572  1.00  0.00    -0.148 A  
ENDBRANCH   8  11
ENDBRANCH   6   7
ENDBRANCH   5   6
ENDBRANCH   4   5
TORSDOF 4
ENDMDL
MODEL      178
REMARK 921   NORMALIZED FREE ENERGY PREDICTED BY IDOCK:   -3.26 KCAL/MOL
REMARK 922        TOTAL FREE ENERGY PREDICTED BY IDOCK:   -4.25 KCAL/MOL
REMARK 923 INTER-LIGAND FREE ENERGY PREDICTED BY IDOCK:   -3.98 KCAL/MOL
REMARK 924 INTRA-LIGAND FREE ENERGY PREDICTED BY IDOCK:   -0.27 KCAL/MOL
REMARK 927      BINDING AFFINITY PREDICTED BY RF-SCORE:    0.00 PKD
ROOT
HETATM    1  O   UNL     1      -7.353   5.976  71.085  1.00  0.00    -0.079 OA 
HETATM    2  N   UNL     1      -8.316   5.976  71.851  1.00  0.00    -0.115 N  
HETATM    3  O   UNL     1      -8.381   5.654  73.039  1.00  0.00    -0.118 OA 
HETATM    4  O   UNL     1      -9.514   6.389  71.219  1.00  0.00    -0.165 OA 
ENDROOT
BRANCH   4   5
HETATM    5  C   UNL     1     -10.611   6.438  72.126  1.00  0.00    -0.220 C  
BRANCH   5   6
HETATM    6  C   UNL     1     -10.938   7.907  72.406  1.00  0.00    -0.325 C  
BRANCH   6   7
HETATM    7  N   UNL     1     -10.883   8.747  71.225  1.00  0.00    -0.254 N  
HETATM    8  C   UNL     1     -11.716   9.839  71.087  1.00  0.00    -0.385 C  
HETATM    9  H   UNL     1     -10.219   8.526  70.484  1.00  0.00     0.000 HD 
HETATM   10  O   UNL     1     -12.560  10.152  71.917  1.00  0.00    -0.396 OA 
BRANCH   8  11
HETATM   11  C   UNL     1     -11.574  10.623  69.843  1.00  0.00    -0.396 A  
HETATM   12  C   UNL     1     -11.147  10.060  68.640  1.00  0.00    -0.223 A  
HETATM   13  C   UNL     1     -11.017  10.876  67.518  1.00  0.00    -0.352 A  
HETATM   14  C   UNL     1     -11.319  12.223  67.643  1.00  0.00    -0.311 A  
HETATM   15  N   UNL     1     -11.733  12.797  68.793  1.00  0.00    -0.306 NA 
HETATM   16  C   UNL     1     -11.841  11.985  69.875  1.00  0.00    -0.331 A  
ENDBRANCH   8  11
ENDBRANCH   6   7
ENDBRANCH   5   6
ENDBRANCH   4   5
TORSDOF 4
ENDMDL
MODEL      179
REMARK 921   NORMALIZED FREE ENERGY PREDICTED BY IDOCK:   -3.26 KCAL/MOL
REMARK 922        TOTAL FREE ENERGY PREDICTED BY IDOCK:   -4.25 KCAL/MOL
REMARK 923 INTER-LIGAND FREE ENERGY PREDICTED BY IDOCK:   -4.03 KCAL/MOL
REMARK 924 INTRA-LIGAND FREE ENERGY PREDICTED BY IDOCK:   -0.21 KCAL/MOL
REMARK 927      BINDING AFFINITY PREDICTED BY RF-SCORE:    0.00 PKD
ROOT
HETATM    1  O   UNL     1      -8.626   6.843  68.024  1.00  0.00    -0.123 OA 
HETATM    2  N   UNL     1      -9.433   7.604  68.558  1.00  0.00    -0.146 N  
HETATM    3  O   UNL     1     -10.135   7.436  69.557  1.00  0.00    -0.179 OA 
HETATM    4  O   UNL     1      -9.561   8.834  67.868  1.00  0.00    -0.140 OA 
ENDROOT
BRANCH   4   5
HETATM    5  C   UNL     1     -10.456   9.728  68.524  1.00  0.00    -0.210 C  
BRANCH   5   6
HETATM    6  C   UNL     1     -11.158  10.573  67.458  1.00  0.00    -0.290 C  
BRANCH   6   7
HETATM    7  N   UNL     1     -10.579  11.892  67.292  1.00  0.00    -0.221 N  
HETATM    8  C   UNL     1     -10.999  12.734  66.281  1.00  0.00    -0.280 C  
HETATM    9  H   UNL     1      -9.848  12.202  67.932  1.00  0.00     0.000 HD 
HETATM   10  O   UNL     1     -11.848  12.423  65.455  1.00  0.00    -0.397 OA 
BRANCH   8  11
HETATM   11  C   UNL     1     -10.340  14.053  66.206  1.00  0.00    -0.294 A  
HETATM   12  C   UNL     1      -9.210  14.377  66.957  1.00  0.00    -0.246 A  
HETATM   13  C   UNL     1      -8.664  15.654  66.845  1.00  0.00    -0.283 A  
HETATM   14  C   UNL     1      -9.269  16.558  65.984  1.00  0.00    -0.260 A  
HETATM   15  N   UNL     1     -10.363  16.273  65.245  1.00  0.00    -0.596 NA 
HETATM   16  C   UNL     1     -10.884  15.028  65.380  1.00  0.00    -0.364 A  
ENDBRANCH   8  11
ENDBRANCH   6   7
ENDBRANCH   5   6
ENDBRANCH   4   5
TORSDOF 4
ENDMDL
MODEL      180
REMARK 921   NORMALIZED FREE ENERGY PREDICTED BY IDOCK:   -3.26 KCAL/MOL
REMARK 922        TOTAL FREE ENERGY PREDICTED BY IDOCK:   -4.24 KCAL/MOL
REMARK 923 INTER-LIGAND FREE ENERGY PREDICTED BY IDOCK:   -4.05 KCAL/MOL
REMARK 924 INTRA-LIGAND FREE ENERGY PREDICTED BY IDOCK:   -0.19 KCAL/MOL
REMARK 927      BINDING AFFINITY PREDICTED BY RF-SCORE:    0.00 PKD
ROOT
HETATM    1  O   UNL     1     -13.034  15.523  63.803  1.00  0.00    -0.397 OA 
HETATM    2  N   UNL     1     -11.923  15.720  64.293  1.00  0.00    -0.230 N  
HETATM    3  O   UNL     1     -11.169  16.689  64.177  1.00  0.00    -1.103 OA 
HETATM    4  O   UNL     1     -11.471  14.632  65.078  1.00  0.00    -0.356 OA 
ENDROOT
BRANCH   4   5
HETATM    5  C   UNL     1     -10.209  14.893  65.685  1.00  0.00    -0.358 C  
BRANCH   5   6
HETATM    6  C   UNL     1      -9.928  13.787  66.705  1.00  0.00    -0.279 C  
BRANCH   6   7
HETATM    7  N   UNL     1      -8.957  12.812  66.246  1.00  0.00    -0.437 N  
HETATM    8  C   UNL     1      -8.671  11.685  66.992  1.00  0.00    -0.173 C  
HETATM    9  H   UNL     1      -8.478  12.960  65.359  1.00  0.00     0.000 HD 
HETATM   10  O   UNL     1      -9.181  11.451  68.081  1.00  0.00    -0.164 OA 
BRANCH   8  11
HETATM   11  C   UNL     1      -7.667  10.760  66.430  1.00  0.00    -0.145 A  
HETATM   12  C   UNL     1      -8.013   9.594  65.747  1.00  0.00    -0.109 A  
HETATM   13  C   UNL     1      -7.002   8.762  65.269  1.00  0.00    -0.076 A  
HETATM   14  C   UNL     1      -5.684   9.130  65.492  1.00  0.00    -0.053 A  
HETATM   15  N   UNL     1      -5.318  10.251  66.150  1.00  0.00    -0.051 NA 
HETATM   16  C   UNL     1      -6.319  11.039  66.617  1.00  0.00    -0.124 A  
ENDBRANCH   8  11
ENDBRANCH   6   7
ENDBRANCH   5   6
ENDBRANCH   4   5
TORSDOF 4
ENDMDL
MODEL      181
REMARK 921   NORMALIZED FREE ENERGY PREDICTED BY IDOCK:   -3.25 KCAL/MOL
REMARK 922        TOTAL FREE ENERGY PREDICTED BY IDOCK:   -4.24 KCAL/MOL
REMARK 923 INTER-LIGAND FREE ENERGY PREDICTED BY IDOCK:   -4.04 KCAL/MOL
REMARK 924 INTRA-LIGAND FREE ENERGY PREDICTED BY IDOCK:   -0.20 KCAL/MOL
REMARK 927      BINDING AFFINITY PREDICTED BY RF-SCORE:    0.00 PKD
ROOT
HETATM    1  O   UNL     1      -5.607   6.896  66.606  1.00  0.00    -0.017 OA 
HETATM    2  N   UNL     1      -6.104   7.202  65.523  1.00  0.00    -0.036 N  
HETATM    3  O   UNL     1      -5.774   6.874  64.382  1.00  0.00    -0.031 OA 
HETATM    4  O   UNL     1      -7.199   8.089  65.657  1.00  0.00    -0.068 OA 
ENDROOT
BRANCH   4   5
HETATM    5  C   UNL     1      -7.802   8.393  64.402  1.00  0.00    -0.141 C  
BRANCH   5   6
HETATM    6  C   UNL     1      -7.545   9.869  64.091  1.00  0.00    -0.139 C  
BRANCH   6   7
HETATM    7  N   UNL     1      -8.603  10.749  64.550  1.00  0.00    -0.339 N  
HETATM    8  C   UNL     1      -9.749  10.937  63.803  1.00  0.00    -0.307 C  
HETATM    9  H   UNL     1      -8.498  11.238  65.439  1.00  0.00     0.000 HD 
HETATM   10  O   UNL     1      -9.937  10.411  62.713  1.00  0.00    -0.205 OA 
BRANCH   8  11
HETATM   11  C   UNL     1     -10.760  11.855  64.366  1.00  0.00    -0.373 A  
HETATM   12  C   UNL     1     -11.108  11.857  65.718  1.00  0.00    -0.367 A  
HETATM   13  C   UNL     1     -12.091  12.740  66.163  1.00  0.00    -0.429 A  
HETATM   14  C   UNL     1     -12.686  13.586  65.240  1.00  0.00    -0.427 A  
HETATM   15  N   UNL     1     -12.370  13.606  63.927  1.00  0.00    -0.696 NA 
HETATM   16  C   UNL     1     -11.420  12.730  63.514  1.00  0.00    -0.459 A  
ENDBRANCH   8  11
ENDBRANCH   6   7
ENDBRANCH   5   6
ENDBRANCH   4   5
TORSDOF 4
ENDMDL
MODEL      182
REMARK 921   NORMALIZED FREE ENERGY PREDICTED BY IDOCK:   -3.24 KCAL/MOL
REMARK 922        TOTAL FREE ENERGY PREDICTED BY IDOCK:   -4.23 KCAL/MOL
REMARK 923 INTER-LIGAND FREE ENERGY PREDICTED BY IDOCK:   -4.25 KCAL/MOL
REMARK 924 INTRA-LIGAND FREE ENERGY PREDICTED BY IDOCK:    0.02 KCAL/MOL
REMARK 927      BINDING AFFINITY PREDICTED BY RF-SCORE:    0.00 PKD
ROOT
HETATM    1  O   UNL     1      -7.133   9.792  71.148  1.00  0.00    -0.332 OA 
HETATM    2  N   UNL     1      -8.166   9.487  70.552  1.00  0.00    -0.188 N  
HETATM    3  O   UNL     1      -9.030   8.658  70.842  1.00  0.00    -0.154 OA 
HETATM    4  O   UNL     1      -8.328  10.203  69.342  1.00  0.00    -0.143 OA 
ENDROOT
BRANCH   4   5
HETATM    5  C   UNL     1      -9.552   9.884  68.687  1.00  0.00    -0.156 C  
BRANCH   5   6
HETATM    6  C   UNL     1     -10.609  10.904  69.117  1.00  0.00    -0.220 C  
BRANCH   6   7
HETATM    7  N   UNL     1     -10.724  12.033  68.213  1.00  0.00    -0.215 N  
HETATM    8  C   UNL     1     -11.271  11.886  66.954  1.00  0.00    -0.325 C  
HETATM    9  H   UNL     1     -10.395  12.950  68.513  1.00  0.00     0.000 HD 
HETATM   10  O   UNL     1     -11.660  10.813  66.510  1.00  0.00    -0.033 OA 
BRANCH   8  11
HETATM   11  C   UNL     1     -11.338  13.102  66.119  1.00  0.00    -0.343 A  
HETATM   12  C   UNL     1     -10.265  13.984  65.980  1.00  0.00    -0.313 A  
HETATM   13  C   UNL     1     -10.420  15.122  65.192  1.00  0.00    -0.437 A  
HETATM   14  C   UNL     1     -11.643  15.335  64.572  1.00  0.00    -0.312 A  
HETATM   15  N   UNL     1     -12.698  14.500  64.688  1.00  0.00    -0.598 NA 
HETATM   16  C   UNL     1     -12.528  13.405  65.471  1.00  0.00    -0.483 A  
ENDBRANCH   8  11
ENDBRANCH   6   7
ENDBRANCH   5   6
ENDBRANCH   4   5
TORSDOF 4
ENDMDL
MODEL      183
REMARK 921   NORMALIZED FREE ENERGY PREDICTED BY IDOCK:   -3.24 KCAL/MOL
REMARK 922        TOTAL FREE ENERGY PREDICTED BY IDOCK:   -4.23 KCAL/MOL
REMARK 923 INTER-LIGAND FREE ENERGY PREDICTED BY IDOCK:   -3.89 KCAL/MOL
REMARK 924 INTRA-LIGAND FREE ENERGY PREDICTED BY IDOCK:   -0.34 KCAL/MOL
REMARK 927      BINDING AFFINITY PREDICTED BY RF-SCORE:    0.00 PKD
ROOT
HETATM    1  O   UNL     1     -12.267  14.110  69.783  1.00  0.00    -0.326 OA 
HETATM    2  N   UNL     1     -11.759  13.436  68.889  1.00  0.00    -0.307 N  
HETATM    3  O   UNL     1     -12.120  12.359  68.409  1.00  0.00    -0.278 OA 
HETATM    4  O   UNL     1     -10.566  14.008  68.385  1.00  0.00    -0.240 OA 
ENDROOT
BRANCH   4   5
HETATM    5  C   UNL     1     -10.015  13.249  67.313  1.00  0.00    -0.231 C  
BRANCH   5   6
HETATM    6  C   UNL     1      -9.418  14.221  66.293  1.00  0.00    -0.252 C  
BRANCH   6   7
HETATM    7  N   UNL     1      -9.130  15.532  66.842  1.00  0.00    -0.224 N  
HETATM    8  C   UNL     1      -7.836  15.914  67.135  1.00  0.00    -0.214 C  
HETATM    9  H   UNL     1      -9.896  16.181  67.016  1.00  0.00     0.000 HD 
HETATM   10  O   UNL     1      -6.866  15.182  66.983  1.00  0.00    -0.230 OA 
BRANCH   8  11
HETATM   11  C   UNL     1      -7.659  17.271  67.691  1.00  0.00    -0.190 A  
HETATM   12  C   UNL     1      -8.733  18.115  67.979  1.00  0.00    -0.276 A  
HETATM   13  C   UNL     1      -8.478  19.390  68.479  1.00  0.00    -0.397 A  
HETATM   14  C   UNL     1      -7.159  19.772  68.672  1.00  0.00    -0.331 A  
HETATM   15  N   UNL     1      -6.100  18.978  68.402  1.00  0.00    -0.217 NA 
HETATM   16  C   UNL     1      -6.372  17.746  67.905  1.00  0.00    -0.176 A  
ENDBRANCH   8  11
ENDBRANCH   6   7
ENDBRANCH   5   6
ENDBRANCH   4   5
TORSDOF 4
ENDMDL
MODEL      184
REMARK 921   NORMALIZED FREE ENERGY PREDICTED BY IDOCK:   -3.22 KCAL/MOL
REMARK 922        TOTAL FREE ENERGY PREDICTED BY IDOCK:   -4.20 KCAL/MOL
REMARK 923 INTER-LIGAND FREE ENERGY PREDICTED BY IDOCK:   -4.03 KCAL/MOL
REMARK 924 INTRA-LIGAND FREE ENERGY PREDICTED BY IDOCK:   -0.17 KCAL/MOL
REMARK 927      BINDING AFFINITY PREDICTED BY RF-SCORE:    0.00 PKD
ROOT
HETATM    1  O   UNL     1     -12.725  14.149  63.243  1.00  0.00    -0.714 OA 
HETATM    2  N   UNL     1     -12.515  13.327  64.134  1.00  0.00    -0.303 N  
HETATM    3  O   UNL     1     -13.058  12.243  64.353  1.00  0.00    -0.780 OA 
HETATM    4  O   UNL     1     -11.508  13.748  65.037  1.00  0.00    -0.315 OA 
ENDROOT
BRANCH   4   5
HETATM    5  C   UNL     1     -11.234  12.766  66.032  1.00  0.00    -0.299 C  
BRANCH   5   6
HETATM    6  C   UNL     1     -10.012  11.959  65.588  1.00  0.00    -0.241 C  
BRANCH   6   7
HETATM    7  N   UNL     1      -9.933  10.646  66.201  1.00  0.00    -0.220 N  
HETATM    8  C   UNL     1      -9.074   9.682  65.712  1.00  0.00    -0.185 C  
HETATM    9  H   UNL     1     -10.521  10.433  67.005  1.00  0.00     0.000 HD 
HETATM   10  O   UNL     1      -8.359   9.851  64.733  1.00  0.00    -0.142 OA 
BRANCH   8  11
HETATM   11  C   UNL     1      -9.076   8.382  66.413  1.00  0.00    -0.231 A  
HETATM   12  C   UNL     1      -8.804   7.175  65.767  1.00  0.00    -0.090 A  
HETATM   13  C   UNL     1      -8.850   5.989  66.498  1.00  0.00    -0.131 A  
HETATM   14  C   UNL     1      -9.168   6.057  67.846  1.00  0.00    -0.111 A  
HETATM   15  N   UNL     1      -9.436   7.208  68.498  1.00  0.00    -0.139 NA 
HETATM   16  C   UNL     1      -9.397   8.349  67.764  1.00  0.00    -0.134 A  
ENDBRANCH   8  11
ENDBRANCH   6   7
ENDBRANCH   5   6
ENDBRANCH   4   5
TORSDOF 4
ENDMDL
MODEL      185
REMARK 921   NORMALIZED FREE ENERGY PREDICTED BY IDOCK:   -3.19 KCAL/MOL
REMARK 922        TOTAL FREE ENERGY PREDICTED BY IDOCK:   -4.17 KCAL/MOL
REMARK 923 INTER-LIGAND FREE ENERGY PREDICTED BY IDOCK:   -3.88 KCAL/MOL
REMARK 924 INTRA-LIGAND FREE ENERGY PREDICTED BY IDOCK:   -0.29 KCAL/MOL
REMARK 927      BINDING AFFINITY PREDICTED BY RF-SCORE:    0.00 PKD
ROOT
HETATM    1  O   UNL     1     -14.301   7.459  71.423  1.00  0.00    -0.445 OA 
HETATM    2  N   UNL     1     -13.536   8.364  71.756  1.00  0.00    -0.354 N  
HETATM    3  O   UNL     1     -13.745   9.357  72.456  1.00  0.00    -0.448 OA 
HETATM    4  O   UNL     1     -12.240   8.213  71.207  1.00  0.00    -0.300 OA 
ENDROOT
BRANCH   4   5
HETATM    5  C   UNL     1     -11.348   9.234  71.643  1.00  0.00    -0.397 C  
BRANCH   5   6
HETATM    6  C   UNL     1      -9.994   9.011  70.965  1.00  0.00    -0.279 C  
BRANCH   6   7
HETATM    7  N   UNL     1      -9.950   7.820  70.138  1.00  0.00    -0.185 N  
HETATM    8  C   UNL     1      -9.818   7.908  68.767  1.00  0.00    -0.167 C  
HETATM    9  H   UNL     1     -10.019   6.902  70.578  1.00  0.00     0.000 HD 
HETATM   10  O   UNL     1      -9.761   8.971  68.162  1.00  0.00    -0.146 OA 
BRANCH   8  11
HETATM   11  C   UNL     1      -9.786   6.632  68.025  1.00  0.00    -0.126 A  
HETATM   12  C   UNL     1      -8.774   5.685  68.193  1.00  0.00    -0.102 A  
HETATM   13  C   UNL     1      -8.805   4.517  67.435  1.00  0.00    -0.113 A  
HETATM   14  C   UNL     1      -9.847   4.339  66.537  1.00  0.00    -0.219 A  
HETATM   15  N   UNL     1     -10.840   5.237  66.352  1.00  0.00    -0.238 NA 
HETATM   16  C   UNL     1     -10.782   6.372  67.092  1.00  0.00    -0.361 A  
ENDBRANCH   8  11
ENDBRANCH   6   7
ENDBRANCH   5   6
ENDBRANCH   4   5
TORSDOF 4
ENDMDL
MODEL      186
REMARK 921   NORMALIZED FREE ENERGY PREDICTED BY IDOCK:   -3.19 KCAL/MOL
REMARK 922        TOTAL FREE ENERGY PREDICTED BY IDOCK:   -4.16 KCAL/MOL
REMARK 923 INTER-LIGAND FREE ENERGY PREDICTED BY IDOCK:   -3.96 KCAL/MOL
REMARK 924 INTRA-LIGAND FREE ENERGY PREDICTED BY IDOCK:   -0.20 KCAL/MOL
REMARK 927      BINDING AFFINITY PREDICTED BY RF-SCORE:    0.00 PKD
ROOT
HETATM    1  O   UNL     1     -12.740  13.788  63.225  1.00  0.00    -0.783 OA 
HETATM    2  N   UNL     1     -11.842  13.487  64.010  1.00  0.00    -0.432 N  
HETATM    3  O   UNL     1     -10.701  13.077  63.787  1.00  0.00    -0.357 OA 
HETATM    4  O   UNL     1     -12.234  13.621  65.364  1.00  0.00    -0.390 OA 
ENDROOT
BRANCH   4   5
HETATM    5  C   UNL     1     -11.171  13.324  66.265  1.00  0.00    -0.299 C  
BRANCH   5   6
HETATM    6  C   UNL     1     -11.514  12.027  67.001  1.00  0.00    -0.338 C  
BRANCH   6   7
HETATM    7  N   UNL     1     -10.372  11.154  67.197  1.00  0.00    -0.204 N  
HETATM    8  C   UNL     1      -9.889  10.370  66.168  1.00  0.00    -0.222 C  
HETATM    9  H   UNL     1      -9.919  11.119  68.110  1.00  0.00     0.000 HD 
HETATM   10  O   UNL     1     -10.395  10.334  65.054  1.00  0.00    -0.288 OA 
BRANCH   8  11
HETATM   11  C   UNL     1      -8.723   9.520  66.480  1.00  0.00    -0.147 A  
HETATM   12  C   UNL     1      -8.837   8.160  66.775  1.00  0.00    -0.156 A  
HETATM   13  C   UNL     1      -7.687   7.435  67.082  1.00  0.00    -0.115 A  
HETATM   14  C   UNL     1      -6.468   8.096  67.082  1.00  0.00    -0.057 A  
HETATM   15  N   UNL     1      -6.327   9.410  66.801  1.00  0.00    -0.065 NA 
HETATM   16  C   UNL     1      -7.461  10.098  66.517  1.00  0.00    -0.109 A  
ENDBRANCH   8  11
ENDBRANCH   6   7
ENDBRANCH   5   6
ENDBRANCH   4   5
TORSDOF 4
ENDMDL
MODEL      187
REMARK 921   NORMALIZED FREE ENERGY PREDICTED BY IDOCK:   -3.16 KCAL/MOL
REMARK 922        TOTAL FREE ENERGY PREDICTED BY IDOCK:   -4.13 KCAL/MOL
REMARK 923 INTER-LIGAND FREE ENERGY PREDICTED BY IDOCK:   -3.83 KCAL/MOL
REMARK 924 INTRA-LIGAND FREE ENERGY PREDICTED BY IDOCK:   -0.30 KCAL/MOL
REMARK 927      BINDING AFFINITY PREDICTED BY RF-SCORE:    0.00 PKD
ROOT
HETATM    1  O   UNL     1      -5.535   7.717  67.786  1.00  0.00    -0.030 OA 
HETATM    2  N   UNL     1      -6.582   8.363  67.803  1.00  0.00    -0.060 N  
HETATM    3  O   UNL     1      -6.759   9.577  67.917  1.00  0.00    -0.065 OA 
HETATM    4  O   UNL     1      -7.731   7.542  67.702  1.00  0.00    -0.110 OA 
ENDROOT
BRANCH   4   5
HETATM    5  C   UNL     1      -8.935   8.302  67.667  1.00  0.00    -0.135 C  
BRANCH   5   6
HETATM    6  C   UNL     1      -9.497   8.247  66.245  1.00  0.00    -0.203 C  
BRANCH   6   7
HETATM    7  N   UNL     1     -10.235   9.438  65.869  1.00  0.00    -0.283 N  
HETATM    8  C   UNL     1      -9.633  10.456  65.157  1.00  0.00    -0.271 C  
HETATM    9  H   UNL     1     -11.216   9.524  66.135  1.00  0.00     0.000 HD 
HETATM   10  O   UNL     1      -8.454  10.441  64.828  1.00  0.00    -0.171 OA 
BRANCH   8  11
HETATM   11  C   UNL     1     -10.479  11.621  64.829  1.00  0.00    -0.346 A  
HETATM   12  C   UNL     1     -11.400  11.614  63.780  1.00  0.00    -0.482 A  
HETATM   13  C   UNL     1     -12.142  12.765  63.522  1.00  0.00    -0.642 A  
HETATM   14  C   UNL     1     -11.935  13.878  64.323  1.00  0.00    -0.444 A  
HETATM   15  N   UNL     1     -11.051  13.915  65.343  1.00  0.00    -0.302 NA 
HETATM   16  C   UNL     1     -10.331  12.787  65.568  1.00  0.00    -0.284 A  
ENDBRANCH   8  11
ENDBRANCH   6   7
ENDBRANCH   5   6
ENDBRANCH   4   5
TORSDOF 4
ENDMDL
MODEL      188
REMARK 921   NORMALIZED FREE ENERGY PREDICTED BY IDOCK:   -3.16 KCAL/MOL
REMARK 922        TOTAL FREE ENERGY PREDICTED BY IDOCK:   -4.13 KCAL/MOL
REMARK 923 INTER-LIGAND FREE ENERGY PREDICTED BY IDOCK:   -3.56 KCAL/MOL
REMARK 924 INTRA-LIGAND FREE ENERGY PREDICTED BY IDOCK:   -0.57 KCAL/MOL
REMARK 927      BINDING AFFINITY PREDICTED BY RF-SCORE:    0.00 PKD
ROOT
HETATM    1  O   UNL     1      -5.516  12.199  66.680  1.00  0.00    -0.324 OA 
HETATM    2  N   UNL     1      -6.361  12.217  67.575  1.00  0.00    -0.123 N  
HETATM    3  O   UNL     1      -6.514  13.018  68.499  1.00  0.00    -0.072 OA 
HETATM    4  O   UNL     1      -7.251  11.119  67.507  1.00  0.00    -0.093 OA 
ENDROOT
BRANCH   4   5
HETATM    5  C   UNL     1      -8.258  11.179  68.513  1.00  0.00    -0.149 C  
BRANCH   5   6
HETATM    6  C   UNL     1      -9.534  11.741  67.883  1.00  0.00    -0.191 C  
BRANCH   6   7
HETATM    7  N   UNL     1      -9.607  13.189  67.919  1.00  0.00    -0.211 N  
HETATM    8  C   UNL     1      -9.620  13.932  66.755  1.00  0.00    -0.283 C  
HETATM    9  H   UNL     1      -9.649  13.667  68.819  1.00  0.00     0.000 HD 
HETATM   10  O   UNL     1      -9.542  13.435  65.638  1.00  0.00    -0.138 OA 
BRANCH   8  11
HETATM   11  C   UNL     1      -9.696  15.399  66.909  1.00  0.00    -0.241 A  
HETATM   12  C   UNL     1      -9.317  16.055  68.081  1.00  0.00    -0.200 A  
HETATM   13  C   UNL     1      -9.443  17.441  68.153  1.00  0.00    -0.288 A  
HETATM   14  C   UNL     1      -9.943  18.117  67.050  1.00  0.00    -0.338 A  
HETATM   15  N   UNL     1     -10.318  17.509  65.904  1.00  0.00    -0.549 NA 
HETATM   16  C   UNL     1     -10.197  16.159  65.861  1.00  0.00    -0.360 A  
ENDBRANCH   8  11
ENDBRANCH   6   7
ENDBRANCH   5   6
ENDBRANCH   4   5
TORSDOF 4
ENDMDL
MODEL      189
REMARK 921   NORMALIZED FREE ENERGY PREDICTED BY IDOCK:   -3.14 KCAL/MOL
REMARK 922        TOTAL FREE ENERGY PREDICTED BY IDOCK:   -4.10 KCAL/MOL
REMARK 923 INTER-LIGAND FREE ENERGY PREDICTED BY IDOCK:   -3.81 KCAL/MOL
REMARK 924 INTRA-LIGAND FREE ENERGY PREDICTED BY IDOCK:   -0.29 KCAL/MOL
REMARK 927      BINDING AFFINITY PREDICTED BY RF-SCORE:    0.00 PKD
ROOT
HETATM    1  O   UNL     1      -6.343   9.520  66.091  1.00  0.00    -0.066 OA 
HETATM    2  N   UNL     1      -7.269   9.870  65.361  1.00  0.00    -0.118 N  
HETATM    3  O   UNL     1      -7.277  10.094  64.149  1.00  0.00    -0.135 OA 
HETATM    4  O   UNL     1      -8.480  10.058  66.068  1.00  0.00    -0.126 OA 
ENDROOT
BRANCH   4   5
HETATM    5  C   UNL     1      -9.559  10.409  65.206  1.00  0.00    -0.259 C  
BRANCH   5   6
HETATM    6  C   UNL     1     -10.182  11.709  65.720  1.00  0.00    -0.240 C  
BRANCH   6   7
HETATM    7  N   UNL     1     -10.916  11.547  66.961  1.00  0.00    -0.279 N  
HETATM    8  C   UNL     1     -10.402  12.003  68.159  1.00  0.00    -0.198 C  
HETATM    9  H   UNL     1     -11.826  11.089  66.948  1.00  0.00     0.000 HD 
HETATM   10  O   UNL     1      -9.305  12.535  68.262  1.00  0.00    -0.205 OA 
BRANCH   8  11
HETATM   11  C   UNL     1     -11.235  11.784  69.358  1.00  0.00    -0.300 A  
HETATM   12  C   UNL     1     -11.355  10.540  69.978  1.00  0.00    -0.392 A  
HETATM   13  C   UNL     1     -12.182  10.414  71.093  1.00  0.00    -0.498 A  
HETATM   14  C   UNL     1     -12.857  11.538  71.545  1.00  0.00    -0.380 A  
HETATM   15  N   UNL     1     -12.761  12.754  70.966  1.00  0.00    -0.302 NA 
HETATM   16  C   UNL     1     -11.960  12.850  69.875  1.00  0.00    -0.307 A  
ENDBRANCH   8  11
ENDBRANCH   6   7
ENDBRANCH   5   6
ENDBRANCH   4   5
TORSDOF 4
ENDMDL
MODEL      190
REMARK 921   NORMALIZED FREE ENERGY PREDICTED BY IDOCK:   -3.13 KCAL/MOL
REMARK 922        TOTAL FREE ENERGY PREDICTED BY IDOCK:   -4.09 KCAL/MOL
REMARK 923 INTER-LIGAND FREE ENERGY PREDICTED BY IDOCK:   -4.00 KCAL/MOL
REMARK 924 INTRA-LIGAND FREE ENERGY PREDICTED BY IDOCK:   -0.09 KCAL/MOL
REMARK 927      BINDING AFFINITY PREDICTED BY RF-SCORE:    0.00 PKD
ROOT
HETATM    1  O   UNL     1      -7.301  11.768  68.203  1.00  0.00    -0.082 OA 
HETATM    2  N   UNL     1      -7.597  12.793  67.589  1.00  0.00    -0.139 N  
HETATM    3  O   UNL     1      -6.908  13.778  67.318  1.00  0.00    -0.194 OA 
HETATM    4  O   UNL     1      -8.951  12.810  67.178  1.00  0.00    -0.198 OA 
ENDROOT
BRANCH   4   5
HETATM    5  C   UNL     1      -9.270  13.974  66.421  1.00  0.00    -0.162 C  
BRANCH   5   6
HETATM    6  C   UNL     1     -10.459  14.670  67.086  1.00  0.00    -0.268 C  
BRANCH   6   7
HETATM    7  N   UNL     1     -10.920  14.003  68.289  1.00  0.00    -0.247 N  
HETATM    8  C   UNL     1     -11.803  12.943  68.224  1.00  0.00    -0.330 C  
HETATM    9  H   UNL     1     -10.587  14.322  69.198  1.00  0.00     0.000 HD 
HETATM   10  O   UNL     1     -12.273  12.522  67.174  1.00  0.00    -0.474 OA 
BRANCH   8  11
HETATM   11  C   UNL     1     -12.206  12.341  69.510  1.00  0.00    -0.153 A  
HETATM   12  C   UNL     1     -12.144  10.968  69.753  1.00  0.00    -0.424 A  
HETATM   13  C   UNL     1     -12.567  10.478  70.987  1.00  0.00    -0.499 A  
HETATM   14  C   UNL     1     -13.034  11.380  71.931  1.00  0.00    -0.361 A  
HETATM   15  N   UNL     1     -13.106  12.713  71.725  1.00  0.00    -0.404 NA 
HETATM   16  C   UNL     1     -12.701  13.165  70.512  1.00  0.00    -0.070 A  
ENDBRANCH   8  11
ENDBRANCH   6   7
ENDBRANCH   5   6
ENDBRANCH   4   5
TORSDOF 4
ENDMDL
MODEL      191
REMARK 921   NORMALIZED FREE ENERGY PREDICTED BY IDOCK:   -3.09 KCAL/MOL
REMARK 922        TOTAL FREE ENERGY PREDICTED BY IDOCK:   -4.03 KCAL/MOL
REMARK 923 INTER-LIGAND FREE ENERGY PREDICTED BY IDOCK:   -3.66 KCAL/MOL
REMARK 924 INTRA-LIGAND FREE ENERGY PREDICTED BY IDOCK:   -0.38 KCAL/MOL
REMARK 927      BINDING AFFINITY PREDICTED BY RF-SCORE:    0.00 PKD
ROOT
HETATM    1  O   UNL     1      -8.641   5.945  68.219  1.00  0.00    -0.114 OA 
HETATM    2  N   UNL     1      -8.038   6.689  68.991  1.00  0.00    -0.115 N  
HETATM    3  O   UNL     1      -7.633   6.479  70.136  1.00  0.00    -0.092 OA 
HETATM    4  O   UNL     1      -7.826   7.980  68.450  1.00  0.00    -0.117 OA 
ENDROOT
BRANCH   4   5
HETATM    5  C   UNL     1      -7.079   8.816  69.330  1.00  0.00    -0.062 C  
BRANCH   5   6
HETATM    6  C   UNL     1      -8.034   9.842  69.945  1.00  0.00    -0.175 C  
BRANCH   6   7
HETATM    7  N   UNL     1      -9.252   9.255  70.470  1.00  0.00    -0.243 N  
HETATM    8  C   UNL     1     -10.491   9.773  70.146  1.00  0.00    -0.286 C  
HETATM    9  H   UNL     1      -9.193   8.447  71.088  1.00  0.00     0.000 HD 
HETATM   10  O   UNL     1     -10.644  10.758  69.436  1.00  0.00    -0.219 OA 
BRANCH   8  11
HETATM   11  C   UNL     1     -11.663   9.097  70.738  1.00  0.00    -0.308 A  
HETATM   12  C   UNL     1     -12.711   9.793  71.343  1.00  0.00    -0.483 A  
HETATM   13  C   UNL     1     -13.769   9.077  71.899  1.00  0.00    -0.495 A  
HETATM   14  C   UNL     1     -13.738   7.692  71.828  1.00  0.00    -0.330 A  
HETATM   15  N   UNL     1     -12.738   6.991  71.251  1.00  0.00    -0.379 NA 
HETATM   16  C   UNL     1     -11.713   7.710  70.727  1.00  0.00    -0.239 A  
ENDBRANCH   8  11
ENDBRANCH   6   7
ENDBRANCH   5   6
ENDBRANCH   4   5
TORSDOF 4
ENDMDL
MODEL      192
REMARK 921   NORMALIZED FREE ENERGY PREDICTED BY IDOCK:   -3.05 KCAL/MOL
REMARK 922        TOTAL FREE ENERGY PREDICTED BY IDOCK:   -3.99 KCAL/MOL
REMARK 923 INTER-LIGAND FREE ENERGY PREDICTED BY IDOCK:   -3.80 KCAL/MOL
REMARK 924 INTRA-LIGAND FREE ENERGY PREDICTED BY IDOCK:   -0.19 KCAL/MOL
REMARK 927      BINDING AFFINITY PREDICTED BY RF-SCORE:    0.00 PKD
ROOT
HETATM    1  O   UNL     1     -11.485  12.057  66.748  1.00  0.00    -0.337 OA 
HETATM    2  N   UNL     1     -11.231  13.235  66.993  1.00  0.00    -0.283 N  
HETATM    3  O   UNL     1     -11.979  14.146  67.354  1.00  0.00    -0.395 OA 
HETATM    4  O   UNL     1      -9.866  13.553  66.789  1.00  0.00    -0.251 OA 
ENDROOT
BRANCH   4   5
HETATM    5  C   UNL     1      -9.571  14.904  67.128  1.00  0.00    -0.225 C  
BRANCH   5   6
HETATM    6  C   UNL     1      -8.070  15.014  67.405  1.00  0.00    -0.193 C  
BRANCH   6   7
HETATM    7  N   UNL     1      -7.664  16.322  67.881  1.00  0.00    -0.138 N  
HETATM    8  C   UNL     1      -6.463  16.882  67.493  1.00  0.00    -0.146 C  
HETATM    9  H   UNL     1      -8.276  16.838  68.513  1.00  0.00     0.000 HD 
HETATM   10  O   UNL     1      -5.660  16.314  66.762  1.00  0.00    -0.335 OA 
BRANCH   8  11
HETATM   11  C   UNL     1      -6.151  18.218  68.039  1.00  0.00    -0.173 A  
HETATM   12  C   UNL     1      -5.742  19.285  67.237  1.00  0.00    -0.171 A  
HETATM   13  C   UNL     1      -5.443  20.507  67.836  1.00  0.00    -0.249 A  
HETATM   14  C   UNL     1      -5.565  20.615  69.213  1.00  0.00    -0.370 A  
HETATM   15  N   UNL     1      -5.958  19.601  70.014  1.00  0.00    -0.273 NA 
HETATM   16  C   UNL     1      -6.232  18.418  69.411  1.00  0.00    -0.259 A  
ENDBRANCH   8  11
ENDBRANCH   6   7
ENDBRANCH   5   6
ENDBRANCH   4   5
TORSDOF 4
ENDMDL
MODEL      193
REMARK 921   NORMALIZED FREE ENERGY PREDICTED BY IDOCK:   -3.04 KCAL/MOL
REMARK 922        TOTAL FREE ENERGY PREDICTED BY IDOCK:   -3.97 KCAL/MOL
REMARK 923 INTER-LIGAND FREE ENERGY PREDICTED BY IDOCK:   -3.57 KCAL/MOL
REMARK 924 INTRA-LIGAND FREE ENERGY PREDICTED BY IDOCK:   -0.41 KCAL/MOL
REMARK 927      BINDING AFFINITY PREDICTED BY RF-SCORE:    0.00 PKD
ROOT
HETATM    1  O   UNL     1      -8.466   4.866  67.309  1.00  0.00    -0.106 OA 
HETATM    2  N   UNL     1      -8.396   6.091  67.212  1.00  0.00    -0.106 N  
HETATM    3  O   UNL     1      -7.680   6.891  67.817  1.00  0.00    -0.107 OA 
HETATM    4  O   UNL     1      -9.316   6.617  66.274  1.00  0.00    -0.162 OA 
ENDROOT
BRANCH   4   5
HETATM    5  C   UNL     1      -9.190   8.029  66.130  1.00  0.00    -0.163 C  
BRANCH   5   6
HETATM    6  C   UNL     1     -10.369   8.693  66.843  1.00  0.00    -0.285 C  
BRANCH   6   7
HETATM    7  N   UNL     1     -10.670   8.105  68.134  1.00  0.00    -0.433 N  
HETATM    8  C   UNL     1     -10.326   8.746  69.308  1.00  0.00    -0.214 C  
HETATM    9  H   UNL     1     -11.143   7.203  68.175  1.00  0.00     0.000 HD 
HETATM   10  O   UNL     1      -9.731   9.815  69.342  1.00  0.00    -0.179 OA 
BRANCH   8  11
HETATM   11  C   UNL     1     -10.680   8.055  70.564  1.00  0.00    -0.231 A  
HETATM   12  C   UNL     1     -11.536   6.953  70.605  1.00  0.00    -0.402 A  
HETATM   13  C   UNL     1     -11.838   6.375  71.836  1.00  0.00    -0.380 A  
HETATM   14  C   UNL     1     -11.273   6.920  72.979  1.00  0.00    -0.184 A  
HETATM   15  N   UNL     1     -10.442   7.985  72.970  1.00  0.00    -0.333 NA 
HETATM   16  C   UNL     1     -10.172   8.539  71.762  1.00  0.00    -0.282 A  
ENDBRANCH   8  11
ENDBRANCH   6   7
ENDBRANCH   5   6
ENDBRANCH   4   5
TORSDOF 4
ENDMDL
MODEL      194
REMARK 921   NORMALIZED FREE ENERGY PREDICTED BY IDOCK:   -3.01 KCAL/MOL
REMARK 922        TOTAL FREE ENERGY PREDICTED BY IDOCK:   -3.94 KCAL/MOL
REMARK 923 INTER-LIGAND FREE ENERGY PREDICTED BY IDOCK:   -3.73 KCAL/MOL
REMARK 924 INTRA-LIGAND FREE ENERGY PREDICTED BY IDOCK:   -0.21 KCAL/MOL
REMARK 927      BINDING AFFINITY PREDICTED BY RF-SCORE:    0.00 PKD
ROOT
HETATM    1  O   UNL     1      -9.110   5.519  66.718  1.00  0.00    -0.116 OA 
HETATM    2  N   UNL     1      -8.574   6.509  66.221  1.00  0.00    -0.135 N  
HETATM    3  O   UNL     1      -7.581   6.588  65.495  1.00  0.00    -0.080 OA 
HETATM    4  O   UNL     1      -9.214   7.717  66.587  1.00  0.00    -0.153 OA 
ENDROOT
BRANCH   4   5
HETATM    5  C   UNL     1      -8.621   8.852  65.962  1.00  0.00    -0.145 C  
BRANCH   5   6
HETATM    6  C   UNL     1      -9.732   9.674  65.305  1.00  0.00    -0.260 C  
BRANCH   6   7
HETATM    7  N   UNL     1      -9.661  11.090  65.611  1.00  0.00    -0.219 N  
HETATM    8  C   UNL     1     -10.513  11.994  65.007  1.00  0.00    -0.287 C  
HETATM    9  H   UNL     1      -8.970  11.423  66.282  1.00  0.00     0.000 HD 
HETATM   10  O   UNL     1     -11.347  11.676  64.169  1.00  0.00    -0.352 OA 
BRANCH   8  11
HETATM   11  C   UNL     1     -10.352  13.410  65.393  1.00  0.00    -0.321 A  
HETATM   12  C   UNL     1     -11.010  14.451  64.736  1.00  0.00    -0.409 A  
HETATM   13  C   UNL     1     -10.783  15.763  65.148  1.00  0.00    -0.455 A  
HETATM   14  C   UNL     1      -9.907  15.983  66.201  1.00  0.00    -0.325 A  
HETATM   15  N   UNL     1      -9.256  14.996  66.854  1.00  0.00    -0.231 NA 
HETATM   16  C   UNL     1      -9.483  13.728  66.428  1.00  0.00    -0.243 A  
ENDBRANCH   8  11
ENDBRANCH   6   7
ENDBRANCH   5   6
ENDBRANCH   4   5
TORSDOF 4
ENDMDL
MODEL      195
REMARK 921   NORMALIZED FREE ENERGY PREDICTED BY IDOCK:   -3.00 KCAL/MOL
REMARK 922        TOTAL FREE ENERGY PREDICTED BY IDOCK:   -3.93 KCAL/MOL
REMARK 923 INTER-LIGAND FREE ENERGY PREDICTED BY IDOCK:   -3.35 KCAL/MOL
REMARK 924 INTRA-LIGAND FREE ENERGY PREDICTED BY IDOCK:   -0.59 KCAL/MOL
REMARK 927      BINDING AFFINITY PREDICTED BY RF-SCORE:    0.00 PKD
ROOT
HETATM    1  O   UNL     1     -11.948  14.829  67.560  1.00  0.00    -0.352 OA 
HETATM    2  N   UNL     1     -11.435  15.652  68.318  1.00  0.00    -0.362 N  
HETATM    3  O   UNL     1     -11.261  15.602  69.538  1.00  0.00    -0.266 OA 
HETATM    4  O   UNL     1     -11.024  16.829  67.648  1.00  0.00    -0.290 OA 
ENDROOT
BRANCH   4   5
HETATM    5  C   UNL     1     -10.382  17.751  68.524  1.00  0.00    -0.364 C  
BRANCH   5   6
HETATM    6  C   UNL     1      -8.880  17.728  68.231  1.00  0.00    -0.277 C  
BRANCH   6   7
HETATM    7  N   UNL     1      -8.180  16.639  68.885  1.00  0.00    -0.242 N  
HETATM    8  C   UNL     1      -7.885  15.472  68.209  1.00  0.00    -0.127 C  
HETATM    9  H   UNL     1      -7.901  16.738  69.861  1.00  0.00     0.000 HD 
HETATM   10  O   UNL     1      -8.212  15.266  67.047  1.00  0.00    -0.202 OA 
BRANCH   8  11
HETATM   11  C   UNL     1      -7.170  14.431  68.973  1.00  0.00    -0.129 A  
HETATM   12  C   UNL     1      -6.422  14.713  70.117  1.00  0.00    -0.166 A  
HETATM   13  C   UNL     1      -5.757  13.674  70.766  1.00  0.00    -0.197 A  
HETATM   14  C   UNL     1      -5.866  12.393  70.245  1.00  0.00    -0.163 A  
HETATM   15  N   UNL     1      -6.581  12.090  69.141  1.00  0.00    -0.100 NA 
HETATM   16  C   UNL     1      -7.209  13.119  68.519  1.00  0.00    -0.110 A  
ENDBRANCH   8  11
ENDBRANCH   6   7
ENDBRANCH   5   6
ENDBRANCH   4   5
TORSDOF 4
ENDMDL
MODEL      196
REMARK 921   NORMALIZED FREE ENERGY PREDICTED BY IDOCK:   -2.98 KCAL/MOL
REMARK 922        TOTAL FREE ENERGY PREDICTED BY IDOCK:   -3.90 KCAL/MOL
REMARK 923 INTER-LIGAND FREE ENERGY PREDICTED BY IDOCK:   -3.59 KCAL/MOL
REMARK 924 INTRA-LIGAND FREE ENERGY PREDICTED BY IDOCK:   -0.31 KCAL/MOL
REMARK 927      BINDING AFFINITY PREDICTED BY RF-SCORE:    0.00 PKD
ROOT
HETATM    1  O   UNL     1     -10.395   5.016  70.962  1.00  0.00    -0.223 OA 
HETATM    2  N   UNL     1     -11.218   5.585  71.679  1.00  0.00    -0.135 N  
HETATM    3  O   UNL     1     -11.451   5.443  72.881  1.00  0.00    -0.309 OA 
HETATM    4  O   UNL     1     -12.013   6.515  70.965  1.00  0.00    -0.361 OA 
ENDROOT
BRANCH   4   5
HETATM    5  C   UNL     1     -12.924   7.207  71.814  1.00  0.00    -0.325 C  
BRANCH   5   6
HETATM    6  C   UNL     1     -12.459   8.661  71.933  1.00  0.00    -0.357 C  
BRANCH   6   7
HETATM    7  N   UNL     1     -11.701   9.121  70.786  1.00  0.00    -0.344 N  
HETATM    8  C   UNL     1     -10.330   9.273  70.851  1.00  0.00    -0.296 C  
HETATM    9  H   UNL     1     -12.188   9.337  69.917  1.00  0.00     0.000 HD 
HETATM   10  O   UNL     1      -9.677   9.064  71.866  1.00  0.00    -0.299 OA 
BRANCH   8  11
HETATM   11  C   UNL     1      -9.660   9.749  69.624  1.00  0.00    -0.239 A  
HETATM   12  C   UNL     1     -10.304  10.536  68.669  1.00  0.00    -0.201 A  
HETATM   13  C   UNL     1      -9.607  10.922  67.526  1.00  0.00    -0.171 A  
HETATM   14  C   UNL     1      -8.292  10.506  67.383  1.00  0.00    -0.121 A  
HETATM   15  N   UNL     1      -7.643   9.744  68.289  1.00  0.00    -0.081 NA 
HETATM   16  C   UNL     1      -8.346   9.370  69.387  1.00  0.00    -0.125 A  
ENDBRANCH   8  11
ENDBRANCH   6   7
ENDBRANCH   5   6
ENDBRANCH   4   5
TORSDOF 4
ENDMDL
MODEL      197
REMARK 921   NORMALIZED FREE ENERGY PREDICTED BY IDOCK:   -2.96 KCAL/MOL
REMARK 922        TOTAL FREE ENERGY PREDICTED BY IDOCK:   -3.88 KCAL/MOL
REMARK 923 INTER-LIGAND FREE ENERGY PREDICTED BY IDOCK:   -3.56 KCAL/MOL
REMARK 924 INTRA-LIGAND FREE ENERGY PREDICTED BY IDOCK:   -0.32 KCAL/MOL
REMARK 927      BINDING AFFINITY PREDICTED BY RF-SCORE:    0.00 PKD
ROOT
HETATM    1  O   UNL     1     -10.987   4.522  65.439  1.00  0.00    -0.256 OA 
HETATM    2  N   UNL     1      -9.928   4.341  66.039  1.00  0.00    -0.225 N  
HETATM    3  O   UNL     1      -8.836   3.956  65.616  1.00  0.00    -0.117 OA 
HETATM    4  O   UNL     1     -10.036   4.600  67.427  1.00  0.00    -0.164 OA 
ENDROOT
BRANCH   4   5
HETATM    5  C   UNL     1      -8.793   4.441  68.103  1.00  0.00    -0.109 C  
BRANCH   5   6
HETATM    6  C   UNL     1      -8.397   5.791  68.705  1.00  0.00    -0.107 C  
BRANCH   6   7
HETATM    7  N   UNL     1      -9.520   6.537  69.241  1.00  0.00    -0.140 N  
HETATM    8  C   UNL     1      -9.826   6.497  70.586  1.00  0.00    -0.183 C  
HETATM    9  H   UNL     1     -10.093   7.099  68.613  1.00  0.00     0.000 HD 
HETATM   10  O   UNL     1      -9.205   5.823  71.399  1.00  0.00    -0.142 OA 
BRANCH   8  11
HETATM   11  C   UNL     1     -10.990   7.294  71.021  1.00  0.00    -0.272 A  
HETATM   12  C   UNL     1     -12.275   6.760  71.124  1.00  0.00    -0.413 A  
HETATM   13  C   UNL     1     -13.324   7.588  71.519  1.00  0.00    -0.409 A  
HETATM   14  C   UNL     1     -13.047   8.919  71.796  1.00  0.00    -0.374 A  
HETATM   15  N   UNL     1     -11.815   9.464  71.705  1.00  0.00    -0.384 NA 
HETATM   16  C   UNL     1     -10.812   8.642  71.307  1.00  0.00    -0.260 A  
ENDBRANCH   8  11
ENDBRANCH   6   7
ENDBRANCH   5   6
ENDBRANCH   4   5
TORSDOF 4
ENDMDL
MODEL      198
REMARK 921   NORMALIZED FREE ENERGY PREDICTED BY IDOCK:   -2.96 KCAL/MOL
REMARK 922        TOTAL FREE ENERGY PREDICTED BY IDOCK:   -3.88 KCAL/MOL
REMARK 923 INTER-LIGAND FREE ENERGY PREDICTED BY IDOCK:   -3.25 KCAL/MOL
REMARK 924 INTRA-LIGAND FREE ENERGY PREDICTED BY IDOCK:   -0.63 KCAL/MOL
REMARK 927      BINDING AFFINITY PREDICTED BY RF-SCORE:    0.00 PKD
ROOT
HETATM    1  O   UNL     1     -10.552   5.094  66.031  1.00  0.00    -0.252 OA 
HETATM    2  N   UNL     1     -10.019   5.660  66.985  1.00  0.00    -0.152 N  
HETATM    3  O   UNL     1     -10.529   6.251  67.939  1.00  0.00    -0.175 OA 
HETATM    4  O   UNL     1      -8.605   5.624  66.918  1.00  0.00    -0.111 OA 
ENDROOT
BRANCH   4   5
HETATM    5  C   UNL     1      -7.997   6.233  68.054  1.00  0.00    -0.108 C  
BRANCH   5   6
HETATM    6  C   UNL     1      -7.488   7.616  67.643  1.00  0.00    -0.104 C  
BRANCH   6   7
HETATM    7  N   UNL     1      -8.510   8.644  67.683  1.00  0.00    -0.124 N  
HETATM    8  C   UNL     1      -9.039   9.170  66.521  1.00  0.00    -0.156 C  
HETATM    9  H   UNL     1      -8.843   8.985  68.584  1.00  0.00     0.000 HD 
HETATM   10  O   UNL     1      -8.670   8.836  65.402  1.00  0.00    -0.171 OA 
BRANCH   8  11
HETATM   11  C   UNL     1     -10.073  10.211  66.680  1.00  0.00    -0.283 A  
HETATM   12  C   UNL     1     -10.241  11.254  65.768  1.00  0.00    -0.301 A  
HETATM   13  C   UNL     1     -11.227  12.211  66.005  1.00  0.00    -0.382 A  
HETATM   14  C   UNL     1     -12.006  12.087  67.146  1.00  0.00    -0.030 A  
HETATM   15  N   UNL     1     -11.867  11.090  68.046  1.00  0.00    -0.613 NA 
HETATM   16  C   UNL     1     -10.893  10.177  67.800  1.00  0.00    -0.292 A  
ENDBRANCH   8  11
ENDBRANCH   6   7
ENDBRANCH   5   6
ENDBRANCH   4   5
TORSDOF 4
ENDMDL
MODEL      199
REMARK 921   NORMALIZED FREE ENERGY PREDICTED BY IDOCK:   -2.96 KCAL/MOL
REMARK 922        TOTAL FREE ENERGY PREDICTED BY IDOCK:   -3.87 KCAL/MOL
REMARK 923 INTER-LIGAND FREE ENERGY PREDICTED BY IDOCK:   -3.59 KCAL/MOL
REMARK 924 INTRA-LIGAND FREE ENERGY PREDICTED BY IDOCK:   -0.28 KCAL/MOL
REMARK 927      BINDING AFFINITY PREDICTED BY RF-SCORE:    0.00 PKD
ROOT
HETATM    1  O   UNL     1     -12.092  11.739  67.443  1.00  0.00    -0.595 OA 
HETATM    2  N   UNL     1     -11.127  11.418  66.751  1.00  0.00    -0.294 N  
HETATM    3  O   UNL     1     -10.368  12.119  66.080  1.00  0.00    -0.227 OA 
HETATM    4  O   UNL     1     -10.912  10.019  66.731  1.00  0.00    -0.104 OA 
ENDROOT
BRANCH   4   5
HETATM    5  C   UNL     1      -9.760   9.661  65.973  1.00  0.00    -0.264 C  
BRANCH   5   6
HETATM    6  C   UNL     1      -9.356   8.235  66.355  1.00  0.00    -0.213 C  
BRANCH   6   7
HETATM    7  N   UNL     1      -9.839   7.828  67.660  1.00  0.00    -0.154 N  
HETATM    8  C   UNL     1      -9.250   6.784  68.345  1.00  0.00    -0.123 C  
HETATM    9  H   UNL     1     -10.627   8.321  68.079  1.00  0.00     0.000 HD 
HETATM   10  O   UNL     1      -8.321   6.124  67.897  1.00  0.00    -0.116 OA 
BRANCH   8  11
HETATM   11  C   UNL     1      -9.823   6.454  69.665  1.00  0.00    -0.182 A  
HETATM   12  C   UNL     1     -11.162   6.685  69.986  1.00  0.00    -0.425 A  
HETATM   13  C   UNL     1     -11.617   6.367  71.265  1.00  0.00    -0.370 A  
HETATM   14  C   UNL     1     -10.715   5.832  72.172  1.00  0.00    -0.231 A  
HETATM   15  N   UNL     1      -9.415   5.599  71.891  1.00  0.00    -0.151 NA 
HETATM   16  C   UNL     1      -8.992   5.927  70.645  1.00  0.00    -0.145 A  
ENDBRANCH   8  11
ENDBRANCH   6   7
ENDBRANCH   5   6
ENDBRANCH   4   5
TORSDOF 4
ENDMDL
MODEL      200
REMARK 921   NORMALIZED FREE ENERGY PREDICTED BY IDOCK:   -2.95 KCAL/MOL
REMARK 922        TOTAL FREE ENERGY PREDICTED BY IDOCK:   -3.86 KCAL/MOL
REMARK 923 INTER-LIGAND FREE ENERGY PREDICTED BY IDOCK:   -3.63 KCAL/MOL
REMARK 924 INTRA-LIGAND FREE ENERGY PREDICTED BY IDOCK:   -0.23 KCAL/MOL
REMARK 927      BINDING AFFINITY PREDICTED BY RF-SCORE:    0.00 PKD
ROOT
HETATM    1  O   UNL     1     -11.654  16.386  69.275  1.00  0.00    -0.237 OA 
HETATM    2  N   UNL     1     -11.248  16.568  68.128  1.00  0.00    -0.307 N  
HETATM    3  O   UNL     1     -10.664  17.539  67.642  1.00  0.00    -0.362 OA 
HETATM    4  O   UNL     1     -11.545  15.485  67.265  1.00  0.00    -0.187 OA 
ENDROOT
BRANCH   4   5
HETATM    5  C   UNL     1     -11.023  15.682  65.955  1.00  0.00    -0.231 C  
BRANCH   5   6
HETATM    6  C   UNL     1      -9.748  14.847  65.814  1.00  0.00    -0.324 C  
BRANCH   6   7
HETATM    7  N   UNL     1      -8.760  15.124  66.839  1.00  0.00    -0.242 N  
HETATM    8  C   UNL     1      -7.935  16.229  66.755  1.00  0.00    -0.271 C  
HETATM    9  H   UNL     1      -8.672  14.493  67.634  1.00  0.00     0.000 HD 
HETATM   10  O   UNL     1      -7.958  17.016  65.817  1.00  0.00    -0.428 OA 
BRANCH   8  11
HETATM   11  C   UNL     1      -6.966  16.413  67.853  1.00  0.00    -0.154 A  
HETATM   12  C   UNL     1      -6.004  15.456  68.180  1.00  0.00    -0.141 A  
HETATM   13  C   UNL     1      -5.142  15.698  69.248  1.00  0.00    -0.097 A  
HETATM   14  C   UNL     1      -5.276  16.888  69.948  1.00  0.00    -0.179 A  
HETATM   15  N   UNL     1      -6.197  17.831  69.656  1.00  0.00    -0.241 NA 
HETATM   16  C   UNL     1      -7.032  17.569  68.620  1.00  0.00    -0.232 A  
ENDBRANCH   8  11
ENDBRANCH   6   7
ENDBRANCH   5   6
ENDBRANCH   4   5
TORSDOF 4
ENDMDL
MODEL      201
REMARK 921   NORMALIZED FREE ENERGY PREDICTED BY IDOCK:   -2.94 KCAL/MOL
REMARK 922        TOTAL FREE ENERGY PREDICTED BY IDOCK:   -3.85 KCAL/MOL
REMARK 923 INTER-LIGAND FREE ENERGY PREDICTED BY IDOCK:   -3.45 KCAL/MOL
REMARK 924 INTRA-LIGAND FREE ENERGY PREDICTED BY IDOCK:   -0.40 KCAL/MOL
REMARK 927      BINDING AFFINITY PREDICTED BY RF-SCORE:    0.00 PKD
ROOT
HETATM    1  O   UNL     1      -6.933  10.745  66.067  1.00  0.00    -0.131 OA 
HETATM    2  N   UNL     1      -7.862  11.282  66.669  1.00  0.00    -0.154 N  
HETATM    3  O   UNL     1      -7.838  12.097  67.593  1.00  0.00    -0.131 OA 
HETATM    4  O   UNL     1      -9.130  10.846  66.215  1.00  0.00    -0.166 OA 
ENDROOT
BRANCH   4   5
HETATM    5  C   UNL     1     -10.199  11.514  66.879  1.00  0.00    -0.217 C  
BRANCH   5   6
HETATM    6  C   UNL     1     -10.851  12.482  65.889  1.00  0.00    -0.269 C  
BRANCH   6   7
HETATM    7  N   UNL     1     -10.325  13.832  65.969  1.00  0.00    -0.301 N  
HETATM    8  C   UNL     1     -10.880  14.764  66.822  1.00  0.00    -0.316 C  
HETATM    9  H   UNL     1      -9.532  14.096  65.385  1.00  0.00     0.000 HD 
HETATM   10  O   UNL     1     -11.851  14.534  67.532  1.00  0.00    -0.378 OA 
BRANCH   8  11
HETATM   11  C   UNL     1     -10.266  16.107  66.821  1.00  0.00    -0.281 A  
HETATM   12  C   UNL     1      -9.370  16.527  65.836  1.00  0.00    -0.226 A  
HETATM   13  C   UNL     1      -8.816  17.803  65.923  1.00  0.00     0.120 A  
HETATM   14  C   UNL     1      -9.179  18.609  66.991  1.00  0.00    -0.291 A  
HETATM   15  N   UNL     1     -10.042  18.230  67.959  1.00  0.00    -0.345 NA 
HETATM   16  C   UNL     1     -10.559  16.980  67.860  1.00  0.00    -0.365 A  
ENDBRANCH   8  11
ENDBRANCH   6   7
ENDBRANCH   5   6
ENDBRANCH   4   5
TORSDOF 4
ENDMDL
MODEL      202
REMARK 921   NORMALIZED FREE ENERGY PREDICTED BY IDOCK:   -2.93 KCAL/MOL
REMARK 922        TOTAL FREE ENERGY PREDICTED BY IDOCK:   -3.84 KCAL/MOL
REMARK 923 INTER-LIGAND FREE ENERGY PREDICTED BY IDOCK:   -3.47 KCAL/MOL
REMARK 924 INTRA-LIGAND FREE ENERGY PREDICTED BY IDOCK:   -0.36 KCAL/MOL
REMARK 927      BINDING AFFINITY PREDICTED BY RF-SCORE:    0.00 PKD
ROOT
HETATM    1  O   UNL     1     -10.332   4.194  72.438  1.00  0.00    -0.178 OA 
HETATM    2  N   UNL     1     -10.419   5.392  72.707  1.00  0.00    -0.201 N  
HETATM    3  O   UNL     1      -9.610   6.138  73.262  1.00  0.00    -0.145 OA 
HETATM    4  O   UNL     1     -11.665   5.947  72.327  1.00  0.00    -0.307 OA 
ENDROOT
BRANCH   4   5
HETATM    5  C   UNL     1     -11.735   7.345  72.591  1.00  0.00    -0.195 C  
BRANCH   5   6
HETATM    6  C   UNL     1     -11.836   8.083  71.255  1.00  0.00    -0.294 C  
BRANCH   6   7
HETATM    7  N   UNL     1     -11.550   7.243  70.107  1.00  0.00    -0.499 N  
HETATM    8  C   UNL     1     -10.266   7.126  69.612  1.00  0.00    -0.208 C  
HETATM    9  H   UNL     1     -12.309   6.731  69.660  1.00  0.00     0.000 HD 
HETATM   10  O   UNL     1      -9.308   7.731  70.074  1.00  0.00    -0.157 OA 
BRANCH   8  11
HETATM   11  C   UNL     1     -10.090   6.244  68.440  1.00  0.00    -0.179 A  
HETATM   12  C   UNL     1     -10.989   6.218  67.373  1.00  0.00    -0.447 A  
HETATM   13  C   UNL     1     -10.762   5.337  66.317  1.00  0.00    -0.260 A  
HETATM   14  C   UNL     1      -9.645   4.518  66.369  1.00  0.00    -0.189 A  
HETATM   15  N   UNL     1      -8.759   4.520  67.388  1.00  0.00    -0.104 NA 
HETATM   16  C   UNL     1      -9.007   5.376  68.410  1.00  0.00    -0.108 A  
ENDBRANCH   8  11
ENDBRANCH   6   7
ENDBRANCH   5   6
ENDBRANCH   4   5
TORSDOF 4
ENDMDL
MODEL      203
REMARK 921   NORMALIZED FREE ENERGY PREDICTED BY IDOCK:   -2.92 KCAL/MOL
REMARK 922        TOTAL FREE ENERGY PREDICTED BY IDOCK:   -3.83 KCAL/MOL
REMARK 923 INTER-LIGAND FREE ENERGY PREDICTED BY IDOCK:   -3.64 KCAL/MOL
REMARK 924 INTRA-LIGAND FREE ENERGY PREDICTED BY IDOCK:   -0.19 KCAL/MOL
REMARK 927      BINDING AFFINITY PREDICTED BY RF-SCORE:    0.00 PKD
ROOT
HETATM    1  O   UNL     1     -12.572  13.246  63.548  1.00  0.00    -0.728 OA 
HETATM    2  N   UNL     1     -11.606  12.915  64.233  1.00  0.00    -0.354 N  
HETATM    3  O   UNL     1     -10.400  13.032  64.006  1.00  0.00    -0.419 OA 
HETATM    4  O   UNL     1     -11.985  12.285  65.442  1.00  0.00    -0.404 OA 
ENDROOT
BRANCH   4   5
HETATM    5  C   UNL     1     -10.861  11.956  66.254  1.00  0.00    -0.282 C  
BRANCH   5   6
HETATM    6  C   UNL     1     -11.374  11.436  67.598  1.00  0.00    -0.290 C  
BRANCH   6   7
HETATM    7  N   UNL     1     -10.406  10.628  68.314  1.00  0.00    -0.169 N  
HETATM    8  C   UNL     1     -10.255   9.283  68.038  1.00  0.00    -0.209 C  
HETATM    9  H   UNL     1      -9.826  11.060  69.033  1.00  0.00     0.000 HD 
HETATM   10  O   UNL     1     -10.933   8.685  67.213  1.00  0.00    -0.114 OA 
BRANCH   8  11
HETATM   11  C   UNL     1      -9.240   8.558  68.828  1.00  0.00    -0.142 A  
HETATM   12  C   UNL     1      -9.568   7.731  69.903  1.00  0.00    -0.164 A  
HETATM   13  C   UNL     1      -8.546   7.102  70.611  1.00  0.00    -0.143 A  
HETATM   14  C   UNL     1      -7.235   7.325  70.217  1.00  0.00    -0.067 A  
HETATM   15  N   UNL     1      -6.887   8.120  69.182  1.00  0.00    -0.054 NA 
HETATM   16  C   UNL     1      -7.898   8.731  68.515  1.00  0.00    -0.104 A  
ENDBRANCH   8  11
ENDBRANCH   6   7
ENDBRANCH   5   6
ENDBRANCH   4   5
TORSDOF 4
ENDMDL
MODEL      204
REMARK 921   NORMALIZED FREE ENERGY PREDICTED BY IDOCK:   -2.92 KCAL/MOL
REMARK 922        TOTAL FREE ENERGY PREDICTED BY IDOCK:   -3.83 KCAL/MOL
REMARK 923 INTER-LIGAND FREE ENERGY PREDICTED BY IDOCK:   -3.81 KCAL/MOL
REMARK 924 INTRA-LIGAND FREE ENERGY PREDICTED BY IDOCK:   -0.02 KCAL/MOL
REMARK 927      BINDING AFFINITY PREDICTED BY RF-SCORE:    0.00 PKD
ROOT
HETATM    1  O   UNL     1     -10.721  11.764  66.054  1.00  0.00    -0.261 OA 
HETATM    2  N   UNL     1     -11.513  12.235  66.869  1.00  0.00    -0.339 N  
HETATM    3  O   UNL     1     -12.380  13.098  66.720  1.00  0.00    -0.316 OA 
HETATM    4  O   UNL     1     -11.345  11.694  68.167  1.00  0.00    -0.244 OA 
ENDROOT
BRANCH   4   5
HETATM    5  C   UNL     1     -12.302  12.205  69.091  1.00  0.00     0.145 C  
BRANCH   5   6
HETATM    6  C   UNL     1     -11.712  13.452  69.754  1.00  0.00    -0.286 C  
BRANCH   6   7
HETATM    7  N   UNL     1     -10.583  14.011  69.034  1.00  0.00    -0.344 N  
HETATM    8  C   UNL     1     -10.646  15.273  68.478  1.00  0.00    -0.237 C  
HETATM    9  H   UNL     1      -9.730  13.462  68.937  1.00  0.00     0.000 HD 
HETATM   10  O   UNL     1     -11.644  15.980  68.524  1.00  0.00    -0.381 OA 
BRANCH   8  11
HETATM   11  C   UNL     1      -9.439  15.740  67.767  1.00  0.00    -0.212 A  
HETATM   12  C   UNL     1      -8.176  15.186  67.978  1.00  0.00    -0.144 A  
HETATM   13  C   UNL     1      -7.083  15.703  67.284  1.00  0.00    -0.242 A  
HETATM   14  C   UNL     1      -7.297  16.754  66.405  1.00  0.00    -0.226 A  
HETATM   15  N   UNL     1      -8.507  17.311  66.180  1.00  0.00    -0.479 NA 
HETATM   16  C   UNL     1      -9.553  16.799  66.876  1.00  0.00    -0.245 A  
ENDBRANCH   8  11
ENDBRANCH   6   7
ENDBRANCH   5   6
ENDBRANCH   4   5
TORSDOF 4
ENDMDL
MODEL      205
REMARK 921   NORMALIZED FREE ENERGY PREDICTED BY IDOCK:   -2.92 KCAL/MOL
REMARK 922        TOTAL FREE ENERGY PREDICTED BY IDOCK:   -3.82 KCAL/MOL
REMARK 923 INTER-LIGAND FREE ENERGY PREDICTED BY IDOCK:   -3.60 KCAL/MOL
REMARK 924 INTRA-LIGAND FREE ENERGY PREDICTED BY IDOCK:   -0.22 KCAL/MOL
REMARK 927      BINDING AFFINITY PREDICTED BY RF-SCORE:    0.00 PKD
ROOT
HETATM    1  O   UNL     1      -6.592  19.231  68.081  1.00  0.00    -0.229 OA 
HETATM    2  N   UNL     1      -7.180  18.487  67.298  1.00  0.00    -0.208 N  
HETATM    3  O   UNL     1      -7.390  18.617  66.090  1.00  0.00    -0.242 OA 
HETATM    4  O   UNL     1      -7.702  17.332  67.930  1.00  0.00    -0.185 OA 
ENDROOT
BRANCH   4   5
HETATM    5  C   UNL     1      -8.333  16.451  67.006  1.00  0.00    -0.199 C  
BRANCH   5   6
HETATM    6  C   UNL     1      -9.448  15.702  67.739  1.00  0.00    -0.208 C  
BRANCH   6   7
HETATM    7  N   UNL     1      -9.473  14.280  67.457  1.00  0.00    -0.204 N  
HETATM    8  C   UNL     1     -10.213  13.773  66.408  1.00  0.00    -0.292 C  
HETATM    9  H   UNL     1      -8.934  13.644  68.045  1.00  0.00     0.000 HD 
HETATM   10  O   UNL     1     -10.909  14.467  65.678  1.00  0.00    -0.301 OA 
BRANCH   8  11
HETATM   11  C   UNL     1     -10.165  12.310  66.214  1.00  0.00    -0.251 A  
HETATM   12  C   UNL     1      -9.836  11.721  64.993  1.00  0.00    -0.257 A  
HETATM   13  C   UNL     1      -9.838  10.331  64.888  1.00  0.00    -0.404 A  
HETATM   14  C   UNL     1     -10.169   9.585  66.009  1.00  0.00    -0.172 A  
HETATM   15  N   UNL     1     -10.493  10.126  67.202  1.00  0.00    -0.238 NA 
HETATM   16  C   UNL     1     -10.496  11.481  67.277  1.00  0.00    -0.212 A  
ENDBRANCH   8  11
ENDBRANCH   6   7
ENDBRANCH   5   6
ENDBRANCH   4   5
TORSDOF 4
ENDMDL
MODEL      206
REMARK 921   NORMALIZED FREE ENERGY PREDICTED BY IDOCK:   -2.90 KCAL/MOL
REMARK 922        TOTAL FREE ENERGY PREDICTED BY IDOCK:   -3.81 KCAL/MOL
REMARK 923 INTER-LIGAND FREE ENERGY PREDICTED BY IDOCK:   -3.60 KCAL/MOL
REMARK 924 INTRA-LIGAND FREE ENERGY PREDICTED BY IDOCK:   -0.21 KCAL/MOL
REMARK 927      BINDING AFFINITY PREDICTED BY RF-SCORE:    0.00 PKD
ROOT
HETATM    1  O   UNL     1     -10.171   5.250  69.190  1.00  0.00    -0.205 OA 
HETATM    2  N   UNL     1     -10.552   6.313  68.701  1.00  0.00    -0.234 N  
HETATM    3  O   UNL     1     -11.386   6.523  67.817  1.00  0.00    -0.258 OA 
HETATM    4  O   UNL     1      -9.884   7.435  69.247  1.00  0.00    -0.164 OA 
ENDROOT
BRANCH   4   5
HETATM    5  C   UNL     1     -10.371   8.664  68.715  1.00  0.00    -0.208 C  
BRANCH   5   6
HETATM    6  C   UNL     1      -9.868   9.805  69.602  1.00  0.00    -0.221 C  
BRANCH   6   7
HETATM    7  N   UNL     1     -10.199  11.122  69.093  1.00  0.00    -0.367 N  
HETATM    8  C   UNL     1      -9.393  11.752  68.165  1.00  0.00    -0.190 C  
HETATM    9  H   UNL     1     -11.041  11.591  69.426  1.00  0.00     0.000 HD 
HETATM   10  O   UNL     1      -8.351  11.269  67.740  1.00  0.00    -0.119 OA 
BRANCH   8  11
HETATM   11  C   UNL     1      -9.826  13.091  67.717  1.00  0.00    -0.224 A  
HETATM   12  C   UNL     1      -9.540  13.590  66.446  1.00  0.00    -0.268 A  
HETATM   13  C   UNL     1      -9.965  14.875  66.111  1.00  0.00    -0.323 A  
HETATM   14  C   UNL     1     -10.659  15.609  67.060  1.00  0.00    -0.311 A  
HETATM   15  N   UNL     1     -10.949  15.153  68.298  1.00  0.00    -0.265 NA 
HETATM   16  C   UNL     1     -10.515  13.905  68.605  1.00  0.00    -0.246 A  
ENDBRANCH   8  11
ENDBRANCH   6   7
ENDBRANCH   5   6
ENDBRANCH   4   5
TORSDOF 4
ENDMDL
MODEL      207
REMARK 921   NORMALIZED FREE ENERGY PREDICTED BY IDOCK:   -2.90 KCAL/MOL
REMARK 922        TOTAL FREE ENERGY PREDICTED BY IDOCK:   -3.80 KCAL/MOL
REMARK 923 INTER-LIGAND FREE ENERGY PREDICTED BY IDOCK:   -3.38 KCAL/MOL
REMARK 924 INTRA-LIGAND FREE ENERGY PREDICTED BY IDOCK:   -0.42 KCAL/MOL
REMARK 927      BINDING AFFINITY PREDICTED BY RF-SCORE:    0.00 PKD
ROOT
HETATM    1  O   UNL     1      -8.321  11.237  68.408  1.00  0.00    -0.138 OA 
HETATM    2  N   UNL     1      -9.373  10.613  68.540  1.00  0.00    -0.162 N  
HETATM    3  O   UNL     1      -9.707   9.520  68.078  1.00  0.00    -0.143 OA 
HETATM    4  O   UNL     1     -10.324  11.306  69.327  1.00  0.00    -0.176 OA 
ENDROOT
BRANCH   4   5
HETATM    5  C   UNL     1     -11.517  10.552  69.519  1.00  0.00    -0.272 C  
BRANCH   5   6
HETATM    6  C   UNL     1     -11.787  10.454  71.023  1.00  0.00    -0.361 C  
BRANCH   6   7
HETATM    7  N   UNL     1     -11.678   9.104  71.542  1.00  0.00    -0.336 N  
HETATM    8  C   UNL     1     -10.486   8.628  72.049  1.00  0.00    -0.352 C  
HETATM    9  H   UNL     1     -12.497   8.497  71.532  1.00  0.00     0.000 HD 
HETATM   10  O   UNL     1      -9.452   9.284  72.068  1.00  0.00    -0.246 OA 
BRANCH   8  11
HETATM   11  C   UNL     1     -10.490   7.239  72.551  1.00  0.00    -0.273 A  
HETATM   12  C   UNL     1     -11.652   6.470  72.634  1.00  0.00    -0.186 A  
HETATM   13  C   UNL     1     -11.573   5.175  73.142  1.00  0.00    -0.281 A  
HETATM   14  C   UNL     1     -10.335   4.699  73.548  1.00  0.00    -0.191 A  
HETATM   15  N   UNL     1      -9.194   5.420  73.480  1.00  0.00    -0.131 NA 
HETATM   16  C   UNL     1      -9.298   6.682  72.993  1.00  0.00    -0.135 A  
ENDBRANCH   8  11
ENDBRANCH   6   7
ENDBRANCH   5   6
ENDBRANCH   4   5
TORSDOF 4
ENDMDL
MODEL      208
REMARK 921   NORMALIZED FREE ENERGY PREDICTED BY IDOCK:   -2.88 KCAL/MOL
REMARK 922        TOTAL FREE ENERGY PREDICTED BY IDOCK:   -3.78 KCAL/MOL
REMARK 923 INTER-LIGAND FREE ENERGY PREDICTED BY IDOCK:   -3.63 KCAL/MOL
REMARK 924 INTRA-LIGAND FREE ENERGY PREDICTED BY IDOCK:   -0.16 KCAL/MOL
REMARK 927      BINDING AFFINITY PREDICTED BY RF-SCORE:    0.00 PKD
ROOT
HETATM    1  O   UNL     1     -10.078  14.095  65.934  1.00  0.00    -0.297 OA 
HETATM    2  N   UNL     1     -11.024  13.950  66.707  1.00  0.00    -0.296 N  
HETATM    3  O   UNL     1     -12.235  14.060  66.502  1.00  0.00    -0.447 OA 
HETATM    4  O   UNL     1     -10.611  13.639  68.024  1.00  0.00    -0.239 OA 
ENDROOT
BRANCH   4   5
HETATM    5  C   UNL     1     -11.714  13.419  68.898  1.00  0.00    -0.328 C  
BRANCH   5   6
HETATM    6  C   UNL     1     -11.874  11.911  69.101  1.00  0.00    -0.311 C  
BRANCH   6   7
HETATM    7  N   UNL     1     -11.326  11.120  68.015  1.00  0.00    -0.299 N  
HETATM    8  C   UNL     1     -10.073  10.548  68.111  1.00  0.00    -0.158 C  
HETATM    9  H   UNL     1     -11.876  10.986  67.167  1.00  0.00     0.000 HD 
HETATM   10  O   UNL     1      -9.341  10.689  69.082  1.00  0.00    -0.196 OA 
BRANCH   8  11
HETATM   11  C   UNL     1      -9.616   9.764  66.946  1.00  0.00    -0.228 A  
HETATM   12  C   UNL     1      -9.180   8.443  67.049  1.00  0.00    -0.186 A  
HETATM   13  C   UNL     1      -8.741   7.782  65.903  1.00  0.00    -0.175 A  
HETATM   14  C   UNL     1      -8.755   8.469  64.698  1.00  0.00     0.013 A  
HETATM   15  N   UNL     1      -9.170   9.748  64.568  1.00  0.00    -0.256 NA 
HETATM   16  C   UNL     1      -9.582  10.374  65.699  1.00  0.00    -0.226 A  
ENDBRANCH   8  11
ENDBRANCH   6   7
ENDBRANCH   5   6
ENDBRANCH   4   5
TORSDOF 4
ENDMDL
MODEL      209
REMARK 921   NORMALIZED FREE ENERGY PREDICTED BY IDOCK:   -2.88 KCAL/MOL
REMARK 922        TOTAL FREE ENERGY PREDICTED BY IDOCK:   -3.78 KCAL/MOL
REMARK 923 INTER-LIGAND FREE ENERGY PREDICTED BY IDOCK:   -3.43 KCAL/MOL
REMARK 924 INTRA-LIGAND FREE ENERGY PREDICTED BY IDOCK:   -0.35 KCAL/MOL
REMARK 927      BINDING AFFINITY PREDICTED BY RF-SCORE:    0.00 PKD
ROOT
HETATM    1  O   UNL     1     -11.445  16.081  69.507  1.00  0.00    -0.326 OA 
HETATM    2  N   UNL     1     -10.871  16.649  68.579  1.00  0.00    -0.348 N  
HETATM    3  O   UNL     1     -10.213  17.692  68.577  1.00  0.00    -0.345 OA 
HETATM    4  O   UNL     1     -11.044  15.984  67.342  1.00  0.00    -0.278 OA 
ENDROOT
BRANCH   4   5
HETATM    5  C   UNL     1     -10.330  16.618  66.285  1.00  0.00    -0.317 C  
BRANCH   5   6
HETATM    6  C   UNL     1      -9.412  15.581  65.634  1.00  0.00    -0.236 C  
BRANCH   6   7
HETATM    7  N   UNL     1      -8.667  14.787  66.592  1.00  0.00    -0.409 N  
HETATM    8  C   UNL     1      -7.609  15.327  67.297  1.00  0.00    -0.210 C  
HETATM    9  H   UNL     1      -8.928  13.814  66.747  1.00  0.00     0.000 HD 
HETATM   10  O   UNL     1      -7.216  16.476  67.146  1.00  0.00    -0.149 OA 
BRANCH   8  11
HETATM   11  C   UNL     1      -6.922  14.427  68.245  1.00  0.00    -0.113 A  
HETATM   12  C   UNL     1      -6.500  13.143  67.898  1.00  0.00    -0.138 A  
HETATM   13  C   UNL     1      -5.881  12.349  68.861  1.00  0.00    -0.066 A  
HETATM   14  C   UNL     1      -5.706  12.870  70.134  1.00  0.00    -0.148 A  
HETATM   15  N   UNL     1      -6.104  14.108  70.500  1.00  0.00    -0.184 NA 
HETATM   16  C   UNL     1      -6.716  14.858  69.549  1.00  0.00    -0.165 A  
ENDBRANCH   8  11
ENDBRANCH   6   7
ENDBRANCH   5   6
ENDBRANCH   4   5
TORSDOF 4
ENDMDL
MODEL      210
REMARK 921   NORMALIZED FREE ENERGY PREDICTED BY IDOCK:   -2.88 KCAL/MOL
REMARK 922        TOTAL FREE ENERGY PREDICTED BY IDOCK:   -3.78 KCAL/MOL
REMARK 923 INTER-LIGAND FREE ENERGY PREDICTED BY IDOCK:   -3.55 KCAL/MOL
REMARK 924 INTRA-LIGAND FREE ENERGY PREDICTED BY IDOCK:   -0.23 KCAL/MOL
REMARK 927      BINDING AFFINITY PREDICTED BY RF-SCORE:    0.00 PKD
ROOT
HETATM    1  O   UNL     1      -9.134   6.094  67.609  1.00  0.00    -0.113 OA 
HETATM    2  N   UNL     1      -9.987   6.874  67.188  1.00  0.00    -0.168 N  
HETATM    3  O   UNL     1     -11.148   6.659  66.834  1.00  0.00    -0.400 OA 
HETATM    4  O   UNL     1      -9.509   8.203  67.086  1.00  0.00    -0.146 OA 
ENDROOT
BRANCH   4   5
HETATM    5  C   UNL     1     -10.520   9.107  66.651  1.00  0.00    -0.167 C  
BRANCH   5   6
HETATM    6  C   UNL     1      -9.851  10.432  66.277  1.00  0.00    -0.218 C  
BRANCH   6   7
HETATM    7  N   UNL     1     -10.521  11.594  66.830  1.00  0.00    -0.222 N  
HETATM    8  C   UNL     1     -10.010  12.258  67.927  1.00  0.00    -0.202 C  
HETATM    9  H   UNL     1     -11.384  11.925  66.401  1.00  0.00     0.000 HD 
HETATM   10  O   UNL     1      -8.996  11.904  68.516  1.00  0.00    -0.176 OA 
BRANCH   8  11
HETATM   11  C   UNL     1     -10.774  13.427  68.405  1.00  0.00    -0.271 A  
HETATM   12  C   UNL     1     -10.573  14.716  67.908  1.00  0.00    -0.244 A  
HETATM   13  C   UNL     1     -11.321  15.769  68.432  1.00  0.00    -0.372 A  
HETATM   14  C   UNL     1     -12.240  15.493  69.432  1.00  0.00    -0.205 A  
HETATM   15  N   UNL     1     -12.456  14.257  69.933  1.00  0.00    -0.318 NA 
HETATM   16  C   UNL     1     -11.708  13.250  69.417  1.00  0.00    -0.325 A  
ENDBRANCH   8  11
ENDBRANCH   6   7
ENDBRANCH   5   6
ENDBRANCH   4   5
TORSDOF 4
ENDMDL
MODEL      211
REMARK 921   NORMALIZED FREE ENERGY PREDICTED BY IDOCK:   -2.87 KCAL/MOL
REMARK 922        TOTAL FREE ENERGY PREDICTED BY IDOCK:   -3.76 KCAL/MOL
REMARK 923 INTER-LIGAND FREE ENERGY PREDICTED BY IDOCK:   -3.70 KCAL/MOL
REMARK 924 INTRA-LIGAND FREE ENERGY PREDICTED BY IDOCK:   -0.06 KCAL/MOL
REMARK 927      BINDING AFFINITY PREDICTED BY RF-SCORE:    0.00 PKD
ROOT
HETATM    1  O   UNL     1      -7.402  10.297  65.266  1.00  0.00    -0.141 OA 
HETATM    2  N   UNL     1      -8.151   9.565  65.912  1.00  0.00    -0.113 N  
HETATM    3  O   UNL     1      -9.317   9.234  65.688  1.00  0.00    -0.217 OA 
HETATM    4  O   UNL     1      -7.549   9.077  67.096  1.00  0.00    -0.090 OA 
ENDROOT
BRANCH   4   5
HETATM    5  C   UNL     1      -8.404   8.187  67.808  1.00  0.00    -0.128 C  
BRANCH   5   6
HETATM    6  C   UNL     1      -8.215   8.434  69.306  1.00  0.00    -0.116 C  
BRANCH   6   7
HETATM    7  N   UNL     1      -9.244   9.274  69.888  1.00  0.00    -0.179 N  
HETATM    8  C   UNL     1     -10.549   8.836  69.993  1.00  0.00    -0.223 C  
HETATM    9  H   UNL     1      -8.999  10.205  70.226  1.00  0.00     0.000 HD 
HETATM   10  O   UNL     1     -10.928   7.746  69.583  1.00  0.00    -0.220 OA 
BRANCH   8  11
HETATM   11  C   UNL     1     -11.513   9.774  70.601  1.00  0.00    -0.397 A  
HETATM   12  C   UNL     1     -11.537  11.136  70.296  1.00  0.00    -0.388 A  
HETATM   13  C   UNL     1     -12.464  11.958  70.934  1.00  0.00    -0.397 A  
HETATM   14  C   UNL     1     -13.332  11.386  71.853  1.00  0.00    -0.304 A  
HETATM   15  N   UNL     1     -13.331  10.073  72.169  1.00  0.00    -0.431 NA 
HETATM   16  C   UNL     1     -12.412   9.295  71.544  1.00  0.00    -0.355 A  
ENDBRANCH   8  11
ENDBRANCH   6   7
ENDBRANCH   5   6
ENDBRANCH   4   5
TORSDOF 4
ENDMDL
MODEL      212
REMARK 921   NORMALIZED FREE ENERGY PREDICTED BY IDOCK:   -2.86 KCAL/MOL
REMARK 922        TOTAL FREE ENERGY PREDICTED BY IDOCK:   -3.75 KCAL/MOL
REMARK 923 INTER-LIGAND FREE ENERGY PREDICTED BY IDOCK:   -3.59 KCAL/MOL
REMARK 924 INTRA-LIGAND FREE ENERGY PREDICTED BY IDOCK:   -0.16 KCAL/MOL
REMARK 927      BINDING AFFINITY PREDICTED BY RF-SCORE:    0.00 PKD
ROOT
HETATM    1  O   UNL     1      -9.850   3.848  65.613  1.00  0.00    -0.184 OA 
HETATM    2  N   UNL     1     -10.069   4.572  66.583  1.00  0.00    -0.229 N  
HETATM    3  O   UNL     1      -9.901   4.354  67.785  1.00  0.00    -0.156 OA 
HETATM    4  O   UNL     1     -10.622   5.822  66.217  1.00  0.00    -0.168 OA 
ENDROOT
BRANCH   4   5
HETATM    5  C   UNL     1     -10.820   6.674  67.342  1.00  0.00    -0.363 C  
BRANCH   5   6
HETATM    6  C   UNL     1      -9.653   7.661  67.410  1.00  0.00    -0.147 C  
BRANCH   6   7
HETATM    7  N   UNL     1      -9.993   8.992  66.945  1.00  0.00    -0.222 N  
HETATM    8  C   UNL     1      -9.960  10.076  67.799  1.00  0.00    -0.170 C  
HETATM    9  H   UNL     1     -10.262   9.129  65.971  1.00  0.00     0.000 HD 
HETATM   10  O   UNL     1      -9.678   9.989  68.988  1.00  0.00    -0.179 OA 
BRANCH   8  11
HETATM   11  C   UNL     1     -10.327  11.384  67.219  1.00  0.00    -0.230 A  
HETATM   12  C   UNL     1     -11.643  11.733  66.914  1.00  0.00    -0.310 A  
HETATM   13  C   UNL     1     -11.900  12.979  66.345  1.00  0.00    -0.465 A  
HETATM   14  C   UNL     1     -10.830  13.828  66.103  1.00  0.00    -0.279 A  
HETATM   15  N   UNL     1      -9.546  13.517  66.386  1.00  0.00    -0.273 NA 
HETATM   16  C   UNL     1      -9.320  12.294  66.928  1.00  0.00    -0.210 A  
ENDBRANCH   8  11
ENDBRANCH   6   7
ENDBRANCH   5   6
ENDBRANCH   4   5
TORSDOF 4
ENDMDL
MODEL      213
REMARK 921   NORMALIZED FREE ENERGY PREDICTED BY IDOCK:   -2.83 KCAL/MOL
REMARK 922        TOTAL FREE ENERGY PREDICTED BY IDOCK:   -3.72 KCAL/MOL
REMARK 923 INTER-LIGAND FREE ENERGY PREDICTED BY IDOCK:   -3.33 KCAL/MOL
REMARK 924 INTRA-LIGAND FREE ENERGY PREDICTED BY IDOCK:   -0.39 KCAL/MOL
REMARK 927      BINDING AFFINITY PREDICTED BY RF-SCORE:    0.00 PKD
ROOT
HETATM    1  O   UNL     1      -6.953   6.860  65.457  1.00  0.00    -0.057 OA 
HETATM    2  N   UNL     1      -8.113   6.650  65.810  1.00  0.00    -0.115 N  
HETATM    3  O   UNL     1      -8.978   7.442  66.188  1.00  0.00    -0.163 OA 
HETATM    4  O   UNL     1      -8.449   5.276  65.790  1.00  0.00    -0.118 OA 
ENDROOT
BRANCH   4   5
HETATM    5  C   UNL     1      -9.809   5.048  66.147  1.00  0.00    -0.198 C  
BRANCH   5   6
HETATM    6  C   UNL     1      -9.851   4.570  67.600  1.00  0.00    -0.127 C  
BRANCH   6   7
HETATM    7  N   UNL     1     -10.276   5.595  68.534  1.00  0.00    -0.179 N  
HETATM    8  C   UNL     1     -10.186   5.399  69.898  1.00  0.00    -0.281 C  
HETATM    9  H   UNL     1     -10.647   6.475  68.177  1.00  0.00     0.000 HD 
HETATM   10  O   UNL     1      -9.780   4.360  70.404  1.00  0.00    -0.182 OA 
BRANCH   8  11
HETATM   11  C   UNL     1     -10.648   6.509  70.755  1.00  0.00    -0.278 A  
HETATM   12  C   UNL     1      -9.777   7.277  71.530  1.00  0.00    -0.168 A  
HETATM   13  C   UNL     1     -10.298   8.292  72.331  1.00  0.00    -0.402 A  
HETATM   14  C   UNL     1     -11.670   8.499  72.325  1.00  0.00    -0.373 A  
HETATM   15  N   UNL     1     -12.536   7.772  71.587  1.00  0.00    -0.316 NA 
HETATM   16  C   UNL     1     -12.007   6.783  70.825  1.00  0.00    -0.378 A  
ENDBRANCH   8  11
ENDBRANCH   6   7
ENDBRANCH   5   6
ENDBRANCH   4   5
TORSDOF 4
ENDMDL
MODEL      214
REMARK 921   NORMALIZED FREE ENERGY PREDICTED BY IDOCK:   -2.82 KCAL/MOL
REMARK 922        TOTAL FREE ENERGY PREDICTED BY IDOCK:   -3.71 KCAL/MOL
REMARK 923 INTER-LIGAND FREE ENERGY PREDICTED BY IDOCK:   -3.52 KCAL/MOL
REMARK 924 INTRA-LIGAND FREE ENERGY PREDICTED BY IDOCK:   -0.19 KCAL/MOL
REMARK 927      BINDING AFFINITY PREDICTED BY RF-SCORE:    0.00 PKD
ROOT
HETATM    1  O   UNL     1      -8.784  10.000  69.401  1.00  0.00    -0.160 OA 
HETATM    2  N   UNL     1      -7.985   9.678  68.523  1.00  0.00    -0.088 N  
HETATM    3  O   UNL     1      -7.532   8.569  68.235  1.00  0.00    -0.092 OA 
HETATM    4  O   UNL     1      -7.523  10.787  67.773  1.00  0.00    -0.092 OA 
ENDROOT
BRANCH   4   5
HETATM    5  C   UNL     1      -6.641  10.397  66.724  1.00  0.00    -0.078 C  
BRANCH   5   6
HETATM    6  C   UNL     1      -7.473  10.150  65.463  1.00  0.00    -0.146 C  
BRANCH   6   7
HETATM    7  N   UNL     1      -8.392  11.230  65.156  1.00  0.00    -0.363 N  
HETATM    8  C   UNL     1      -9.732  11.140  65.476  1.00  0.00    -0.228 C  
HETATM    9  H   UNL     1      -8.041  12.069  64.695  1.00  0.00     0.000 HD 
HETATM   10  O   UNL     1     -10.234  10.154  66.001  1.00  0.00    -0.252 OA 
BRANCH   8  11
HETATM   11  C   UNL     1     -10.575  12.298  65.116  1.00  0.00    -0.320 A  
HETATM   12  C   UNL     1     -11.890  12.165  64.669  1.00  0.00    -0.400 A  
HETATM   13  C   UNL     1     -12.609  13.309  64.327  1.00  0.00    -0.253 A  
HETATM   14  C   UNL     1     -11.984  14.541  64.445  1.00  0.00    -0.449 A  
HETATM   15  N   UNL     1     -10.713  14.701  64.874  1.00  0.00    -0.424 NA 
HETATM   16  C   UNL     1     -10.029  13.573  65.190  1.00  0.00    -0.176 A  
ENDBRANCH   8  11
ENDBRANCH   6   7
ENDBRANCH   5   6
ENDBRANCH   4   5
TORSDOF 4
ENDMDL
MODEL      215
REMARK 921   NORMALIZED FREE ENERGY PREDICTED BY IDOCK:   -2.81 KCAL/MOL
REMARK 922        TOTAL FREE ENERGY PREDICTED BY IDOCK:   -3.70 KCAL/MOL
REMARK 923 INTER-LIGAND FREE ENERGY PREDICTED BY IDOCK:   -3.36 KCAL/MOL
REMARK 924 INTRA-LIGAND FREE ENERGY PREDICTED BY IDOCK:   -0.33 KCAL/MOL
REMARK 927      BINDING AFFINITY PREDICTED BY RF-SCORE:    0.00 PKD
ROOT
HETATM    1  O   UNL     1      -6.800  12.424  69.094  1.00  0.00    -0.104 OA 
HETATM    2  N   UNL     1      -6.677  11.332  68.540  1.00  0.00    -0.060 N  
HETATM    3  O   UNL     1      -5.706  10.574  68.496  1.00  0.00    -0.041 OA 
HETATM    4  O   UNL     1      -7.841  10.943  67.835  1.00  0.00    -0.105 OA 
ENDROOT
BRANCH   4   5
HETATM    5  C   UNL     1      -7.708   9.654  67.244  1.00  0.00    -0.091 C  
BRANCH   5   6
HETATM    6  C   UNL     1      -9.091   9.002  67.194  1.00  0.00    -0.137 C  
BRANCH   6   7
HETATM    7  N   UNL     1     -10.045   9.597  68.110  1.00  0.00    -0.167 N  
HETATM    8  C   UNL     1     -10.358   8.989  69.309  1.00  0.00    -0.219 C  
HETATM    9  H   UNL     1     -10.491  10.480  67.864  1.00  0.00     0.000 HD 
HETATM   10  O   UNL     1      -9.888   7.914  69.662  1.00  0.00    -0.176 OA 
BRANCH   8  11
HETATM   11  C   UNL     1     -11.341   9.684  70.164  1.00  0.00    -0.275 A  
HETATM   12  C   UNL     1     -11.614  11.047  70.046  1.00  0.00    -0.427 A  
HETATM   13  C   UNL     1     -12.540  11.630  70.910  1.00  0.00    -0.409 A  
HETATM   14  C   UNL     1     -13.157  10.827  71.857  1.00  0.00    -0.451 A  
HETATM   15  N   UNL     1     -12.913   9.506  71.995  1.00  0.00    -0.408 NA 
HETATM   16  C   UNL     1     -11.999   8.963  71.152  1.00  0.00    -0.293 A  
ENDBRANCH   8  11
ENDBRANCH   6   7
ENDBRANCH   5   6
ENDBRANCH   4   5
TORSDOF 4
ENDMDL
MODEL      216
REMARK 921   NORMALIZED FREE ENERGY PREDICTED BY IDOCK:   -2.79 KCAL/MOL
REMARK 922        TOTAL FREE ENERGY PREDICTED BY IDOCK:   -3.67 KCAL/MOL
REMARK 923 INTER-LIGAND FREE ENERGY PREDICTED BY IDOCK:   -3.34 KCAL/MOL
REMARK 924 INTRA-LIGAND FREE ENERGY PREDICTED BY IDOCK:   -0.32 KCAL/MOL
REMARK 927      BINDING AFFINITY PREDICTED BY RF-SCORE:    0.00 PKD
ROOT
HETATM    1  O   UNL     1      -7.992  11.409  68.799  1.00  0.00    -0.143 OA 
HETATM    2  N   UNL     1      -8.646  11.096  67.805  1.00  0.00    -0.129 N  
HETATM    3  O   UNL     1      -8.478  11.398  66.622  1.00  0.00    -0.163 OA 
HETATM    4  O   UNL     1      -9.768  10.292  68.121  1.00  0.00    -0.141 OA 
ENDROOT
BRANCH   4   5
HETATM    5  C   UNL     1     -10.487   9.891  66.958  1.00  0.00    -0.230 C  
BRANCH   5   6
HETATM    6  C   UNL     1     -10.598   8.364  66.965  1.00  0.00    -0.246 C  
BRANCH   6   7
HETATM    7  N   UNL     1     -10.868   7.810  68.278  1.00  0.00    -0.428 N  
HETATM    8  C   UNL     1     -10.009   6.897  68.857  1.00  0.00    -0.157 C  
HETATM    9  H   UNL     1     -11.706   8.099  68.781  1.00  0.00     0.000 HD 
HETATM   10  O   UNL     1      -9.000   6.477  68.304  1.00  0.00    -0.123 OA 
BRANCH   8  11
HETATM   11  C   UNL     1     -10.383   6.398  70.196  1.00  0.00    -0.245 A  
HETATM   12  C   UNL     1      -9.481   5.744  71.037  1.00  0.00    -0.195 A  
HETATM   13  C   UNL     1      -9.922   5.282  72.276  1.00  0.00    -0.222 A  
HETATM   14  C   UNL     1     -11.247   5.493  72.625  1.00  0.00    -0.295 A  
HETATM   15  N   UNL     1     -12.142   6.121  71.833  1.00  0.00    -0.253 NA 
HETATM   16  C   UNL     1     -11.694   6.551  70.627  1.00  0.00    -0.374 A  
ENDBRANCH   8  11
ENDBRANCH   6   7
ENDBRANCH   5   6
ENDBRANCH   4   5
TORSDOF 4
ENDMDL
MODEL      217
REMARK 921   NORMALIZED FREE ENERGY PREDICTED BY IDOCK:   -2.78 KCAL/MOL
REMARK 922        TOTAL FREE ENERGY PREDICTED BY IDOCK:   -3.66 KCAL/MOL
REMARK 923 INTER-LIGAND FREE ENERGY PREDICTED BY IDOCK:   -3.49 KCAL/MOL
REMARK 924 INTRA-LIGAND FREE ENERGY PREDICTED BY IDOCK:   -0.17 KCAL/MOL
REMARK 927      BINDING AFFINITY PREDICTED BY RF-SCORE:    0.00 PKD
ROOT
HETATM    1  O   UNL     1      -9.702  12.835  66.153  1.00  0.00    -0.258 OA 
HETATM    2  N   UNL     1      -9.618  11.608  66.177  1.00  0.00    -0.226 N  
HETATM    3  O   UNL     1      -9.672  10.794  65.252  1.00  0.00    -0.219 OA 
HETATM    4  O   UNL     1      -9.466  11.096  67.488  1.00  0.00    -0.166 OA 
ENDROOT
BRANCH   4   5
HETATM    5  C   UNL     1      -9.314   9.680  67.499  1.00  0.00    -0.130 C  
BRANCH   5   6
HETATM    6  C   UNL     1     -10.645   9.057  67.928  1.00  0.00    -0.196 C  
BRANCH   6   7
HETATM    7  N   UNL     1     -10.541   8.232  69.116  1.00  0.00    -0.325 N  
HETATM    8  C   UNL     1     -11.264   8.526  70.255  1.00  0.00    -0.179 C  
HETATM    9  H   UNL     1      -9.923   7.421  69.110  1.00  0.00     0.000 HD 
HETATM   10  O   UNL     1     -12.002   9.498  70.352  1.00  0.00    -0.195 OA 
BRANCH   8  11
HETATM   11  C   UNL     1     -11.080   7.618  71.405  1.00  0.00    -0.265 A  
HETATM   12  C   UNL     1     -11.933   6.544  71.663  1.00  0.00    -0.387 A  
HETATM   13  C   UNL     1     -11.703   5.749  72.785  1.00  0.00    -0.216 A  
HETATM   14  C   UNL     1     -10.628   6.060  73.605  1.00  0.00    -0.264 A  
HETATM   15  N   UNL     1      -9.787   7.093  73.381  1.00  0.00    -0.229 NA 
HETATM   16  C   UNL     1     -10.038   7.859  72.291  1.00  0.00    -0.236 A  
ENDBRANCH   8  11
ENDBRANCH   6   7
ENDBRANCH   5   6
ENDBRANCH   4   5
TORSDOF 4
ENDMDL
MODEL      218
REMARK 921   NORMALIZED FREE ENERGY PREDICTED BY IDOCK:   -2.78 KCAL/MOL
REMARK 922        TOTAL FREE ENERGY PREDICTED BY IDOCK:   -3.65 KCAL/MOL
REMARK 923 INTER-LIGAND FREE ENERGY PREDICTED BY IDOCK:   -3.59 KCAL/MOL
REMARK 924 INTRA-LIGAND FREE ENERGY PREDICTED BY IDOCK:   -0.07 KCAL/MOL
REMARK 927      BINDING AFFINITY PREDICTED BY RF-SCORE:    0.00 PKD
ROOT
HETATM    1  O   UNL     1     -12.220  15.538  70.566  1.00  0.00    -0.352 OA 
HETATM    2  N   UNL     1     -11.803  15.068  69.508  1.00  0.00    -0.314 N  
HETATM    3  O   UNL     1     -11.202  15.617  68.583  1.00  0.00    -0.296 OA 
HETATM    4  O   UNL     1     -12.108  13.693  69.364  1.00  0.00    -0.326 OA 
ENDROOT
BRANCH   4   5
HETATM    5  C   UNL     1     -11.574  13.145  68.163  1.00  0.00    -0.339 C  
BRANCH   5   6
HETATM    6  C   UNL     1     -10.210  12.528  68.480  1.00  0.00    -0.203 C  
BRANCH   6   7
HETATM    7  N   UNL     1      -9.228  13.496  68.929  1.00  0.00    -0.388 N  
HETATM    8  C   UNL     1      -8.484  14.230  68.026  1.00  0.00    -0.164 C  
HETATM    9  H   UNL     1      -9.083  13.636  69.929  1.00  0.00     0.000 HD 
HETATM   10  O   UNL     1      -8.578  14.097  66.813  1.00  0.00    -0.181 OA 
BRANCH   8  11
HETATM   11  C   UNL     1      -7.513  15.185  68.595  1.00  0.00    -0.124 A  
HETATM   12  C   UNL     1      -6.266  14.794  69.084  1.00  0.00    -0.105 A  
HETATM   13  C   UNL     1      -5.418  15.757  69.627  1.00  0.00    -0.118 A  
HETATM   14  C   UNL     1      -5.850  17.074  69.660  1.00  0.00    -0.217 A  
HETATM   15  N   UNL     1      -7.050  17.483  69.196  1.00  0.00    -0.233 NA 
HETATM   16  C   UNL     1      -7.864  16.526  68.683  1.00  0.00    -0.226 A  
ENDBRANCH   8  11
ENDBRANCH   6   7
ENDBRANCH   5   6
ENDBRANCH   4   5
TORSDOF 4
ENDMDL
MODEL      219
REMARK 921   NORMALIZED FREE ENERGY PREDICTED BY IDOCK:   -2.77 KCAL/MOL
REMARK 922        TOTAL FREE ENERGY PREDICTED BY IDOCK:   -3.64 KCAL/MOL
REMARK 923 INTER-LIGAND FREE ENERGY PREDICTED BY IDOCK:   -3.28 KCAL/MOL
REMARK 924 INTRA-LIGAND FREE ENERGY PREDICTED BY IDOCK:   -0.36 KCAL/MOL
REMARK 927      BINDING AFFINITY PREDICTED BY RF-SCORE:    0.00 PKD
ROOT
HETATM    1  O   UNL     1     -12.113  14.580  68.080  1.00  0.00    -0.294 OA 
HETATM    2  N   UNL     1     -11.060  15.157  68.348  1.00  0.00    -0.269 N  
HETATM    3  O   UNL     1     -10.451  15.233  69.417  1.00  0.00    -0.226 OA 
HETATM    4  O   UNL     1     -10.519  15.849  67.238  1.00  0.00    -0.298 OA 
ENDROOT
BRANCH   4   5
HETATM    5  C   UNL     1      -9.273  16.467  67.544  1.00  0.00    -0.202 C  
BRANCH   5   6
HETATM    6  C   UNL     1      -8.169  15.729  66.783  1.00  0.00    -0.267 C  
BRANCH   6   7
HETATM    7  N   UNL     1      -8.444  14.318  66.592  1.00  0.00    -0.423 N  
HETATM    8  C   UNL     1      -8.108  13.388  67.556  1.00  0.00    -0.181 C  
HETATM    9  H   UNL     1      -8.893  14.007  65.730  1.00  0.00     0.000 HD 
HETATM   10  O   UNL     1      -7.540  13.677  68.601  1.00  0.00    -0.125 OA 
BRANCH   8  11
HETATM   11  C   UNL     1      -8.433  11.979  67.255  1.00  0.00    -0.175 A  
HETATM   12  C   UNL     1      -9.197  11.600  66.150  1.00  0.00    -0.228 A  
HETATM   13  C   UNL     1      -9.480  10.250  65.952  1.00  0.00    -0.241 A  
HETATM   14  C   UNL     1      -8.987   9.331  66.866  1.00  0.00    -0.130 A  
HETATM   15  N   UNL     1      -8.246   9.668  67.944  1.00  0.00    -0.106 NA 
HETATM   16  C   UNL     1      -7.994  10.989  68.123  1.00  0.00    -0.119 A  
ENDBRANCH   8  11
ENDBRANCH   6   7
ENDBRANCH   5   6
ENDBRANCH   4   5
TORSDOF 4
ENDMDL
MODEL      220
REMARK 921   NORMALIZED FREE ENERGY PREDICTED BY IDOCK:   -2.77 KCAL/MOL
REMARK 922        TOTAL FREE ENERGY PREDICTED BY IDOCK:   -3.64 KCAL/MOL
REMARK 923 INTER-LIGAND FREE ENERGY PREDICTED BY IDOCK:   -3.29 KCAL/MOL
REMARK 924 INTRA-LIGAND FREE ENERGY PREDICTED BY IDOCK:   -0.35 KCAL/MOL
REMARK 927      BINDING AFFINITY PREDICTED BY RF-SCORE:    0.00 PKD
ROOT
HETATM    1  O   UNL     1      -6.542   9.592  64.416  1.00  0.00    -0.087 OA 
HETATM    2  N   UNL     1      -7.549   8.886  64.395  1.00  0.00    -0.109 N  
HETATM    3  O   UNL     1      -8.583   9.004  63.734  1.00  0.00    -0.191 OA 
HETATM    4  O   UNL     1      -7.476   7.804  65.305  1.00  0.00    -0.074 OA 
ENDROOT
BRANCH   4   5
HETATM    5  C   UNL     1      -8.623   6.961  65.234  1.00  0.00     0.006 C  
BRANCH   5   6
HETATM    6  C   UNL     1      -9.117   6.701  66.659  1.00  0.00    -0.145 C  
BRANCH   6   7
HETATM    7  N   UNL     1      -9.913   7.785  67.202  1.00  0.00    -0.205 N  
HETATM    8  C   UNL     1      -9.581   8.382  68.402  1.00  0.00    -0.148 C  
HETATM    9  H   UNL     1     -10.731   8.111  66.689  1.00  0.00     0.000 HD 
HETATM   10  O   UNL     1      -8.633   8.028  69.091  1.00  0.00    -0.135 OA 
BRANCH   8  11
HETATM   11  C   UNL     1     -10.462   9.476  68.860  1.00  0.00    -0.235 A  
HETATM   12  C   UNL     1     -10.702   9.738  70.209  1.00  0.00    -0.358 A  
HETATM   13  C   UNL     1     -11.567  10.774  70.555  1.00  0.00    -0.425 A  
HETATM   14  C   UNL     1     -12.158  11.508  69.538  1.00  0.00    -0.284 A  
HETATM   15  N   UNL     1     -11.946  11.278  68.225  1.00  0.00    -0.621 NA 
HETATM   16  C   UNL     1     -11.110  10.256  67.912  1.00  0.00    -0.276 A  
ENDBRANCH   8  11
ENDBRANCH   6   7
ENDBRANCH   5   6
ENDBRANCH   4   5
TORSDOF 4
ENDMDL
MODEL      221
REMARK 921   NORMALIZED FREE ENERGY PREDICTED BY IDOCK:   -2.76 KCAL/MOL
REMARK 922        TOTAL FREE ENERGY PREDICTED BY IDOCK:   -3.63 KCAL/MOL
REMARK 923 INTER-LIGAND FREE ENERGY PREDICTED BY IDOCK:   -3.40 KCAL/MOL
REMARK 924 INTRA-LIGAND FREE ENERGY PREDICTED BY IDOCK:   -0.23 KCAL/MOL
REMARK 927      BINDING AFFINITY PREDICTED BY RF-SCORE:    0.00 PKD
ROOT
HETATM    1  O   UNL     1      -7.181  13.016  67.754  1.00  0.00    -0.108 OA 
HETATM    2  N   UNL     1      -8.268  13.584  67.650  1.00  0.00    -0.164 N  
HETATM    3  O   UNL     1      -8.577  14.586  67.002  1.00  0.00    -0.217 OA 
HETATM    4  O   UNL     1      -9.278  12.975  68.432  1.00  0.00    -0.196 OA 
ENDROOT
BRANCH   4   5
HETATM    5  C   UNL     1     -10.544  13.606  68.262  1.00  0.00    -0.253 C  
BRANCH   5   6
HETATM    6  C   UNL     1     -11.575  12.849  69.103  1.00  0.00    -0.322 C  
BRANCH   6   7
HETATM    7  N   UNL     1     -11.035  11.675  69.761  1.00  0.00    -0.462 N  
HETATM    8  C   UNL     1     -11.111  10.428  69.172  1.00  0.00    -0.246 C  
HETATM    9  H   UNL     1     -10.592  11.772  70.674  1.00  0.00     0.000 HD 
HETATM   10  O   UNL     1     -11.654  10.225  68.094  1.00  0.00    -0.297 OA 
BRANCH   8  11
HETATM   11  C   UNL     1     -10.529   9.304  69.932  1.00  0.00    -0.247 A  
HETATM   12  C   UNL     1     -10.791   7.968  69.623  1.00  0.00    -0.172 A  
HETATM   13  C   UNL     1     -10.220   6.967  70.407  1.00  0.00    -0.209 A  
HETATM   14  C   UNL     1      -9.409   7.340  71.468  1.00  0.00    -0.148 A  
HETATM   15  N   UNL     1      -9.139   8.623  71.791  1.00  0.00    -0.230 NA 
HETATM   16  C   UNL     1      -9.715   9.581  71.022  1.00  0.00    -0.126 A  
ENDBRANCH   8  11
ENDBRANCH   6   7
ENDBRANCH   5   6
ENDBRANCH   4   5
TORSDOF 4
ENDMDL
MODEL      222
REMARK 921   NORMALIZED FREE ENERGY PREDICTED BY IDOCK:   -2.74 KCAL/MOL
REMARK 922        TOTAL FREE ENERGY PREDICTED BY IDOCK:   -3.61 KCAL/MOL
REMARK 923 INTER-LIGAND FREE ENERGY PREDICTED BY IDOCK:   -3.32 KCAL/MOL
REMARK 924 INTRA-LIGAND FREE ENERGY PREDICTED BY IDOCK:   -0.29 KCAL/MOL
REMARK 927      BINDING AFFINITY PREDICTED BY RF-SCORE:    0.00 PKD
ROOT
HETATM    1  O   UNL     1      -7.937  10.390  67.023  1.00  0.00    -0.113 OA 
HETATM    2  N   UNL     1      -8.739  11.272  66.717  1.00  0.00    -0.160 N  
HETATM    3  O   UNL     1      -9.655  11.255  65.893  1.00  0.00    -0.205 OA 
HETATM    4  O   UNL     1      -8.519  12.478  67.424  1.00  0.00    -0.163 OA 
ENDROOT
BRANCH   4   5
HETATM    5  C   UNL     1      -9.486  13.474  67.104  1.00  0.00    -0.244 C  
BRANCH   5   6
HETATM    6  C   UNL     1      -9.728  14.328  68.351  1.00  0.00    -0.225 C  
BRANCH   6   7
HETATM    7  N   UNL     1      -9.157  15.658  68.261  1.00  0.00    -0.184 N  
HETATM    8  C   UNL     1      -8.011  15.991  68.955  1.00  0.00    -0.224 C  
HETATM    9  H   UNL     1      -9.609  16.359  67.675  1.00  0.00     0.000 HD 
HETATM   10  O   UNL     1      -7.427  15.216  69.702  1.00  0.00    -0.203 OA 
BRANCH   8  11
HETATM   11  C   UNL     1      -7.518  17.373  68.790  1.00  0.00    -0.258 A  
HETATM   12  C   UNL     1      -6.161  17.698  68.804  1.00  0.00    -0.189 A  
HETATM   13  C   UNL     1      -5.781  19.031  68.666  1.00  0.00    -0.216 A  
HETATM   14  C   UNL     1      -6.774  19.989  68.519  1.00  0.00    -0.307 A  
HETATM   15  N   UNL     1      -8.094  19.705  68.503  1.00  0.00    -0.330 NA 
HETATM   16  C   UNL     1      -8.440  18.402  68.651  1.00  0.00    -0.295 A  
ENDBRANCH   8  11
ENDBRANCH   6   7
ENDBRANCH   5   6
ENDBRANCH   4   5
TORSDOF 4
ENDMDL
MODEL      223
REMARK 921   NORMALIZED FREE ENERGY PREDICTED BY IDOCK:   -2.71 KCAL/MOL
REMARK 922        TOTAL FREE ENERGY PREDICTED BY IDOCK:   -3.57 KCAL/MOL
REMARK 923 INTER-LIGAND FREE ENERGY PREDICTED BY IDOCK:   -3.26 KCAL/MOL
REMARK 924 INTRA-LIGAND FREE ENERGY PREDICTED BY IDOCK:   -0.32 KCAL/MOL
REMARK 927      BINDING AFFINITY PREDICTED BY RF-SCORE:    0.00 PKD
ROOT
HETATM    1  O   UNL     1      -8.262   9.176  71.822  1.00  0.00    -0.340 OA 
HETATM    2  N   UNL     1      -9.356   9.180  71.258  1.00  0.00    -0.249 N  
HETATM    3  O   UNL     1      -9.643   9.466  70.094  1.00  0.00    -0.204 OA 
HETATM    4  O   UNL     1     -10.417   8.823  72.124  1.00  0.00    -0.337 OA 
ENDROOT
BRANCH   4   5
HETATM    5  C   UNL     1     -11.671   8.778  71.449  1.00  0.00    -0.305 C  
BRANCH   5   6
HETATM    6  C   UNL     1     -12.172   7.332  71.462  1.00  0.00    -0.352 C  
BRANCH   6   7
HETATM    7  N   UNL     1     -11.121   6.355  71.249  1.00  0.00    -0.270 N  
HETATM    8  C   UNL     1     -10.802   5.427  72.221  1.00  0.00    -0.227 C  
HETATM    9  H   UNL     1     -10.610   6.353  70.367  1.00  0.00     0.000 HD 
HETATM   10  O   UNL     1     -11.348   5.384  73.316  1.00  0.00    -0.289 OA 
BRANCH   8  11
HETATM   11  C   UNL     1      -9.716   4.480  71.897  1.00  0.00    -0.229 A  
HETATM   12  C   UNL     1      -8.675   4.193  72.782  1.00  0.00    -0.108 A  
HETATM   13  C   UNL     1      -7.676   3.306  72.388  1.00  0.00    -0.058 A  
HETATM   14  C   UNL     1      -7.756   2.739  71.124  1.00  0.00    -0.043 A  
HETATM   15  N   UNL     1      -8.749   2.998  70.247  1.00  0.00    -0.068 NA 
HETATM   16  C   UNL     1      -9.704   3.874  70.648  1.00  0.00    -0.178 A  
ENDBRANCH   8  11
ENDBRANCH   6   7
ENDBRANCH   5   6
ENDBRANCH   4   5
TORSDOF 4
ENDMDL
MODEL      224
REMARK 921   NORMALIZED FREE ENERGY PREDICTED BY IDOCK:   -2.70 KCAL/MOL
REMARK 922        TOTAL FREE ENERGY PREDICTED BY IDOCK:   -3.55 KCAL/MOL
REMARK 923 INTER-LIGAND FREE ENERGY PREDICTED BY IDOCK:   -3.22 KCAL/MOL
REMARK 924 INTRA-LIGAND FREE ENERGY PREDICTED BY IDOCK:   -0.33 KCAL/MOL
REMARK 927      BINDING AFFINITY PREDICTED BY RF-SCORE:    0.00 PKD
ROOT
HETATM    1  O   UNL     1      -8.893  10.738  68.578  1.00  0.00    -0.135 OA 
HETATM    2  N   UNL     1      -9.784   9.938  68.861  1.00  0.00    -0.168 N  
HETATM    3  O   UNL     1     -10.146   8.918  68.270  1.00  0.00    -0.173 OA 
HETATM    4  O   UNL     1     -10.490  10.300  70.033  1.00  0.00    -0.268 OA 
ENDROOT
BRANCH   4   5
HETATM    5  C   UNL     1     -11.483   9.339  70.382  1.00  0.00    -0.213 C  
BRANCH   5   6
HETATM    6  C   UNL     1     -11.111   8.735  71.738  1.00  0.00    -0.347 C  
BRANCH   6   7
HETATM    7  N   UNL     1     -10.475   7.435  71.637  1.00  0.00    -0.198 N  
HETATM    8  C   UNL     1     -11.191   6.272  71.840  1.00  0.00    -0.283 C  
HETATM    9  H   UNL     1      -9.482   7.380  71.413  1.00  0.00     0.000 HD 
HETATM   10  O   UNL     1     -12.378   6.256  72.142  1.00  0.00    -0.315 OA 
BRANCH   8  11
HETATM   11  C   UNL     1     -10.442   5.006  71.713  1.00  0.00    -0.246 A  
HETATM   12  C   UNL     1      -9.970   4.527  70.490  1.00  0.00    -0.278 A  
HETATM   13  C   UNL     1      -9.293   3.310  70.454  1.00  0.00    -0.237 A  
HETATM   14  C   UNL     1      -9.114   2.619  71.643  1.00  0.00    -0.092 A  
HETATM   15  N   UNL     1      -9.560   3.056  72.840  1.00  0.00    -0.100 NA 
HETATM   16  C   UNL     1     -10.227   4.237  72.849  1.00  0.00    -0.167 A  
ENDBRANCH   8  11
ENDBRANCH   6   7
ENDBRANCH   5   6
ENDBRANCH   4   5
TORSDOF 4
ENDMDL
MODEL      225
REMARK 921   NORMALIZED FREE ENERGY PREDICTED BY IDOCK:   -2.68 KCAL/MOL
REMARK 922        TOTAL FREE ENERGY PREDICTED BY IDOCK:   -3.53 KCAL/MOL
REMARK 923 INTER-LIGAND FREE ENERGY PREDICTED BY IDOCK:   -3.24 KCAL/MOL
REMARK 924 INTRA-LIGAND FREE ENERGY PREDICTED BY IDOCK:   -0.30 KCAL/MOL
REMARK 927      BINDING AFFINITY PREDICTED BY RF-SCORE:    0.00 PKD
ROOT
HETATM    1  O   UNL     1      -7.776   9.948  66.892  1.00  0.00    -0.098 OA 
HETATM    2  N   UNL     1      -8.945   9.583  66.766  1.00  0.00    -0.136 N  
HETATM    3  O   UNL     1      -9.932  10.214  66.385  1.00  0.00    -0.212 OA 
HETATM    4  O   UNL     1      -9.140   8.236  67.156  1.00  0.00    -0.134 OA 
ENDROOT
BRANCH   4   5
HETATM    5  C   UNL     1     -10.484   7.807  66.954  1.00  0.00    -0.317 C  
BRANCH   5   6
HETATM    6  C   UNL     1     -10.738   6.588  67.844  1.00  0.00    -0.287 C  
BRANCH   6   7
HETATM    7  N   UNL     1     -10.146   6.702  69.163  1.00  0.00    -0.163 N  
HETATM    8  C   UNL     1     -10.917   6.592  70.303  1.00  0.00    -0.310 C  
HETATM    9  H   UNL     1      -9.143   6.865  69.250  1.00  0.00     0.000 HD 
HETATM   10  O   UNL     1     -12.130   6.426  70.282  1.00  0.00    -0.294 OA 
BRANCH   8  11
HETATM   11  C   UNL     1     -10.210   6.724  71.593  1.00  0.00    -0.208 A  
HETATM   12  C   UNL     1      -8.826   6.592  71.712  1.00  0.00    -0.138 A  
HETATM   13  C   UNL     1      -8.240   6.707  72.971  1.00  0.00    -0.116 A  
HETATM   14  C   UNL     1      -9.061   6.950  74.062  1.00  0.00    -0.195 A  
HETATM   15  N   UNL     1     -10.402   7.082  73.977  1.00  0.00    -0.349 NA 
HETATM   16  C   UNL     1     -10.952   6.954  72.744  1.00  0.00    -0.280 A  
ENDBRANCH   8  11
ENDBRANCH   6   7
ENDBRANCH   5   6
ENDBRANCH   4   5
TORSDOF 4
ENDMDL
MODEL      226
REMARK 921   NORMALIZED FREE ENERGY PREDICTED BY IDOCK:   -2.65 KCAL/MOL
REMARK 922        TOTAL FREE ENERGY PREDICTED BY IDOCK:   -3.50 KCAL/MOL
REMARK 923 INTER-LIGAND FREE ENERGY PREDICTED BY IDOCK:   -3.09 KCAL/MOL
REMARK 924 INTRA-LIGAND FREE ENERGY PREDICTED BY IDOCK:   -0.41 KCAL/MOL
REMARK 927      BINDING AFFINITY PREDICTED BY RF-SCORE:    0.00 PKD
ROOT
HETATM    1  O   UNL     1      -6.046   9.745  64.950  1.00  0.00    -0.078 OA 
HETATM    2  N   UNL     1      -6.832   8.837  65.220  1.00  0.00    -0.071 N  
HETATM    3  O   UNL     1      -7.918   8.554  64.710  1.00  0.00    -0.126 OA 
HETATM    4  O   UNL     1      -6.394   8.041  66.306  1.00  0.00    -0.045 OA 
ENDROOT
BRANCH   4   5
HETATM    5  C   UNL     1      -7.282   6.961  66.575  1.00  0.00    -0.072 C  
BRANCH   5   6
HETATM    6  C   UNL     1      -7.964   7.223  67.920  1.00  0.00    -0.119 C  
BRANCH   6   7
HETATM    7  N   UNL     1      -8.687   8.479  67.967  1.00  0.00    -0.141 N  
HETATM    8  C   UNL     1      -9.948   8.598  67.417  1.00  0.00    -0.210 C  
HETATM    9  H   UNL     1      -8.256   9.288  68.413  1.00  0.00     0.000 HD 
HETATM   10  O   UNL     1     -10.519   7.683  66.838  1.00  0.00    -0.315 OA 
BRANCH   8  11
HETATM   11  C   UNL     1     -10.590   9.924  67.522  1.00  0.00    -0.333 A  
HETATM   12  C   UNL     1     -10.583  10.851  66.479  1.00  0.00    -0.295 A  
HETATM   13  C   UNL     1     -11.192  12.090  66.669  1.00  0.00    -0.380 A  
HETATM   14  C   UNL     1     -11.784  12.354  67.895  1.00  0.00    -0.360 A  
HETATM   15  N   UNL     1     -11.806  11.477  68.922  1.00  0.00    -0.334 NA 
HETATM   16  C   UNL     1     -11.197  10.283  68.718  1.00  0.00    -0.206 A  
ENDBRANCH   8  11
ENDBRANCH   6   7
ENDBRANCH   5   6
ENDBRANCH   4   5
TORSDOF 4
ENDMDL
MODEL      227
REMARK 921   NORMALIZED FREE ENERGY PREDICTED BY IDOCK:   -2.46 KCAL/MOL
REMARK 922        TOTAL FREE ENERGY PREDICTED BY IDOCK:   -3.26 KCAL/MOL
REMARK 923 INTER-LIGAND FREE ENERGY PREDICTED BY IDOCK:   -3.05 KCAL/MOL
REMARK 924 INTRA-LIGAND FREE ENERGY PREDICTED BY IDOCK:   -0.21 KCAL/MOL
REMARK 927      BINDING AFFINITY PREDICTED BY RF-SCORE:    0.00 PKD
ROOT
HETATM    1  O   UNL     1     -10.743   2.926  63.764  1.00  0.00    -0.210 OA 
HETATM    2  N   UNL     1     -10.042   3.381  64.667  1.00  0.00    -0.124 N  
HETATM    3  O   UNL     1      -8.988   2.953  65.141  1.00  0.00    -0.124 OA 
HETATM    4  O   UNL     1     -10.582   4.560  65.235  1.00  0.00    -0.237 OA 
ENDROOT
BRANCH   4   5
HETATM    5  C   UNL     1      -9.735   5.110  66.240  1.00  0.00    -0.174 C  
BRANCH   5   6
HETATM    6  C   UNL     1      -9.518   6.593  65.929  1.00  0.00     0.160 C  
BRANCH   6   7
HETATM    7  N   UNL     1     -10.288   7.481  66.778  1.00  0.00    -0.441 N  
HETATM    8  C   UNL     1      -9.681   8.509  67.472  1.00  0.00    -0.162 C  
HETATM    9  H   UNL     1     -11.294   7.344  66.864  1.00  0.00     0.000 HD 
HETATM   10  O   UNL     1      -8.475   8.719  67.445  1.00  0.00    -0.115 OA 
BRANCH   8  11
HETATM   11  C   UNL     1     -10.561   9.351  68.307  1.00  0.00    -0.256 A  
HETATM   12  C   UNL     1     -10.948  10.639  67.935  1.00  0.00    -0.351 A  
HETATM   13  C   UNL     1     -11.761  11.377  68.793  1.00  0.00    -0.404 A  
HETATM   14  C   UNL     1     -12.157  10.797  69.989  1.00  0.00    -0.345 A  
HETATM   15  N   UNL     1     -11.798   9.554  70.376  1.00  0.00    -0.183 NA 
HETATM   16  C   UNL     1     -10.996   8.859  69.530  1.00  0.00    -0.084 A  
ENDBRANCH   8  11
ENDBRANCH   6   7
ENDBRANCH   5   6
ENDBRANCH   4   5
TORSDOF 4
ENDMDL
MODEL      228
REMARK 921   NORMALIZED FREE ENERGY PREDICTED BY IDOCK:   -2.43 KCAL/MOL
REMARK 922        TOTAL FREE ENERGY PREDICTED BY IDOCK:   -3.22 KCAL/MOL
REMARK 923 INTER-LIGAND FREE ENERGY PREDICTED BY IDOCK:   -3.00 KCAL/MOL
REMARK 924 INTRA-LIGAND FREE ENERGY PREDICTED BY IDOCK:   -0.22 KCAL/MOL
REMARK 927      BINDING AFFINITY PREDICTED BY RF-SCORE:    0.00 PKD
ROOT
HETATM    1  O   UNL     1     -10.227   4.991  66.618  1.00  0.00    -0.214 OA 
HETATM    2  N   UNL     1      -9.414   5.460  67.414  1.00  0.00    -0.116 N  
HETATM    3  O   UNL     1      -8.217   5.204  67.564  1.00  0.00    -0.103 OA 
HETATM    4  O   UNL     1      -9.992   6.413  68.287  1.00  0.00    -0.132 OA 
ENDROOT
BRANCH   4   5
HETATM    5  C   UNL     1      -9.032   6.990  69.167  1.00  0.00    -0.134 C  
BRANCH   5   6
HETATM    6  C   UNL     1      -8.620   8.352  68.603  1.00  0.00    -0.132 C  
BRANCH   6   7
HETATM    7  N   UNL     1      -9.457   9.444  69.060  1.00  0.00    -0.156 N  
HETATM    8  C   UNL     1     -10.082  10.288  68.163  1.00  0.00    -0.150 C  
HETATM    9  H   UNL     1      -9.585   9.592  70.060  1.00  0.00     0.000 HD 
HETATM   10  O   UNL     1      -9.953  10.195  66.949  1.00  0.00    -0.189 OA 
BRANCH   8  11
HETATM   11  C   UNL     1     -10.909  11.367  68.740  1.00  0.00    -0.251 A  
HETATM   12  C   UNL     1     -11.160  12.566  68.072  1.00  0.00    -0.285 A  
HETATM   13  C   UNL     1     -11.932  13.543  68.698  1.00  0.00    -0.378 A  
HETATM   14  C   UNL     1     -12.423  13.282  69.968  1.00  0.00    -0.100 A  
HETATM   15  N   UNL     1     -12.197  12.132  70.640  1.00  0.00    -0.364 NA 
HETATM   16  C   UNL     1     -11.433  11.201  70.015  1.00  0.00    -0.292 A  
ENDBRANCH   8  11
ENDBRANCH   6   7
ENDBRANCH   5   6
ENDBRANCH   4   5
TORSDOF 4
ENDMDL
MODEL      229
REMARK 921   NORMALIZED FREE ENERGY PREDICTED BY IDOCK:   -2.38 KCAL/MOL
REMARK 922        TOTAL FREE ENERGY PREDICTED BY IDOCK:   -3.16 KCAL/MOL
REMARK 923 INTER-LIGAND FREE ENERGY PREDICTED BY IDOCK:   -2.86 KCAL/MOL
REMARK 924 INTRA-LIGAND FREE ENERGY PREDICTED BY IDOCK:   -0.30 KCAL/MOL
REMARK 927      BINDING AFFINITY PREDICTED BY RF-SCORE:    0.00 PKD
ROOT
HETATM    1  O   UNL     1      -7.269   8.499  65.950  1.00  0.00    -0.074 OA 
HETATM    2  N   UNL     1      -8.017   9.463  66.109  1.00  0.00    -0.109 N  
HETATM    3  O   UNL     1      -9.208   9.595  65.822  1.00  0.00    -0.177 OA 
HETATM    4  O   UNL     1      -7.357  10.575  66.686  1.00  0.00    -0.107 OA 
ENDROOT
BRANCH   4   5
HETATM    5  C   UNL     1      -8.243  11.667  66.917  1.00  0.00    -0.169 C  
BRANCH   5   6
HETATM    6  C   UNL     1      -8.704  11.612  68.375  1.00  0.00    -0.158 C  
BRANCH   6   7
HETATM    7  N   UNL     1      -9.449  10.412  68.701  1.00  0.00    -0.159 N  
HETATM    8  C   UNL     1      -9.127   9.649  69.806  1.00  0.00    -0.215 C  
HETATM    9  H   UNL     1     -10.225  10.126  68.103  1.00  0.00     0.000 HD 
HETATM   10  O   UNL     1      -8.192   9.909  70.553  1.00  0.00    -0.206 OA 
BRANCH   8  11
HETATM   11  C   UNL     1      -9.952   8.448  70.042  1.00  0.00    -0.188 A  
HETATM   12  C   UNL     1     -11.175   8.491  70.712  1.00  0.00    -0.289 A  
HETATM   13  C   UNL     1     -11.880   7.306  70.915  1.00  0.00    -0.351 A  
HETATM   14  C   UNL     1     -11.335   6.124  70.438  1.00  0.00    -0.328 A  
HETATM   15  N   UNL     1     -10.154   6.051  69.786  1.00  0.00    -0.179 NA 
HETATM   16  C   UNL     1      -9.480   7.215  69.612  1.00  0.00    -0.152 A  
ENDBRANCH   8  11
ENDBRANCH   6   7
ENDBRANCH   5   6
ENDBRANCH   4   5
TORSDOF 4
ENDMDL
MODEL      230
REMARK 921   NORMALIZED FREE ENERGY PREDICTED BY IDOCK:   -2.34 KCAL/MOL
REMARK 922        TOTAL FREE ENERGY PREDICTED BY IDOCK:   -3.11 KCAL/MOL
REMARK 923 INTER-LIGAND FREE ENERGY PREDICTED BY IDOCK:   -2.76 KCAL/MOL
REMARK 924 INTRA-LIGAND FREE ENERGY PREDICTED BY IDOCK:   -0.35 KCAL/MOL
REMARK 927      BINDING AFFINITY PREDICTED BY RF-SCORE:    0.00 PKD
ROOT
HETATM    1  O   UNL     1      -7.269   8.961  71.279  1.00  0.00    -0.095 OA 
HETATM    2  N   UNL     1      -8.229   8.706  72.005  1.00  0.00    -0.123 N  
HETATM    3  O   UNL     1      -9.417   9.013  71.881  1.00  0.00    -0.313 OA 
HETATM    4  O   UNL     1      -7.862   7.972  73.159  1.00  0.00    -0.133 OA 
ENDROOT
BRANCH   4   5
HETATM    5  C   UNL     1      -8.987   7.635  73.964  1.00  0.00    -0.245 C  
BRANCH   5   6
HETATM    6  C   UNL     1      -8.959   6.127  74.223  1.00  0.00    -0.135 C  
BRANCH   6   7
HETATM    7  N   UNL     1      -8.853   5.335  73.013  1.00  0.00    -0.117 N  
HETATM    8  C   UNL     1      -9.955   4.694  72.480  1.00  0.00    -0.168 C  
HETATM    9  H   UNL     1      -7.950   5.249  72.548  1.00  0.00     0.000 HD 
HETATM   10  O   UNL     1     -11.065   4.724  72.996  1.00  0.00    -0.257 OA 
BRANCH   8  11
HETATM   11  C   UNL     1      -9.731   3.915  71.246  1.00  0.00    -0.247 A  
HETATM   12  C   UNL     1      -9.486   2.541  71.255  1.00  0.00    -0.220 A  
HETATM   13  C   UNL     1      -9.261   1.885  70.046  1.00  0.00    -0.173 A  
HETATM   14  C   UNL     1      -9.290   2.628  68.876  1.00  0.00    -0.155 A  
HETATM   15  N   UNL     1      -9.524   3.958  68.836  1.00  0.00    -0.170 NA 
HETATM   16  C   UNL     1      -9.728   4.577  70.026  1.00  0.00    -0.213 A  
ENDBRANCH   8  11
ENDBRANCH   6   7
ENDBRANCH   5   6
ENDBRANCH   4   5
TORSDOF 4
ENDMDL
MODEL      231
REMARK 921   NORMALIZED FREE ENERGY PREDICTED BY IDOCK:   -2.32 KCAL/MOL
REMARK 922        TOTAL FREE ENERGY PREDICTED BY IDOCK:   -3.08 KCAL/MOL
REMARK 923 INTER-LIGAND FREE ENERGY PREDICTED BY IDOCK:   -2.64 KCAL/MOL
REMARK 924 INTRA-LIGAND FREE ENERGY PREDICTED BY IDOCK:   -0.44 KCAL/MOL
REMARK 927      BINDING AFFINITY PREDICTED BY RF-SCORE:    0.00 PKD
ROOT
HETATM    1  O   UNL     1      -8.778   8.519  71.095  1.00  0.00    -0.142 OA 
HETATM    2  N   UNL     1      -9.723   7.742  71.228  1.00  0.00    -0.157 N  
HETATM    3  O   UNL     1     -10.805   7.706  70.637  1.00  0.00    -0.228 OA 
HETATM    4  O   UNL     1      -9.501   6.780  72.242  1.00  0.00    -0.144 OA 
ENDROOT
BRANCH   4   5
HETATM    5  C   UNL     1     -10.576   5.852  72.350  1.00  0.00    -0.217 C  
BRANCH   5   6
HETATM    6  C   UNL     1     -10.163   4.554  71.654  1.00  0.00    -0.144 C  
BRANCH   6   7
HETATM    7  N   UNL     1     -10.264   4.614  70.209  1.00  0.00    -0.204 N  
HETATM    8  C   UNL     1      -9.302   4.043  69.401  1.00  0.00    -0.173 C  
HETATM    9  H   UNL     1     -11.060   5.088  69.782  1.00  0.00     0.000 HD 
HETATM   10  O   UNL     1      -8.302   3.484  69.836  1.00  0.00    -0.052 OA 
BRANCH   8  11
HETATM   11  C   UNL     1      -9.506   4.165  67.944  1.00  0.00    -0.219 A  
HETATM   12  C   UNL     1     -10.294   5.166  67.373  1.00  0.00    -0.209 A  
HETATM   13  C   UNL     1     -10.456   5.196  65.989  1.00  0.00    -0.241 A  
HETATM   14  C   UNL     1      -9.822   4.224  65.229  1.00  0.00    -0.207 A  
HETATM   15  N   UNL     1      -9.054   3.244  65.753  1.00  0.00    -0.149 NA 
HETATM   16  C   UNL     1      -8.921   3.228  67.103  1.00  0.00    -0.157 A  
ENDBRANCH   8  11
ENDBRANCH   6   7
ENDBRANCH   5   6
ENDBRANCH   4   5
TORSDOF 4
ENDMDL
MODEL      232
REMARK 921   NORMALIZED FREE ENERGY PREDICTED BY IDOCK:   -2.19 KCAL/MOL
REMARK 922        TOTAL FREE ENERGY PREDICTED BY IDOCK:   -2.93 KCAL/MOL
REMARK 923 INTER-LIGAND FREE ENERGY PREDICTED BY IDOCK:   -2.35 KCAL/MOL
REMARK 924 INTRA-LIGAND FREE ENERGY PREDICTED BY IDOCK:   -0.58 KCAL/MOL
REMARK 927      BINDING AFFINITY PREDICTED BY RF-SCORE:    0.00 PKD
ROOT
HETATM    1  O   UNL     1      -6.746   9.944  70.868  1.00  0.00    -0.265 OA 
HETATM    2  N   UNL     1      -7.850   9.860  70.330  1.00  0.00    -0.176 N  
HETATM    3  O   UNL     1      -8.803   9.124  70.593  1.00  0.00    -0.194 OA 
HETATM    4  O   UNL     1      -7.989  10.741  69.231  1.00  0.00    -0.147 OA 
ENDROOT
BRANCH   4   5
HETATM    5  C   UNL     1      -9.288  10.677  68.650  1.00  0.00    -0.177 C  
BRANCH   5   6
HETATM    6  C   UNL     1      -9.172   9.992  67.287  1.00  0.00    -0.141 C  
BRANCH   6   7
HETATM    7  N   UNL     1      -9.445   8.568  67.330  1.00  0.00    -0.150 N  
HETATM    8  C   UNL     1      -8.420   7.644  67.297  1.00  0.00    -0.121 C  
HETATM    9  H   UNL     1     -10.410   8.245  67.385  1.00  0.00     0.000 HD 
HETATM   10  O   UNL     1      -7.239   7.951  67.201  1.00  0.00    -0.086 OA 
BRANCH   8  11
HETATM   11  C   UNL     1      -8.814   6.221  67.346  1.00  0.00    -0.107 A  
HETATM   12  C   UNL     1      -9.360   5.550  66.251  1.00  0.00    -0.166 A  
HETATM   13  C   UNL     1      -9.727   4.213  66.389  1.00  0.00    -0.223 A  
HETATM   14  C   UNL     1      -9.534   3.599  67.617  1.00  0.00    -0.185 A  
HETATM   15  N   UNL     1      -9.009   4.222  68.694  1.00  0.00    -0.106 NA 
HETATM   16  C   UNL     1      -8.670   5.526  68.540  1.00  0.00    -0.105 A  
ENDBRANCH   8  11
ENDBRANCH   6   7
ENDBRANCH   5   6
ENDBRANCH   4   5
TORSDOF 4
ENDMDL
MODEL      233
REMARK 921   NORMALIZED FREE ENERGY PREDICTED BY IDOCK:   -2.16 KCAL/MOL
REMARK 922        TOTAL FREE ENERGY PREDICTED BY IDOCK:   -2.89 KCAL/MOL
REMARK 923 INTER-LIGAND FREE ENERGY PREDICTED BY IDOCK:   -2.61 KCAL/MOL
REMARK 924 INTRA-LIGAND FREE ENERGY PREDICTED BY IDOCK:   -0.28 KCAL/MOL
REMARK 927      BINDING AFFINITY PREDICTED BY RF-SCORE:    0.00 PKD
ROOT
HETATM    1  O   UNL     1      -9.856  10.229  63.197  1.00  0.00    -0.253 OA 
HETATM    2  N   UNL     1     -10.119  10.844  64.230  1.00  0.00    -0.325 N  
HETATM    3  O   UNL     1     -11.100  11.536  64.509  1.00  0.00    -0.321 OA 
HETATM    4  O   UNL     1      -9.099  10.733  65.205  1.00  0.00    -0.193 OA 
ENDROOT
BRANCH   4   5
HETATM    5  C   UNL     1      -9.436  11.403  66.416  1.00  0.00    -0.204 C  
BRANCH   5   6
HETATM    6  C   UNL     1      -8.878  10.590  67.587  1.00  0.00    -0.131 C  
BRANCH   6   7
HETATM    7  N   UNL     1      -9.072   9.160  67.442  1.00  0.00    -0.127 N  
HETATM    8  C   UNL     1      -9.103   8.329  68.545  1.00  0.00    -0.136 C  
HETATM    9  H   UNL     1      -9.188   8.762  66.511  1.00  0.00     0.000 HD 
HETATM   10  O   UNL     1      -8.941   8.726  69.692  1.00  0.00    -0.140 OA 
BRANCH   8  11
HETATM   11  C   UNL     1      -9.306   6.891  68.280  1.00  0.00    -0.125 A  
HETATM   12  C   UNL     1     -10.478   6.384  67.716  1.00  0.00    -0.281 A  
HETATM   13  C   UNL     1     -10.598   5.010  67.522  1.00  0.00    -0.019 A  
HETATM   14  C   UNL     1      -9.542   4.194  67.900  1.00  0.00    -0.148 A  
HETATM   15  N   UNL     1      -8.397   4.655  68.449  1.00  0.00    -0.090 NA 
HETATM   16  C   UNL     1      -8.307   5.995  68.639  1.00  0.00    -0.113 A  
ENDBRANCH   8  11
ENDBRANCH   6   7
ENDBRANCH   5   6
ENDBRANCH   4   5
TORSDOF 4
ENDMDL
MODEL      234
REMARK 921   NORMALIZED FREE ENERGY PREDICTED BY IDOCK:   -2.02 KCAL/MOL
REMARK 922        TOTAL FREE ENERGY PREDICTED BY IDOCK:   -2.72 KCAL/MOL
REMARK 923 INTER-LIGAND FREE ENERGY PREDICTED BY IDOCK:   -2.60 KCAL/MOL
REMARK 924 INTRA-LIGAND FREE ENERGY PREDICTED BY IDOCK:   -0.12 KCAL/MOL
REMARK 927      BINDING AFFINITY PREDICTED BY RF-SCORE:    0.00 PKD
ROOT
HETATM    1  O   UNL     1      -7.797   8.604  68.989  1.00  0.00    -0.096 OA 
HETATM    2  N   UNL     1      -8.544   7.693  68.634  1.00  0.00    -0.129 N  
HETATM    3  O   UNL     1      -8.290   6.659  68.013  1.00  0.00    -0.116 OA 
HETATM    4  O   UNL     1      -9.894   7.925  68.992  1.00  0.00    -0.164 OA 
ENDROOT
BRANCH   4   5
HETATM    5  C   UNL     1     -10.742   6.840  68.626  1.00  0.00    -0.234 C  
BRANCH   5   6
HETATM    6  C   UNL     1     -11.655   6.522  69.813  1.00  0.00    -0.327 C  
BRANCH   6   7
HETATM    7  N   UNL     1     -10.939   6.048  70.982  1.00  0.00    -0.284 N  
HETATM    8  C   UNL     1     -10.153   4.914  70.927  1.00  0.00    -0.222 C  
HETATM    9  H   UNL     1     -11.018   6.561  71.860  1.00  0.00     0.000 HD 
HETATM   10  O   UNL     1     -10.032   4.228  69.920  1.00  0.00    -0.221 OA 
BRANCH   8  11
HETATM   11  C   UNL     1      -9.471   4.524  72.176  1.00  0.00    -0.189 A  
HETATM   12  C   UNL     1     -10.051   3.675  73.120  1.00  0.00    -0.214 A  
HETATM   13  C   UNL     1      -9.348   3.376  74.286  1.00  0.00    -0.111 A  
HETATM   14  C   UNL     1      -8.092   3.937  74.462  1.00  0.00    -0.089 A  
HETATM   15  N   UNL     1      -7.506   4.761  73.567  1.00  0.00    -0.085 NA 
HETATM   16  C   UNL     1      -8.214   5.048  72.446  1.00  0.00    -0.120 A  
ENDBRANCH   8  11
ENDBRANCH   6   7
ENDBRANCH   5   6
ENDBRANCH   4   5
TORSDOF 4
ENDMDL
MODEL      235
REMARK 921   NORMALIZED FREE ENERGY PREDICTED BY IDOCK:   -1.93 KCAL/MOL
REMARK 922        TOTAL FREE ENERGY PREDICTED BY IDOCK:   -2.60 KCAL/MOL
REMARK 923 INTER-LIGAND FREE ENERGY PREDICTED BY IDOCK:   -2.26 KCAL/MOL
REMARK 924 INTRA-LIGAND FREE ENERGY PREDICTED BY IDOCK:   -0.34 KCAL/MOL
REMARK 927      BINDING AFFINITY PREDICTED BY RF-SCORE:    0.00 PKD
ROOT
HETATM    1  O   UNL     1      -8.897   9.783  69.781  1.00  0.00    -0.193 OA 
HETATM    2  N   UNL     1      -9.573   8.803  69.469  1.00  0.00    -0.165 N  
HETATM    3  O   UNL     1     -10.502   8.710  68.664  1.00  0.00    -0.211 OA 
HETATM    4  O   UNL     1      -9.212   7.639  70.188  1.00  0.00    -0.153 OA 
ENDROOT
BRANCH   4   5
HETATM    5  C   UNL     1      -9.963   6.499  69.780  1.00  0.00    -0.166 C  
BRANCH   5   6
HETATM    6  C   UNL     1      -8.990   5.455  69.227  1.00  0.00    -0.104 C  
BRANCH   6   7
HETATM    7  N   UNL     1      -8.810   5.536  67.790  1.00  0.00    -0.106 N  
HETATM    8  C   UNL     1      -9.181   4.493  66.965  1.00  0.00    -0.134 C  
HETATM    9  H   UNL     1      -8.402   6.377  67.383  1.00  0.00     0.000 HD 
HETATM   10  O   UNL     1      -9.648   3.440  67.379  1.00  0.00    -0.208 OA 
BRANCH   8  11
HETATM   11  C   UNL     1      -8.951   4.684  65.518  1.00  0.00    -0.142 A  
HETATM   12  C   UNL     1      -8.094   5.662  65.012  1.00  0.00    -0.122 A  
HETATM   13  C   UNL     1      -7.952   5.791  63.632  1.00  0.00    -0.120 A  
HETATM   14  C   UNL     1      -8.674   4.937  62.811  1.00  0.00    -0.120 A  
HETATM   15  N   UNL     1      -9.511   3.983  63.272  1.00  0.00    -0.143 NA 
HETATM   16  C   UNL     1      -9.642   3.884  64.618  1.00  0.00    -0.175 A  
ENDBRANCH   8  11
ENDBRANCH   6   7
ENDBRANCH   5   6
ENDBRANCH   4   5
TORSDOF 4
ENDMDL
MODEL      236
REMARK 921   NORMALIZED FREE ENERGY PREDICTED BY IDOCK:   -1.89 KCAL/MOL
REMARK 922        TOTAL FREE ENERGY PREDICTED BY IDOCK:   -2.56 KCAL/MOL
REMARK 923 INTER-LIGAND FREE ENERGY PREDICTED BY IDOCK:   -2.36 KCAL/MOL
REMARK 924 INTRA-LIGAND FREE ENERGY PREDICTED BY IDOCK:   -0.19 KCAL/MOL
REMARK 927      BINDING AFFINITY PREDICTED BY RF-SCORE:    0.00 PKD
ROOT
HETATM    1  O   UNL     1      -8.599   6.946  68.411  1.00  0.00    -0.125 OA 
HETATM    2  N   UNL     1      -8.997   8.107  68.489  1.00  0.00    -0.137 N  
HETATM    3  O   UNL     1     -10.023   8.558  69.003  1.00  0.00    -0.182 OA 
HETATM    4  O   UNL     1      -8.127   9.026  67.854  1.00  0.00    -0.105 OA 
ENDROOT
BRANCH   4   5
HETATM    5  C   UNL     1      -8.569  10.373  67.998  1.00  0.00    -0.123 C  
BRANCH   5   6
HETATM    6  C   UNL     1      -7.355  11.295  67.855  1.00  0.00    -0.092 C  
BRANCH   6   7
HETATM    7  N   UNL     1      -7.704  12.700  67.765  1.00  0.00    -0.131 N  
HETATM    8  C   UNL     1      -6.748  13.683  67.925  1.00  0.00    -0.153 C  
HETATM    9  H   UNL     1      -8.671  12.965  67.581  1.00  0.00     0.000 HD 
HETATM   10  O   UNL     1      -5.574  13.447  68.178  1.00  0.00    -0.087 OA 
BRANCH   8  11
HETATM   11  C   UNL     1      -7.215  15.080  67.814  1.00  0.00    -0.186 A  
HETATM   12  C   UNL     1      -6.767  16.096  68.659  1.00  0.00    -0.128 A  
HETATM   13  C   UNL     1      -7.278  17.383  68.502  1.00  0.00    -0.230 A  
HETATM   14  C   UNL     1      -8.216  17.605  67.505  1.00  0.00    -0.216 A  
HETATM   15  N   UNL     1      -8.668  16.642  66.673  1.00  0.00    -0.223 NA 
HETATM   16  C   UNL     1      -8.166  15.395  66.852  1.00  0.00    -0.246 A  
ENDBRANCH   8  11
ENDBRANCH   6   7
ENDBRANCH   5   6
ENDBRANCH   4   5
TORSDOF 4
ENDMDL
MODEL      237
REMARK 921   NORMALIZED FREE ENERGY PREDICTED BY IDOCK:   -1.78 KCAL/MOL
REMARK 922        TOTAL FREE ENERGY PREDICTED BY IDOCK:   -2.42 KCAL/MOL
REMARK 923 INTER-LIGAND FREE ENERGY PREDICTED BY IDOCK:   -2.21 KCAL/MOL
REMARK 924 INTRA-LIGAND FREE ENERGY PREDICTED BY IDOCK:   -0.21 KCAL/MOL
REMARK 927      BINDING AFFINITY PREDICTED BY RF-SCORE:    0.00 PKD
ROOT
HETATM    1  O   UNL     1      -9.870  15.627  70.867  1.00  0.00     0.636 OA 
HETATM    2  N   UNL     1     -10.376  14.871  70.039  1.00  0.00    -0.061 N  
HETATM    3  O   UNL     1     -11.563  14.658  69.784  1.00  0.00    -0.265 OA 
HETATM    4  O   UNL     1      -9.410  14.133  69.312  1.00  0.00     0.104 OA 
ENDROOT
BRANCH   4   5
HETATM    5  C   UNL     1     -10.003  13.302  68.319  1.00  0.00    -0.236 C  
BRANCH   5   6
HETATM    6  C   UNL     1      -9.842  13.986  66.960  1.00  0.00    -0.260 C  
BRANCH   6   7
HETATM    7  N   UNL     1      -9.828  15.434  67.040  1.00  0.00    -0.229 N  
HETATM    8  C   UNL     1     -10.100  16.213  65.932  1.00  0.00    -0.354 C  
HETATM    9  H   UNL     1      -9.614  15.885  67.929  1.00  0.00     0.000 HD 
HETATM   10  O   UNL     1     -10.335  15.748  64.824  1.00  0.00    -0.461 OA 
BRANCH   8  11
HETATM   11  C   UNL     1     -10.057  17.676  66.128  1.00  0.00    -0.307 A  
HETATM   12  C   UNL     1     -10.674  18.573  65.255  1.00  0.00     0.489 A  
HETATM   13  C   UNL     1     -10.565  19.940  65.499  1.00  0.00    -0.341 A  
HETATM   14  C   UNL     1      -9.844  20.358  66.608  1.00  0.00    -0.358 A  
HETATM   15  N   UNL     1      -9.237  19.514  67.470  1.00  0.00    -0.306 NA 
HETATM   16  C   UNL     1      -9.346  18.188  67.205  1.00  0.00    -0.263 A  
ENDBRANCH   8  11
ENDBRANCH   6   7
ENDBRANCH   5   6
ENDBRANCH   4   5
TORSDOF 4
ENDMDL
MODEL      238
REMARK 921   NORMALIZED FREE ENERGY PREDICTED BY IDOCK:   -1.67 KCAL/MOL
REMARK 922        TOTAL FREE ENERGY PREDICTED BY IDOCK:   -2.29 KCAL/MOL
REMARK 923 INTER-LIGAND FREE ENERGY PREDICTED BY IDOCK:   -2.03 KCAL/MOL
REMARK 924 INTRA-LIGAND FREE ENERGY PREDICTED BY IDOCK:   -0.26 KCAL/MOL
REMARK 927      BINDING AFFINITY PREDICTED BY RF-SCORE:    0.00 PKD
ROOT
HETATM    1  O   UNL     1     -10.273   4.530  65.293  1.00  0.00    -0.206 OA 
HETATM    2  N   UNL     1     -10.099   4.224  66.472  1.00  0.00    -0.196 N  
HETATM    3  O   UNL     1      -9.531   3.243  66.958  1.00  0.00    -0.193 OA 
HETATM    4  O   UNL     1     -10.679   5.153  67.368  1.00  0.00    -0.119 OA 
ENDROOT
BRANCH   4   5
HETATM    5  C   UNL     1     -10.425   4.820  68.730  1.00  0.00     0.232 C  
BRANCH   5   6
HETATM    6  C   UNL     1      -9.351   5.770  69.265  1.00  0.00    -0.124 C  
BRANCH   6   7
HETATM    7  N   UNL     1      -9.700   7.171  69.131  1.00  0.00    -0.157 N  
HETATM    8  C   UNL     1      -8.725   8.143  69.024  1.00  0.00    -0.144 C  
HETATM    9  H   UNL     1     -10.683   7.443  69.116  1.00  0.00     0.000 HD 
HETATM   10  O   UNL     1      -7.526   7.900  69.065  1.00  0.00    -0.092 OA 
BRANCH   8  11
HETATM   11  C   UNL     1      -9.195   9.537  68.893  1.00  0.00    -0.145 A  
HETATM   12  C   UNL     1     -10.342  10.010  69.531  1.00  0.00    -0.256 A  
HETATM   13  C   UNL     1     -10.730  11.334  69.334  1.00  0.00    -0.188 A  
HETATM   14  C   UNL     1      -9.955  12.134  68.507  1.00  0.00    -0.175 A  
HETATM   15  N   UNL     1      -8.841  11.703  67.877  1.00  0.00    -0.149 NA 
HETATM   16  C   UNL     1      -8.490  10.408  68.074  1.00  0.00    -0.119 A  
ENDBRANCH   8  11
ENDBRANCH   6   7
ENDBRANCH   5   6
ENDBRANCH   4   5
TORSDOF 4
ENDMDL
MODEL      239
REMARK 921   NORMALIZED FREE ENERGY PREDICTED BY IDOCK:    8.23 KCAL/MOL
REMARK 922        TOTAL FREE ENERGY PREDICTED BY IDOCK:    9.93 KCAL/MOL
REMARK 923 INTER-LIGAND FREE ENERGY PREDICTED BY IDOCK:    7.68 KCAL/MOL
REMARK 924 INTRA-LIGAND FREE ENERGY PREDICTED BY IDOCK:    2.25 KCAL/MOL
REMARK 927      BINDING AFFINITY PREDICTED BY RF-SCORE:    0.00 PKD
ROOT
HETATM    1  O   UNL     1     -11.335  12.701  71.949  1.00  0.00     3.341 OA 
HETATM    2  N   UNL     1     -11.803  13.079  70.876  1.00  0.00     0.087 N  
HETATM    3  O   UNL     1     -12.276  12.423  69.945  1.00  0.00    -0.248 OA 
HETATM    4  O   UNL     1     -11.741  14.484  70.718  1.00  0.00    -0.297 OA 
ENDROOT
BRANCH   4   5
HETATM    5  C   UNL     1     -12.335  14.916  69.497  1.00  0.00    -0.167 C  
BRANCH   5   6
HETATM    6  C   UNL     1     -13.260  13.807  68.994  1.00  0.00     2.502 C  
BRANCH   6   7
HETATM    7  N   UNL     1     -13.281  13.682  67.549  1.00  0.00     2.038 N  
HETATM    8  C   UNL     1     -12.124  13.430  66.838  1.00  0.00    -0.354 C  
HETATM    9  H   UNL     1     -14.164  13.782  67.050  1.00  0.00     0.000 HD 
HETATM   10  O   UNL     1     -11.022  13.327  67.360  1.00  0.00    -0.263 OA 
BRANCH   8  11
HETATM   11  C   UNL     1     -12.262  13.323  65.372  1.00  0.00    -0.501 A  
HETATM   12  C   UNL     1     -11.678  14.234  64.490  1.00  0.00    -0.431 A  
HETATM   13  C   UNL     1     -11.878  14.074  63.120  1.00  0.00     0.820 A  
HETATM   14  C   UNL     1     -12.653  13.010  62.685  1.00  0.00     1.389 A  
HETATM   15  N   UNL     1     -13.231  12.114  63.514  1.00  0.00    -0.614 NA 
HETATM   16  C   UNL     1     -13.033  12.296  64.843  1.00  0.00     0.377 A  
ENDBRANCH   8  11
ENDBRANCH   6   7
ENDBRANCH   5   6
ENDBRANCH   4   5
TORSDOF 4
ENDMDL
