MODEL        1
REMARK 921   NORMALIZED FREE ENERGY PREDICTED BY IDOCK:   -4.98 KCAL/MOL
REMARK 922        TOTAL FREE ENERGY PREDICTED BY IDOCK:   -7.72 KCAL/MOL
REMARK 923 INTER-LIGAND FREE ENERGY PREDICTED BY IDOCK:   -7.30 KCAL/MOL
REMARK 924 INTRA-LIGAND FREE ENERGY PREDICTED BY IDOCK:   -0.41 KCAL/MOL
REMARK 927      BINDING AFFINITY PREDICTED BY RF-SCORE:    0.00 PKD
ROOT
HETATM    1  C   UNL     1     -12.624  15.554  74.018  1.00  0.00    -0.766 C  
HETATM    2  C   UNL     1     -13.160  14.566  72.997  1.00  0.00    -0.611 C  
ENDROOT
BRANCH   2   3
HETATM    3  C   UNL     1     -13.707  15.270  71.758  1.00  0.00    -0.605 C  
BRANCH   3   4
HETATM    4  C   UNL     1     -12.606  15.509  70.733  1.00  0.00    -0.452 C  
BRANCH   4   5
HETATM    5  O   UNL     1     -11.794  14.339  70.646  1.00  0.00    -0.300 OA 
BRANCH   5   6
HETATM    6  C   UNL     1     -11.833  13.788  69.329  1.00  0.00    -0.344 C  
BRANCH   6   7
HETATM    7  C   UNL     1     -11.780  12.266  69.401  1.00  0.00    -0.330 C  
BRANCH   7   8
HETATM    8  O   UNL     1     -12.014  11.683  68.109  1.00  0.00    -0.550 OA 
BRANCH   8   9
HETATM    9  C   UNL     1     -10.922  11.591  67.308  1.00  0.00    -0.271 C  
HETATM   10  O   UNL     1      -9.798  11.271  67.658  1.00  0.00    -0.172 OA 
BRANCH   9  11
HETATM   11  C   UNL     1     -11.264  11.978  65.923  1.00  0.00    -0.385 A  
HETATM   12  C   UNL     1     -12.259  12.926  65.727  1.00  0.00    -0.439 A  
HETATM   13  N   UNL     1     -12.668  13.352  64.506  1.00  0.00    -0.659 NA 
HETATM   14  C   UNL     1     -12.053  12.807  63.434  1.00  0.00    -0.534 A  
HETATM   15  C   UNL     1     -11.049  11.854  63.526  1.00  0.00    -0.506 A  
HETATM   16  C   UNL     1     -10.649  11.433  64.792  1.00  0.00    -0.377 A  
ENDBRANCH   9  11
ENDBRANCH   8   9
ENDBRANCH   7   8
ENDBRANCH   6   7
ENDBRANCH   5   6
ENDBRANCH   4   5
ENDBRANCH   3   4
ENDBRANCH   2   3
TORSDOF 8
ENDMDL
MODEL        2
REMARK 921   NORMALIZED FREE ENERGY PREDICTED BY IDOCK:   -4.94 KCAL/MOL
REMARK 922        TOTAL FREE ENERGY PREDICTED BY IDOCK:   -7.66 KCAL/MOL
REMARK 923 INTER-LIGAND FREE ENERGY PREDICTED BY IDOCK:   -7.39 KCAL/MOL
REMARK 924 INTRA-LIGAND FREE ENERGY PREDICTED BY IDOCK:   -0.28 KCAL/MOL
REMARK 927      BINDING AFFINITY PREDICTED BY RF-SCORE:    0.00 PKD
ROOT
HETATM    1  C   UNL     1     -12.827  15.687  73.458  1.00  0.00    -0.696 C  
HETATM    2  C   UNL     1     -13.675  14.862  72.506  1.00  0.00    -0.568 C  
ENDROOT
BRANCH   2   3
HETATM    3  C   UNL     1     -13.467  15.280  71.053  1.00  0.00    -0.516 C  
BRANCH   3   4
HETATM    4  C   UNL     1     -12.025  15.704  70.807  1.00  0.00    -0.398 C  
BRANCH   4   5
HETATM    5  O   UNL     1     -11.853  15.970  69.415  1.00  0.00    -0.325 OA 
BRANCH   5   6
HETATM    6  C   UNL     1     -10.604  16.617  69.170  1.00  0.00    -0.340 C  
BRANCH   6   7
HETATM    7  C   UNL     1     -10.346  16.699  67.670  1.00  0.00    -0.305 C  
BRANCH   7   8
HETATM    8  O   UNL     1     -11.039  15.651  66.972  1.00  0.00    -0.297 OA 
BRANCH   8   9
HETATM    9  C   UNL     1     -10.909  15.669  65.622  1.00  0.00    -0.327 C  
HETATM   10  O   UNL     1     -10.554  16.621  64.946  1.00  0.00    -0.694 OA 
BRANCH   9  11
HETATM   11  C   UNL     1     -11.300  14.364  65.048  1.00  0.00    -0.373 A  
HETATM   12  C   UNL     1     -12.610  13.935  65.212  1.00  0.00    -0.478 A  
HETATM   13  N   UNL     1     -13.084  12.755  64.742  1.00  0.00    -0.836 NA 
HETATM   14  C   UNL     1     -12.209  11.969  64.078  1.00  0.00    -0.403 A  
HETATM   15  C   UNL     1     -10.881  12.308  63.863  1.00  0.00    -0.464 A  
HETATM   16  C   UNL     1     -10.420  13.527  64.356  1.00  0.00    -0.366 A  
ENDBRANCH   9  11
ENDBRANCH   8   9
ENDBRANCH   7   8
ENDBRANCH   6   7
ENDBRANCH   5   6
ENDBRANCH   4   5
ENDBRANCH   3   4
ENDBRANCH   2   3
TORSDOF 8
ENDMDL
MODEL        3
REMARK 921   NORMALIZED FREE ENERGY PREDICTED BY IDOCK:   -4.80 KCAL/MOL
REMARK 922        TOTAL FREE ENERGY PREDICTED BY IDOCK:   -7.46 KCAL/MOL
REMARK 923 INTER-LIGAND FREE ENERGY PREDICTED BY IDOCK:   -7.12 KCAL/MOL
REMARK 924 INTRA-LIGAND FREE ENERGY PREDICTED BY IDOCK:   -0.34 KCAL/MOL
REMARK 927      BINDING AFFINITY PREDICTED BY RF-SCORE:    0.00 PKD
ROOT
HETATM    1  C   UNL     1     -12.830  15.715  73.736  1.00  0.00    -0.695 C  
HETATM    2  C   UNL     1     -13.474  15.203  72.459  1.00  0.00    -0.566 C  
ENDROOT
BRANCH   2   3
HETATM    3  C   UNL     1     -13.684  13.692  72.495  1.00  0.00    -0.663 C  
BRANCH   3   4
HETATM    4  C   UNL     1     -12.837  12.995  71.439  1.00  0.00    -0.292 C  
BRANCH   4   5
HETATM    5  O   UNL     1     -12.867  11.588  71.676  1.00  0.00    -0.408 OA 
BRANCH   5   6
HETATM    6  C   UNL     1     -12.502  10.865  70.500  1.00  0.00    -0.351 C  
BRANCH   6   7
HETATM    7  C   UNL     1     -11.687  11.759  69.572  1.00  0.00    -0.343 C  
BRANCH   7   8
HETATM    8  O   UNL     1     -12.192  11.698  68.228  1.00  0.00    -0.525 OA 
BRANCH   8   9
HETATM    9  C   UNL     1     -11.909  12.776  67.454  1.00  0.00    -0.342 C  
HETATM   10  O   UNL     1     -11.917  13.942  67.813  1.00  0.00    -0.358 OA 
BRANCH   9  11
HETATM   11  C   UNL     1     -11.621  12.354  66.067  1.00  0.00    -0.455 A  
HETATM   12  C   UNL     1     -10.578  11.464  65.850  1.00  0.00    -0.263 A  
HETATM   13  N   UNL     1     -10.211  11.013  64.624  1.00  0.00    -0.307 NA 
HETATM   14  C   UNL     1     -10.919  11.473  63.570  1.00  0.00    -0.373 A  
HETATM   15  C   UNL     1     -11.976  12.364  63.683  1.00  0.00    -0.626 A  
HETATM   16  C   UNL     1     -12.332  12.811  64.954  1.00  0.00    -0.551 A  
ENDBRANCH   9  11
ENDBRANCH   8   9
ENDBRANCH   7   8
ENDBRANCH   6   7
ENDBRANCH   5   6
ENDBRANCH   4   5
ENDBRANCH   3   4
ENDBRANCH   2   3
TORSDOF 8
ENDMDL
MODEL        4
REMARK 921   NORMALIZED FREE ENERGY PREDICTED BY IDOCK:   -4.72 KCAL/MOL
REMARK 922        TOTAL FREE ENERGY PREDICTED BY IDOCK:   -7.35 KCAL/MOL
REMARK 923 INTER-LIGAND FREE ENERGY PREDICTED BY IDOCK:   -7.03 KCAL/MOL
REMARK 924 INTRA-LIGAND FREE ENERGY PREDICTED BY IDOCK:   -0.32 KCAL/MOL
REMARK 927      BINDING AFFINITY PREDICTED BY RF-SCORE:    0.00 PKD
ROOT
HETATM    1  C   UNL     1      -9.528  11.267  62.779  1.00  0.00    -0.355 C  
HETATM    2  C   UNL     1     -10.618  11.294  63.838  1.00  0.00    -0.455 C  
ENDROOT
BRANCH   2   3
HETATM    3  C   UNL     1     -11.522  12.515  63.690  1.00  0.00    -0.568 C  
BRANCH   3   4
HETATM    4  C   UNL     1     -12.575  12.553  64.790  1.00  0.00    -0.413 C  
BRANCH   4   5
HETATM    5  O   UNL     1     -12.786  13.908  65.182  1.00  0.00    -0.695 OA 
BRANCH   5   6
HETATM    6  C   UNL     1     -11.756  14.349  66.067  1.00  0.00    -0.375 C  
BRANCH   6   7
HETATM    7  C   UNL     1     -11.688  13.433  67.283  1.00  0.00    -0.380 C  
BRANCH   7   8
HETATM    8  O   UNL     1     -12.261  14.069  68.438  1.00  0.00    -0.332 OA 
BRANCH   8   9
HETATM    9  C   UNL     1     -11.366  14.583  69.319  1.00  0.00    -0.285 C  
HETATM   10  O   UNL     1     -10.196  14.837  69.090  1.00  0.00    -0.233 OA 
BRANCH   9  11
HETATM   11  C   UNL     1     -11.995  14.766  70.645  1.00  0.00    -0.371 A  
HETATM   12  C   UNL     1     -11.677  15.903  71.376  1.00  0.00    -0.467 A  
HETATM   13  N   UNL     1     -12.179  16.175  72.606  1.00  0.00    -0.511 NA 
HETATM   14  C   UNL     1     -13.037  15.271  73.127  1.00  0.00    -0.518 A  
HETATM   15  C   UNL     1     -13.416  14.107  72.476  1.00  0.00    -0.634 A  
HETATM   16  C   UNL     1     -12.885  13.851  71.213  1.00  0.00    -0.435 A  
ENDBRANCH   9  11
ENDBRANCH   8   9
ENDBRANCH   7   8
ENDBRANCH   6   7
ENDBRANCH   5   6
ENDBRANCH   4   5
ENDBRANCH   3   4
ENDBRANCH   2   3
TORSDOF 8
ENDMDL
MODEL        5
REMARK 921   NORMALIZED FREE ENERGY PREDICTED BY IDOCK:   -4.72 KCAL/MOL
REMARK 922        TOTAL FREE ENERGY PREDICTED BY IDOCK:   -7.34 KCAL/MOL
REMARK 923 INTER-LIGAND FREE ENERGY PREDICTED BY IDOCK:   -6.90 KCAL/MOL
REMARK 924 INTRA-LIGAND FREE ENERGY PREDICTED BY IDOCK:   -0.44 KCAL/MOL
REMARK 927      BINDING AFFINITY PREDICTED BY RF-SCORE:    0.00 PKD
ROOT
HETATM    1  C   UNL     1      -8.356  19.821  66.400  1.00  0.00    -0.378 C  
HETATM    2  C   UNL     1      -9.837  20.154  66.346  1.00  0.00    -0.560 C  
ENDROOT
BRANCH   2   3
HETATM    3  C   UNL     1     -10.634  19.366  67.383  1.00  0.00    -0.603 C  
BRANCH   3   4
HETATM    4  C   UNL     1      -9.723  18.816  68.472  1.00  0.00    -0.380 C  
BRANCH   4   5
HETATM    5  O   UNL     1     -10.117  17.478  68.772  1.00  0.00    -0.331 OA 
BRANCH   5   6
HETATM    6  C   UNL     1     -10.900  16.927  67.713  1.00  0.00    -0.281 C  
BRANCH   6   7
HETATM    7  C   UNL     1     -10.183  15.726  67.107  1.00  0.00    -0.279 C  
BRANCH   7   8
HETATM    8  O   UNL     1      -9.803  15.989  65.747  1.00  0.00    -0.313 OA 
BRANCH   8   9
HETATM    9  C   UNL     1     -10.787  15.825  64.827  1.00  0.00    -0.344 C  
HETATM   10  O   UNL     1     -11.345  16.714  64.205  1.00  0.00    -1.116 OA 
BRANCH   9  11
HETATM   11  C   UNL     1     -11.138  14.395  64.696  1.00  0.00    -0.363 A  
HETATM   12  C   UNL     1     -12.462  14.020  64.880  1.00  0.00    -0.396 A  
HETATM   13  N   UNL     1     -12.903  12.740  64.796  1.00  0.00    -0.796 NA 
HETATM   14  C   UNL     1     -11.980  11.795  64.516  1.00  0.00    -0.115 A  
HETATM   15  C   UNL     1     -10.635  12.069  64.316  1.00  0.00    -0.377 A  
HETATM   16  C   UNL     1     -10.208  13.392  64.407  1.00  0.00    -0.262 A  
ENDBRANCH   9  11
ENDBRANCH   8   9
ENDBRANCH   7   8
ENDBRANCH   6   7
ENDBRANCH   5   6
ENDBRANCH   4   5
ENDBRANCH   3   4
ENDBRANCH   2   3
TORSDOF 8
ENDMDL
MODEL        6
REMARK 921   NORMALIZED FREE ENERGY PREDICTED BY IDOCK:   -4.71 KCAL/MOL
REMARK 922        TOTAL FREE ENERGY PREDICTED BY IDOCK:   -7.33 KCAL/MOL
REMARK 923 INTER-LIGAND FREE ENERGY PREDICTED BY IDOCK:   -6.66 KCAL/MOL
REMARK 924 INTRA-LIGAND FREE ENERGY PREDICTED BY IDOCK:   -0.67 KCAL/MOL
REMARK 927      BINDING AFFINITY PREDICTED BY RF-SCORE:    0.00 PKD
ROOT
HETATM    1  C   UNL     1     -12.126   8.483  72.152  1.00  0.00    -0.449 C  
HETATM    2  C   UNL     1     -13.316   9.418  72.022  1.00  0.00    -0.525 C  
ENDROOT
BRANCH   2   3
HETATM    3  C   UNL     1     -12.926  10.746  71.379  1.00  0.00    -0.535 C  
BRANCH   3   4
HETATM    4  C   UNL     1     -11.820  10.553  70.349  1.00  0.00    -0.340 C  
BRANCH   4   5
HETATM    5  O   UNL     1     -12.292  10.991  69.076  1.00  0.00    -0.481 OA 
BRANCH   5   6
HETATM    6  C   UNL     1     -11.217  11.485  68.277  1.00  0.00    -0.261 C  
BRANCH   6   7
HETATM    7  C   UNL     1     -11.583  12.847  67.698  1.00  0.00    -0.355 C  
BRANCH   7   8
HETATM    8  O   UNL     1     -12.282  13.646  68.668  1.00  0.00    -0.339 OA 
BRANCH   8   9
HETATM    9  C   UNL     1     -11.502  14.476  69.405  1.00  0.00    -0.285 C  
HETATM   10  O   UNL     1     -10.368  14.830  69.130  1.00  0.00    -0.235 OA 
BRANCH   9  11
HETATM   11  C   UNL     1     -12.203  14.880  70.642  1.00  0.00    -0.379 A  
HETATM   12  C   UNL     1     -11.568  15.765  71.504  1.00  0.00    -0.459 A  
HETATM   13  N   UNL     1     -12.104  16.199  72.671  1.00  0.00    -0.525 NA 
HETATM   14  C   UNL     1     -13.329  15.728  72.991  1.00  0.00    -0.583 A  
HETATM   15  C   UNL     1     -14.043  14.841  72.199  1.00  0.00    -0.604 A  
HETATM   16  C   UNL     1     -13.469  14.411  71.004  1.00  0.00    -0.309 A  
ENDBRANCH   9  11
ENDBRANCH   8   9
ENDBRANCH   7   8
ENDBRANCH   6   7
ENDBRANCH   5   6
ENDBRANCH   4   5
ENDBRANCH   3   4
ENDBRANCH   2   3
TORSDOF 8
ENDMDL
MODEL        7
REMARK 921   NORMALIZED FREE ENERGY PREDICTED BY IDOCK:   -4.71 KCAL/MOL
REMARK 922        TOTAL FREE ENERGY PREDICTED BY IDOCK:   -7.32 KCAL/MOL
REMARK 923 INTER-LIGAND FREE ENERGY PREDICTED BY IDOCK:   -7.15 KCAL/MOL
REMARK 924 INTRA-LIGAND FREE ENERGY PREDICTED BY IDOCK:   -0.18 KCAL/MOL
REMARK 927      BINDING AFFINITY PREDICTED BY RF-SCORE:    0.00 PKD
ROOT
HETATM    1  C   UNL     1     -13.616   9.094  72.274  1.00  0.00    -0.548 C  
HETATM    2  C   UNL     1     -13.074  10.361  71.636  1.00  0.00    -0.553 C  
ENDROOT
BRANCH   2   3
HETATM    3  C   UNL     1     -11.758  10.111  70.905  1.00  0.00    -0.468 C  
BRANCH   3   4
HETATM    4  C   UNL     1     -11.473  11.215  69.895  1.00  0.00    -0.306 C  
BRANCH   4   5
HETATM    5  O   UNL     1     -12.087  10.876  68.653  1.00  0.00    -0.527 OA 
BRANCH   5   6
HETATM    6  C   UNL     1     -11.108  10.481  67.692  1.00  0.00    -0.309 C  
BRANCH   6   7
HETATM    7  C   UNL     1     -11.047  11.502  66.561  1.00  0.00    -0.282 C  
BRANCH   7   8
HETATM    8  O   UNL     1     -12.230  12.318  66.543  1.00  0.00    -0.588 OA 
BRANCH   8   9
HETATM    9  C   UNL     1     -12.368  13.115  65.453  1.00  0.00    -0.481 C  
HETATM   10  O   UNL     1     -12.943  12.824  64.418  1.00  0.00    -0.723 OA 
BRANCH   9  11
HETATM   11  C   UNL     1     -11.678  14.405  65.667  1.00  0.00    -0.356 A  
HETATM   12  C   UNL     1     -11.429  15.212  64.564  1.00  0.00    -0.316 A  
HETATM   13  N   UNL     1     -10.796  16.409  64.631  1.00  0.00    -0.717 NA 
HETATM   14  C   UNL     1     -10.395  16.817  65.855  1.00  0.00    -0.328 A  
HETATM   15  C   UNL     1     -10.597  16.084  67.014  1.00  0.00    -0.302 A  
HETATM   16  C   UNL     1     -11.250  14.857  66.917  1.00  0.00    -0.343 A  
ENDBRANCH   9  11
ENDBRANCH   8   9
ENDBRANCH   7   8
ENDBRANCH   6   7
ENDBRANCH   5   6
ENDBRANCH   4   5
ENDBRANCH   3   4
ENDBRANCH   2   3
TORSDOF 8
ENDMDL
MODEL        8
REMARK 921   NORMALIZED FREE ENERGY PREDICTED BY IDOCK:   -4.66 KCAL/MOL
REMARK 922        TOTAL FREE ENERGY PREDICTED BY IDOCK:   -7.26 KCAL/MOL
REMARK 923 INTER-LIGAND FREE ENERGY PREDICTED BY IDOCK:   -6.87 KCAL/MOL
REMARK 924 INTRA-LIGAND FREE ENERGY PREDICTED BY IDOCK:   -0.39 KCAL/MOL
REMARK 927      BINDING AFFINITY PREDICTED BY RF-SCORE:    0.00 PKD
ROOT
HETATM    1  C   UNL     1     -10.280  11.306  64.676  1.00  0.00    -0.357 C  
HETATM    2  C   UNL     1     -10.608  12.000  63.365  1.00  0.00    -0.478 C  
ENDROOT
BRANCH   2   3
HETATM    3  C   UNL     1     -11.998  12.631  63.389  1.00  0.00    -0.613 C  
BRANCH   3   4
HETATM    4  C   UNL     1     -12.593  12.592  64.791  1.00  0.00    -0.454 C  
BRANCH   4   5
HETATM    5  O   UNL     1     -12.854  13.928  65.220  1.00  0.00    -0.689 OA 
BRANCH   5   6
HETATM    6  C   UNL     1     -12.029  14.277  66.332  1.00  0.00    -0.419 C  
BRANCH   6   7
HETATM    7  C   UNL     1     -11.925  13.097  67.292  1.00  0.00    -0.335 C  
BRANCH   7   8
HETATM    8  O   UNL     1     -11.445  13.523  68.578  1.00  0.00    -0.266 OA 
BRANCH   8   9
HETATM    9  C   UNL     1     -12.026  12.916  69.643  1.00  0.00    -0.292 C  
HETATM   10  O   UNL     1     -12.298  11.731  69.735  1.00  0.00    -0.214 OA 
BRANCH   9  11
HETATM   11  C   UNL     1     -12.333  13.907  70.697  1.00  0.00    -0.451 A  
HETATM   12  C   UNL     1     -11.656  15.119  70.683  1.00  0.00    -0.309 A  
HETATM   13  N   UNL     1     -11.843  16.100  71.601  1.00  0.00    -0.491 NA 
HETATM   14  C   UNL     1     -12.747  15.858  72.575  1.00  0.00    -0.444 A  
HETATM   15  C   UNL     1     -13.472  14.680  72.675  1.00  0.00    -0.580 A  
HETATM   16  C   UNL     1     -13.261  13.688  71.719  1.00  0.00    -0.477 A  
ENDBRANCH   9  11
ENDBRANCH   8   9
ENDBRANCH   7   8
ENDBRANCH   6   7
ENDBRANCH   5   6
ENDBRANCH   4   5
ENDBRANCH   3   4
ENDBRANCH   2   3
TORSDOF 8
ENDMDL
MODEL        9
REMARK 921   NORMALIZED FREE ENERGY PREDICTED BY IDOCK:   -4.66 KCAL/MOL
REMARK 922        TOTAL FREE ENERGY PREDICTED BY IDOCK:   -7.25 KCAL/MOL
REMARK 923 INTER-LIGAND FREE ENERGY PREDICTED BY IDOCK:   -6.99 KCAL/MOL
REMARK 924 INTRA-LIGAND FREE ENERGY PREDICTED BY IDOCK:   -0.26 KCAL/MOL
REMARK 927      BINDING AFFINITY PREDICTED BY RF-SCORE:    0.00 PKD
ROOT
HETATM    1  C   UNL     1     -10.074  18.647  68.334  1.00  0.00    -0.426 C  
HETATM    2  C   UNL     1     -10.516  19.715  67.350  1.00  0.00    -0.596 C  
ENDROOT
BRANCH   2   3
HETATM    3  C   UNL     1     -10.615  19.170  65.927  1.00  0.00    -0.495 C  
BRANCH   3   4
HETATM    4  C   UNL     1     -10.494  17.652  65.913  1.00  0.00    -0.246 C  
BRANCH   4   5
HETATM    5  O   UNL     1     -10.958  17.163  64.656  1.00  0.00    -1.005 OA 
BRANCH   5   6
HETATM    6  C   UNL     1     -11.118  15.744  64.688  1.00  0.00    -0.361 C  
BRANCH   6   7
HETATM    7  C   UNL     1     -10.738  15.209  66.064  1.00  0.00    -0.329 C  
BRANCH   7   8
HETATM    8  O   UNL     1     -11.828  14.476  66.647  1.00  0.00    -0.393 OA 
BRANCH   8   9
HETATM    9  C   UNL     1     -12.360  13.506  65.862  1.00  0.00    -0.456 C  
HETATM   10  O   UNL     1     -13.361  13.607  65.172  1.00  0.00    -0.677 OA 
BRANCH   9  11
HETATM   11  C   UNL     1     -11.575  12.258  65.980  1.00  0.00    -0.451 A  
HETATM   12  C   UNL     1     -11.010  11.722  64.830  1.00  0.00    -0.300 A  
HETATM   13  N   UNL     1     -10.280  10.579  64.809  1.00  0.00    -0.341 NA 
HETATM   14  C   UNL     1     -10.107   9.946  65.989  1.00  0.00    -0.244 A  
HETATM   15  C   UNL     1     -10.631  10.401  67.190  1.00  0.00    -0.319 A  
HETATM   16  C   UNL     1     -11.377  11.578  67.184  1.00  0.00    -0.354 A  
ENDBRANCH   9  11
ENDBRANCH   8   9
ENDBRANCH   7   8
ENDBRANCH   6   7
ENDBRANCH   5   6
ENDBRANCH   4   5
ENDBRANCH   3   4
ENDBRANCH   2   3
TORSDOF 8
ENDMDL
MODEL       10
REMARK 921   NORMALIZED FREE ENERGY PREDICTED BY IDOCK:   -4.66 KCAL/MOL
REMARK 922        TOTAL FREE ENERGY PREDICTED BY IDOCK:   -7.25 KCAL/MOL
REMARK 923 INTER-LIGAND FREE ENERGY PREDICTED BY IDOCK:   -6.72 KCAL/MOL
REMARK 924 INTRA-LIGAND FREE ENERGY PREDICTED BY IDOCK:   -0.52 KCAL/MOL
REMARK 927      BINDING AFFINITY PREDICTED BY RF-SCORE:    0.00 PKD
ROOT
HETATM    1  C   UNL     1      -9.347  13.203  68.045  1.00  0.00    -0.219 C  
HETATM    2  C   UNL     1     -10.758  13.179  68.607  1.00  0.00    -0.274 C  
ENDROOT
BRANCH   2   3
HETATM    3  C   UNL     1     -11.662  12.225  67.832  1.00  0.00    -0.410 C  
BRANCH   3   4
HETATM    4  C   UNL     1     -11.293  12.200  66.354  1.00  0.00    -0.356 C  
BRANCH   4   5
HETATM    5  O   UNL     1     -12.471  12.413  65.579  1.00  0.00    -0.643 OA 
BRANCH   5   6
HETATM    6  C   UNL     1     -12.569  13.776  65.164  1.00  0.00    -0.433 C  
BRANCH   6   7
HETATM    7  C   UNL     1     -11.194  14.296  64.760  1.00  0.00    -0.385 C  
BRANCH   7   8
HETATM    8  O   UNL     1     -10.741  15.311  65.671  1.00  0.00    -0.325 OA 
BRANCH   8   9
HETATM    9  C   UNL     1     -10.853  16.586  65.220  1.00  0.00    -0.221 C  
HETATM   10  O   UNL     1     -11.260  16.927  64.122  1.00  0.00    -1.176 OA 
BRANCH   9  11
HETATM   11  C   UNL     1     -10.369  17.539  66.241  1.00  0.00    -0.335 A  
HETATM   12  C   UNL     1      -9.780  17.033  67.392  1.00  0.00    -0.252 A  
HETATM   13  N   UNL     1      -9.309  17.805  68.403  1.00  0.00    -0.286 NA 
HETATM   14  C   UNL     1      -9.432  19.142  68.255  1.00  0.00    -0.352 A  
HETATM   15  C   UNL     1     -10.005  19.744  67.145  1.00  0.00    -0.536 A  
HETATM   16  C   UNL     1     -10.481  18.927  66.121  1.00  0.00    -0.521 A  
ENDBRANCH   9  11
ENDBRANCH   8   9
ENDBRANCH   7   8
ENDBRANCH   6   7
ENDBRANCH   5   6
ENDBRANCH   4   5
ENDBRANCH   3   4
ENDBRANCH   2   3
TORSDOF 8
ENDMDL
MODEL       11
REMARK 921   NORMALIZED FREE ENERGY PREDICTED BY IDOCK:   -4.64 KCAL/MOL
REMARK 922        TOTAL FREE ENERGY PREDICTED BY IDOCK:   -7.22 KCAL/MOL
REMARK 923 INTER-LIGAND FREE ENERGY PREDICTED BY IDOCK:   -6.46 KCAL/MOL
REMARK 924 INTRA-LIGAND FREE ENERGY PREDICTED BY IDOCK:   -0.75 KCAL/MOL
REMARK 927      BINDING AFFINITY PREDICTED BY RF-SCORE:    0.00 PKD
ROOT
HETATM    1  C   UNL     1     -11.851  11.107  68.818  1.00  0.00    -0.388 C  
HETATM    2  C   UNL     1     -11.770  12.513  68.247  1.00  0.00    -0.390 C  
ENDROOT
BRANCH   2   3
HETATM    3  C   UNL     1     -11.881  13.575  69.337  1.00  0.00    -0.389 C  
BRANCH   3   4
HETATM    4  C   UNL     1     -11.302  14.904  68.868  1.00  0.00    -0.283 C  
BRANCH   4   5
HETATM    5  O   UNL     1      -9.924  14.719  68.547  1.00  0.00    -0.215 OA 
BRANCH   5   6
HETATM    6  C   UNL     1      -9.329  15.948  68.129  1.00  0.00    -0.198 C  
BRANCH   6   7
HETATM    7  C   UNL     1     -10.216  16.630  67.094  1.00  0.00    -0.290 C  
BRANCH   7   8
HETATM    8  O   UNL     1      -9.804  16.288  65.760  1.00  0.00    -0.380 OA 
BRANCH   8   9
HETATM    9  C   UNL     1     -10.814  16.072  64.880  1.00  0.00    -0.372 C  
HETATM   10  O   UNL     1     -11.428  16.928  64.266  1.00  0.00    -1.142 OA 
BRANCH   9  11
HETATM   11  C   UNL     1     -11.113  14.627  64.782  1.00  0.00    -0.394 A  
HETATM   12  C   UNL     1     -12.364  14.241  64.320  1.00  0.00    -0.377 A  
HETATM   13  N   UNL     1     -12.759  12.949  64.198  1.00  0.00    -0.690 NA 
HETATM   14  C   UNL     1     -11.863  12.003  64.551  1.00  0.00    -0.285 A  
HETATM   15  C   UNL     1     -10.591  12.287  65.024  1.00  0.00    -0.322 A  
HETATM   16  C   UNL     1     -10.210  13.623  65.140  1.00  0.00    -0.349 A  
ENDBRANCH   9  11
ENDBRANCH   8   9
ENDBRANCH   7   8
ENDBRANCH   6   7
ENDBRANCH   5   6
ENDBRANCH   4   5
ENDBRANCH   3   4
ENDBRANCH   2   3
TORSDOF 8
ENDMDL
MODEL       12
REMARK 921   NORMALIZED FREE ENERGY PREDICTED BY IDOCK:   -4.63 KCAL/MOL
REMARK 922        TOTAL FREE ENERGY PREDICTED BY IDOCK:   -7.21 KCAL/MOL
REMARK 923 INTER-LIGAND FREE ENERGY PREDICTED BY IDOCK:   -6.64 KCAL/MOL
REMARK 924 INTRA-LIGAND FREE ENERGY PREDICTED BY IDOCK:   -0.57 KCAL/MOL
REMARK 927      BINDING AFFINITY PREDICTED BY RF-SCORE:    0.00 PKD
ROOT
HETATM    1  C   UNL     1     -12.249  12.656  63.437  1.00  0.00    -0.610 C  
HETATM    2  C   UNL     1     -12.276  13.896  64.313  1.00  0.00    -0.447 C  
ENDROOT
BRANCH   2   3
HETATM    3  C   UNL     1     -12.294  13.542  65.798  1.00  0.00    -0.516 C  
BRANCH   3   4
HETATM    4  C   UNL     1     -10.995  13.958  66.476  1.00  0.00    -0.300 C  
BRANCH   4   5
HETATM    5  O   UNL     1     -10.587  12.923  67.369  1.00  0.00    -0.231 OA 
BRANCH   5   6
HETATM    6  C   UNL     1     -11.018  11.645  66.899  1.00  0.00    -0.292 C  
BRANCH   6   7
HETATM    7  C   UNL     1     -11.329  10.734  68.082  1.00  0.00    -0.308 C  
BRANCH   7   8
HETATM    8  O   UNL     1     -12.360  11.300  68.908  1.00  0.00    -0.485 OA 
BRANCH   8   9
HETATM    9  C   UNL     1     -12.077  11.350  70.234  1.00  0.00    -0.374 C  
HETATM   10  O   UNL     1     -11.525  10.479  70.885  1.00  0.00    -0.328 OA 
BRANCH   9  11
HETATM   11  C   UNL     1     -12.571  12.614  70.820  1.00  0.00    -0.302 A  
HETATM   12  C   UNL     1     -13.356  12.550  71.964  1.00  0.00    -0.426 A  
HETATM   13  N   UNL     1     -13.876  13.638  72.585  1.00  0.00    -0.754 NA 
HETATM   14  C   UNL     1     -13.598  14.842  72.040  1.00  0.00    -0.403 A  
HETATM   15  C   UNL     1     -12.825  15.009  70.900  1.00  0.00    -0.451 A  
HETATM   16  C   UNL     1     -12.303  13.875  70.281  1.00  0.00    -0.413 A  
ENDBRANCH   9  11
ENDBRANCH   8   9
ENDBRANCH   7   8
ENDBRANCH   6   7
ENDBRANCH   5   6
ENDBRANCH   4   5
ENDBRANCH   3   4
ENDBRANCH   2   3
TORSDOF 8
ENDMDL
MODEL       13
REMARK 921   NORMALIZED FREE ENERGY PREDICTED BY IDOCK:   -4.63 KCAL/MOL
REMARK 922        TOTAL FREE ENERGY PREDICTED BY IDOCK:   -7.20 KCAL/MOL
REMARK 923 INTER-LIGAND FREE ENERGY PREDICTED BY IDOCK:   -6.76 KCAL/MOL
REMARK 924 INTRA-LIGAND FREE ENERGY PREDICTED BY IDOCK:   -0.45 KCAL/MOL
REMARK 927      BINDING AFFINITY PREDICTED BY RF-SCORE:    0.00 PKD
ROOT
HETATM    1  C   UNL     1      -9.732  20.327  67.400  1.00  0.00    -0.584 C  
HETATM    2  C   UNL     1     -10.625  19.135  67.098  1.00  0.00    -0.564 C  
ENDROOT
BRANCH   2   3
HETATM    3  C   UNL     1      -9.838  17.977  66.490  1.00  0.00    -0.353 C  
BRANCH   3   4
HETATM    4  C   UNL     1     -10.608  16.668  66.611  1.00  0.00    -0.203 C  
BRANCH   4   5
HETATM    5  O   UNL     1     -10.456  16.164  67.937  1.00  0.00    -0.272 OA 
BRANCH   5   6
HETATM    6  C   UNL     1     -11.650  15.516  68.377  1.00  0.00    -0.357 C  
BRANCH   6   7
HETATM    7  C   UNL     1     -11.310  14.164  68.996  1.00  0.00    -0.275 C  
BRANCH   7   8
HETATM    8  O   UNL     1     -10.735  13.283  68.018  1.00  0.00    -0.230 OA 
BRANCH   8   9
HETATM    9  C   UNL     1     -11.577  12.346  67.514  1.00  0.00    -0.365 C  
HETATM   10  O   UNL     1     -12.167  11.491  68.153  1.00  0.00    -0.576 OA 
BRANCH   9  11
HETATM   11  C   UNL     1     -11.665  12.468  66.043  1.00  0.00    -0.472 A  
HETATM   12  C   UNL     1     -12.502  13.439  65.509  1.00  0.00    -0.483 A  
HETATM   13  N   UNL     1     -12.675  13.640  64.179  1.00  0.00    -0.649 NA 
HETATM   14  C   UNL     1     -11.980  12.835  63.347  1.00  0.00    -0.535 A  
HETATM   15  C   UNL     1     -11.121  11.837  63.782  1.00  0.00    -0.513 A  
HETATM   16  C   UNL     1     -10.961  11.652  65.154  1.00  0.00    -0.326 A  
ENDBRANCH   9  11
ENDBRANCH   8   9
ENDBRANCH   7   8
ENDBRANCH   6   7
ENDBRANCH   5   6
ENDBRANCH   4   5
ENDBRANCH   3   4
ENDBRANCH   2   3
TORSDOF 8
ENDMDL
MODEL       14
REMARK 921   NORMALIZED FREE ENERGY PREDICTED BY IDOCK:   -4.62 KCAL/MOL
REMARK 922        TOTAL FREE ENERGY PREDICTED BY IDOCK:   -7.20 KCAL/MOL
REMARK 923 INTER-LIGAND FREE ENERGY PREDICTED BY IDOCK:   -6.84 KCAL/MOL
REMARK 924 INTRA-LIGAND FREE ENERGY PREDICTED BY IDOCK:   -0.36 KCAL/MOL
REMARK 927      BINDING AFFINITY PREDICTED BY RF-SCORE:    0.00 PKD
ROOT
HETATM    1  C   UNL     1     -10.535  11.922  63.395  1.00  0.00    -0.487 C  
HETATM    2  C   UNL     1     -12.039  12.125  63.456  1.00  0.00    -0.649 C  
ENDROOT
BRANCH   2   3
HETATM    3  C   UNL     1     -12.493  12.598  64.835  1.00  0.00    -0.564 C  
BRANCH   3   4
HETATM    4  C   UNL     1     -11.609  12.018  65.931  1.00  0.00    -0.300 C  
BRANCH   4   5
HETATM    5  O   UNL     1     -12.032  12.538  67.190  1.00  0.00    -0.484 OA 
BRANCH   5   6
HETATM    6  C   UNL     1     -11.581  13.881  67.365  1.00  0.00    -0.368 C  
BRANCH   6   7
HETATM    7  C   UNL     1     -11.780  14.312  68.814  1.00  0.00    -0.343 C  
BRANCH   7   8
HETATM    8  O   UNL     1     -11.667  15.738  68.945  1.00  0.00    -0.383 OA 
BRANCH   8   9
HETATM    9  C   UNL     1     -10.412  16.235  68.806  1.00  0.00    -0.282 C  
HETATM   10  O   UNL     1      -9.404  15.802  69.338  1.00  0.00    -0.254 OA 
BRANCH   9  11
HETATM   11  C   UNL     1     -10.423  17.428  67.933  1.00  0.00    -0.383 A  
HETATM   12  C   UNL     1     -10.482  17.241  66.558  1.00  0.00    -0.260 A  
HETATM   13  N   UNL     1     -10.487  18.254  65.657  1.00  0.00    -0.623 NA 
HETATM   14  C   UNL     1     -10.431  19.509  66.152  1.00  0.00    -0.518 A  
HETATM   15  C   UNL     1     -10.368  19.799  67.506  1.00  0.00    -0.578 A  
HETATM   16  C   UNL     1     -10.365  18.739  68.411  1.00  0.00    -0.360 A  
ENDBRANCH   9  11
ENDBRANCH   8   9
ENDBRANCH   7   8
ENDBRANCH   6   7
ENDBRANCH   5   6
ENDBRANCH   4   5
ENDBRANCH   3   4
ENDBRANCH   2   3
TORSDOF 8
ENDMDL
MODEL       15
REMARK 921   NORMALIZED FREE ENERGY PREDICTED BY IDOCK:   -4.60 KCAL/MOL
REMARK 922        TOTAL FREE ENERGY PREDICTED BY IDOCK:   -7.16 KCAL/MOL
REMARK 923 INTER-LIGAND FREE ENERGY PREDICTED BY IDOCK:   -6.76 KCAL/MOL
REMARK 924 INTRA-LIGAND FREE ENERGY PREDICTED BY IDOCK:   -0.41 KCAL/MOL
REMARK 927      BINDING AFFINITY PREDICTED BY RF-SCORE:    0.00 PKD
ROOT
HETATM    1  C   UNL     1      -9.553  11.481  63.141  1.00  0.00    -0.381 C  
HETATM    2  C   UNL     1     -10.758  11.152  64.005  1.00  0.00    -0.409 C  
ENDROOT
BRANCH   2   3
HETATM    3  C   UNL     1     -12.017  11.864  63.519  1.00  0.00    -0.567 C  
BRANCH   3   4
HETATM    4  C   UNL     1     -12.617  12.731  64.619  1.00  0.00    -0.419 C  
BRANCH   4   5
HETATM    5  O   UNL     1     -12.098  12.304  65.878  1.00  0.00    -0.609 OA 
BRANCH   5   6
HETATM    6  C   UNL     1     -11.775  13.423  66.703  1.00  0.00    -0.385 C  
BRANCH   6   7
HETATM    7  C   UNL     1     -10.677  14.253  66.047  1.00  0.00    -0.304 C  
BRANCH   7   8
HETATM    8  O   UNL     1     -10.684  15.600  66.547  1.00  0.00    -0.307 OA 
BRANCH   8   9
HETATM    9  C   UNL     1     -10.608  16.570  65.602  1.00  0.00    -0.304 C  
HETATM   10  O   UNL     1     -11.012  16.490  64.454  1.00  0.00    -0.872 OA 
BRANCH   9  11
HETATM   11  C   UNL     1      -9.916  17.761  66.139  1.00  0.00    -0.283 A  
HETATM   12  C   UNL     1      -8.678  17.590  66.745  1.00  0.00    -0.257 A  
HETATM   13  N   UNL     1      -7.954  18.602  67.284  1.00  0.00    -0.235 NA 
HETATM   14  C   UNL     1      -8.491  19.840  67.213  1.00  0.00    -0.317 A  
HETATM   15  C   UNL     1      -9.719  20.113  66.629  1.00  0.00    -0.568 A  
HETATM   16  C   UNL     1     -10.442  19.055  66.083  1.00  0.00    -0.541 A  
ENDBRANCH   9  11
ENDBRANCH   8   9
ENDBRANCH   7   8
ENDBRANCH   6   7
ENDBRANCH   5   6
ENDBRANCH   4   5
ENDBRANCH   3   4
ENDBRANCH   2   3
TORSDOF 8
ENDMDL
MODEL       16
REMARK 921   NORMALIZED FREE ENERGY PREDICTED BY IDOCK:   -4.57 KCAL/MOL
REMARK 922        TOTAL FREE ENERGY PREDICTED BY IDOCK:   -7.12 KCAL/MOL
REMARK 923 INTER-LIGAND FREE ENERGY PREDICTED BY IDOCK:   -6.71 KCAL/MOL
REMARK 924 INTRA-LIGAND FREE ENERGY PREDICTED BY IDOCK:   -0.41 KCAL/MOL
REMARK 927      BINDING AFFINITY PREDICTED BY RF-SCORE:    0.00 PKD
ROOT
HETATM    1  C   UNL     1     -12.499  12.061  63.502  1.00  0.00    -0.654 C  
HETATM    2  C   UNL     1     -12.616  12.627  64.907  1.00  0.00    -0.525 C  
ENDROOT
BRANCH   2   3
HETATM    3  C   UNL     1     -11.247  12.898  65.525  1.00  0.00    -0.319 C  
BRANCH   3   4
HETATM    4  C   UNL     1     -10.551  14.059  64.828  1.00  0.00    -0.421 C  
BRANCH   4   5
HETATM    5  O   UNL     1     -10.844  15.265  65.533  1.00  0.00    -0.333 OA 
BRANCH   5   6
HETATM    6  C   UNL     1     -10.052  15.368  66.716  1.00  0.00    -0.262 C  
BRANCH   6   7
HETATM    7  C   UNL     1     -10.873  15.995  67.838  1.00  0.00    -0.333 C  
BRANCH   7   8
HETATM    8  O   UNL     1     -10.657  15.305  69.080  1.00  0.00    -0.227 OA 
BRANCH   8   9
HETATM    9  C   UNL     1     -11.669  14.493  69.475  1.00  0.00    -0.314 C  
HETATM   10  O   UNL     1     -12.070  13.504  68.885  1.00  0.00    -0.341 OA 
BRANCH   9  11
HETATM   11  C   UNL     1     -12.272  14.991  70.730  1.00  0.00    -0.386 A  
HETATM   12  C   UNL     1     -11.429  15.485  71.717  1.00  0.00    -0.426 A  
HETATM   13  N   UNL     1     -11.862  15.958  72.912  1.00  0.00    -0.474 NA 
HETATM   14  C   UNL     1     -13.195  15.938  73.128  1.00  0.00    -0.592 A  
HETATM   15  C   UNL     1     -14.116  15.466  72.206  1.00  0.00    -0.660 A  
HETATM   16  C   UNL     1     -13.645  14.984  70.986  1.00  0.00    -0.442 A  
ENDBRANCH   9  11
ENDBRANCH   8   9
ENDBRANCH   7   8
ENDBRANCH   6   7
ENDBRANCH   5   6
ENDBRANCH   4   5
ENDBRANCH   3   4
ENDBRANCH   2   3
TORSDOF 8
ENDMDL
MODEL       17
REMARK 921   NORMALIZED FREE ENERGY PREDICTED BY IDOCK:   -4.56 KCAL/MOL
REMARK 922        TOTAL FREE ENERGY PREDICTED BY IDOCK:   -7.11 KCAL/MOL
REMARK 923 INTER-LIGAND FREE ENERGY PREDICTED BY IDOCK:   -6.61 KCAL/MOL
REMARK 924 INTRA-LIGAND FREE ENERGY PREDICTED BY IDOCK:   -0.50 KCAL/MOL
REMARK 927      BINDING AFFINITY PREDICTED BY RF-SCORE:    0.00 PKD
ROOT
HETATM    1  C   UNL     1     -10.643  10.953  64.463  1.00  0.00    -0.335 C  
HETATM    2  C   UNL     1     -10.599  12.186  63.576  1.00  0.00    -0.501 C  
ENDROOT
BRANCH   2   3
HETATM    3  C   UNL     1     -11.971  12.841  63.446  1.00  0.00    -0.613 C  
BRANCH   3   4
HETATM    4  C   UNL     1     -12.005  14.189  64.155  1.00  0.00    -0.393 C  
BRANCH   4   5
HETATM    5  O   UNL     1     -13.030  14.164  65.147  1.00  0.00    -0.729 OA 
BRANCH   5   6
HETATM    6  C   UNL     1     -12.525  13.681  66.391  1.00  0.00    -0.324 C  
BRANCH   6   7
HETATM    7  C   UNL     1     -11.292  14.481  66.797  1.00  0.00    -0.352 C  
BRANCH   7   8
HETATM    8  O   UNL     1     -10.888  14.156  68.138  1.00  0.00    -0.239 OA 
BRANCH   8   9
HETATM    9  C   UNL     1     -11.655  14.693  69.120  1.00  0.00    -0.301 C  
HETATM   10  O   UNL     1     -11.903  15.878  69.272  1.00  0.00    -0.371 OA 
BRANCH   9  11
HETATM   11  C   UNL     1     -12.136  13.637  70.036  1.00  0.00    -0.417 A  
HETATM   12  C   UNL     1     -11.793  12.319  69.763  1.00  0.00    -0.318 A  
HETATM   13  N   UNL     1     -12.183  11.265  70.521  1.00  0.00    -0.364 NA 
HETATM   14  C   UNL     1     -12.948  11.540  71.600  1.00  0.00    -0.394 A  
HETATM   15  C   UNL     1     -13.344  12.821  71.955  1.00  0.00    -0.565 A  
HETATM   16  C   UNL     1     -12.929  13.887  71.159  1.00  0.00    -0.388 A  
ENDBRANCH   9  11
ENDBRANCH   8   9
ENDBRANCH   7   8
ENDBRANCH   6   7
ENDBRANCH   5   6
ENDBRANCH   4   5
ENDBRANCH   3   4
ENDBRANCH   2   3
TORSDOF 8
ENDMDL
MODEL       18
REMARK 921   NORMALIZED FREE ENERGY PREDICTED BY IDOCK:   -4.55 KCAL/MOL
REMARK 922        TOTAL FREE ENERGY PREDICTED BY IDOCK:   -7.09 KCAL/MOL
REMARK 923 INTER-LIGAND FREE ENERGY PREDICTED BY IDOCK:   -6.80 KCAL/MOL
REMARK 924 INTRA-LIGAND FREE ENERGY PREDICTED BY IDOCK:   -0.30 KCAL/MOL
REMARK 927      BINDING AFFINITY PREDICTED BY RF-SCORE:    0.00 PKD
ROOT
HETATM    1  C   UNL     1     -10.445  19.872  66.196  1.00  0.00    -0.581 C  
HETATM    2  C   UNL     1      -9.658  20.080  67.478  1.00  0.00    -0.523 C  
ENDROOT
BRANCH   2   3
HETATM    3  C   UNL     1     -10.034  19.058  68.547  1.00  0.00    -0.486 C  
BRANCH   3   4
HETATM    4  C   UNL     1     -10.581  17.783  67.918  1.00  0.00    -0.382 C  
BRANCH   4   5
HETATM    5  O   UNL     1     -10.669  16.774  68.923  1.00  0.00    -0.315 OA 
BRANCH   5   6
HETATM    6  C   UNL     1     -11.641  15.789  68.571  1.00  0.00    -0.362 C  
BRANCH   6   7
HETATM    7  C   UNL     1     -11.242  15.105  67.268  1.00  0.00    -0.324 C  
BRANCH   7   8
HETATM    8  O   UNL     1     -11.945  13.863  67.105  1.00  0.00    -0.392 OA 
BRANCH   8   9
HETATM    9  C   UNL     1     -12.323  13.573  65.834  1.00  0.00    -0.456 C  
HETATM   10  O   UNL     1     -13.273  14.053  65.239  1.00  0.00    -0.782 OA 
BRANCH   9  11
HETATM   11  C   UNL     1     -11.435  12.543  65.253  1.00  0.00    -0.374 A  
HETATM   12  C   UNL     1     -11.086  12.650  63.914  1.00  0.00    -0.427 A  
HETATM   13  N   UNL     1     -10.290  11.763  63.267  1.00  0.00    -0.417 NA 
HETATM   14  C   UNL     1      -9.822  10.724  63.992  1.00  0.00    -0.332 A  
HETATM   15  C   UNL     1     -10.115  10.529  65.334  1.00  0.00    -0.358 A  
HETATM   16  C   UNL     1     -10.935  11.456  65.974  1.00  0.00    -0.286 A  
ENDBRANCH   9  11
ENDBRANCH   8   9
ENDBRANCH   7   8
ENDBRANCH   6   7
ENDBRANCH   5   6
ENDBRANCH   4   5
ENDBRANCH   3   4
ENDBRANCH   2   3
TORSDOF 8
ENDMDL
MODEL       19
REMARK 921   NORMALIZED FREE ENERGY PREDICTED BY IDOCK:   -4.55 KCAL/MOL
REMARK 922        TOTAL FREE ENERGY PREDICTED BY IDOCK:   -7.09 KCAL/MOL
REMARK 923 INTER-LIGAND FREE ENERGY PREDICTED BY IDOCK:   -6.65 KCAL/MOL
REMARK 924 INTRA-LIGAND FREE ENERGY PREDICTED BY IDOCK:   -0.44 KCAL/MOL
REMARK 927      BINDING AFFINITY PREDICTED BY RF-SCORE:    0.00 PKD
ROOT
HETATM    1  C   UNL     1      -9.801  20.296  67.093  1.00  0.00    -0.606 C  
HETATM    2  C   UNL     1      -9.167  19.299  68.048  1.00  0.00    -0.375 C  
ENDROOT
BRANCH   2   3
HETATM    3  C   UNL     1     -10.159  18.226  68.489  1.00  0.00    -0.419 C  
BRANCH   3   4
HETATM    4  C   UNL     1     -10.376  17.195  67.389  1.00  0.00    -0.333 C  
BRANCH   4   5
HETATM    5  O   UNL     1     -11.111  16.095  67.925  1.00  0.00    -0.340 OA 
BRANCH   5   6
HETATM    6  C   UNL     1     -10.954  14.932  67.112  1.00  0.00    -0.323 C  
BRANCH   6   7
HETATM    7  C   UNL     1     -11.300  13.684  67.917  1.00  0.00    -0.295 C  
BRANCH   7   8
HETATM    8  O   UNL     1     -12.345  13.959  68.864  1.00  0.00    -0.301 OA 
BRANCH   8   9
HETATM    9  C   UNL     1     -12.257  13.280  70.036  1.00  0.00    -0.275 C  
HETATM   10  O   UNL     1     -12.080  12.080  70.161  1.00  0.00    -0.322 OA 
BRANCH   9  11
HETATM   11  C   UNL     1     -12.449  14.197  71.180  1.00  0.00    -0.445 A  
HETATM   12  C   UNL     1     -13.468  13.925  72.082  1.00  0.00    -0.485 A  
HETATM   13  N   UNL     1     -13.749  14.697  73.161  1.00  0.00    -0.443 NA 
HETATM   14  C   UNL     1     -12.975  15.788  73.346  1.00  0.00    -0.583 A  
HETATM   15  C   UNL     1     -11.935  16.145  72.502  1.00  0.00    -0.660 A  
HETATM   16  C   UNL     1     -11.668  15.335  71.400  1.00  0.00    -0.444 A  
ENDBRANCH   9  11
ENDBRANCH   8   9
ENDBRANCH   7   8
ENDBRANCH   6   7
ENDBRANCH   5   6
ENDBRANCH   4   5
ENDBRANCH   3   4
ENDBRANCH   2   3
TORSDOF 8
ENDMDL
MODEL       20
REMARK 921   NORMALIZED FREE ENERGY PREDICTED BY IDOCK:   -4.54 KCAL/MOL
REMARK 922        TOTAL FREE ENERGY PREDICTED BY IDOCK:   -7.08 KCAL/MOL
REMARK 923 INTER-LIGAND FREE ENERGY PREDICTED BY IDOCK:   -6.75 KCAL/MOL
REMARK 924 INTRA-LIGAND FREE ENERGY PREDICTED BY IDOCK:   -0.33 KCAL/MOL
REMARK 927      BINDING AFFINITY PREDICTED BY RF-SCORE:    0.00 PKD
ROOT
HETATM    1  C   UNL     1     -10.335   6.792  73.790  1.00  0.00    -0.397 C  
HETATM    2  C   UNL     1     -11.015   7.753  72.830  1.00  0.00    -0.467 C  
ENDROOT
BRANCH   2   3
HETATM    3  C   UNL     1     -10.015   8.701  72.174  1.00  0.00    -0.386 C  
BRANCH   3   4
HETATM    4  C   UNL     1     -10.665   9.486  71.042  1.00  0.00    -0.340 C  
BRANCH   4   5
HETATM    5  O   UNL     1     -12.028   9.740  71.380  1.00  0.00    -0.356 OA 
BRANCH   5   6
HETATM    6  C   UNL     1     -12.603  10.700  70.493  1.00  0.00    -0.348 C  
BRANCH   6   7
HETATM    7  C   UNL     1     -11.560  11.161  69.480  1.00  0.00    -0.321 C  
BRANCH   7   8
HETATM    8  O   UNL     1     -12.173  11.466  68.216  1.00  0.00    -0.588 OA 
BRANCH   8   9
HETATM    9  C   UNL     1     -11.898  12.699  67.721  1.00  0.00    -0.323 C  
HETATM   10  O   UNL     1     -11.774  13.723  68.370  1.00  0.00    -0.316 OA 
BRANCH   9  11
HETATM   11  C   UNL     1     -11.803  12.653  66.246  1.00  0.00    -0.471 A  
HETATM   12  C   UNL     1     -12.435  13.647  65.512  1.00  0.00    -0.503 A  
HETATM   13  N   UNL     1     -12.429  13.706  64.157  1.00  0.00    -0.674 NA 
HETATM   14  C   UNL     1     -11.759  12.728  63.508  1.00  0.00    -0.530 A  
HETATM   15  C   UNL     1     -11.097  11.693  64.151  1.00  0.00    -0.435 A  
HETATM   16  C   UNL     1     -11.120  11.656  65.544  1.00  0.00    -0.297 A  
ENDBRANCH   9  11
ENDBRANCH   8   9
ENDBRANCH   7   8
ENDBRANCH   6   7
ENDBRANCH   5   6
ENDBRANCH   4   5
ENDBRANCH   3   4
ENDBRANCH   2   3
TORSDOF 8
ENDMDL
MODEL       21
REMARK 921   NORMALIZED FREE ENERGY PREDICTED BY IDOCK:   -4.53 KCAL/MOL
REMARK 922        TOTAL FREE ENERGY PREDICTED BY IDOCK:   -7.06 KCAL/MOL
REMARK 923 INTER-LIGAND FREE ENERGY PREDICTED BY IDOCK:   -6.63 KCAL/MOL
REMARK 924 INTRA-LIGAND FREE ENERGY PREDICTED BY IDOCK:   -0.42 KCAL/MOL
REMARK 927      BINDING AFFINITY PREDICTED BY RF-SCORE:    0.00 PKD
ROOT
HETATM    1  C   UNL     1      -9.991  11.495  63.280  1.00  0.00    -0.435 C  
HETATM    2  C   UNL     1     -10.422  12.566  64.267  1.00  0.00    -0.404 C  
ENDROOT
BRANCH   2   3
HETATM    3  C   UNL     1     -11.894  12.934  64.098  1.00  0.00    -0.479 C  
BRANCH   3   4
HETATM    4  C   UNL     1     -12.549  13.204  65.447  1.00  0.00    -0.454 C  
BRANCH   4   5
HETATM    5  O   UNL     1     -12.057  12.260  66.397  1.00  0.00    -0.623 OA 
BRANCH   5   6
HETATM    6  C   UNL     1     -12.003  12.832  67.704  1.00  0.00    -0.273 C  
BRANCH   6   7
HETATM    7  C   UNL     1     -10.829  13.800  67.799  1.00  0.00    -0.250 C  
BRANCH   7   8
HETATM    8  O   UNL     1     -10.737  14.365  69.117  1.00  0.00    -0.248 OA 
BRANCH   8   9
HETATM    9  C   UNL     1     -11.399  15.537  69.293  1.00  0.00    -0.325 C  
HETATM   10  O   UNL     1     -11.456  16.457  68.495  1.00  0.00    -0.351 OA 
BRANCH   9  11
HETATM   11  C   UNL     1     -12.029  15.579  70.629  1.00  0.00    -0.416 A  
HETATM   12  C   UNL     1     -13.384  15.290  70.731  1.00  0.00    -0.353 A  
HETATM   13  N   UNL     1     -14.075  15.307  71.897  1.00  0.00    -0.517 NA 
HETATM   14  C   UNL     1     -13.381  15.625  73.011  1.00  0.00    -0.570 A  
HETATM   15  C   UNL     1     -12.028  15.929  73.014  1.00  0.00    -0.596 A  
HETATM   16  C   UNL     1     -11.341  15.904  71.801  1.00  0.00    -0.340 A  
ENDBRANCH   9  11
ENDBRANCH   8   9
ENDBRANCH   7   8
ENDBRANCH   6   7
ENDBRANCH   5   6
ENDBRANCH   4   5
ENDBRANCH   3   4
ENDBRANCH   2   3
TORSDOF 8
ENDMDL
MODEL       22
REMARK 921   NORMALIZED FREE ENERGY PREDICTED BY IDOCK:   -4.50 KCAL/MOL
REMARK 922        TOTAL FREE ENERGY PREDICTED BY IDOCK:   -7.01 KCAL/MOL
REMARK 923 INTER-LIGAND FREE ENERGY PREDICTED BY IDOCK:   -6.57 KCAL/MOL
REMARK 924 INTRA-LIGAND FREE ENERGY PREDICTED BY IDOCK:   -0.44 KCAL/MOL
REMARK 927      BINDING AFFINITY PREDICTED BY RF-SCORE:    0.00 PKD
ROOT
HETATM    1  C   UNL     1     -10.965   7.559  72.979  1.00  0.00    -0.443 C  
HETATM    2  C   UNL     1     -11.174   8.599  71.892  1.00  0.00    -0.413 C  
ENDROOT
BRANCH   2   3
HETATM    3  C   UNL     1     -12.638   9.016  71.779  1.00  0.00    -0.434 C  
BRANCH   3   4
HETATM    4  C   UNL     1     -12.761  10.486  71.401  1.00  0.00    -0.442 C  
BRANCH   4   5
HETATM    5  O   UNL     1     -11.641  10.853  70.597  1.00  0.00    -0.328 OA 
BRANCH   5   6
HETATM    6  C   UNL     1     -12.041  11.106  69.250  1.00  0.00    -0.308 C  
BRANCH   6   7
HETATM    7  C   UNL     1     -11.405  12.400  68.754  1.00  0.00    -0.293 C  
BRANCH   7   8
HETATM    8  O   UNL     1     -12.283  13.518  68.966  1.00  0.00    -0.320 OA 
BRANCH   8   9
HETATM    9  C   UNL     1     -11.688  14.638  69.448  1.00  0.00    -0.316 C  
HETATM   10  O   UNL     1     -10.851  15.312  68.872  1.00  0.00    -0.229 OA 
BRANCH   9  11
HETATM   11  C   UNL     1     -12.167  14.929  70.816  1.00  0.00    -0.387 A  
HETATM   12  C   UNL     1     -13.143  14.107  71.364  1.00  0.00    -0.358 A  
HETATM   13  N   UNL     1     -13.668  14.280  72.602  1.00  0.00    -0.603 NA 
HETATM   14  C   UNL     1     -13.196  15.319  73.324  1.00  0.00    -0.476 A  
HETATM   15  C   UNL     1     -12.224  16.196  72.866  1.00  0.00    -0.640 A  
HETATM   16  C   UNL     1     -11.701  15.996  71.589  1.00  0.00    -0.583 A  
ENDBRANCH   9  11
ENDBRANCH   8   9
ENDBRANCH   7   8
ENDBRANCH   6   7
ENDBRANCH   5   6
ENDBRANCH   4   5
ENDBRANCH   3   4
ENDBRANCH   2   3
TORSDOF 8
ENDMDL
MODEL       23
REMARK 921   NORMALIZED FREE ENERGY PREDICTED BY IDOCK:   -4.49 KCAL/MOL
REMARK 922        TOTAL FREE ENERGY PREDICTED BY IDOCK:   -7.00 KCAL/MOL
REMARK 923 INTER-LIGAND FREE ENERGY PREDICTED BY IDOCK:   -6.69 KCAL/MOL
REMARK 924 INTRA-LIGAND FREE ENERGY PREDICTED BY IDOCK:   -0.31 KCAL/MOL
REMARK 927      BINDING AFFINITY PREDICTED BY RF-SCORE:    0.00 PKD
ROOT
HETATM    1  C   UNL     1     -12.158  12.706  63.547  1.00  0.00    -0.648 C  
HETATM    2  C   UNL     1     -12.181  14.042  64.271  1.00  0.00    -0.453 C  
ENDROOT
BRANCH   2   3
HETATM    3  C   UNL     1     -12.410  13.870  65.771  1.00  0.00    -0.518 C  
BRANCH   3   4
HETATM    4  C   UNL     1     -11.733  12.606  66.287  1.00  0.00    -0.402 C  
BRANCH   4   5
HETATM    5  O   UNL     1     -12.117  12.398  67.645  1.00  0.00    -0.470 OA 
BRANCH   5   6
HETATM    6  C   UNL     1     -11.707  13.493  68.464  1.00  0.00    -0.357 C  
BRANCH   6   7
HETATM    7  C   UNL     1     -12.146  13.257  69.905  1.00  0.00    -0.308 C  
BRANCH   7   8
HETATM    8  O   UNL     1     -11.895  11.898  70.301  1.00  0.00    -0.331 OA 
BRANCH   8   9
HETATM    9  C   UNL     1     -12.714  11.417  71.270  1.00  0.00    -0.393 C  
HETATM   10  O   UNL     1     -13.408  12.081  72.021  1.00  0.00    -0.495 OA 
BRANCH   9  11
HETATM   11  C   UNL     1     -12.628   9.942  71.333  1.00  0.00    -0.497 A  
HETATM   12  C   UNL     1     -13.785   9.224  71.604  1.00  0.00    -0.354 A  
HETATM   13  N   UNL     1     -13.831   7.871  71.698  1.00  0.00    -0.379 NA 
HETATM   14  C   UNL     1     -12.669   7.209  71.511  1.00  0.00    -0.393 A  
HETATM   15  C   UNL     1     -11.462   7.835  71.236  1.00  0.00    -0.294 A  
HETATM   16  C   UNL     1     -11.443   9.226  71.145  1.00  0.00    -0.403 A  
ENDBRANCH   9  11
ENDBRANCH   8   9
ENDBRANCH   7   8
ENDBRANCH   6   7
ENDBRANCH   5   6
ENDBRANCH   4   5
ENDBRANCH   3   4
ENDBRANCH   2   3
TORSDOF 8
ENDMDL
MODEL       24
REMARK 921   NORMALIZED FREE ENERGY PREDICTED BY IDOCK:   -4.48 KCAL/MOL
REMARK 922        TOTAL FREE ENERGY PREDICTED BY IDOCK:   -6.99 KCAL/MOL
REMARK 923 INTER-LIGAND FREE ENERGY PREDICTED BY IDOCK:   -6.45 KCAL/MOL
REMARK 924 INTRA-LIGAND FREE ENERGY PREDICTED BY IDOCK:   -0.53 KCAL/MOL
REMARK 927      BINDING AFFINITY PREDICTED BY RF-SCORE:    0.00 PKD
ROOT
HETATM    1  C   UNL     1     -11.542  15.467  70.272  1.00  0.00    -0.346 C  
HETATM    2  C   UNL     1     -12.217  14.209  69.751  1.00  0.00    -0.397 C  
ENDROOT
BRANCH   2   3
HETATM    3  C   UNL     1     -11.314  13.435  68.795  1.00  0.00    -0.332 C  
BRANCH   3   4
HETATM    4  C   UNL     1     -12.032  13.135  67.486  1.00  0.00    -0.317 C  
BRANCH   4   5
HETATM    5  O   UNL     1     -11.109  12.531  66.581  1.00  0.00    -0.260 OA 
BRANCH   5   6
HETATM    6  C   UNL     1      -9.989  13.386  66.348  1.00  0.00    -0.293 C  
BRANCH   6   7
HETATM    7  C   UNL     1     -10.382  14.508  65.393  1.00  0.00    -0.382 C  
BRANCH   7   8
HETATM    8  O   UNL     1      -9.829  15.763  65.821  1.00  0.00    -0.316 OA 
BRANCH   8   9
HETATM    9  C   UNL     1     -10.541  16.862  65.464  1.00  0.00    -0.202 C  
HETATM   10  O   UNL     1     -11.206  16.989  64.450  1.00  0.00    -1.167 OA 
BRANCH   9  11
HETATM   11  C   UNL     1     -10.373  17.934  66.467  1.00  0.00    -0.362 A  
HETATM   12  C   UNL     1     -10.274  19.246  66.022  1.00  0.00    -0.435 A  
HETATM   13  N   UNL     1     -10.107  20.312  66.844  1.00  0.00    -0.452 NA 
HETATM   14  C   UNL     1     -10.037  20.055  68.168  1.00  0.00    -0.413 A  
HETATM   15  C   UNL     1     -10.126  18.782  68.710  1.00  0.00    -0.407 A  
HETATM   16  C   UNL     1     -10.297  17.704  67.843  1.00  0.00    -0.371 A  
ENDBRANCH   9  11
ENDBRANCH   8   9
ENDBRANCH   7   8
ENDBRANCH   6   7
ENDBRANCH   5   6
ENDBRANCH   4   5
ENDBRANCH   3   4
ENDBRANCH   2   3
TORSDOF 8
ENDMDL
MODEL       25
REMARK 921   NORMALIZED FREE ENERGY PREDICTED BY IDOCK:   -4.45 KCAL/MOL
REMARK 922        TOTAL FREE ENERGY PREDICTED BY IDOCK:   -6.95 KCAL/MOL
REMARK 923 INTER-LIGAND FREE ENERGY PREDICTED BY IDOCK:   -6.58 KCAL/MOL
REMARK 924 INTRA-LIGAND FREE ENERGY PREDICTED BY IDOCK:   -0.36 KCAL/MOL
REMARK 927      BINDING AFFINITY PREDICTED BY RF-SCORE:    0.00 PKD
ROOT
HETATM    1  C   UNL     1      -9.682   8.648  71.980  1.00  0.00    -0.391 C  
HETATM    2  C   UNL     1     -10.914   7.995  72.583  1.00  0.00    -0.448 C  
ENDROOT
BRANCH   2   3
HETATM    3  C   UNL     1     -12.155   8.224  71.725  1.00  0.00    -0.364 C  
BRANCH   3   4
HETATM    4  C   UNL     1     -13.097   9.225  72.381  1.00  0.00    -0.406 C  
BRANCH   4   5
HETATM    5  O   UNL     1     -12.829  10.524  71.858  1.00  0.00    -0.444 OA 
BRANCH   5   6
HETATM    6  C   UNL     1     -12.963  10.539  70.436  1.00  0.00    -0.144 C  
BRANCH   6   7
HETATM    7  C   UNL     1     -11.935  11.486  69.827  1.00  0.00    -0.346 C  
BRANCH   7   8
HETATM    8  O   UNL     1     -12.073  11.541  68.397  1.00  0.00    -0.556 OA 
BRANCH   8   9
HETATM    9  C   UNL     1     -11.733  12.725  67.828  1.00  0.00    -0.359 C  
HETATM   10  O   UNL     1     -11.472  13.759  68.419  1.00  0.00    -0.275 OA 
BRANCH   9  11
HETATM   11  C   UNL     1     -11.756  12.614  66.354  1.00  0.00    -0.466 A  
HETATM   12  C   UNL     1     -12.623  13.434  65.643  1.00  0.00    -0.438 A  
HETATM   13  N   UNL     1     -12.743  13.416  64.292  1.00  0.00    -0.656 NA 
HETATM   14  C   UNL     1     -11.961  12.541  63.623  1.00  0.00    -0.537 A  
HETATM   15  C   UNL     1     -11.066  11.682  64.241  1.00  0.00    -0.406 A  
HETATM   16  C   UNL     1     -10.962  11.720  65.631  1.00  0.00    -0.348 A  
ENDBRANCH   9  11
ENDBRANCH   8   9
ENDBRANCH   7   8
ENDBRANCH   6   7
ENDBRANCH   5   6
ENDBRANCH   4   5
ENDBRANCH   3   4
ENDBRANCH   2   3
TORSDOF 8
ENDMDL
MODEL       26
REMARK 921   NORMALIZED FREE ENERGY PREDICTED BY IDOCK:   -4.44 KCAL/MOL
REMARK 922        TOTAL FREE ENERGY PREDICTED BY IDOCK:   -6.92 KCAL/MOL
REMARK 923 INTER-LIGAND FREE ENERGY PREDICTED BY IDOCK:   -5.92 KCAL/MOL
REMARK 924 INTRA-LIGAND FREE ENERGY PREDICTED BY IDOCK:   -1.01 KCAL/MOL
REMARK 927      BINDING AFFINITY PREDICTED BY RF-SCORE:    0.00 PKD
ROOT
HETATM    1  C   UNL     1      -8.882  11.657  67.515  1.00  0.00    -0.158 C  
HETATM    2  C   UNL     1     -10.050  10.755  67.156  1.00  0.00    -0.243 C  
ENDROOT
BRANCH   2   3
HETATM    3  C   UNL     1     -11.391  11.454  67.366  1.00  0.00    -0.359 C  
BRANCH   3   4
HETATM    4  C   UNL     1     -11.492  12.035  68.771  1.00  0.00    -0.300 C  
BRANCH   4   5
HETATM    5  O   UNL     1     -11.956  13.381  68.682  1.00  0.00    -0.343 OA 
BRANCH   5   6
HETATM    6  C   UNL     1     -10.963  14.294  69.150  1.00  0.00    -0.261 C  
BRANCH   6   7
HETATM    7  C   UNL     1     -10.359  15.054  67.974  1.00  0.00    -0.236 C  
BRANCH   7   8
HETATM    8  O   UNL     1     -11.371  15.403  67.015  1.00  0.00    -0.288 OA 
BRANCH   8   9
HETATM    9  C   UNL     1     -10.968  15.400  65.720  1.00  0.00    -0.309 C  
HETATM   10  O   UNL     1     -10.356  16.290  65.155  1.00  0.00    -0.587 OA 
BRANCH   9  11
HETATM   11  C   UNL     1     -11.410  14.161  65.045  1.00  0.00    -0.350 A  
HETATM   12  C   UNL     1     -12.723  13.744  65.222  1.00  0.00    -0.439 A  
HETATM   13  N   UNL     1     -13.241  12.621  64.666  1.00  0.00    -0.775 NA 
HETATM   14  C   UNL     1     -12.410  11.884  63.897  1.00  0.00    -0.383 A  
HETATM   15  C   UNL     1     -11.085  12.216  63.659  1.00  0.00    -0.528 A  
HETATM   16  C   UNL     1     -10.577  13.375  64.244  1.00  0.00    -0.358 A  
ENDBRANCH   9  11
ENDBRANCH   8   9
ENDBRANCH   7   8
ENDBRANCH   6   7
ENDBRANCH   5   6
ENDBRANCH   4   5
ENDBRANCH   3   4
ENDBRANCH   2   3
TORSDOF 8
ENDMDL
MODEL       27
REMARK 921   NORMALIZED FREE ENERGY PREDICTED BY IDOCK:   -4.44 KCAL/MOL
REMARK 922        TOTAL FREE ENERGY PREDICTED BY IDOCK:   -6.92 KCAL/MOL
REMARK 923 INTER-LIGAND FREE ENERGY PREDICTED BY IDOCK:   -6.38 KCAL/MOL
REMARK 924 INTRA-LIGAND FREE ENERGY PREDICTED BY IDOCK:   -0.55 KCAL/MOL
REMARK 927      BINDING AFFINITY PREDICTED BY RF-SCORE:    0.00 PKD
ROOT
HETATM    1  C   UNL     1     -10.087  11.230  64.785  1.00  0.00    -0.338 C  
HETATM    2  C   UNL     1     -10.530  11.741  63.425  1.00  0.00    -0.485 C  
ENDROOT
BRANCH   2   3
HETATM    3  C   UNL     1     -12.009  12.118  63.416  1.00  0.00    -0.578 C  
BRANCH   3   4
HETATM    4  C   UNL     1     -12.526  12.342  64.831  1.00  0.00    -0.361 C  
BRANCH   4   5
HETATM    5  O   UNL     1     -13.136  13.630  64.903  1.00  0.00    -0.713 OA 
BRANCH   5   6
HETATM    6  C   UNL     1     -12.276  14.566  65.553  1.00  0.00    -0.282 C  
BRANCH   6   7
HETATM    7  C   UNL     1     -11.704  13.950  66.825  1.00  0.00    -0.399 C  
BRANCH   7   8
HETATM    8  O   UNL     1     -10.612  14.736  67.329  1.00  0.00    -0.265 OA 
BRANCH   8   9
HETATM    9  C   UNL     1     -10.969  15.838  68.036  1.00  0.00    -0.330 C  
HETATM   10  O   UNL     1     -11.798  15.882  68.929  1.00  0.00    -0.397 OA 
BRANCH   9  11
HETATM   11  C   UNL     1     -10.237  17.025  67.546  1.00  0.00    -0.323 A  
HETATM   12  C   UNL     1      -9.436  16.890  66.419  1.00  0.00    -0.283 A  
HETATM   13  N   UNL     1      -8.709  17.901  65.883  1.00  0.00    -0.501 NA 
HETATM   14  C   UNL     1      -8.785  19.100  66.500  1.00  0.00    -0.337 A  
HETATM   15  C   UNL     1      -9.554  19.335  67.630  1.00  0.00    -0.392 A  
HETATM   16  C   UNL     1     -10.292  18.279  68.161  1.00  0.00    -0.393 A  
ENDBRANCH   9  11
ENDBRANCH   8   9
ENDBRANCH   7   8
ENDBRANCH   6   7
ENDBRANCH   5   6
ENDBRANCH   4   5
ENDBRANCH   3   4
ENDBRANCH   2   3
TORSDOF 8
ENDMDL
MODEL       28
REMARK 921   NORMALIZED FREE ENERGY PREDICTED BY IDOCK:   -4.42 KCAL/MOL
REMARK 922        TOTAL FREE ENERGY PREDICTED BY IDOCK:   -6.90 KCAL/MOL
REMARK 923 INTER-LIGAND FREE ENERGY PREDICTED BY IDOCK:   -6.57 KCAL/MOL
REMARK 924 INTRA-LIGAND FREE ENERGY PREDICTED BY IDOCK:   -0.33 KCAL/MOL
REMARK 927      BINDING AFFINITY PREDICTED BY RF-SCORE:    0.00 PKD
ROOT
HETATM    1  C   UNL     1     -13.819  14.000  72.300  1.00  0.00    -0.655 C  
HETATM    2  C   UNL     1     -12.943  15.032  72.990  1.00  0.00    -0.590 C  
ENDROOT
BRANCH   2   3
HETATM    3  C   UNL     1     -12.340  16.019  71.995  1.00  0.00    -0.540 C  
BRANCH   3   4
HETATM    4  C   UNL     1     -12.398  15.472  70.575  1.00  0.00    -0.418 C  
BRANCH   4   5
HETATM    5  O   UNL     1     -11.185  14.773  70.299  1.00  0.00    -0.248 OA 
BRANCH   5   6
HETATM    6  C   UNL     1     -10.352  15.526  69.416  1.00  0.00    -0.258 C  
BRANCH   6   7
HETATM    7  C   UNL     1     -11.017  15.645  68.050  1.00  0.00    -0.318 C  
BRANCH   7   8
HETATM    8  O   UNL     1     -10.036  15.644  67.000  1.00  0.00    -0.234 OA 
BRANCH   8   9
HETATM    9  C   UNL     1     -10.218  16.581  66.036  1.00  0.00    -0.356 C  
HETATM   10  O   UNL     1     -10.677  16.388  64.922  1.00  0.00    -0.675 OA 
BRANCH   9  11
HETATM   11  C   UNL     1      -9.739  17.900  66.501  1.00  0.00    -0.331 A  
HETATM   12  C   UNL     1      -8.468  17.985  67.054  1.00  0.00    -0.237 A  
HETATM   13  N   UNL     1      -7.924  19.134  67.526  1.00  0.00    -0.255 NA 
HETATM   14  C   UNL     1      -8.683  20.247  67.439  1.00  0.00    -0.341 A  
HETATM   15  C   UNL     1      -9.963  20.266  66.904  1.00  0.00    -0.592 A  
HETATM   16  C   UNL     1     -10.498  19.071  66.427  1.00  0.00    -0.524 A  
ENDBRANCH   9  11
ENDBRANCH   8   9
ENDBRANCH   7   8
ENDBRANCH   6   7
ENDBRANCH   5   6
ENDBRANCH   4   5
ENDBRANCH   3   4
ENDBRANCH   2   3
TORSDOF 8
ENDMDL
MODEL       29
REMARK 921   NORMALIZED FREE ENERGY PREDICTED BY IDOCK:   -4.42 KCAL/MOL
REMARK 922        TOTAL FREE ENERGY PREDICTED BY IDOCK:   -6.89 KCAL/MOL
REMARK 923 INTER-LIGAND FREE ENERGY PREDICTED BY IDOCK:   -6.64 KCAL/MOL
REMARK 924 INTRA-LIGAND FREE ENERGY PREDICTED BY IDOCK:   -0.25 KCAL/MOL
REMARK 927      BINDING AFFINITY PREDICTED BY RF-SCORE:    0.00 PKD
ROOT
HETATM    1  C   UNL     1      -9.245  18.059  68.325  1.00  0.00    -0.298 C  
HETATM    2  C   UNL     1     -10.108  19.197  67.808  1.00  0.00    -0.469 C  
ENDROOT
BRANCH   2   3
HETATM    3  C   UNL     1     -10.461  19.019  66.334  1.00  0.00    -0.524 C  
BRANCH   3   4
HETATM    4  C   UNL     1     -10.238  17.579  65.888  1.00  0.00    -0.242 C  
BRANCH   4   5
HETATM    5  O   UNL     1     -11.114  17.292  64.799  1.00  0.00    -0.954 OA 
BRANCH   5   6
HETATM    6  C   UNL     1     -11.302  15.884  64.653  1.00  0.00    -0.322 C  
BRANCH   6   7
HETATM    7  C   UNL     1     -10.630  15.148  65.807  1.00  0.00    -0.351 C  
BRANCH   7   8
HETATM    8  O   UNL     1     -11.512  14.161  66.367  1.00  0.00    -0.331 OA 
BRANCH   8   9
HETATM    9  C   UNL     1     -12.117  13.346  65.466  1.00  0.00    -0.428 C  
HETATM   10  O   UNL     1     -13.281  13.409  65.107  1.00  0.00    -0.691 OA 
BRANCH   9  11
HETATM   11  C   UNL     1     -11.172  12.314  64.987  1.00  0.00    -0.367 A  
HETATM   12  C   UNL     1     -10.449  11.592  65.927  1.00  0.00    -0.255 A  
HETATM   13  N   UNL     1      -9.546  10.631  65.610  1.00  0.00    -0.204 NA 
HETATM   14  C   UNL     1      -9.360  10.380  64.296  1.00  0.00    -0.277 A  
HETATM   15  C   UNL     1     -10.033  11.047  63.283  1.00  0.00    -0.414 A  
HETATM   16  C   UNL     1     -10.955  12.030  63.636  1.00  0.00    -0.517 A  
ENDBRANCH   9  11
ENDBRANCH   8   9
ENDBRANCH   7   8
ENDBRANCH   6   7
ENDBRANCH   5   6
ENDBRANCH   4   5
ENDBRANCH   3   4
ENDBRANCH   2   3
TORSDOF 8
ENDMDL
MODEL       30
REMARK 921   NORMALIZED FREE ENERGY PREDICTED BY IDOCK:   -4.41 KCAL/MOL
REMARK 922        TOTAL FREE ENERGY PREDICTED BY IDOCK:   -6.88 KCAL/MOL
REMARK 923 INTER-LIGAND FREE ENERGY PREDICTED BY IDOCK:   -6.49 KCAL/MOL
REMARK 924 INTRA-LIGAND FREE ENERGY PREDICTED BY IDOCK:   -0.39 KCAL/MOL
REMARK 927      BINDING AFFINITY PREDICTED BY RF-SCORE:    0.00 PKD
ROOT
HETATM    1  C   UNL     1     -12.635  10.421  70.827  1.00  0.00    -0.462 C  
HETATM    2  C   UNL     1     -12.006  11.238  69.711  1.00  0.00    -0.431 C  
ENDROOT
BRANCH   2   3
HETATM    3  C   UNL     1     -11.969  12.726  70.050  1.00  0.00    -0.371 C  
BRANCH   3   4
HETATM    4  C   UNL     1     -11.912  13.575  68.786  1.00  0.00    -0.339 C  
BRANCH   4   5
HETATM    5  O   UNL     1     -11.757  12.714  67.658  1.00  0.00    -0.335 OA 
BRANCH   5   6
HETATM    6  C   UNL     1     -11.567  13.470  66.462  1.00  0.00    -0.359 C  
BRANCH   6   7
HETATM    7  C   UNL     1     -11.391  14.946  66.802  1.00  0.00    -0.328 C  
BRANCH   7   8
HETATM    8  O   UNL     1     -10.367  15.541  65.988  1.00  0.00    -0.289 OA 
BRANCH   8   9
HETATM    9  C   UNL     1     -10.584  16.834  65.637  1.00  0.00    -0.246 C  
HETATM   10  O   UNL     1     -11.112  17.221  64.609  1.00  0.00    -1.052 OA 
BRANCH   9  11
HETATM   11  C   UNL     1     -10.049  17.745  66.671  1.00  0.00    -0.350 A  
HETATM   12  C   UNL     1      -8.751  17.544  67.122  1.00  0.00    -0.237 A  
HETATM   13  N   UNL     1      -8.155  18.305  68.073  1.00  0.00    -0.262 NA 
HETATM   14  C   UNL     1      -8.888  19.313  68.594  1.00  0.00    -0.374 A  
HETATM   15  C   UNL     1     -10.190  19.594  68.210  1.00  0.00    -0.567 A  
HETATM   16  C   UNL     1     -10.779  18.796  67.231  1.00  0.00    -0.490 A  
ENDBRANCH   9  11
ENDBRANCH   8   9
ENDBRANCH   7   8
ENDBRANCH   6   7
ENDBRANCH   5   6
ENDBRANCH   4   5
ENDBRANCH   3   4
ENDBRANCH   2   3
TORSDOF 8
ENDMDL
MODEL       31
REMARK 921   NORMALIZED FREE ENERGY PREDICTED BY IDOCK:   -4.40 KCAL/MOL
REMARK 922        TOTAL FREE ENERGY PREDICTED BY IDOCK:   -6.87 KCAL/MOL
REMARK 923 INTER-LIGAND FREE ENERGY PREDICTED BY IDOCK:   -6.52 KCAL/MOL
REMARK 924 INTRA-LIGAND FREE ENERGY PREDICTED BY IDOCK:   -0.35 KCAL/MOL
REMARK 927      BINDING AFFINITY PREDICTED BY RF-SCORE:    0.00 PKD
ROOT
HETATM    1  C   UNL     1     -13.194  10.574  71.997  1.00  0.00    -0.483 C  
HETATM    2  C   UNL     1     -12.811  11.937  71.445  1.00  0.00    -0.411 C  
ENDROOT
BRANCH   2   3
HETATM    3  C   UNL     1     -13.395  13.073  72.280  1.00  0.00    -0.606 C  
BRANCH   3   4
HETATM    4  C   UNL     1     -13.528  14.347  71.456  1.00  0.00    -0.368 C  
BRANCH   4   5
HETATM    5  O   UNL     1     -12.225  14.794  71.085  1.00  0.00    -0.287 OA 
BRANCH   5   6
HETATM    6  C   UNL     1     -12.218  15.289  69.746  1.00  0.00    -0.294 C  
BRANCH   6   7
HETATM    7  C   UNL     1     -11.266  14.460  68.890  1.00  0.00    -0.262 C  
BRANCH   7   8
HETATM    8  O   UNL     1     -11.895  14.065  67.660  1.00  0.00    -0.357 OA 
BRANCH   8   9
HETATM    9  C   UNL     1     -11.863  12.734  67.394  1.00  0.00    -0.342 C  
HETATM   10  O   UNL     1     -12.013  11.835  68.204  1.00  0.00    -0.521 OA 
BRANCH   9  11
HETATM   11  C   UNL     1     -11.574  12.501  65.963  1.00  0.00    -0.456 A  
HETATM   12  C   UNL     1     -10.302  12.073  65.606  1.00  0.00    -0.253 A  
HETATM   13  N   UNL     1      -9.915  11.837  64.328  1.00  0.00    -0.264 NA 
HETATM   14  C   UNL     1     -10.841  12.035  63.365  1.00  0.00    -0.405 A  
HETATM   15  C   UNL     1     -12.136  12.461  63.620  1.00  0.00    -0.648 A  
HETATM   16  C   UNL     1     -12.508  12.697  64.942  1.00  0.00    -0.564 A  
ENDBRANCH   9  11
ENDBRANCH   8   9
ENDBRANCH   7   8
ENDBRANCH   6   7
ENDBRANCH   5   6
ENDBRANCH   4   5
ENDBRANCH   3   4
ENDBRANCH   2   3
TORSDOF 8
ENDMDL
MODEL       32
REMARK 921   NORMALIZED FREE ENERGY PREDICTED BY IDOCK:   -4.40 KCAL/MOL
REMARK 922        TOTAL FREE ENERGY PREDICTED BY IDOCK:   -6.86 KCAL/MOL
REMARK 923 INTER-LIGAND FREE ENERGY PREDICTED BY IDOCK:   -6.41 KCAL/MOL
REMARK 924 INTRA-LIGAND FREE ENERGY PREDICTED BY IDOCK:   -0.45 KCAL/MOL
REMARK 927      BINDING AFFINITY PREDICTED BY RF-SCORE:    0.00 PKD
ROOT
HETATM    1  C   UNL     1      -7.236  18.592  67.182  1.00  0.00    -0.218 C  
HETATM    2  C   UNL     1      -8.280  19.680  67.365  1.00  0.00    -0.333 C  
ENDROOT
BRANCH   2   3
HETATM    3  C   UNL     1      -9.379  19.595  66.309  1.00  0.00    -0.453 C  
BRANCH   3   4
HETATM    4  C   UNL     1     -10.467  18.616  66.729  1.00  0.00    -0.408 C  
BRANCH   4   5
HETATM    5  O   UNL     1     -10.491  17.528  65.806  1.00  0.00    -0.535 OA 
BRANCH   5   6
HETATM    6  C   UNL     1     -10.489  16.276  66.494  1.00  0.00    -0.290 C  
BRANCH   6   7
HETATM    7  C   UNL     1     -10.561  16.509  67.999  1.00  0.00    -0.328 C  
BRANCH   7   8
HETATM    8  O   UNL     1     -11.727  15.885  68.559  1.00  0.00    -0.383 OA 
BRANCH   8   9
HETATM    9  C   UNL     1     -11.492  14.763  69.285  1.00  0.00    -0.296 C  
HETATM   10  O   UNL     1     -11.003  13.726  68.869  1.00  0.00    -0.244 OA 
BRANCH   9  11
HETATM   11  C   UNL     1     -11.952  14.944  70.679  1.00  0.00    -0.363 A  
HETATM   12  C   UNL     1     -12.783  13.979  71.231  1.00  0.00    -0.365 A  
HETATM   13  N   UNL     1     -13.278  14.040  72.493  1.00  0.00    -0.484 NA 
HETATM   14  C   UNL     1     -12.925  15.113  73.234  1.00  0.00    -0.528 A  
HETATM   15  C   UNL     1     -12.102  16.129  72.772  1.00  0.00    -0.653 A  
HETATM   16  C   UNL     1     -11.607  16.041  71.472  1.00  0.00    -0.529 A  
ENDBRANCH   9  11
ENDBRANCH   8   9
ENDBRANCH   7   8
ENDBRANCH   6   7
ENDBRANCH   5   6
ENDBRANCH   4   5
ENDBRANCH   3   4
ENDBRANCH   2   3
TORSDOF 8
ENDMDL
MODEL       33
REMARK 921   NORMALIZED FREE ENERGY PREDICTED BY IDOCK:   -4.39 KCAL/MOL
REMARK 922        TOTAL FREE ENERGY PREDICTED BY IDOCK:   -6.86 KCAL/MOL
REMARK 923 INTER-LIGAND FREE ENERGY PREDICTED BY IDOCK:   -6.57 KCAL/MOL
REMARK 924 INTRA-LIGAND FREE ENERGY PREDICTED BY IDOCK:   -0.29 KCAL/MOL
REMARK 927      BINDING AFFINITY PREDICTED BY RF-SCORE:    0.00 PKD
ROOT
HETATM    1  C   UNL     1     -14.392   7.462  71.580  1.00  0.00    -0.614 C  
HETATM    2  C   UNL     1     -12.892   7.333  71.385  1.00  0.00    -0.425 C  
ENDROOT
BRANCH   2   3
HETATM    3  C   UNL     1     -12.129   8.445  72.101  1.00  0.00    -0.435 C  
BRANCH   3   4
HETATM    4  C   UNL     1     -11.637   9.496  71.113  1.00  0.00    -0.367 C  
BRANCH   4   5
HETATM    5  O   UNL     1     -12.223  10.753  71.447  1.00  0.00    -0.338 OA 
BRANCH   5   6
HETATM    6  C   UNL     1     -12.342  11.583  70.291  1.00  0.00    -0.273 C  
BRANCH   6   7
HETATM    7  C   UNL     1     -11.713  10.891  69.087  1.00  0.00    -0.326 C  
BRANCH   7   8
HETATM    8  O   UNL     1     -12.129  11.516  67.862  1.00  0.00    -0.630 OA 
BRANCH   8   9
HETATM    9  C   UNL     1     -11.163  11.636  66.916  1.00  0.00    -0.313 C  
HETATM   10  O   UNL     1     -10.186  10.918  66.791  1.00  0.00    -0.214 OA 
BRANCH   9  11
HETATM   11  C   UNL     1     -11.428  12.808  66.054  1.00  0.00    -0.396 A  
HETATM   12  C   UNL     1     -12.456  12.724  65.123  1.00  0.00    -0.501 A  
HETATM   13  N   UNL     1     -12.786  13.726  64.270  1.00  0.00    -0.653 NA 
HETATM   14  C   UNL     1     -12.058  14.860  64.353  1.00  0.00    -0.401 A  
HETATM   15  C   UNL     1     -11.013  15.040  65.247  1.00  0.00    -0.391 A  
HETATM   16  C   UNL     1     -10.694  13.995  66.112  1.00  0.00    -0.289 A  
ENDBRANCH   9  11
ENDBRANCH   8   9
ENDBRANCH   7   8
ENDBRANCH   6   7
ENDBRANCH   5   6
ENDBRANCH   4   5
ENDBRANCH   3   4
ENDBRANCH   2   3
TORSDOF 8
ENDMDL
MODEL       34
REMARK 921   NORMALIZED FREE ENERGY PREDICTED BY IDOCK:   -4.39 KCAL/MOL
REMARK 922        TOTAL FREE ENERGY PREDICTED BY IDOCK:   -6.86 KCAL/MOL
REMARK 923 INTER-LIGAND FREE ENERGY PREDICTED BY IDOCK:   -5.98 KCAL/MOL
REMARK 924 INTRA-LIGAND FREE ENERGY PREDICTED BY IDOCK:   -0.88 KCAL/MOL
REMARK 927      BINDING AFFINITY PREDICTED BY RF-SCORE:    0.00 PKD
ROOT
HETATM    1  C   UNL     1     -11.325  11.267  69.527  1.00  0.00    -0.362 C  
HETATM    2  C   UNL     1     -11.750  12.705  69.285  1.00  0.00    -0.379 C  
ENDROOT
BRANCH   2   3
HETATM    3  C   UNL     1     -11.996  12.982  67.804  1.00  0.00    -0.344 C  
BRANCH   3   4
HETATM    4  C   UNL     1     -11.315  11.937  66.931  1.00  0.00    -0.330 C  
BRANCH   4   5
HETATM    5  O   UNL     1     -11.822  12.044  65.601  1.00  0.00    -0.428 OA 
BRANCH   5   6
HETATM    6  C   UNL     1     -12.620  13.218  65.453  1.00  0.00    -0.468 C  
BRANCH   6   7
HETATM    7  C   UNL     1     -12.089  14.065  64.301  1.00  0.00    -0.445 C  
BRANCH   7   8
HETATM    8  O   UNL     1     -10.806  14.626  64.626  1.00  0.00    -0.385 OA 
BRANCH   8   9
HETATM    9  C   UNL     1     -10.834  15.888  65.123  1.00  0.00    -0.421 C  
HETATM   10  O   UNL     1     -11.353  16.857  64.596  1.00  0.00    -0.841 OA 
BRANCH   9  11
HETATM   11  C   UNL     1     -10.101  15.954  66.405  1.00  0.00    -0.306 A  
HETATM   12  C   UNL     1     -10.373  17.007  67.269  1.00  0.00    -0.311 A  
HETATM   13  N   UNL     1      -9.758  17.181  68.466  1.00  0.00    -0.279 NA 
HETATM   14  C   UNL     1      -8.832  16.262  68.813  1.00  0.00    -0.243 A  
HETATM   15  C   UNL     1      -8.489  15.178  68.020  1.00  0.00    -0.148 A  
HETATM   16  C   UNL     1      -9.136  15.022  66.795  1.00  0.00    -0.287 A  
ENDBRANCH   9  11
ENDBRANCH   8   9
ENDBRANCH   7   8
ENDBRANCH   6   7
ENDBRANCH   5   6
ENDBRANCH   4   5
ENDBRANCH   3   4
ENDBRANCH   2   3
TORSDOF 8
ENDMDL
MODEL       35
REMARK 921   NORMALIZED FREE ENERGY PREDICTED BY IDOCK:   -4.39 KCAL/MOL
REMARK 922        TOTAL FREE ENERGY PREDICTED BY IDOCK:   -6.86 KCAL/MOL
REMARK 923 INTER-LIGAND FREE ENERGY PREDICTED BY IDOCK:   -6.42 KCAL/MOL
REMARK 924 INTRA-LIGAND FREE ENERGY PREDICTED BY IDOCK:   -0.43 KCAL/MOL
REMARK 927      BINDING AFFINITY PREDICTED BY RF-SCORE:    0.00 PKD
ROOT
HETATM    1  C   UNL     1     -12.635  12.007  63.332  1.00  0.00    -0.592 C  
HETATM    2  C   UNL     1     -11.515  12.422  64.271  1.00  0.00    -0.427 C  
ENDROOT
BRANCH   2   3
HETATM    3  C   UNL     1     -12.054  12.962  65.593  1.00  0.00    -0.511 C  
BRANCH   3   4
HETATM    4  C   UNL     1     -11.235  14.154  66.072  1.00  0.00    -0.319 C  
BRANCH   4   5
HETATM    5  O   UNL     1     -11.810  14.655  67.278  1.00  0.00    -0.392 OA 
BRANCH   5   6
HETATM    6  C   UNL     1     -10.880  15.479  67.982  1.00  0.00    -0.300 C  
BRANCH   6   7
HETATM    7  C   UNL     1     -11.581  16.180  69.141  1.00  0.00    -0.285 C  
BRANCH   7   8
HETATM    8  O   UNL     1     -11.508  15.388  70.338  1.00  0.00    -0.274 OA 
BRANCH   8   9
HETATM    9  C   UNL     1     -12.692  14.887  70.774  1.00  0.00    -0.363 C  
HETATM   10  O   UNL     1     -13.682  15.535  71.068  1.00  0.00    -0.546 OA 
BRANCH   9  11
HETATM   11  C   UNL     1     -12.618  13.415  70.889  1.00  0.00    -0.406 A  
HETATM   12  C   UNL     1     -13.316  12.797  71.919  1.00  0.00    -0.413 A  
HETATM   13  N   UNL     1     -13.317  11.458  72.134  1.00  0.00    -0.364 NA 
HETATM   14  C   UNL     1     -12.589  10.704  71.282  1.00  0.00    -0.427 A  
HETATM   15  C   UNL     1     -11.858  11.227  70.225  1.00  0.00    -0.446 A  
HETATM   16  C   UNL     1     -11.874  12.606  70.027  1.00  0.00    -0.358 A  
ENDBRANCH   9  11
ENDBRANCH   8   9
ENDBRANCH   7   8
ENDBRANCH   6   7
ENDBRANCH   5   6
ENDBRANCH   4   5
ENDBRANCH   3   4
ENDBRANCH   2   3
TORSDOF 8
ENDMDL
MODEL       36
REMARK 921   NORMALIZED FREE ENERGY PREDICTED BY IDOCK:   -4.38 KCAL/MOL
REMARK 922        TOTAL FREE ENERGY PREDICTED BY IDOCK:   -6.84 KCAL/MOL
REMARK 923 INTER-LIGAND FREE ENERGY PREDICTED BY IDOCK:   -6.44 KCAL/MOL
REMARK 924 INTRA-LIGAND FREE ENERGY PREDICTED BY IDOCK:   -0.40 KCAL/MOL
REMARK 927      BINDING AFFINITY PREDICTED BY RF-SCORE:    0.00 PKD
ROOT
HETATM    1  C   UNL     1      -9.695   9.266  66.536  1.00  0.00    -0.305 C  
HETATM    2  C   UNL     1      -9.683   9.793  65.112  1.00  0.00    -0.338 C  
ENDROOT
BRANCH   2   3
HETATM    3  C   UNL     1     -10.427  11.121  64.993  1.00  0.00    -0.357 C  
BRANCH   3   4
HETATM    4  C   UNL     1     -10.403  11.636  63.559  1.00  0.00    -0.441 C  
BRANCH   4   5
HETATM    5  O   UNL     1     -11.389  12.657  63.419  1.00  0.00    -0.482 OA 
BRANCH   5   6
HETATM    6  C   UNL     1     -12.233  12.714  64.569  1.00  0.00    -0.443 C  
BRANCH   6   7
HETATM    7  C   UNL     1     -12.363  14.155  65.048  1.00  0.00    -0.440 C  
BRANCH   7   8
HETATM    8  O   UNL     1     -11.070  14.738  65.278  1.00  0.00    -0.332 OA 
BRANCH   8   9
HETATM    9  C   UNL     1     -10.992  16.077  65.071  1.00  0.00    -0.380 C  
HETATM   10  O   UNL     1     -11.320  16.667  64.056  1.00  0.00    -1.120 OA 
BRANCH   9  11
HETATM   11  C   UNL     1     -10.406  16.748  66.250  1.00  0.00    -0.316 A  
HETATM   12  C   UNL     1     -10.338  18.135  66.255  1.00  0.00    -0.397 A  
HETATM   13  N   UNL     1      -9.812  18.863  67.272  1.00  0.00    -0.310 NA 
HETATM   14  C   UNL     1      -9.335  18.173  68.331  1.00  0.00    -0.309 A  
HETATM   15  C   UNL     1      -9.358  16.789  68.420  1.00  0.00    -0.231 A  
HETATM   16  C   UNL     1      -9.903  16.066  67.361  1.00  0.00    -0.236 A  
ENDBRANCH   9  11
ENDBRANCH   8   9
ENDBRANCH   7   8
ENDBRANCH   6   7
ENDBRANCH   5   6
ENDBRANCH   4   5
ENDBRANCH   3   4
ENDBRANCH   2   3
TORSDOF 8
ENDMDL
MODEL       37
REMARK 921   NORMALIZED FREE ENERGY PREDICTED BY IDOCK:   -4.37 KCAL/MOL
REMARK 922        TOTAL FREE ENERGY PREDICTED BY IDOCK:   -6.83 KCAL/MOL
REMARK 923 INTER-LIGAND FREE ENERGY PREDICTED BY IDOCK:   -6.56 KCAL/MOL
REMARK 924 INTRA-LIGAND FREE ENERGY PREDICTED BY IDOCK:   -0.28 KCAL/MOL
REMARK 927      BINDING AFFINITY PREDICTED BY RF-SCORE:    0.00 PKD
ROOT
HETATM    1  C   UNL     1     -14.340   7.722  71.763  1.00  0.00    -0.594 C  
HETATM    2  C   UNL     1     -13.833   9.071  72.245  1.00  0.00    -0.547 C  
ENDROOT
BRANCH   2   3
HETATM    3  C   UNL     1     -12.557   9.490  71.519  1.00  0.00    -0.462 C  
BRANCH   3   4
HETATM    4  C   UNL     1     -12.814  10.678  70.601  1.00  0.00    -0.320 C  
BRANCH   4   5
HETATM    5  O   UNL     1     -11.611  10.988  69.899  1.00  0.00    -0.279 OA 
BRANCH   5   6
HETATM    6  C   UNL     1     -11.895  11.673  68.679  1.00  0.00    -0.308 C  
BRANCH   6   7
HETATM    7  C   UNL     1     -10.984  12.889  68.541  1.00  0.00    -0.259 C  
BRANCH   7   8
HETATM    8  O   UNL     1     -11.657  13.958  67.857  1.00  0.00    -0.302 OA 
BRANCH   8   9
HETATM    9  C   UNL     1     -11.011  14.446  66.768  1.00  0.00    -0.314 C  
HETATM   10  O   UNL     1     -10.285  15.426  66.741  1.00  0.00    -0.260 OA 
BRANCH   9  11
HETATM   11  C   UNL     1     -11.336  13.642  65.571  1.00  0.00    -0.308 A  
HETATM   12  C   UNL     1     -12.657  13.267  65.365  1.00  0.00    -0.468 A  
HETATM   13  N   UNL     1     -13.076  12.522  64.312  1.00  0.00    -0.749 NA 
HETATM   14  C   UNL     1     -12.133  12.135  63.427  1.00  0.00    -0.507 A  
HETATM   15  C   UNL     1     -10.789  12.457  63.545  1.00  0.00    -0.487 A  
HETATM   16  C   UNL     1     -10.385  13.224  64.636  1.00  0.00    -0.394 A  
ENDBRANCH   9  11
ENDBRANCH   8   9
ENDBRANCH   7   8
ENDBRANCH   6   7
ENDBRANCH   5   6
ENDBRANCH   4   5
ENDBRANCH   3   4
ENDBRANCH   2   3
TORSDOF 8
ENDMDL
MODEL       38
REMARK 921   NORMALIZED FREE ENERGY PREDICTED BY IDOCK:   -4.36 KCAL/MOL
REMARK 922        TOTAL FREE ENERGY PREDICTED BY IDOCK:   -6.82 KCAL/MOL
REMARK 923 INTER-LIGAND FREE ENERGY PREDICTED BY IDOCK:   -6.49 KCAL/MOL
REMARK 924 INTRA-LIGAND FREE ENERGY PREDICTED BY IDOCK:   -0.33 KCAL/MOL
REMARK 927      BINDING AFFINITY PREDICTED BY RF-SCORE:    0.00 PKD
ROOT
HETATM    1  C   UNL     1     -14.409   7.356  71.495  1.00  0.00    -0.594 C  
HETATM    2  C   UNL     1     -14.298   8.835  71.819  1.00  0.00    -0.414 C  
ENDROOT
BRANCH   2   3
HETATM    3  C   UNL     1     -12.917   9.195  72.361  1.00  0.00    -0.468 C  
BRANCH   3   4
HETATM    4  C   UNL     1     -12.162  10.089  71.386  1.00  0.00    -0.416 C  
BRANCH   4   5
HETATM    5  O   UNL     1     -11.184   9.306  70.703  1.00  0.00    -0.248 OA 
BRANCH   5   6
HETATM    6  C   UNL     1     -11.029   9.745  69.354  1.00  0.00    -0.212 C  
BRANCH   6   7
HETATM    7  C   UNL     1     -11.772  11.060  69.147  1.00  0.00    -0.333 C  
BRANCH   7   8
HETATM    8  O   UNL     1     -11.888  11.369  67.748  1.00  0.00    -0.595 OA 
BRANCH   8   9
HETATM    9  C   UNL     1     -11.234  12.487  67.345  1.00  0.00    -0.293 C  
HETATM   10  O   UNL     1     -10.522  13.193  68.039  1.00  0.00    -0.226 OA 
BRANCH   9  11
HETATM   11  C   UNL     1     -11.531  12.777  65.926  1.00  0.00    -0.399 A  
HETATM   12  C   UNL     1     -12.486  13.742  65.634  1.00  0.00    -0.503 A  
HETATM   13  N   UNL     1     -12.852  14.086  64.375  1.00  0.00    -0.544 NA 
HETATM   14  C   UNL     1     -12.236  13.438  63.363  1.00  0.00    -0.349 A  
HETATM   15  C   UNL     1     -11.271  12.459  63.551  1.00  0.00    -0.540 A  
HETATM   16  C   UNL     1     -10.913  12.125  64.856  1.00  0.00    -0.355 A  
ENDBRANCH   9  11
ENDBRANCH   8   9
ENDBRANCH   7   8
ENDBRANCH   6   7
ENDBRANCH   5   6
ENDBRANCH   4   5
ENDBRANCH   3   4
ENDBRANCH   2   3
TORSDOF 8
ENDMDL
MODEL       39
REMARK 921   NORMALIZED FREE ENERGY PREDICTED BY IDOCK:   -4.36 KCAL/MOL
REMARK 922        TOTAL FREE ENERGY PREDICTED BY IDOCK:   -6.81 KCAL/MOL
REMARK 923 INTER-LIGAND FREE ENERGY PREDICTED BY IDOCK:   -6.15 KCAL/MOL
REMARK 924 INTRA-LIGAND FREE ENERGY PREDICTED BY IDOCK:   -0.66 KCAL/MOL
REMARK 927      BINDING AFFINITY PREDICTED BY RF-SCORE:    0.00 PKD
ROOT
HETATM    1  C   UNL     1     -10.260   9.401  67.468  1.00  0.00    -0.288 C  
HETATM    2  C   UNL     1      -8.964   9.826  66.799  1.00  0.00    -0.156 C  
ENDROOT
BRANCH   2   3
HETATM    3  C   UNL     1      -8.903   9.377  65.342  1.00  0.00    -0.220 C  
BRANCH   3   4
HETATM    4  C   UNL     1      -9.241  10.525  64.400  1.00  0.00    -0.245 C  
BRANCH   4   5
HETATM    5  O   UNL     1     -10.649  10.751  64.432  1.00  0.00    -0.347 OA 
BRANCH   5   6
HETATM    6  C   UNL     1     -11.018  11.800  63.538  1.00  0.00    -0.424 C  
BRANCH   6   7
HETATM    7  C   UNL     1     -12.532  11.987  63.552  1.00  0.00    -0.540 C  
BRANCH   7   8
HETATM    8  O   UNL     1     -12.968  12.539  64.805  1.00  0.00    -0.827 OA 
BRANCH   8   9
HETATM    9  C   UNL     1     -12.549  13.805  65.058  1.00  0.00    -0.389 C  
HETATM   10  O   UNL     1     -12.638  14.757  64.301  1.00  0.00    -0.706 OA 
BRANCH   9  11
HETATM   11  C   UNL     1     -11.916  13.881  66.392  1.00  0.00    -0.467 A  
HETATM   12  C   UNL     1     -11.287  15.064  66.758  1.00  0.00    -0.293 A  
HETATM   13  N   UNL     1     -10.662  15.251  67.947  1.00  0.00    -0.268 NA 
HETATM   14  C   UNL     1     -10.668  14.210  68.808  1.00  0.00    -0.256 A  
HETATM   15  C   UNL     1     -11.268  12.990  68.535  1.00  0.00    -0.309 A  
HETATM   16  C   UNL     1     -11.903  12.824  67.306  1.00  0.00    -0.414 A  
ENDBRANCH   9  11
ENDBRANCH   8   9
ENDBRANCH   7   8
ENDBRANCH   6   7
ENDBRANCH   5   6
ENDBRANCH   4   5
ENDBRANCH   3   4
ENDBRANCH   2   3
TORSDOF 8
ENDMDL
MODEL       40
REMARK 921   NORMALIZED FREE ENERGY PREDICTED BY IDOCK:   -4.34 KCAL/MOL
REMARK 922        TOTAL FREE ENERGY PREDICTED BY IDOCK:   -6.78 KCAL/MOL
REMARK 923 INTER-LIGAND FREE ENERGY PREDICTED BY IDOCK:   -6.38 KCAL/MOL
REMARK 924 INTRA-LIGAND FREE ENERGY PREDICTED BY IDOCK:   -0.41 KCAL/MOL
REMARK 927      BINDING AFFINITY PREDICTED BY RF-SCORE:    0.00 PKD
ROOT
HETATM    1  C   UNL     1     -10.845  12.082  63.537  1.00  0.00    -0.509 C  
HETATM    2  C   UNL     1     -12.303  12.430  63.785  1.00  0.00    -0.625 C  
ENDROOT
BRANCH   2   3
HETATM    3  C   UNL     1     -12.466  13.853  64.312  1.00  0.00    -0.305 C  
BRANCH   3   4
HETATM    4  C   UNL     1     -12.415  13.884  65.834  1.00  0.00    -0.481 C  
BRANCH   4   5
HETATM    5  O   UNL     1     -11.284  14.652  66.243  1.00  0.00    -0.331 OA 
BRANCH   5   6
HETATM    6  C   UNL     1     -10.940  14.369  67.600  1.00  0.00    -0.286 C  
BRANCH   6   7
HETATM    7  C   UNL     1     -12.117  13.707  68.308  1.00  0.00    -0.271 C  
BRANCH   7   8
HETATM    8  O   UNL     1     -11.661  12.718  69.246  1.00  0.00    -0.282 OA 
BRANCH   8   9
HETATM    9  C   UNL     1     -11.858  11.429  68.870  1.00  0.00    -0.347 C  
HETATM   10  O   UNL     1     -12.026  11.030  67.730  1.00  0.00    -0.609 OA 
BRANCH   9  11
HETATM   11  C   UNL     1     -11.885  10.545  70.055  1.00  0.00    -0.388 A  
HETATM   12  C   UNL     1     -10.724   9.864  70.399  1.00  0.00    -0.318 A  
HETATM   13  N   UNL     1     -10.629   9.018  71.454  1.00  0.00    -0.295 NA 
HETATM   14  C   UNL     1     -11.742   8.846  72.199  1.00  0.00    -0.341 A  
HETATM   15  C   UNL     1     -12.948   9.479  71.937  1.00  0.00    -0.514 A  
HETATM   16  C   UNL     1     -13.019  10.343  70.846  1.00  0.00    -0.475 A  
ENDBRANCH   9  11
ENDBRANCH   8   9
ENDBRANCH   7   8
ENDBRANCH   6   7
ENDBRANCH   5   6
ENDBRANCH   4   5
ENDBRANCH   3   4
ENDBRANCH   2   3
TORSDOF 8
ENDMDL
MODEL       41
REMARK 921   NORMALIZED FREE ENERGY PREDICTED BY IDOCK:   -4.32 KCAL/MOL
REMARK 922        TOTAL FREE ENERGY PREDICTED BY IDOCK:   -6.75 KCAL/MOL
REMARK 923 INTER-LIGAND FREE ENERGY PREDICTED BY IDOCK:   -6.48 KCAL/MOL
REMARK 924 INTRA-LIGAND FREE ENERGY PREDICTED BY IDOCK:   -0.27 KCAL/MOL
REMARK 927      BINDING AFFINITY PREDICTED BY RF-SCORE:    0.00 PKD
ROOT
HETATM    1  C   UNL     1     -10.756  11.594  63.550  1.00  0.00    -0.495 C  
HETATM    2  C   UNL     1     -12.171  12.147  63.571  1.00  0.00    -0.670 C  
ENDROOT
BRANCH   2   3
HETATM    3  C   UNL     1     -12.517  12.769  64.921  1.00  0.00    -0.563 C  
BRANCH   3   4
HETATM    4  C   UNL     1     -12.409  14.288  64.867  1.00  0.00    -0.425 C  
BRANCH   4   5
HETATM    5  O   UNL     1     -11.474  14.720  65.854  1.00  0.00    -0.351 OA 
BRANCH   5   6
HETATM    6  C   UNL     1     -10.545  15.653  65.302  1.00  0.00    -0.426 C  
BRANCH   6   7
HETATM    7  C   UNL     1     -10.168  16.693  66.351  1.00  0.00    -0.315 C  
BRANCH   7   8
HETATM    8  O   UNL     1      -9.983  17.985  65.750  1.00  0.00    -0.550 OA 
BRANCH   8   9
HETATM    9  C   UNL     1     -10.091  19.040  66.597  1.00  0.00    -0.392 C  
HETATM   10  O   UNL     1     -11.108  19.670  66.835  1.00  0.00    -0.396 OA 
BRANCH   9  11
HETATM   11  C   UNL     1      -8.774  19.367  67.184  1.00  0.00    -0.332 A  
HETATM   12  C   UNL     1      -7.792  19.892  66.355  1.00  0.00    -0.316 A  
HETATM   13  N   UNL     1      -6.545  20.220  66.774  1.00  0.00    -0.217 NA 
HETATM   14  C   UNL     1      -6.268  20.014  68.080  1.00  0.00    -0.239 A  
HETATM   15  C   UNL     1      -7.179  19.494  68.986  1.00  0.00    -0.397 A  
HETATM   16  C   UNL     1      -8.454  19.166  68.529  1.00  0.00    -0.399 A  
ENDBRANCH   9  11
ENDBRANCH   8   9
ENDBRANCH   7   8
ENDBRANCH   6   7
ENDBRANCH   5   6
ENDBRANCH   4   5
ENDBRANCH   3   4
ENDBRANCH   2   3
TORSDOF 8
ENDMDL
MODEL       42
REMARK 921   NORMALIZED FREE ENERGY PREDICTED BY IDOCK:   -4.29 KCAL/MOL
REMARK 922        TOTAL FREE ENERGY PREDICTED BY IDOCK:   -6.71 KCAL/MOL
REMARK 923 INTER-LIGAND FREE ENERGY PREDICTED BY IDOCK:   -5.61 KCAL/MOL
REMARK 924 INTRA-LIGAND FREE ENERGY PREDICTED BY IDOCK:   -1.09 KCAL/MOL
REMARK 927      BINDING AFFINITY PREDICTED BY RF-SCORE:    0.00 PKD
ROOT
HETATM    1  C   UNL     1     -10.089  11.894  63.175  1.00  0.00    -0.341 C  
HETATM    2  C   UNL     1     -10.653  11.025  64.286  1.00  0.00    -0.402 C  
ENDROOT
BRANCH   2   3
HETATM    3  C   UNL     1      -9.597  10.690  65.335  1.00  0.00    -0.282 C  
BRANCH   3   4
HETATM    4  C   UNL     1      -9.901   9.359  66.013  1.00  0.00    -0.296 C  
BRANCH   4   5
HETATM    5  O   UNL     1      -9.581   9.463  67.399  1.00  0.00    -0.139 OA 
BRANCH   5   6
HETATM    6  C   UNL     1      -9.916  10.755  67.905  1.00  0.00    -0.174 C  
BRANCH   6   7
HETATM    7  C   UNL     1     -11.371  10.774  68.363  1.00  0.00    -0.302 C  
BRANCH   7   8
HETATM    8  O   UNL     1     -12.145  11.691  67.573  1.00  0.00    -0.611 OA 
BRANCH   8   9
HETATM    9  C   UNL     1     -11.962  13.004  67.864  1.00  0.00    -0.291 C  
HETATM   10  O   UNL     1     -11.995  13.506  68.974  1.00  0.00    -0.327 OA 
BRANCH   9  11
HETATM   11  C   UNL     1     -11.749  13.781  66.625  1.00  0.00    -0.421 A  
HETATM   12  C   UNL     1     -12.731  13.743  65.643  1.00  0.00    -0.478 A  
HETATM   13  N   UNL     1     -12.645  14.404  64.462  1.00  0.00    -0.673 NA 
HETATM   14  C   UNL     1     -11.529  15.135  64.254  1.00  0.00    -0.136 A  
HETATM   15  C   UNL     1     -10.494  15.237  65.171  1.00  0.00    -0.438 A  
HETATM   16  C   UNL     1     -10.607  14.548  66.377  1.00  0.00    -0.302 A  
ENDBRANCH   9  11
ENDBRANCH   8   9
ENDBRANCH   7   8
ENDBRANCH   6   7
ENDBRANCH   5   6
ENDBRANCH   4   5
ENDBRANCH   3   4
ENDBRANCH   2   3
TORSDOF 8
ENDMDL
MODEL       43
REMARK 921   NORMALIZED FREE ENERGY PREDICTED BY IDOCK:   -4.29 KCAL/MOL
REMARK 922        TOTAL FREE ENERGY PREDICTED BY IDOCK:   -6.70 KCAL/MOL
REMARK 923 INTER-LIGAND FREE ENERGY PREDICTED BY IDOCK:   -6.35 KCAL/MOL
REMARK 924 INTRA-LIGAND FREE ENERGY PREDICTED BY IDOCK:   -0.35 KCAL/MOL
REMARK 927      BINDING AFFINITY PREDICTED BY RF-SCORE:    0.00 PKD
ROOT
HETATM    1  C   UNL     1      -8.464   9.783  65.031  1.00  0.00    -0.161 C  
HETATM    2  C   UNL     1      -9.895   9.709  65.533  1.00  0.00    -0.352 C  
ENDROOT
BRANCH   2   3
HETATM    3  C   UNL     1     -10.374  11.050  66.083  1.00  0.00    -0.306 C  
BRANCH   3   4
HETATM    4  C   UNL     1     -11.103  10.870  67.408  1.00  0.00    -0.307 C  
BRANCH   4   5
HETATM    5  O   UNL     1     -12.044  11.931  67.566  1.00  0.00    -0.573 OA 
BRANCH   5   6
HETATM    6  C   UNL     1     -11.794  12.978  66.628  1.00  0.00    -0.393 C  
BRANCH   6   7
HETATM    7  C   UNL     1     -12.079  14.331  67.271  1.00  0.00    -0.355 C  
BRANCH   7   8
HETATM    8  O   UNL     1     -11.944  14.259  68.700  1.00  0.00    -0.333 OA 
BRANCH   8   9
HETATM    9  C   UNL     1     -11.737  15.446  69.324  1.00  0.00    -0.349 C  
HETATM   10  O   UNL     1     -11.085  16.381  68.891  1.00  0.00    -0.325 OA 
BRANCH   9  11
HETATM   11  C   UNL     1     -12.388  15.452  70.651  1.00  0.00    -0.451 A  
HETATM   12  C   UNL     1     -11.621  15.780  71.762  1.00  0.00    -0.456 A  
HETATM   13  N   UNL     1     -12.102  15.809  73.030  1.00  0.00    -0.455 NA 
HETATM   14  C   UNL     1     -13.406  15.498  73.194  1.00  0.00    -0.528 A  
HETATM   15  C   UNL     1     -14.253  15.158  72.149  1.00  0.00    -0.656 A  
HETATM   16  C   UNL     1     -13.733  15.135  70.856  1.00  0.00    -0.352 A  
ENDBRANCH   9  11
ENDBRANCH   8   9
ENDBRANCH   7   8
ENDBRANCH   6   7
ENDBRANCH   5   6
ENDBRANCH   4   5
ENDBRANCH   3   4
ENDBRANCH   2   3
TORSDOF 8
ENDMDL
MODEL       44
REMARK 921   NORMALIZED FREE ENERGY PREDICTED BY IDOCK:   -4.29 KCAL/MOL
REMARK 922        TOTAL FREE ENERGY PREDICTED BY IDOCK:   -6.70 KCAL/MOL
REMARK 923 INTER-LIGAND FREE ENERGY PREDICTED BY IDOCK:   -6.16 KCAL/MOL
REMARK 924 INTRA-LIGAND FREE ENERGY PREDICTED BY IDOCK:   -0.54 KCAL/MOL
REMARK 927      BINDING AFFINITY PREDICTED BY RF-SCORE:    0.00 PKD
ROOT
HETATM    1  C   UNL     1     -12.745  11.899  63.500  1.00  0.00    -0.530 C  
HETATM    2  C   UNL     1     -12.068  13.153  64.024  1.00  0.00    -0.511 C  
ENDROOT
BRANCH   2   3
HETATM    3  C   UNL     1     -12.620  13.571  65.384  1.00  0.00    -0.531 C  
BRANCH   3   4
HETATM    4  C   UNL     1     -11.731  13.070  66.514  1.00  0.00    -0.382 C  
BRANCH   4   5
HETATM    5  O   UNL     1     -11.742  14.029  67.571  1.00  0.00    -0.343 OA 
BRANCH   5   6
HETATM    6  C   UNL     1     -10.417  14.294  68.033  1.00  0.00    -0.235 C  
BRANCH   6   7
HETATM    7  C   UNL     1      -9.425  14.134  66.887  1.00  0.00    -0.267 C  
BRANCH   7   8
HETATM    8  O   UNL     1      -8.826  15.395  66.546  1.00  0.00    -0.274 OA 
BRANCH   8   9
HETATM    9  C   UNL     1      -9.664  16.301  65.983  1.00  0.00    -0.339 C  
HETATM   10  O   UNL     1     -10.269  16.166  64.933  1.00  0.00    -0.502 OA 
BRANCH   9  11
HETATM   11  C   UNL     1      -9.726  17.528  66.806  1.00  0.00    -0.296 A  
HETATM   12  C   UNL     1     -10.520  18.579  66.367  1.00  0.00    -0.406 A  
HETATM   13  N   UNL     1     -10.648  19.757  67.027  1.00  0.00    -0.470 NA 
HETATM   14  C   UNL     1      -9.952  19.888  68.177  1.00  0.00    -0.427 A  
HETATM   15  C   UNL     1      -9.133  18.898  68.698  1.00  0.00    -0.386 A  
HETATM   16  C   UNL     1      -9.019  17.698  67.999  1.00  0.00    -0.264 A  
ENDBRANCH   9  11
ENDBRANCH   8   9
ENDBRANCH   7   8
ENDBRANCH   6   7
ENDBRANCH   5   6
ENDBRANCH   4   5
ENDBRANCH   3   4
ENDBRANCH   2   3
TORSDOF 8
ENDMDL
MODEL       45
REMARK 921   NORMALIZED FREE ENERGY PREDICTED BY IDOCK:   -4.28 KCAL/MOL
REMARK 922        TOTAL FREE ENERGY PREDICTED BY IDOCK:   -6.70 KCAL/MOL
REMARK 923 INTER-LIGAND FREE ENERGY PREDICTED BY IDOCK:   -6.39 KCAL/MOL
REMARK 924 INTRA-LIGAND FREE ENERGY PREDICTED BY IDOCK:   -0.31 KCAL/MOL
REMARK 927      BINDING AFFINITY PREDICTED BY RF-SCORE:    0.00 PKD
ROOT
HETATM    1  C   UNL     1      -6.328  20.194  64.854  1.00  0.00    -0.329 C  
HETATM    2  C   UNL     1      -6.084  21.071  66.071  1.00  0.00    -0.304 C  
ENDROOT
BRANCH   2   3
HETATM    3  C   UNL     1      -7.056  20.752  67.204  1.00  0.00    -0.404 C  
BRANCH   3   4
HETATM    4  C   UNL     1      -8.357  20.173  66.663  1.00  0.00    -0.285 C  
BRANCH   4   5
HETATM    5  O   UNL     1      -9.296  20.069  67.733  1.00  0.00    -0.344 OA 
BRANCH   5   6
HETATM    6  C   UNL     1      -9.850  18.755  67.799  1.00  0.00    -0.333 C  
BRANCH   6   7
HETATM    7  C   UNL     1     -10.365  18.338  66.426  1.00  0.00    -0.400 C  
BRANCH   7   8
HETATM    8  O   UNL     1     -10.090  16.950  66.175  1.00  0.00    -0.314 OA 
BRANCH   8   9
HETATM    9  C   UNL     1     -10.830  16.381  65.189  1.00  0.00    -0.275 C  
HETATM   10  O   UNL     1     -11.184  16.920  64.154  1.00  0.00    -1.176 OA 
BRANCH   9  11
HETATM   11  C   UNL     1     -11.199  14.997  65.553  1.00  0.00    -0.344 A  
HETATM   12  C   UNL     1     -11.266  14.663  66.900  1.00  0.00    -0.343 A  
HETATM   13  N   UNL     1     -11.582  13.426  67.357  1.00  0.00    -0.333 NA 
HETATM   14  C   UNL     1     -11.843  12.482  66.427  1.00  0.00    -0.381 A  
HETATM   15  C   UNL     1     -11.802  12.716  65.060  1.00  0.00    -0.439 A  
HETATM   16  C   UNL     1     -11.474  13.996  64.618  1.00  0.00    -0.389 A  
ENDBRANCH   9  11
ENDBRANCH   8   9
ENDBRANCH   7   8
ENDBRANCH   6   7
ENDBRANCH   5   6
ENDBRANCH   4   5
ENDBRANCH   3   4
ENDBRANCH   2   3
TORSDOF 8
ENDMDL
MODEL       46
REMARK 921   NORMALIZED FREE ENERGY PREDICTED BY IDOCK:   -4.28 KCAL/MOL
REMARK 922        TOTAL FREE ENERGY PREDICTED BY IDOCK:   -6.69 KCAL/MOL
REMARK 923 INTER-LIGAND FREE ENERGY PREDICTED BY IDOCK:   -6.44 KCAL/MOL
REMARK 924 INTRA-LIGAND FREE ENERGY PREDICTED BY IDOCK:   -0.25 KCAL/MOL
REMARK 927      BINDING AFFINITY PREDICTED BY RF-SCORE:    0.00 PKD
ROOT
HETATM    1  C   UNL     1      -9.293  10.110  64.780  1.00  0.00    -0.324 C  
HETATM    2  C   UNL     1      -9.915  11.396  65.297  1.00  0.00    -0.303 C  
ENDROOT
BRANCH   2   3
HETATM    3  C   UNL     1     -10.720  11.164  66.573  1.00  0.00    -0.314 C  
BRANCH   3   4
HETATM    4  C   UNL     1     -11.768  12.253  66.764  1.00  0.00    -0.342 C  
BRANCH   4   5
HETATM    5  O   UNL     1     -12.517  12.392  65.557  1.00  0.00    -0.643 OA 
BRANCH   5   6
HETATM    6  C   UNL     1     -12.564  13.757  65.141  1.00  0.00    -0.433 C  
BRANCH   6   7
HETATM    7  C   UNL     1     -11.907  14.644  66.192  1.00  0.00    -0.277 C  
BRANCH   7   8
HETATM    8  O   UNL     1     -10.766  15.327  65.646  1.00  0.00    -0.325 OA 
BRANCH   8   9
HETATM    9  C   UNL     1     -11.013  16.568  65.157  1.00  0.00    -0.191 C  
HETATM   10  O   UNL     1     -11.629  16.831  64.139  1.00  0.00    -1.106 OA 
BRANCH   9  11
HETATM   11  C   UNL     1     -10.388  17.595  66.018  1.00  0.00    -0.305 A  
HETATM   12  C   UNL     1      -9.591  17.176  67.075  1.00  0.00    -0.260 A  
HETATM   13  N   UNL     1      -8.976  18.022  67.939  1.00  0.00    -0.260 NA 
HETATM   14  C   UNL     1      -9.165  19.343  67.736  1.00  0.00    -0.318 A  
HETATM   15  C   UNL     1      -9.942  19.860  66.710  1.00  0.00    -0.569 A  
HETATM   16  C   UNL     1     -10.563  18.970  65.837  1.00  0.00    -0.466 A  
ENDBRANCH   9  11
ENDBRANCH   8   9
ENDBRANCH   7   8
ENDBRANCH   6   7
ENDBRANCH   5   6
ENDBRANCH   4   5
ENDBRANCH   3   4
ENDBRANCH   2   3
TORSDOF 8
ENDMDL
MODEL       47
REMARK 921   NORMALIZED FREE ENERGY PREDICTED BY IDOCK:   -4.27 KCAL/MOL
REMARK 922        TOTAL FREE ENERGY PREDICTED BY IDOCK:   -6.68 KCAL/MOL
REMARK 923 INTER-LIGAND FREE ENERGY PREDICTED BY IDOCK:   -6.34 KCAL/MOL
REMARK 924 INTRA-LIGAND FREE ENERGY PREDICTED BY IDOCK:   -0.34 KCAL/MOL
REMARK 927      BINDING AFFINITY PREDICTED BY RF-SCORE:    0.00 PKD
ROOT
HETATM    1  C   UNL     1      -9.936  11.559  63.117  1.00  0.00    -0.404 C  
HETATM    2  C   UNL     1     -10.967  11.599  64.233  1.00  0.00    -0.418 C  
ENDROOT
BRANCH   2   3
HETATM    3  C   UNL     1     -12.247  12.307  63.798  1.00  0.00    -0.642 C  
BRANCH   3   4
HETATM    4  C   UNL     1     -12.766  13.225  64.897  1.00  0.00    -0.327 C  
BRANCH   4   5
HETATM    5  O   UNL     1     -12.286  12.756  66.156  1.00  0.00    -0.521 OA 
BRANCH   5   6
HETATM    6  C   UNL     1     -12.226  13.819  67.107  1.00  0.00    -0.313 C  
BRANCH   6   7
HETATM    7  C   UNL     1     -11.311  13.431  68.263  1.00  0.00    -0.295 C  
BRANCH   7   8
HETATM    8  O   UNL     1     -11.746  12.204  68.872  1.00  0.00    -0.288 OA 
BRANCH   8   9
HETATM    9  C   UNL     1     -12.092  12.298  70.181  1.00  0.00    -0.287 C  
HETATM   10  O   UNL     1     -12.355  13.325  70.784  1.00  0.00    -0.360 OA 
BRANCH   9  11
HETATM   11  C   UNL     1     -12.073  10.963  70.817  1.00  0.00    -0.469 A  
HETATM   12  C   UNL     1     -13.103  10.630  71.687  1.00  0.00    -0.450 A  
HETATM   13  N   UNL     1     -13.188   9.444  72.338  1.00  0.00    -0.434 NA 
HETATM   14  C   UNL     1     -12.201   8.551  72.108  1.00  0.00    -0.382 A  
HETATM   15  C   UNL     1     -11.131   8.789  71.259  1.00  0.00    -0.348 A  
HETATM   16  C   UNL     1     -11.067  10.017  70.602  1.00  0.00    -0.408 A  
ENDBRANCH   9  11
ENDBRANCH   8   9
ENDBRANCH   7   8
ENDBRANCH   6   7
ENDBRANCH   5   6
ENDBRANCH   4   5
ENDBRANCH   3   4
ENDBRANCH   2   3
TORSDOF 8
ENDMDL
MODEL       48
REMARK 921   NORMALIZED FREE ENERGY PREDICTED BY IDOCK:   -4.27 KCAL/MOL
REMARK 922        TOTAL FREE ENERGY PREDICTED BY IDOCK:   -6.67 KCAL/MOL
REMARK 923 INTER-LIGAND FREE ENERGY PREDICTED BY IDOCK:   -6.36 KCAL/MOL
REMARK 924 INTRA-LIGAND FREE ENERGY PREDICTED BY IDOCK:   -0.31 KCAL/MOL
REMARK 927      BINDING AFFINITY PREDICTED BY RF-SCORE:    0.00 PKD
ROOT
HETATM    1  C   UNL     1     -11.836  12.415  63.305  1.00  0.00    -0.491 C  
HETATM    2  C   UNL     1     -11.056  13.092  64.418  1.00  0.00    -0.407 C  
ENDROOT
BRANCH   2   3
HETATM    3  C   UNL     1     -11.562  14.507  64.687  1.00  0.00    -0.413 C  
BRANCH   3   4
HETATM    4  C   UNL     1     -10.433  15.413  65.160  1.00  0.00    -0.411 C  
BRANCH   4   5
HETATM    5  O   UNL     1     -10.639  15.728  66.537  1.00  0.00    -0.306 OA 
BRANCH   5   6
HETATM    6  C   UNL     1     -10.441  17.121  66.776  1.00  0.00    -0.263 C  
BRANCH   6   7
HETATM    7  C   UNL     1     -10.050  17.348  68.232  1.00  0.00    -0.339 C  
BRANCH   7   8
HETATM    8  O   UNL     1     -11.110  16.946  69.116  1.00  0.00    -0.222 OA 
BRANCH   8   9
HETATM    9  C   UNL     1     -10.766  16.026  70.053  1.00  0.00    -0.328 C  
HETATM   10  O   UNL     1      -9.705  15.429  70.119  1.00  0.00    -0.182 OA 
BRANCH   9  11
HETATM   11  C   UNL     1     -11.887  15.800  70.990  1.00  0.00    -0.460 A  
HETATM   12  C   UNL     1     -13.092  15.337  70.480  1.00  0.00    -0.289 A  
HETATM   13  N   UNL     1     -14.193  15.104  71.237  1.00  0.00    -0.459 NA 
HETATM   14  C   UNL     1     -14.083  15.343  72.562  1.00  0.00    -0.499 A  
HETATM   15  C   UNL     1     -12.924  15.806  73.166  1.00  0.00    -0.651 A  
HETATM   16  C   UNL     1     -11.807  16.038  72.365  1.00  0.00    -0.639 A  
ENDBRANCH   9  11
ENDBRANCH   8   9
ENDBRANCH   7   8
ENDBRANCH   6   7
ENDBRANCH   5   6
ENDBRANCH   4   5
ENDBRANCH   3   4
ENDBRANCH   2   3
TORSDOF 8
ENDMDL
MODEL       49
REMARK 921   NORMALIZED FREE ENERGY PREDICTED BY IDOCK:   -4.26 KCAL/MOL
REMARK 922        TOTAL FREE ENERGY PREDICTED BY IDOCK:   -6.66 KCAL/MOL
REMARK 923 INTER-LIGAND FREE ENERGY PREDICTED BY IDOCK:   -6.31 KCAL/MOL
REMARK 924 INTRA-LIGAND FREE ENERGY PREDICTED BY IDOCK:   -0.35 KCAL/MOL
REMARK 927      BINDING AFFINITY PREDICTED BY RF-SCORE:    0.00 PKD
ROOT
HETATM    1  C   UNL     1     -11.845   8.868  71.230  1.00  0.00    -0.371 C  
HETATM    2  C   UNL     1     -12.015  10.348  70.935  1.00  0.00    -0.478 C  
ENDROOT
BRANCH   2   3
HETATM    3  C   UNL     1     -11.190  10.784  69.727  1.00  0.00    -0.365 C  
BRANCH   3   4
HETATM    4  C   UNL     1     -11.733  12.076  69.130  1.00  0.00    -0.330 C  
BRANCH   4   5
HETATM    5  O   UNL     1     -12.111  11.836  67.775  1.00  0.00    -0.595 OA 
BRANCH   5   6
HETATM    6  C   UNL     1     -11.416  12.713  66.889  1.00  0.00    -0.343 C  
BRANCH   6   7
HETATM    7  C   UNL     1     -11.909  14.143  67.081  1.00  0.00    -0.423 C  
BRANCH   7   8
HETATM    8  O   UNL     1     -10.805  15.047  67.252  1.00  0.00    -0.295 OA 
BRANCH   8   9
HETATM    9  C   UNL     1     -10.958  15.969  68.236  1.00  0.00    -0.335 C  
HETATM   10  O   UNL     1     -11.370  15.755  69.364  1.00  0.00    -0.298 OA 
BRANCH   9  11
HETATM   11  C   UNL     1     -10.591  17.314  67.746  1.00  0.00    -0.367 A  
HETATM   12  C   UNL     1     -10.645  17.557  66.379  1.00  0.00    -0.195 A  
HETATM   13  N   UNL     1     -10.322  18.744  65.810  1.00  0.00    -0.582 NA 
HETATM   14  C   UNL     1      -9.928  19.732  66.642  1.00  0.00    -0.441 A  
HETATM   15  C   UNL     1      -9.840  19.588  68.019  1.00  0.00    -0.500 A  
HETATM   16  C   UNL     1     -10.178  18.357  68.579  1.00  0.00    -0.394 A  
ENDBRANCH   9  11
ENDBRANCH   8   9
ENDBRANCH   7   8
ENDBRANCH   6   7
ENDBRANCH   5   6
ENDBRANCH   4   5
ENDBRANCH   3   4
ENDBRANCH   2   3
TORSDOF 8
ENDMDL
MODEL       50
REMARK 921   NORMALIZED FREE ENERGY PREDICTED BY IDOCK:   -4.24 KCAL/MOL
REMARK 922        TOTAL FREE ENERGY PREDICTED BY IDOCK:   -6.64 KCAL/MOL
REMARK 923 INTER-LIGAND FREE ENERGY PREDICTED BY IDOCK:   -6.08 KCAL/MOL
REMARK 924 INTRA-LIGAND FREE ENERGY PREDICTED BY IDOCK:   -0.56 KCAL/MOL
REMARK 927      BINDING AFFINITY PREDICTED BY RF-SCORE:    0.00 PKD
ROOT
HETATM    1  C   UNL     1      -9.832   9.380  65.963  1.00  0.00    -0.366 C  
HETATM    2  C   UNL     1      -9.473  10.738  65.386  1.00  0.00    -0.258 C  
ENDROOT
BRANCH   2   3
HETATM    3  C   UNL     1      -9.915  10.871  63.931  1.00  0.00    -0.400 C  
BRANCH   3   4
HETATM    4  C   UNL     1     -11.247  11.602  63.827  1.00  0.00    -0.414 C  
BRANCH   4   5
HETATM    5  O   UNL     1     -11.027  12.995  64.048  1.00  0.00    -0.387 OA 
BRANCH   5   6
HETATM    6  C   UNL     1     -12.260  13.715  64.025  1.00  0.00    -0.390 C  
BRANCH   6   7
HETATM    7  C   UNL     1     -12.671  14.088  65.445  1.00  0.00    -0.471 C  
BRANCH   7   8
HETATM    8  O   UNL     1     -11.557  13.979  66.347  1.00  0.00    -0.339 OA 
BRANCH   8   9
HETATM    9  C   UNL     1     -11.772  13.207  67.442  1.00  0.00    -0.370 C  
HETATM   10  O   UNL     1     -11.979  12.005  67.446  1.00  0.00    -0.583 OA 
BRANCH   9  11
HETATM   11  C   UNL     1     -11.764  14.035  68.667  1.00  0.00    -0.389 A  
HETATM   12  C   UNL     1     -11.155  15.282  68.618  1.00  0.00    -0.279 A  
HETATM   13  N   UNL     1     -11.074  16.126  69.676  1.00  0.00    -0.328 NA 
HETATM   14  C   UNL     1     -11.628  15.705  70.834  1.00  0.00    -0.389 A  
HETATM   15  C   UNL     1     -12.257  14.479  70.984  1.00  0.00    -0.407 A  
HETATM   16  C   UNL     1     -12.327  13.630  69.880  1.00  0.00    -0.310 A  
ENDBRANCH   9  11
ENDBRANCH   8   9
ENDBRANCH   7   8
ENDBRANCH   6   7
ENDBRANCH   5   6
ENDBRANCH   4   5
ENDBRANCH   3   4
ENDBRANCH   2   3
TORSDOF 8
ENDMDL
MODEL       51
REMARK 921   NORMALIZED FREE ENERGY PREDICTED BY IDOCK:   -4.24 KCAL/MOL
REMARK 922        TOTAL FREE ENERGY PREDICTED BY IDOCK:   -6.63 KCAL/MOL
REMARK 923 INTER-LIGAND FREE ENERGY PREDICTED BY IDOCK:   -5.80 KCAL/MOL
REMARK 924 INTRA-LIGAND FREE ENERGY PREDICTED BY IDOCK:   -0.84 KCAL/MOL
REMARK 927      BINDING AFFINITY PREDICTED BY RF-SCORE:    0.00 PKD
ROOT
HETATM    1  C   UNL     1     -10.473   5.543  69.740  1.00  0.00    -0.389 C  
HETATM    2  C   UNL     1     -11.246   6.553  68.909  1.00  0.00    -0.341 C  
ENDROOT
BRANCH   2   3
HETATM    3  C   UNL     1     -10.938   6.417  67.420  1.00  0.00    -0.463 C  
BRANCH   3   4
HETATM    4  C   UNL     1     -10.223   7.655  66.894  1.00  0.00    -0.294 C  
BRANCH   4   5
HETATM    5  O   UNL     1     -10.887   8.817  67.387  1.00  0.00    -0.213 OA 
BRANCH   5   6
HETATM    6  C   UNL     1     -10.327  10.003  66.822  1.00  0.00    -0.217 C  
BRANCH   6   7
HETATM    7  C   UNL     1     -11.078  11.227  67.333  1.00  0.00    -0.297 C  
BRANCH   7   8
HETATM    8  O   UNL     1     -12.133  10.844  68.230  1.00  0.00    -0.562 OA 
BRANCH   8   9
HETATM    9  C   UNL     1     -12.070  11.396  69.469  1.00  0.00    -0.302 C  
HETATM   10  O   UNL     1     -12.114  12.586  69.729  1.00  0.00    -0.287 OA 
BRANCH   9  11
HETATM   11  C   UNL     1     -11.895  10.345  70.494  1.00  0.00    -0.430 A  
HETATM   12  C   UNL     1     -13.001   9.957  71.238  1.00  0.00    -0.395 A  
HETATM   13  N   UNL     1     -12.963   9.013  72.212  1.00  0.00    -0.413 NA 
HETATM   14  C   UNL     1     -11.768   8.432  72.451  1.00  0.00    -0.382 A  
HETATM   15  C   UNL     1     -10.607   8.751  71.762  1.00  0.00    -0.417 A  
HETATM   16  C   UNL     1     -10.673   9.724  70.767  1.00  0.00    -0.393 A  
ENDBRANCH   9  11
ENDBRANCH   8   9
ENDBRANCH   7   8
ENDBRANCH   6   7
ENDBRANCH   5   6
ENDBRANCH   4   5
ENDBRANCH   3   4
ENDBRANCH   2   3
TORSDOF 8
ENDMDL
MODEL       52
REMARK 921   NORMALIZED FREE ENERGY PREDICTED BY IDOCK:   -4.23 KCAL/MOL
REMARK 922        TOTAL FREE ENERGY PREDICTED BY IDOCK:   -6.62 KCAL/MOL
REMARK 923 INTER-LIGAND FREE ENERGY PREDICTED BY IDOCK:   -6.17 KCAL/MOL
REMARK 924 INTRA-LIGAND FREE ENERGY PREDICTED BY IDOCK:   -0.44 KCAL/MOL
REMARK 927      BINDING AFFINITY PREDICTED BY RF-SCORE:    0.00 PKD
ROOT
HETATM    1  C   UNL     1     -11.648  10.627  68.714  1.00  0.00    -0.309 C  
HETATM    2  C   UNL     1     -11.327  11.039  70.141  1.00  0.00    -0.335 C  
ENDROOT
BRANCH   2   3
HETATM    3  C   UNL     1     -12.591  11.334  70.943  1.00  0.00    -0.467 C  
BRANCH   3   4
HETATM    4  C   UNL     1     -12.748  12.830  71.188  1.00  0.00    -0.263 C  
BRANCH   4   5
HETATM    5  O   UNL     1     -11.967  13.539  70.228  1.00  0.00    -0.327 OA 
BRANCH   5   6
HETATM    6  C   UNL     1     -12.318  14.923  70.208  1.00  0.00    -0.341 C  
BRANCH   6   7
HETATM    7  C   UNL     1     -11.837  15.563  68.910  1.00  0.00    -0.338 C  
BRANCH   7   8
HETATM    8  O   UNL     1     -11.652  14.570  67.887  1.00  0.00    -0.311 OA 
BRANCH   8   9
HETATM    9  C   UNL     1     -11.079  15.018  66.742  1.00  0.00    -0.326 C  
HETATM   10  O   UNL     1     -10.417  16.035  66.619  1.00  0.00    -0.300 OA 
BRANCH   9  11
HETATM   11  C   UNL     1     -11.398  14.114  65.616  1.00  0.00    -0.319 A  
HETATM   12  C   UNL     1     -12.255  14.571  64.624  1.00  0.00    -0.460 A  
HETATM   13  N   UNL     1     -12.631  13.832  63.551  1.00  0.00    -0.808 NA 
HETATM   14  C   UNL     1     -12.127  12.583  63.466  1.00  0.00    -0.562 A  
HETATM   15  C   UNL     1     -11.265  12.035  64.405  1.00  0.00    -0.406 A  
HETATM   16  C   UNL     1     -10.895  12.816  65.498  1.00  0.00    -0.301 A  
ENDBRANCH   9  11
ENDBRANCH   8   9
ENDBRANCH   7   8
ENDBRANCH   6   7
ENDBRANCH   5   6
ENDBRANCH   4   5
ENDBRANCH   3   4
ENDBRANCH   2   3
TORSDOF 8
ENDMDL
MODEL       53
REMARK 921   NORMALIZED FREE ENERGY PREDICTED BY IDOCK:   -4.21 KCAL/MOL
REMARK 922        TOTAL FREE ENERGY PREDICTED BY IDOCK:   -6.60 KCAL/MOL
REMARK 923 INTER-LIGAND FREE ENERGY PREDICTED BY IDOCK:   -6.18 KCAL/MOL
REMARK 924 INTRA-LIGAND FREE ENERGY PREDICTED BY IDOCK:   -0.41 KCAL/MOL
REMARK 927      BINDING AFFINITY PREDICTED BY RF-SCORE:    0.00 PKD
ROOT
HETATM    1  C   UNL     1     -10.785   6.971  67.366  1.00  0.00    -0.383 C  
HETATM    2  C   UNL     1     -11.013   6.099  68.588  1.00  0.00    -0.415 C  
ENDROOT
BRANCH   2   3
HETATM    3  C   UNL     1     -11.648   6.882  69.734  1.00  0.00    -0.205 C  
BRANCH   3   4
HETATM    4  C   UNL     1     -10.612   7.737  70.453  1.00  0.00    -0.227 C  
BRANCH   4   5
HETATM    5  O   UNL     1     -11.171   9.025  70.707  1.00  0.00    -0.253 OA 
BRANCH   5   6
HETATM    6  C   UNL     1     -10.817   9.946  69.676  1.00  0.00    -0.253 C  
BRANCH   6   7
HETATM    7  C   UNL     1     -11.994  10.868  69.376  1.00  0.00    -0.322 C  
BRANCH   7   8
HETATM    8  O   UNL     1     -12.121  11.094  67.962  1.00  0.00    -0.635 OA 
BRANCH   8   9
HETATM    9  C   UNL     1     -11.761  12.332  67.539  1.00  0.00    -0.332 C  
HETATM   10  O   UNL     1     -11.580  13.310  68.245  1.00  0.00    -0.290 OA 
BRANCH   9  11
HETATM   11  C   UNL     1     -11.648  12.361  66.065  1.00  0.00    -0.455 A  
HETATM   12  C   UNL     1     -12.439  13.258  65.359  1.00  0.00    -0.489 A  
HETATM   13  N   UNL     1     -12.433  13.369  64.007  1.00  0.00    -0.674 NA 
HETATM   14  C   UNL     1     -11.598  12.549  63.333  1.00  0.00    -0.473 A  
HETATM   15  C   UNL     1     -10.771  11.620  63.946  1.00  0.00    -0.459 A  
HETATM   16  C   UNL     1     -10.797  11.526  65.336  1.00  0.00    -0.318 A  
ENDBRANCH   9  11
ENDBRANCH   8   9
ENDBRANCH   7   8
ENDBRANCH   6   7
ENDBRANCH   5   6
ENDBRANCH   4   5
ENDBRANCH   3   4
ENDBRANCH   2   3
TORSDOF 8
ENDMDL
MODEL       54
REMARK 921   NORMALIZED FREE ENERGY PREDICTED BY IDOCK:   -4.21 KCAL/MOL
REMARK 922        TOTAL FREE ENERGY PREDICTED BY IDOCK:   -6.59 KCAL/MOL
REMARK 923 INTER-LIGAND FREE ENERGY PREDICTED BY IDOCK:   -6.12 KCAL/MOL
REMARK 924 INTRA-LIGAND FREE ENERGY PREDICTED BY IDOCK:   -0.47 KCAL/MOL
REMARK 927      BINDING AFFINITY PREDICTED BY RF-SCORE:    0.00 PKD
ROOT
HETATM    1  C   UNL     1     -12.115  13.501  63.805  1.00  0.00    -0.482 C  
HETATM    2  C   UNL     1     -11.956  12.146  64.473  1.00  0.00    -0.415 C  
ENDROOT
BRANCH   2   3
HETATM    3  C   UNL     1     -10.606  11.510  64.152  1.00  0.00    -0.420 C  
BRANCH   3   4
HETATM    4  C   UNL     1      -9.787  11.295  65.419  1.00  0.00    -0.237 C  
BRANCH   4   5
HETATM    5  O   UNL     1     -10.236  12.208  66.420  1.00  0.00    -0.214 OA 
BRANCH   5   6
HETATM    6  C   UNL     1     -10.102  11.642  67.723  1.00  0.00    -0.187 C  
BRANCH   6   7
HETATM    7  C   UNL     1     -11.300  10.749  68.028  1.00  0.00    -0.307 C  
BRANCH   7   8
HETATM    8  O   UNL     1     -12.270  11.447  68.826  1.00  0.00    -0.502 OA 
BRANCH   8   9
HETATM    9  C   UNL     1     -11.991  11.511  70.153  1.00  0.00    -0.369 C  
HETATM   10  O   UNL     1     -11.450  10.643  70.817  1.00  0.00    -0.327 OA 
BRANCH   9  11
HETATM   11  C   UNL     1     -12.473  12.788  70.721  1.00  0.00    -0.357 A  
HETATM   12  C   UNL     1     -12.147  13.968  70.065  1.00  0.00    -0.348 A  
HETATM   13  N   UNL     1     -12.521  15.199  70.494  1.00  0.00    -0.355 NA 
HETATM   14  C   UNL     1     -13.254  15.252  71.628  1.00  0.00    -0.446 A  
HETATM   15  C   UNL     1     -13.629  14.131  72.354  1.00  0.00    -0.632 A  
HETATM   16  C   UNL     1     -13.232  12.878  71.891  1.00  0.00    -0.521 A  
ENDBRANCH   9  11
ENDBRANCH   8   9
ENDBRANCH   7   8
ENDBRANCH   6   7
ENDBRANCH   5   6
ENDBRANCH   4   5
ENDBRANCH   3   4
ENDBRANCH   2   3
TORSDOF 8
ENDMDL
MODEL       55
REMARK 921   NORMALIZED FREE ENERGY PREDICTED BY IDOCK:   -4.21 KCAL/MOL
REMARK 922        TOTAL FREE ENERGY PREDICTED BY IDOCK:   -6.59 KCAL/MOL
REMARK 923 INTER-LIGAND FREE ENERGY PREDICTED BY IDOCK:   -6.31 KCAL/MOL
REMARK 924 INTRA-LIGAND FREE ENERGY PREDICTED BY IDOCK:   -0.28 KCAL/MOL
REMARK 927      BINDING AFFINITY PREDICTED BY RF-SCORE:    0.00 PKD
ROOT
HETATM    1  C   UNL     1     -11.957   6.505  71.600  1.00  0.00    -0.387 C  
HETATM    2  C   UNL     1     -13.057   7.552  71.656  1.00  0.00    -0.401 C  
ENDROOT
BRANCH   2   3
HETATM    3  C   UNL     1     -12.506   8.936  71.987  1.00  0.00    -0.461 C  
BRANCH   3   4
HETATM    4  C   UNL     1     -13.373  10.030  71.378  1.00  0.00    -0.347 C  
BRANCH   4   5
HETATM    5  O   UNL     1     -12.528  11.066  70.879  1.00  0.00    -0.351 OA 
BRANCH   5   6
HETATM    6  C   UNL     1     -11.288  10.533  70.415  1.00  0.00    -0.328 C  
BRANCH   6   7
HETATM    7  C   UNL     1     -10.822  11.299  69.181  1.00  0.00    -0.222 C  
BRANCH   7   8
HETATM    8  O   UNL     1     -11.887  11.427  68.225  1.00  0.00    -0.501 OA 
BRANCH   8   9
HETATM    9  C   UNL     1     -11.877  12.571  67.496  1.00  0.00    -0.323 C  
HETATM   10  O   UNL     1     -12.040  13.700  67.928  1.00  0.00    -0.357 OA 
BRANCH   9  11
HETATM   11  C   UNL     1     -11.677  12.269  66.063  1.00  0.00    -0.451 A  
HETATM   12  C   UNL     1     -10.661  11.391  65.707  1.00  0.00    -0.260 A  
HETATM   13  N   UNL     1     -10.373  11.046  64.428  1.00  0.00    -0.339 NA 
HETATM   14  C   UNL     1     -11.135  11.602  63.462  1.00  0.00    -0.393 A  
HETATM   15  C   UNL     1     -12.171  12.489  63.714  1.00  0.00    -0.615 A  
HETATM   16  C   UNL     1     -12.446  12.827  65.038  1.00  0.00    -0.572 A  
ENDBRANCH   9  11
ENDBRANCH   8   9
ENDBRANCH   7   8
ENDBRANCH   6   7
ENDBRANCH   5   6
ENDBRANCH   4   5
ENDBRANCH   3   4
ENDBRANCH   2   3
TORSDOF 8
ENDMDL
MODEL       56
REMARK 921   NORMALIZED FREE ENERGY PREDICTED BY IDOCK:   -4.21 KCAL/MOL
REMARK 922        TOTAL FREE ENERGY PREDICTED BY IDOCK:   -6.59 KCAL/MOL
REMARK 923 INTER-LIGAND FREE ENERGY PREDICTED BY IDOCK:   -6.12 KCAL/MOL
REMARK 924 INTRA-LIGAND FREE ENERGY PREDICTED BY IDOCK:   -0.47 KCAL/MOL
REMARK 927      BINDING AFFINITY PREDICTED BY RF-SCORE:    0.00 PKD
ROOT
HETATM    1  C   UNL     1     -13.256  10.284  71.867  1.00  0.00    -0.550 C  
HETATM    2  C   UNL     1     -12.930  11.708  71.454  1.00  0.00    -0.426 C  
ENDROOT
BRANCH   2   3
HETATM    3  C   UNL     1     -13.727  12.730  72.261  1.00  0.00    -0.495 C  
BRANCH   3   4
HETATM    4  C   UNL     1     -13.615  14.120  71.649  1.00  0.00    -0.366 C  
BRANCH   4   5
HETATM    5  O   UNL     1     -12.389  14.714  72.072  1.00  0.00    -0.335 OA 
BRANCH   5   6
HETATM    6  C   UNL     1     -12.138  15.927  71.362  1.00  0.00    -0.452 C  
BRANCH   6   7
HETATM    7  C   UNL     1     -11.088  15.691  70.283  1.00  0.00    -0.347 C  
BRANCH   7   8
HETATM    8  O   UNL     1     -11.704  15.515  68.997  1.00  0.00    -0.346 OA 
BRANCH   8   9
HETATM    9  C   UNL     1     -11.545  14.288  68.441  1.00  0.00    -0.320 C  
HETATM   10  O   UNL     1     -11.270  13.259  69.035  1.00  0.00    -0.256 OA 
BRANCH   9  11
HETATM   11  C   UNL     1     -11.712  14.360  66.974  1.00  0.00    -0.420 A  
HETATM   12  C   UNL     1     -11.026  15.347  66.278  1.00  0.00    -0.278 A  
HETATM   13  N   UNL     1     -11.107  15.521  64.935  1.00  0.00    -0.429 NA 
HETATM   14  C   UNL     1     -11.908  14.669  64.259  1.00  0.00    -0.337 A  
HETATM   15  C   UNL     1     -12.634  13.653  64.862  1.00  0.00    -0.380 A  
HETATM   16  C   UNL     1     -12.532  13.496  66.243  1.00  0.00    -0.384 A  
ENDBRANCH   9  11
ENDBRANCH   8   9
ENDBRANCH   7   8
ENDBRANCH   6   7
ENDBRANCH   5   6
ENDBRANCH   4   5
ENDBRANCH   3   4
ENDBRANCH   2   3
TORSDOF 8
ENDMDL
MODEL       57
REMARK 921   NORMALIZED FREE ENERGY PREDICTED BY IDOCK:   -4.21 KCAL/MOL
REMARK 922        TOTAL FREE ENERGY PREDICTED BY IDOCK:   -6.59 KCAL/MOL
REMARK 923 INTER-LIGAND FREE ENERGY PREDICTED BY IDOCK:   -6.30 KCAL/MOL
REMARK 924 INTRA-LIGAND FREE ENERGY PREDICTED BY IDOCK:   -0.29 KCAL/MOL
REMARK 927      BINDING AFFINITY PREDICTED BY RF-SCORE:    0.00 PKD
ROOT
HETATM    1  C   UNL     1     -11.680  10.108  71.052  1.00  0.00    -0.470 C  
HETATM    2  C   UNL     1     -13.028  10.509  71.626  1.00  0.00    -0.581 C  
ENDROOT
BRANCH   2   3
HETATM    3  C   UNL     1     -13.054  11.978  72.040  1.00  0.00    -0.456 C  
BRANCH   3   4
HETATM    4  C   UNL     1     -12.330  12.847  71.020  1.00  0.00    -0.225 C  
BRANCH   4   5
HETATM    5  O   UNL     1     -12.484  14.217  71.388  1.00  0.00    -0.327 OA 
BRANCH   5   6
HETATM    6  C   UNL     1     -12.532  15.054  70.232  1.00  0.00    -0.337 C  
BRANCH   6   7
HETATM    7  C   UNL     1     -11.537  14.557  69.190  1.00  0.00    -0.298 C  
BRANCH   7   8
HETATM    8  O   UNL     1     -11.191  15.606  68.270  1.00  0.00    -0.320 OA 
BRANCH   8   9
HETATM    9  C   UNL     1     -10.144  16.384  68.645  1.00  0.00    -0.244 C  
HETATM   10  O   UNL     1      -9.306  16.105  69.486  1.00  0.00    -0.223 OA 
BRANCH   9  11
HETATM   11  C   UNL     1     -10.166  17.668  67.913  1.00  0.00    -0.357 A  
HETATM   12  C   UNL     1     -10.408  17.646  66.546  1.00  0.00    -0.337 A  
HETATM   13  N   UNL     1     -10.442  18.755  65.766  1.00  0.00    -0.601 NA 
HETATM   14  C   UNL     1     -10.226  19.938  66.382  1.00  0.00    -0.500 A  
HETATM   15  C   UNL     1      -9.975  20.064  67.740  1.00  0.00    -0.560 A  
HETATM   16  C   UNL     1      -9.946  18.908  68.518  1.00  0.00    -0.463 A  
ENDBRANCH   9  11
ENDBRANCH   8   9
ENDBRANCH   7   8
ENDBRANCH   6   7
ENDBRANCH   5   6
ENDBRANCH   4   5
ENDBRANCH   3   4
ENDBRANCH   2   3
TORSDOF 8
ENDMDL
MODEL       58
REMARK 921   NORMALIZED FREE ENERGY PREDICTED BY IDOCK:   -4.21 KCAL/MOL
REMARK 922        TOTAL FREE ENERGY PREDICTED BY IDOCK:   -6.58 KCAL/MOL
REMARK 923 INTER-LIGAND FREE ENERGY PREDICTED BY IDOCK:   -6.14 KCAL/MOL
REMARK 924 INTRA-LIGAND FREE ENERGY PREDICTED BY IDOCK:   -0.44 KCAL/MOL
REMARK 927      BINDING AFFINITY PREDICTED BY RF-SCORE:    0.00 PKD
ROOT
HETATM    1  C   UNL     1      -9.849   8.733  70.683  1.00  0.00    -0.237 C  
HETATM    2  C   UNL     1     -10.597   8.878  69.368  1.00  0.00    -0.226 C  
ENDROOT
BRANCH   2   3
HETATM    3  C   UNL     1     -11.153  10.288  69.185  1.00  0.00    -0.283 C  
BRANCH   3   4
HETATM    4  C   UNL     1     -11.055  10.731  67.731  1.00  0.00    -0.318 C  
BRANCH   4   5
HETATM    5  O   UNL     1     -12.074  11.696  67.472  1.00  0.00    -0.611 OA 
BRANCH   5   6
HETATM    6  C   UNL     1     -11.664  12.609  66.454  1.00  0.00    -0.405 C  
BRANCH   6   7
HETATM    7  C   UNL     1     -11.631  14.028  67.011  1.00  0.00    -0.371 C  
BRANCH   7   8
HETATM    8  O   UNL     1     -11.285  14.023  68.406  1.00  0.00    -0.244 OA 
BRANCH   8   9
HETATM    9  C   UNL     1     -11.772  15.064  69.127  1.00  0.00    -0.319 C  
HETATM   10  O   UNL     1     -11.595  16.247  68.891  1.00  0.00    -0.330 OA 
BRANCH   9  11
HETATM   11  C   UNL     1     -12.534  14.572  70.294  1.00  0.00    -0.405 A  
HETATM   12  C   UNL     1     -12.344  13.258  70.702  1.00  0.00    -0.339 A  
HETATM   13  N   UNL     1     -12.993  12.690  71.749  1.00  0.00    -0.354 NA 
HETATM   14  C   UNL     1     -13.869  13.471  72.418  1.00  0.00    -0.586 A  
HETATM   15  C   UNL     1     -14.128  14.793  72.088  1.00  0.00    -0.604 A  
HETATM   16  C   UNL     1     -13.448  15.352  71.008  1.00  0.00    -0.510 A  
ENDBRANCH   9  11
ENDBRANCH   8   9
ENDBRANCH   7   8
ENDBRANCH   6   7
ENDBRANCH   5   6
ENDBRANCH   4   5
ENDBRANCH   3   4
ENDBRANCH   2   3
TORSDOF 8
ENDMDL
MODEL       59
REMARK 921   NORMALIZED FREE ENERGY PREDICTED BY IDOCK:   -4.19 KCAL/MOL
REMARK 922        TOTAL FREE ENERGY PREDICTED BY IDOCK:   -6.56 KCAL/MOL
REMARK 923 INTER-LIGAND FREE ENERGY PREDICTED BY IDOCK:   -6.24 KCAL/MOL
REMARK 924 INTRA-LIGAND FREE ENERGY PREDICTED BY IDOCK:   -0.32 KCAL/MOL
REMARK 927      BINDING AFFINITY PREDICTED BY RF-SCORE:    0.00 PKD
ROOT
HETATM    1  C   UNL     1     -12.463  12.030  63.330  1.00  0.00    -0.625 C  
HETATM    2  C   UNL     1     -11.125  11.512  63.828  1.00  0.00    -0.471 C  
ENDROOT
BRANCH   2   3
HETATM    3  C   UNL     1     -10.258  12.633  64.394  1.00  0.00    -0.344 C  
BRANCH   3   4
HETATM    4  C   UNL     1     -11.062  13.915  64.564  1.00  0.00    -0.366 C  
BRANCH   4   5
HETATM    5  O   UNL     1     -10.183  14.962  64.972  1.00  0.00    -0.380 OA 
BRANCH   5   6
HETATM    6  C   UNL     1     -10.783  15.765  65.988  1.00  0.00    -0.306 C  
BRANCH   6   7
HETATM    7  C   UNL     1     -10.078  15.531  67.320  1.00  0.00    -0.250 C  
BRANCH   7   8
HETATM    8  O   UNL     1     -11.008  15.088  68.321  1.00  0.00    -0.254 OA 
BRANCH   8   9
HETATM    9  C   UNL     1     -11.157  15.919  69.383  1.00  0.00    -0.322 C  
HETATM   10  O   UNL     1     -10.734  17.060  69.468  1.00  0.00    -0.313 OA 
BRANCH   9  11
HETATM   11  C   UNL     1     -11.884  15.238  70.475  1.00  0.00    -0.363 A  
HETATM   12  C   UNL     1     -12.141  15.946  71.641  1.00  0.00    -0.484 A  
HETATM   13  N   UNL     1     -12.788  15.427  72.714  1.00  0.00    -0.384 NA 
HETATM   14  C   UNL     1     -13.197  14.144  72.616  1.00  0.00    -0.518 A  
HETATM   15  C   UNL     1     -12.988  13.354  71.495  1.00  0.00    -0.429 A  
HETATM   16  C   UNL     1     -12.320  13.912  70.406  1.00  0.00    -0.433 A  
ENDBRANCH   9  11
ENDBRANCH   8   9
ENDBRANCH   7   8
ENDBRANCH   6   7
ENDBRANCH   5   6
ENDBRANCH   4   5
ENDBRANCH   3   4
ENDBRANCH   2   3
TORSDOF 8
ENDMDL
MODEL       60
REMARK 921   NORMALIZED FREE ENERGY PREDICTED BY IDOCK:   -4.19 KCAL/MOL
REMARK 922        TOTAL FREE ENERGY PREDICTED BY IDOCK:   -6.56 KCAL/MOL
REMARK 923 INTER-LIGAND FREE ENERGY PREDICTED BY IDOCK:   -6.10 KCAL/MOL
REMARK 924 INTRA-LIGAND FREE ENERGY PREDICTED BY IDOCK:   -0.46 KCAL/MOL
REMARK 927      BINDING AFFINITY PREDICTED BY RF-SCORE:    0.00 PKD
ROOT
HETATM    1  C   UNL     1     -13.725   7.393  71.479  1.00  0.00    -0.467 C  
HETATM    2  C   UNL     1     -12.287   6.960  71.708  1.00  0.00    -0.401 C  
ENDROOT
BRANCH   2   3
HETATM    3  C   UNL     1     -11.603   6.555  70.405  1.00  0.00    -0.470 C  
BRANCH   3   4
HETATM    4  C   UNL     1     -10.834   7.725  69.803  1.00  0.00    -0.209 C  
BRANCH   4   5
HETATM    5  O   UNL     1     -10.194   8.447  70.855  1.00  0.00    -0.188 OA 
BRANCH   5   6
HETATM    6  C   UNL     1     -10.122   9.839  70.547  1.00  0.00    -0.224 C  
BRANCH   6   7
HETATM    7  C   UNL     1     -11.416  10.292  69.879  1.00  0.00    -0.273 C  
BRANCH   7   8
HETATM    8  O   UNL     1     -12.048  11.334  70.640  1.00  0.00    -0.355 OA 
BRANCH   8   9
HETATM    9  C   UNL     1     -12.094  12.548  70.033  1.00  0.00    -0.266 C  
HETATM   10  O   UNL     1     -11.844  12.776  68.862  1.00  0.00    -0.305 OA 
BRANCH   9  11
HETATM   11  C   UNL     1     -12.458  13.598  71.008  1.00  0.00    -0.456 A  
HETATM   12  C   UNL     1     -13.468  13.330  71.923  1.00  0.00    -0.438 A  
HETATM   13  N   UNL     1     -13.897  14.216  72.856  1.00  0.00    -0.585 NA 
HETATM   14  C   UNL     1     -13.289  15.422  72.875  1.00  0.00    -0.535 A  
HETATM   15  C   UNL     1     -12.272  15.785  72.004  1.00  0.00    -0.548 A  
HETATM   16  C   UNL     1     -11.850  14.856  71.055  1.00  0.00    -0.380 A  
ENDBRANCH   9  11
ENDBRANCH   8   9
ENDBRANCH   7   8
ENDBRANCH   6   7
ENDBRANCH   5   6
ENDBRANCH   4   5
ENDBRANCH   3   4
ENDBRANCH   2   3
TORSDOF 8
ENDMDL
MODEL       61
REMARK 921   NORMALIZED FREE ENERGY PREDICTED BY IDOCK:   -4.17 KCAL/MOL
REMARK 922        TOTAL FREE ENERGY PREDICTED BY IDOCK:   -6.53 KCAL/MOL
REMARK 923 INTER-LIGAND FREE ENERGY PREDICTED BY IDOCK:   -5.87 KCAL/MOL
REMARK 924 INTRA-LIGAND FREE ENERGY PREDICTED BY IDOCK:   -0.66 KCAL/MOL
REMARK 927      BINDING AFFINITY PREDICTED BY RF-SCORE:    0.00 PKD
ROOT
HETATM    1  C   UNL     1     -11.996  16.211  72.414  1.00  0.00    -0.649 C  
HETATM    2  C   UNL     1     -12.752  14.904  72.243  1.00  0.00    -0.411 C  
ENDROOT
BRANCH   2   3
HETATM    3  C   UNL     1     -12.980  14.569  70.772  1.00  0.00    -0.403 C  
BRANCH   3   4
HETATM    4  C   UNL     1     -11.983  15.299  69.882  1.00  0.00    -0.343 C  
BRANCH   4   5
HETATM    5  O   UNL     1     -11.350  14.351  69.023  1.00  0.00    -0.241 OA 
BRANCH   5   6
HETATM    6  C   UNL     1     -11.892  14.418  67.704  1.00  0.00    -0.378 C  
BRANCH   6   7
HETATM    7  C   UNL     1     -11.634  13.107  66.969  1.00  0.00    -0.359 C  
BRANCH   7   8
HETATM    8  O   UNL     1     -12.170  11.994  67.703  1.00  0.00    -0.484 OA 
BRANCH   8   9
HETATM    9  C   UNL     1     -11.284  11.005  67.983  1.00  0.00    -0.309 C  
HETATM   10  O   UNL     1     -10.435  10.565  67.227  1.00  0.00    -0.220 OA 
BRANCH   9  11
HETATM   11  C   UNL     1     -11.508  10.482  69.348  1.00  0.00    -0.329 A  
HETATM   12  C   UNL     1     -10.930   9.268  69.694  1.00  0.00    -0.175 A  
HETATM   13  N   UNL     1     -11.073   8.682  70.909  1.00  0.00    -0.255 NA 
HETATM   14  C   UNL     1     -11.826   9.339  71.817  1.00  0.00    -0.384 A  
HETATM   15  C   UNL     1     -12.444  10.555  71.568  1.00  0.00    -0.493 A  
HETATM   16  C   UNL     1     -12.281  11.136  70.311  1.00  0.00    -0.436 A  
ENDBRANCH   9  11
ENDBRANCH   8   9
ENDBRANCH   7   8
ENDBRANCH   6   7
ENDBRANCH   5   6
ENDBRANCH   4   5
ENDBRANCH   3   4
ENDBRANCH   2   3
TORSDOF 8
ENDMDL
MODEL       62
REMARK 921   NORMALIZED FREE ENERGY PREDICTED BY IDOCK:   -4.14 KCAL/MOL
REMARK 922        TOTAL FREE ENERGY PREDICTED BY IDOCK:   -6.48 KCAL/MOL
REMARK 923 INTER-LIGAND FREE ENERGY PREDICTED BY IDOCK:   -6.06 KCAL/MOL
REMARK 924 INTRA-LIGAND FREE ENERGY PREDICTED BY IDOCK:   -0.42 KCAL/MOL
REMARK 927      BINDING AFFINITY PREDICTED BY RF-SCORE:    0.00 PKD
ROOT
HETATM    1  C   UNL     1      -8.355   8.459  72.209  1.00  0.00    -0.218 C  
HETATM    2  C   UNL     1      -9.808   8.700  71.836  1.00  0.00    -0.384 C  
ENDROOT
BRANCH   2   3
HETATM    3  C   UNL     1     -10.421   7.492  71.134  1.00  0.00    -0.216 C  
BRANCH   3   4
HETATM    4  C   UNL     1     -11.818   7.198  71.667  1.00  0.00    -0.306 C  
BRANCH   4   5
HETATM    5  O   UNL     1     -12.214   8.260  72.534  1.00  0.00    -0.370 OA 
BRANCH   5   6
HETATM    6  C   UNL     1     -13.533   8.708  72.221  1.00  0.00    -0.374 C  
BRANCH   6   7
HETATM    7  C   UNL     1     -13.469   9.865  71.230  1.00  0.00    -0.280 C  
BRANCH   7   8
HETATM    8  O   UNL     1     -12.527  10.860  71.664  1.00  0.00    -0.335 OA 
BRANCH   8   9
HETATM    9  C   UNL     1     -12.228  11.813  70.746  1.00  0.00    -0.326 C  
HETATM   10  O   UNL     1     -11.583  11.650  69.724  1.00  0.00    -0.294 OA 
BRANCH   9  11
HETATM   11  C   UNL     1     -12.762  13.125  71.170  1.00  0.00    -0.386 A  
HETATM   12  C   UNL     1     -13.549  13.180  72.313  1.00  0.00    -0.581 A  
HETATM   13  N   UNL     1     -14.104  14.319  72.795  1.00  0.00    -0.517 NA 
HETATM   14  C   UNL     1     -13.861  15.454  72.103  1.00  0.00    -0.534 A  
HETATM   15  C   UNL     1     -13.090  15.502  70.952  1.00  0.00    -0.508 A  
HETATM   16  C   UNL     1     -12.531  14.317  70.478  1.00  0.00    -0.428 A  
ENDBRANCH   9  11
ENDBRANCH   8   9
ENDBRANCH   7   8
ENDBRANCH   6   7
ENDBRANCH   5   6
ENDBRANCH   4   5
ENDBRANCH   3   4
ENDBRANCH   2   3
TORSDOF 8
ENDMDL
MODEL       63
REMARK 921   NORMALIZED FREE ENERGY PREDICTED BY IDOCK:   -4.13 KCAL/MOL
REMARK 922        TOTAL FREE ENERGY PREDICTED BY IDOCK:   -6.47 KCAL/MOL
REMARK 923 INTER-LIGAND FREE ENERGY PREDICTED BY IDOCK:   -6.03 KCAL/MOL
REMARK 924 INTRA-LIGAND FREE ENERGY PREDICTED BY IDOCK:   -0.44 KCAL/MOL
REMARK 927      BINDING AFFINITY PREDICTED BY RF-SCORE:    0.00 PKD
ROOT
HETATM    1  C   UNL     1     -10.460  19.513  65.920  1.00  0.00    -0.585 C  
HETATM    2  C   UNL     1      -9.271  18.980  66.701  1.00  0.00    -0.351 C  
ENDROOT
BRANCH   2   3
HETATM    3  C   UNL     1      -8.985  17.518  66.370  1.00  0.00    -0.264 C  
BRANCH   3   4
HETATM    4  C   UNL     1     -10.277  16.721  66.245  1.00  0.00    -0.332 C  
BRANCH   4   5
HETATM    5  O   UNL     1     -10.294  16.063  64.979  1.00  0.00    -0.543 OA 
BRANCH   5   6
HETATM    6  C   UNL     1     -11.589  15.535  64.695  1.00  0.00    -0.281 C  
BRANCH   6   7
HETATM    7  C   UNL     1     -11.522  14.015  64.598  1.00  0.00    -0.383 C  
BRANCH   7   8
HETATM    8  O   UNL     1     -12.303  13.400  65.636  1.00  0.00    -0.430 OA 
BRANCH   8   9
HETATM    9  C   UNL     1     -11.672  12.424  66.336  1.00  0.00    -0.391 C  
HETATM   10  O   UNL     1     -11.069  11.475  65.863  1.00  0.00    -0.283 OA 
BRANCH   9  11
HETATM   11  C   UNL     1     -11.843  12.637  67.789  1.00  0.00    -0.381 A  
HETATM   12  C   UNL     1     -11.984  13.938  68.254  1.00  0.00    -0.357 A  
HETATM   13  N   UNL     1     -12.136  14.261  69.562  1.00  0.00    -0.329 NA 
HETATM   14  C   UNL     1     -12.148  13.237  70.444  1.00  0.00    -0.327 A  
HETATM   15  C   UNL     1     -12.013  11.906  70.079  1.00  0.00    -0.409 A  
HETATM   16  C   UNL     1     -11.859  11.603  68.727  1.00  0.00    -0.387 A  
ENDBRANCH   9  11
ENDBRANCH   8   9
ENDBRANCH   7   8
ENDBRANCH   6   7
ENDBRANCH   5   6
ENDBRANCH   4   5
ENDBRANCH   3   4
ENDBRANCH   2   3
TORSDOF 8
ENDMDL
MODEL       64
REMARK 921   NORMALIZED FREE ENERGY PREDICTED BY IDOCK:   -4.11 KCAL/MOL
REMARK 922        TOTAL FREE ENERGY PREDICTED BY IDOCK:   -6.45 KCAL/MOL
REMARK 923 INTER-LIGAND FREE ENERGY PREDICTED BY IDOCK:   -6.21 KCAL/MOL
REMARK 924 INTRA-LIGAND FREE ENERGY PREDICTED BY IDOCK:   -0.24 KCAL/MOL
REMARK 927      BINDING AFFINITY PREDICTED BY RF-SCORE:    0.00 PKD
ROOT
HETATM    1  C   UNL     1     -12.464  11.948  63.256  1.00  0.00    -0.506 C  
HETATM    2  C   UNL     1     -12.106  13.287  63.875  1.00  0.00    -0.531 C  
ENDROOT
BRANCH   2   3
HETATM    3  C   UNL     1     -12.421  13.325  65.368  1.00  0.00    -0.543 C  
BRANCH   3   4
HETATM    4  C   UNL     1     -11.446  12.459  66.156  1.00  0.00    -0.379 C  
BRANCH   4   5
HETATM    5  O   UNL     1     -11.950  12.282  67.479  1.00  0.00    -0.513 OA 
BRANCH   5   6
HETATM    6  C   UNL     1     -12.065  13.536  68.153  1.00  0.00    -0.255 C  
BRANCH   6   7
HETATM    7  C   UNL     1     -10.709  14.230  68.195  1.00  0.00    -0.244 C  
BRANCH   7   8
HETATM    8  O   UNL     1     -10.824  15.605  67.796  1.00  0.00    -0.292 OA 
BRANCH   8   9
HETATM    9  C   UNL     1     -10.692  16.512  68.797  1.00  0.00    -0.339 C  
HETATM   10  O   UNL     1     -11.014  16.349  69.962  1.00  0.00    -0.354 OA 
BRANCH   9  11
HETATM   11  C   UNL     1     -10.129  17.777  68.278  1.00  0.00    -0.371 A  
HETATM   12  C   UNL     1      -8.761  17.988  68.394  1.00  0.00    -0.293 A  
HETATM   13  N   UNL     1      -8.132  19.111  67.966  1.00  0.00    -0.288 NA 
HETATM   14  C   UNL     1      -8.903  20.062  67.397  1.00  0.00    -0.346 A  
HETATM   15  C   UNL     1     -10.275  19.945  67.236  1.00  0.00    -0.572 A  
HETATM   16  C   UNL     1     -10.898  18.781  67.684  1.00  0.00    -0.382 A  
ENDBRANCH   9  11
ENDBRANCH   8   9
ENDBRANCH   7   8
ENDBRANCH   6   7
ENDBRANCH   5   6
ENDBRANCH   4   5
ENDBRANCH   3   4
ENDBRANCH   2   3
TORSDOF 8
ENDMDL
MODEL       65
REMARK 921   NORMALIZED FREE ENERGY PREDICTED BY IDOCK:   -4.10 KCAL/MOL
REMARK 922        TOTAL FREE ENERGY PREDICTED BY IDOCK:   -6.44 KCAL/MOL
REMARK 923 INTER-LIGAND FREE ENERGY PREDICTED BY IDOCK:   -6.08 KCAL/MOL
REMARK 924 INTRA-LIGAND FREE ENERGY PREDICTED BY IDOCK:   -0.36 KCAL/MOL
REMARK 927      BINDING AFFINITY PREDICTED BY RF-SCORE:    0.00 PKD
ROOT
HETATM    1  C   UNL     1     -11.249  12.759  64.184  1.00  0.00    -0.435 C  
HETATM    2  C   UNL     1     -12.346  12.939  65.219  1.00  0.00    -0.544 C  
ENDROOT
BRANCH   2   3
HETATM    3  C   UNL     1     -11.891  13.819  66.380  1.00  0.00    -0.434 C  
BRANCH   3   4
HETATM    4  C   UNL     1     -11.888  13.041  67.689  1.00  0.00    -0.351 C  
BRANCH   4   5
HETATM    5  O   UNL     1     -12.036  11.651  67.401  1.00  0.00    -0.621 OA 
BRANCH   5   6
HETATM    6  C   UNL     1     -11.414  10.853  68.408  1.00  0.00    -0.304 C  
BRANCH   6   7
HETATM    7  C   UNL     1     -11.900  11.285  69.788  1.00  0.00    -0.364 C  
BRANCH   7   8
HETATM    8  O   UNL     1     -11.361  10.432  70.811  1.00  0.00    -0.330 OA 
BRANCH   8   9
HETATM    9  C   UNL     1     -12.268   9.657  71.457  1.00  0.00    -0.399 C  
HETATM   10  O   UNL     1     -13.365  10.013  71.855  1.00  0.00    -0.413 OA 
BRANCH   9  11
HETATM   11  C   UNL     1     -11.731   8.295  71.661  1.00  0.00    -0.341 A  
HETATM   12  C   UNL     1     -11.739   7.414  70.588  1.00  0.00    -0.242 A  
HETATM   13  N   UNL     1     -11.285   6.137  70.655  1.00  0.00    -0.323 NA 
HETATM   14  C   UNL     1     -10.802   5.725  71.847  1.00  0.00    -0.252 A  
HETATM   15  C   UNL     1     -10.752   6.529  72.976  1.00  0.00    -0.291 A  
HETATM   16  C   UNL     1     -11.225   7.836  72.880  1.00  0.00    -0.434 A  
ENDBRANCH   9  11
ENDBRANCH   8   9
ENDBRANCH   7   8
ENDBRANCH   6   7
ENDBRANCH   5   6
ENDBRANCH   4   5
ENDBRANCH   3   4
ENDBRANCH   2   3
TORSDOF 8
ENDMDL
MODEL       66
REMARK 921   NORMALIZED FREE ENERGY PREDICTED BY IDOCK:   -4.08 KCAL/MOL
REMARK 922        TOTAL FREE ENERGY PREDICTED BY IDOCK:   -6.40 KCAL/MOL
REMARK 923 INTER-LIGAND FREE ENERGY PREDICTED BY IDOCK:   -5.92 KCAL/MOL
REMARK 924 INTRA-LIGAND FREE ENERGY PREDICTED BY IDOCK:   -0.49 KCAL/MOL
REMARK 927      BINDING AFFINITY PREDICTED BY RF-SCORE:    0.00 PKD
ROOT
HETATM    1  C   UNL     1      -6.286  16.312  67.240  1.00  0.00    -0.205 C  
HETATM    2  C   UNL     1      -6.762  17.698  66.840  1.00  0.00    -0.212 C  
ENDROOT
BRANCH   2   3
HETATM    3  C   UNL     1      -7.337  18.464  68.028  1.00  0.00    -0.256 C  
BRANCH   3   4
HETATM    4  C   UNL     1      -8.748  18.955  67.732  1.00  0.00    -0.292 C  
BRANCH   4   5
HETATM    5  O   UNL     1      -9.588  18.644  68.843  1.00  0.00    -0.340 OA 
BRANCH   5   6
HETATM    6  C   UNL     1      -9.901  17.251  68.872  1.00  0.00    -0.286 C  
BRANCH   6   7
HETATM    7  C   UNL     1     -11.009  16.946  67.870  1.00  0.00    -0.251 C  
BRANCH   7   8
HETATM    8  O   UNL     1     -10.777  15.687  67.217  1.00  0.00    -0.299 OA 
BRANCH   8   9
HETATM    9  C   UNL     1     -10.641  15.749  65.868  1.00  0.00    -0.339 C  
HETATM   10  O   UNL     1     -10.223  16.701  65.231  1.00  0.00    -0.600 OA 
BRANCH   9  11
HETATM   11  C   UNL     1     -11.115  14.496  65.243  1.00  0.00    -0.355 A  
HETATM   12  C   UNL     1     -12.442  14.129  65.421  1.00  0.00    -0.472 A  
HETATM   13  N   UNL     1     -12.989  12.999  64.907  1.00  0.00    -0.768 NA 
HETATM   14  C   UNL     1     -12.173  12.202  64.184  1.00  0.00    -0.413 A  
HETATM   15  C   UNL     1     -10.835  12.481  63.951  1.00  0.00    -0.472 A  
HETATM   16  C   UNL     1     -10.298  13.648  64.490  1.00  0.00    -0.355 A  
ENDBRANCH   9  11
ENDBRANCH   8   9
ENDBRANCH   7   8
ENDBRANCH   6   7
ENDBRANCH   5   6
ENDBRANCH   4   5
ENDBRANCH   3   4
ENDBRANCH   2   3
TORSDOF 8
ENDMDL
MODEL       67
REMARK 921   NORMALIZED FREE ENERGY PREDICTED BY IDOCK:   -4.06 KCAL/MOL
REMARK 922        TOTAL FREE ENERGY PREDICTED BY IDOCK:   -6.38 KCAL/MOL
REMARK 923 INTER-LIGAND FREE ENERGY PREDICTED BY IDOCK:   -6.10 KCAL/MOL
REMARK 924 INTRA-LIGAND FREE ENERGY PREDICTED BY IDOCK:   -0.28 KCAL/MOL
REMARK 927      BINDING AFFINITY PREDICTED BY RF-SCORE:    0.00 PKD
ROOT
HETATM    1  C   UNL     1     -11.765   6.447  70.315  1.00  0.00    -0.389 C  
HETATM    2  C   UNL     1     -10.829   6.221  69.140  1.00  0.00    -0.403 C  
ENDROOT
BRANCH   2   3
HETATM    3  C   UNL     1     -10.323   7.537  68.556  1.00  0.00    -0.224 C  
BRANCH   3   4
HETATM    4  C   UNL     1     -10.511   7.575  67.045  1.00  0.00    -0.338 C  
BRANCH   4   5
HETATM    5  O   UNL     1     -10.063   8.838  66.555  1.00  0.00    -0.274 OA 
BRANCH   5   6
HETATM    6  C   UNL     1     -10.734   9.909  67.218  1.00  0.00    -0.238 C  
BRANCH   6   7
HETATM    7  C   UNL     1     -10.882  11.096  66.272  1.00  0.00    -0.205 C  
BRANCH   7   8
HETATM    8  O   UNL     1     -12.060  11.857  66.583  1.00  0.00    -0.587 OA 
BRANCH   8   9
HETATM    9  C   UNL     1     -12.382  12.821  65.684  1.00  0.00    -0.382 C  
HETATM   10  O   UNL     1     -13.108  12.685  64.713  1.00  0.00    -0.852 OA 
BRANCH   9  11
HETATM   11  C   UNL     1     -11.692  14.086  66.014  1.00  0.00    -0.378 A  
HETATM   12  C   UNL     1     -11.758  14.554  67.320  1.00  0.00    -0.406 A  
HETATM   13  N   UNL     1     -11.176  15.705  67.740  1.00  0.00    -0.322 NA 
HETATM   14  C   UNL     1     -10.498  16.418  66.815  1.00  0.00    -0.273 A  
HETATM   15  C   UNL     1     -10.376  16.035  65.488  1.00  0.00    -0.415 A  
HETATM   16  C   UNL     1     -10.983  14.848  65.082  1.00  0.00    -0.410 A  
ENDBRANCH   9  11
ENDBRANCH   8   9
ENDBRANCH   7   8
ENDBRANCH   6   7
ENDBRANCH   5   6
ENDBRANCH   4   5
ENDBRANCH   3   4
ENDBRANCH   2   3
TORSDOF 8
ENDMDL
MODEL       68
REMARK 921   NORMALIZED FREE ENERGY PREDICTED BY IDOCK:   -4.04 KCAL/MOL
REMARK 922        TOTAL FREE ENERGY PREDICTED BY IDOCK:   -6.34 KCAL/MOL
REMARK 923 INTER-LIGAND FREE ENERGY PREDICTED BY IDOCK:   -5.85 KCAL/MOL
REMARK 924 INTRA-LIGAND FREE ENERGY PREDICTED BY IDOCK:   -0.49 KCAL/MOL
REMARK 927      BINDING AFFINITY PREDICTED BY RF-SCORE:    0.00 PKD
ROOT
HETATM    1  C   UNL     1      -9.688  10.919  68.157  1.00  0.00    -0.174 C  
HETATM    2  C   UNL     1      -9.978  11.725  66.903  1.00  0.00    -0.220 C  
ENDROOT
BRANCH   2   3
HETATM    3  C   UNL     1     -11.476  11.917  66.685  1.00  0.00    -0.382 C  
BRANCH   3   4
HETATM    4  C   UNL     1     -11.763  12.440  65.283  1.00  0.00    -0.390 C  
BRANCH   4   5
HETATM    5  O   UNL     1     -12.796  13.422  65.359  1.00  0.00    -0.594 OA 
BRANCH   5   6
HETATM    6  C   UNL     1     -12.449  14.586  64.609  1.00  0.00    -0.321 C  
BRANCH   6   7
HETATM    7  C   UNL     1     -10.943  14.812  64.667  1.00  0.00    -0.316 C  
BRANCH   7   8
HETATM    8  O   UNL     1     -10.639  16.110  65.204  1.00  0.00    -0.538 OA 
BRANCH   8   9
HETATM    9  C   UNL     1     -10.410  16.144  66.542  1.00  0.00    -0.308 C  
HETATM   10  O   UNL     1     -10.387  15.183  67.292  1.00  0.00    -0.254 OA 
BRANCH   9  11
HETATM   11  C   UNL     1     -10.227  17.538  66.998  1.00  0.00    -0.327 A  
HETATM   12  C   UNL     1     -10.603  18.568  66.146  1.00  0.00    -0.338 A  
HETATM   13  N   UNL     1     -10.472  19.884  66.447  1.00  0.00    -0.478 NA 
HETATM   14  C   UNL     1      -9.944  20.183  67.654  1.00  0.00    -0.420 A  
HETATM   15  C   UNL     1      -9.539  19.228  68.573  1.00  0.00    -0.465 A  
HETATM   16  C   UNL     1      -9.683  17.883  68.239  1.00  0.00    -0.327 A  
ENDBRANCH   9  11
ENDBRANCH   8   9
ENDBRANCH   7   8
ENDBRANCH   6   7
ENDBRANCH   5   6
ENDBRANCH   4   5
ENDBRANCH   3   4
ENDBRANCH   2   3
TORSDOF 8
ENDMDL
MODEL       69
REMARK 921   NORMALIZED FREE ENERGY PREDICTED BY IDOCK:   -4.03 KCAL/MOL
REMARK 922        TOTAL FREE ENERGY PREDICTED BY IDOCK:   -6.33 KCAL/MOL
REMARK 923 INTER-LIGAND FREE ENERGY PREDICTED BY IDOCK:   -5.96 KCAL/MOL
REMARK 924 INTRA-LIGAND FREE ENERGY PREDICTED BY IDOCK:   -0.36 KCAL/MOL
REMARK 927      BINDING AFFINITY PREDICTED BY RF-SCORE:    0.00 PKD
ROOT
HETATM    1  C   UNL     1      -9.567   9.310  70.950  1.00  0.00    -0.339 C  
HETATM    2  C   UNL     1     -10.980   9.124  71.475  1.00  0.00    -0.434 C  
ENDROOT
BRANCH   2   3
HETATM    3  C   UNL     1     -11.866  10.326  71.158  1.00  0.00    -0.455 C  
BRANCH   3   4
HETATM    4  C   UNL     1     -11.628  10.822  69.737  1.00  0.00    -0.317 C  
BRANCH   4   5
HETATM    5  O   UNL     1     -12.130  12.152  69.622  1.00  0.00    -0.280 OA 
BRANCH   5   6
HETATM    6  C   UNL     1     -11.304  12.937  68.762  1.00  0.00    -0.290 C  
BRANCH   6   7
HETATM    7  C   UNL     1     -12.137  13.512  67.622  1.00  0.00    -0.283 C  
BRANCH   7   8
HETATM    8  O   UNL     1     -11.416  13.456  66.381  1.00  0.00    -0.308 OA 
BRANCH   8   9
HETATM    9  C   UNL     1     -11.975  12.677  65.421  1.00  0.00    -0.446 C  
HETATM   10  O   UNL     1     -13.145  12.686  65.077  1.00  0.00    -0.808 OA 
BRANCH   9  11
HETATM   11  C   UNL     1     -10.967  11.757  64.851  1.00  0.00    -0.358 A  
HETATM   12  C   UNL     1     -10.481  12.017  63.576  1.00  0.00    -0.464 A  
HETATM   13  N   UNL     1      -9.565  11.242  62.944  1.00  0.00    -0.361 NA 
HETATM   14  C   UNL     1      -9.116  10.160  63.617  1.00  0.00    -0.260 A  
HETATM   15  C   UNL     1      -9.541   9.815  64.891  1.00  0.00    -0.316 A  
HETATM   16  C   UNL     1     -10.482  10.629  65.518  1.00  0.00    -0.246 A  
ENDBRANCH   9  11
ENDBRANCH   8   9
ENDBRANCH   7   8
ENDBRANCH   6   7
ENDBRANCH   5   6
ENDBRANCH   4   5
ENDBRANCH   3   4
ENDBRANCH   2   3
TORSDOF 8
ENDMDL
MODEL       70
REMARK 921   NORMALIZED FREE ENERGY PREDICTED BY IDOCK:   -4.02 KCAL/MOL
REMARK 922        TOTAL FREE ENERGY PREDICTED BY IDOCK:   -6.31 KCAL/MOL
REMARK 923 INTER-LIGAND FREE ENERGY PREDICTED BY IDOCK:   -6.00 KCAL/MOL
REMARK 924 INTRA-LIGAND FREE ENERGY PREDICTED BY IDOCK:   -0.31 KCAL/MOL
REMARK 927      BINDING AFFINITY PREDICTED BY RF-SCORE:    0.00 PKD
ROOT
HETATM    1  C   UNL     1     -10.365   7.957  72.881  1.00  0.00    -0.413 C  
HETATM    2  C   UNL     1     -11.813   7.822  72.440  1.00  0.00    -0.371 C  
ENDROOT
BRANCH   2   3
HETATM    3  C   UNL     1     -12.422   9.172  72.072  1.00  0.00    -0.452 C  
BRANCH   3   4
HETATM    4  C   UNL     1     -11.537   9.921  71.083  1.00  0.00    -0.389 C  
BRANCH   4   5
HETATM    5  O   UNL     1     -12.366  10.559  70.113  1.00  0.00    -0.300 OA 
BRANCH   5   6
HETATM    6  C   UNL     1     -11.660  11.608  69.449  1.00  0.00    -0.327 C  
BRANCH   6   7
HETATM    7  C   UNL     1     -12.010  12.950  70.081  1.00  0.00    -0.301 C  
BRANCH   7   8
HETATM    8  O   UNL     1     -12.246  13.946  69.072  1.00  0.00    -0.350 OA 
BRANCH   8   9
HETATM    9  C   UNL     1     -11.146  14.350  68.387  1.00  0.00    -0.255 C  
HETATM   10  O   UNL     1     -10.044  14.569  68.862  1.00  0.00    -0.234 OA 
BRANCH   9  11
HETATM   11  C   UNL     1     -11.467  14.534  66.956  1.00  0.00    -0.383 A  
HETATM   12  C   UNL     1     -12.483  13.767  66.402  1.00  0.00    -0.355 A  
HETATM   13  N   UNL     1     -12.860  13.838  65.101  1.00  0.00    -0.748 NA 
HETATM   14  C   UNL     1     -12.194  14.716  64.321  1.00  0.00    -0.408 A  
HETATM   15  C   UNL     1     -11.165  15.525  64.780  1.00  0.00    -0.399 A  
HETATM   16  C   UNL     1     -10.797  15.432  66.121  1.00  0.00    -0.313 A  
ENDBRANCH   9  11
ENDBRANCH   8   9
ENDBRANCH   7   8
ENDBRANCH   6   7
ENDBRANCH   5   6
ENDBRANCH   4   5
ENDBRANCH   3   4
ENDBRANCH   2   3
TORSDOF 8
ENDMDL
MODEL       71
REMARK 921   NORMALIZED FREE ENERGY PREDICTED BY IDOCK:   -4.01 KCAL/MOL
REMARK 922        TOTAL FREE ENERGY PREDICTED BY IDOCK:   -6.30 KCAL/MOL
REMARK 923 INTER-LIGAND FREE ENERGY PREDICTED BY IDOCK:   -5.60 KCAL/MOL
REMARK 924 INTRA-LIGAND FREE ENERGY PREDICTED BY IDOCK:   -0.70 KCAL/MOL
REMARK 927      BINDING AFFINITY PREDICTED BY RF-SCORE:    0.00 PKD
ROOT
HETATM    1  C   UNL     1     -10.610  12.245  67.178  1.00  0.00    -0.250 C  
HETATM    2  C   UNL     1     -11.841  12.784  67.887  1.00  0.00    -0.392 C  
ENDROOT
BRANCH   2   3
HETATM    3  C   UNL     1     -11.755  14.292  68.104  1.00  0.00    -0.385 C  
BRANCH   3   4
HETATM    4  C   UNL     1     -11.917  14.643  69.578  1.00  0.00    -0.319 C  
BRANCH   4   5
HETATM    5  O   UNL     1     -12.103  13.440  70.322  1.00  0.00    -0.342 OA 
BRANCH   5   6
HETATM    6  C   UNL     1     -12.917  13.672  71.472  1.00  0.00    -0.360 C  
BRANCH   6   7
HETATM    7  C   UNL     1     -13.354  12.342  72.076  1.00  0.00    -0.407 C  
BRANCH   7   8
HETATM    8  O   UNL     1     -13.139  11.263  71.152  1.00  0.00    -0.310 OA 
BRANCH   8   9
HETATM    9  C   UNL     1     -13.023  10.033  71.713  1.00  0.00    -0.458 C  
HETATM   10  O   UNL     1     -13.883   9.450  72.352  1.00  0.00    -0.451 OA 
BRANCH   9  11
HETATM   11  C   UNL     1     -11.669   9.486  71.482  1.00  0.00    -0.472 A  
HETATM   12  C   UNL     1     -11.230   8.444  72.289  1.00  0.00    -0.376 A  
HETATM   13  N   UNL     1     -10.007   7.868  72.180  1.00  0.00    -0.192 NA 
HETATM   14  C   UNL     1      -9.188   8.354  71.223  1.00  0.00    -0.178 A  
HETATM   15  C   UNL     1      -9.533   9.391  70.369  1.00  0.00    -0.319 A  
HETATM   16  C   UNL     1     -10.796   9.965  70.502  1.00  0.00    -0.391 A  
ENDBRANCH   9  11
ENDBRANCH   8   9
ENDBRANCH   7   8
ENDBRANCH   6   7
ENDBRANCH   5   6
ENDBRANCH   4   5
ENDBRANCH   3   4
ENDBRANCH   2   3
TORSDOF 8
ENDMDL
MODEL       72
REMARK 921   NORMALIZED FREE ENERGY PREDICTED BY IDOCK:   -4.01 KCAL/MOL
REMARK 922        TOTAL FREE ENERGY PREDICTED BY IDOCK:   -6.30 KCAL/MOL
REMARK 923 INTER-LIGAND FREE ENERGY PREDICTED BY IDOCK:   -5.82 KCAL/MOL
REMARK 924 INTRA-LIGAND FREE ENERGY PREDICTED BY IDOCK:   -0.48 KCAL/MOL
REMARK 927      BINDING AFFINITY PREDICTED BY RF-SCORE:    0.00 PKD
ROOT
HETATM    1  C   UNL     1      -9.991  11.492  63.338  1.00  0.00    -0.445 C  
HETATM    2  C   UNL     1     -11.380  11.609  63.943  1.00  0.00    -0.457 C  
ENDROOT
BRANCH   2   3
HETATM    3  C   UNL     1     -11.967  13.005  63.750  1.00  0.00    -0.585 C  
BRANCH   3   4
HETATM    4  C   UNL     1     -12.270  13.661  65.090  1.00  0.00    -0.433 C  
BRANCH   4   5
HETATM    5  O   UNL     1     -12.154  12.682  66.122  1.00  0.00    -0.521 OA 
BRANCH   5   6
HETATM    6  C   UNL     1     -11.655  13.266  67.325  1.00  0.00    -0.359 C  
BRANCH   6   7
HETATM    7  C   UNL     1     -10.217  12.820  67.563  1.00  0.00    -0.216 C  
BRANCH   7   8
HETATM    8  O   UNL     1     -10.069  12.239  68.869  1.00  0.00    -0.123 OA 
BRANCH   8   9
HETATM    9  C   UNL     1     -10.148  10.885  68.914  1.00  0.00    -0.198 C  
HETATM   10  O   UNL     1      -9.546  10.106  68.194  1.00  0.00    -0.138 OA 
BRANCH   9  11
HETATM   11  C   UNL     1     -11.114  10.458  69.948  1.00  0.00    -0.367 A  
HETATM   12  C   UNL     1     -11.009   9.171  70.460  1.00  0.00    -0.258 A  
HETATM   13  N   UNL     1     -11.841   8.662  71.402  1.00  0.00    -0.285 NA 
HETATM   14  C   UNL     1     -12.821   9.476  71.852  1.00  0.00    -0.420 A  
HETATM   15  C   UNL     1     -13.008  10.775  71.404  1.00  0.00    -0.535 A  
HETATM   16  C   UNL     1     -12.139  11.273  70.435  1.00  0.00    -0.474 A  
ENDBRANCH   9  11
ENDBRANCH   8   9
ENDBRANCH   7   8
ENDBRANCH   6   7
ENDBRANCH   5   6
ENDBRANCH   4   5
ENDBRANCH   3   4
ENDBRANCH   2   3
TORSDOF 8
ENDMDL
MODEL       73
REMARK 921   NORMALIZED FREE ENERGY PREDICTED BY IDOCK:   -4.00 KCAL/MOL
REMARK 922        TOTAL FREE ENERGY PREDICTED BY IDOCK:   -6.28 KCAL/MOL
REMARK 923 INTER-LIGAND FREE ENERGY PREDICTED BY IDOCK:   -5.55 KCAL/MOL
REMARK 924 INTRA-LIGAND FREE ENERGY PREDICTED BY IDOCK:   -0.74 KCAL/MOL
REMARK 927      BINDING AFFINITY PREDICTED BY RF-SCORE:    0.00 PKD
ROOT
HETATM    1  C   UNL     1     -10.442  17.870  67.059  1.00  0.00    -0.345 C  
HETATM    2  C   UNL     1      -9.534  17.133  66.090  1.00  0.00    -0.228 C  
ENDROOT
BRANCH   2   3
HETATM    3  C   UNL     1     -10.111  15.778  65.690  1.00  0.00    -0.401 C  
BRANCH   3   4
HETATM    4  C   UNL     1     -11.269  15.942  64.713  1.00  0.00    -0.355 C  
BRANCH   4   5
HETATM    5  O   UNL     1     -12.080  14.770  64.757  1.00  0.00    -0.414 OA 
BRANCH   5   6
HETATM    6  C   UNL     1     -11.277  13.598  64.896  1.00  0.00    -0.342 C  
BRANCH   6   7
HETATM    7  C   UNL     1     -11.908  12.651  65.911  1.00  0.00    -0.444 C  
BRANCH   7   8
HETATM    8  O   UNL     1     -11.042  12.461  67.042  1.00  0.00    -0.252 OA 
BRANCH   8   9
HETATM    9  C   UNL     1     -11.672  12.292  68.232  1.00  0.00    -0.336 C  
HETATM   10  O   UNL     1     -12.338  11.325  68.562  1.00  0.00    -0.543 OA 
BRANCH   9  11
HETATM   11  C   UNL     1     -11.479  13.479  69.091  1.00  0.00    -0.345 A  
HETATM   12  C   UNL     1     -12.392  13.712  70.112  1.00  0.00    -0.304 A  
HETATM   13  N   UNL     1     -12.327  14.771  70.956  1.00  0.00    -0.306 NA 
HETATM   14  C   UNL     1     -11.305  15.634  70.773  1.00  0.00    -0.371 A  
HETATM   15  C   UNL     1     -10.344  15.489  69.784  1.00  0.00    -0.316 A  
HETATM   16  C   UNL     1     -10.434  14.392  68.929  1.00  0.00    -0.246 A  
ENDBRANCH   9  11
ENDBRANCH   8   9
ENDBRANCH   7   8
ENDBRANCH   6   7
ENDBRANCH   5   6
ENDBRANCH   4   5
ENDBRANCH   3   4
ENDBRANCH   2   3
TORSDOF 8
ENDMDL
MODEL       74
REMARK 921   NORMALIZED FREE ENERGY PREDICTED BY IDOCK:   -4.00 KCAL/MOL
REMARK 922        TOTAL FREE ENERGY PREDICTED BY IDOCK:   -6.28 KCAL/MOL
REMARK 923 INTER-LIGAND FREE ENERGY PREDICTED BY IDOCK:   -5.92 KCAL/MOL
REMARK 924 INTRA-LIGAND FREE ENERGY PREDICTED BY IDOCK:   -0.36 KCAL/MOL
REMARK 927      BINDING AFFINITY PREDICTED BY RF-SCORE:    0.00 PKD
ROOT
HETATM    1  C   UNL     1     -11.291   8.696  70.542  1.00  0.00    -0.241 C  
HETATM    2  C   UNL     1     -11.309  10.215  70.564  1.00  0.00    -0.416 C  
ENDROOT
BRANCH   2   3
HETATM    3  C   UNL     1     -12.732  10.765  70.627  1.00  0.00    -0.417 C  
BRANCH   3   4
HETATM    4  C   UNL     1     -13.031  11.352  72.000  1.00  0.00    -0.273 C  
BRANCH   4   5
HETATM    5  O   UNL     1     -13.838  12.518  71.838  1.00  0.00    -0.144 OA 
BRANCH   5   6
HETATM    6  C   UNL     1     -13.289  13.623  72.556  1.00  0.00    -0.534 C  
BRANCH   6   7
HETATM    7  C   UNL     1     -14.120  14.875  72.299  1.00  0.00    -0.499 C  
BRANCH   7   8
HETATM    8  O   UNL     1     -13.728  15.507  71.069  1.00  0.00    -0.546 OA 
BRANCH   8   9
HETATM    9  C   UNL     1     -12.403  15.775  70.951  1.00  0.00    -0.404 C  
HETATM   10  O   UNL     1     -11.699  16.305  71.794  1.00  0.00    -0.486 OA 
BRANCH   9  11
HETATM   11  C   UNL     1     -11.911  15.370  69.618  1.00  0.00    -0.368 A  
HETATM   12  C   UNL     1     -12.177  14.079  69.179  1.00  0.00    -0.262 A  
HETATM   13  N   UNL     1     -11.768  13.588  67.983  1.00  0.00    -0.339 NA 
HETATM   14  C   UNL     1     -11.065  14.425  67.190  1.00  0.00    -0.312 A  
HETATM   15  C   UNL     1     -10.748  15.730  67.538  1.00  0.00    -0.317 A  
HETATM   16  C   UNL     1     -11.180  16.209  68.773  1.00  0.00    -0.365 A  
ENDBRANCH   9  11
ENDBRANCH   8   9
ENDBRANCH   7   8
ENDBRANCH   6   7
ENDBRANCH   5   6
ENDBRANCH   4   5
ENDBRANCH   3   4
ENDBRANCH   2   3
TORSDOF 8
ENDMDL
MODEL       75
REMARK 921   NORMALIZED FREE ENERGY PREDICTED BY IDOCK:   -3.98 KCAL/MOL
REMARK 922        TOTAL FREE ENERGY PREDICTED BY IDOCK:   -6.25 KCAL/MOL
REMARK 923 INTER-LIGAND FREE ENERGY PREDICTED BY IDOCK:   -5.99 KCAL/MOL
REMARK 924 INTRA-LIGAND FREE ENERGY PREDICTED BY IDOCK:   -0.26 KCAL/MOL
REMARK 927      BINDING AFFINITY PREDICTED BY RF-SCORE:    0.00 PKD
ROOT
HETATM    1  C   UNL     1     -10.030   8.325  72.287  1.00  0.00    -0.366 C  
HETATM    2  C   UNL     1     -11.410   7.781  72.617  1.00  0.00    -0.449 C  
ENDROOT
BRANCH   2   3
HETATM    3  C   UNL     1     -12.518   8.647  72.024  1.00  0.00    -0.433 C  
BRANCH   3   4
HETATM    4  C   UNL     1     -11.946   9.900  71.375  1.00  0.00    -0.404 C  
BRANCH   4   5
HETATM    5  O   UNL     1     -12.977  10.880  71.274  1.00  0.00    -0.384 OA 
BRANCH   5   6
HETATM    6  C   UNL     1     -12.445  12.141  70.866  1.00  0.00    -0.279 C  
BRANCH   6   7
HETATM    7  C   UNL     1     -11.817  12.018  69.482  1.00  0.00    -0.326 C  
BRANCH   7   8
HETATM    8  O   UNL     1     -12.025  13.216  68.717  1.00  0.00    -0.318 OA 
BRANCH   8   9
HETATM    9  C   UNL     1     -11.899  13.074  67.373  1.00  0.00    -0.357 C  
HETATM   10  O   UNL     1     -12.111  12.057  66.734  1.00  0.00    -0.613 OA 
BRANCH   9  11
HETATM   11  C   UNL     1     -11.420  14.333  66.764  1.00  0.00    -0.380 A  
HETATM   12  C   UNL     1     -11.043  15.373  67.604  1.00  0.00    -0.316 A  
HETATM   13  N   UNL     1     -10.599  16.577  67.164  1.00  0.00    -0.301 NA 
HETATM   14  C   UNL     1     -10.528  16.748  65.826  1.00  0.00    -0.292 A  
HETATM   15  C   UNL     1     -10.882  15.772  64.907  1.00  0.00    -0.433 A  
HETATM   16  C   UNL     1     -11.335  14.544  65.385  1.00  0.00    -0.341 A  
ENDBRANCH   9  11
ENDBRANCH   8   9
ENDBRANCH   7   8
ENDBRANCH   6   7
ENDBRANCH   5   6
ENDBRANCH   4   5
ENDBRANCH   3   4
ENDBRANCH   2   3
TORSDOF 8
ENDMDL
MODEL       76
REMARK 921   NORMALIZED FREE ENERGY PREDICTED BY IDOCK:   -3.96 KCAL/MOL
REMARK 922        TOTAL FREE ENERGY PREDICTED BY IDOCK:   -6.22 KCAL/MOL
REMARK 923 INTER-LIGAND FREE ENERGY PREDICTED BY IDOCK:   -5.66 KCAL/MOL
REMARK 924 INTRA-LIGAND FREE ENERGY PREDICTED BY IDOCK:   -0.56 KCAL/MOL
REMARK 927      BINDING AFFINITY PREDICTED BY RF-SCORE:    0.00 PKD
ROOT
HETATM    1  C   UNL     1     -10.671  19.485  66.677  1.00  0.00    -0.552 C  
HETATM    2  C   UNL     1      -9.866  20.424  67.558  1.00  0.00    -0.564 C  
ENDROOT
BRANCH   2   3
HETATM    3  C   UNL     1      -8.676  19.718  68.202  1.00  0.00    -0.333 C  
BRANCH   3   4
HETATM    4  C   UNL     1      -8.819  18.205  68.105  1.00  0.00    -0.280 C  
BRANCH   4   5
HETATM    5  O   UNL     1      -7.567  17.601  68.425  1.00  0.00    -0.239 OA 
BRANCH   5   6
HETATM    6  C   UNL     1      -7.601  16.194  68.180  1.00  0.00    -0.137 C  
BRANCH   6   7
HETATM    7  C   UNL     1      -8.504  15.511  69.201  1.00  0.00    -0.248 C  
BRANCH   7   8
HETATM    8  O   UNL     1      -9.445  14.641  68.552  1.00  0.00    -0.205 OA 
BRANCH   8   9
HETATM    9  C   UNL     1     -10.699  15.141  68.415  1.00  0.00    -0.248 C  
HETATM   10  O   UNL     1     -11.343  15.714  69.279  1.00  0.00    -0.296 OA 
BRANCH   9  11
HETATM   11  C   UNL     1     -11.222  14.863  67.061  1.00  0.00    -0.344 A  
HETATM   12  C   UNL     1     -10.711  15.590  65.993  1.00  0.00    -0.326 A  
HETATM   13  N   UNL     1     -11.118  15.434  64.709  1.00  0.00    -0.419 NA 
HETATM   14  C   UNL     1     -12.076  14.509  64.483  1.00  0.00    -0.484 A  
HETATM   15  C   UNL     1     -12.648  13.735  65.480  1.00  0.00    -0.551 A  
HETATM   16  C   UNL     1     -12.212  13.915  66.791  1.00  0.00    -0.438 A  
ENDBRANCH   9  11
ENDBRANCH   8   9
ENDBRANCH   7   8
ENDBRANCH   6   7
ENDBRANCH   5   6
ENDBRANCH   4   5
ENDBRANCH   3   4
ENDBRANCH   2   3
TORSDOF 8
ENDMDL
MODEL       77
REMARK 921   NORMALIZED FREE ENERGY PREDICTED BY IDOCK:   -3.95 KCAL/MOL
REMARK 922        TOTAL FREE ENERGY PREDICTED BY IDOCK:   -6.21 KCAL/MOL
REMARK 923 INTER-LIGAND FREE ENERGY PREDICTED BY IDOCK:   -5.98 KCAL/MOL
REMARK 924 INTRA-LIGAND FREE ENERGY PREDICTED BY IDOCK:   -0.23 KCAL/MOL
REMARK 927      BINDING AFFINITY PREDICTED BY RF-SCORE:    0.00 PKD
ROOT
HETATM    1  C   UNL     1     -10.202   6.918  73.773  1.00  0.00    -0.396 C  
HETATM    2  C   UNL     1     -10.605   6.478  72.375  1.00  0.00    -0.242 C  
ENDROOT
BRANCH   2   3
HETATM    3  C   UNL     1     -11.962   7.047  71.970  1.00  0.00    -0.334 C  
BRANCH   3   4
HETATM    4  C   UNL     1     -12.109   8.492  72.428  1.00  0.00    -0.367 C  
BRANCH   4   5
HETATM    5  O   UNL     1     -11.143   9.293  71.749  1.00  0.00    -0.364 OA 
BRANCH   5   6
HETATM    6  C   UNL     1     -11.525   9.511  70.391  1.00  0.00    -0.242 C  
BRANCH   6   7
HETATM    7  C   UNL     1     -11.188  10.940  69.980  1.00  0.00    -0.263 C  
BRANCH   7   8
HETATM    8  O   UNL     1     -12.162  11.864  70.492  1.00  0.00    -0.362 OA 
BRANCH   8   9
HETATM    9  C   UNL     1     -12.062  13.133  70.020  1.00  0.00    -0.305 C  
HETATM   10  O   UNL     1     -11.761  13.455  68.883  1.00  0.00    -0.285 OA 
BRANCH   9  11
HETATM   11  C   UNL     1     -12.332  14.107  71.098  1.00  0.00    -0.447 A  
HETATM   12  C   UNL     1     -11.552  15.255  71.163  1.00  0.00    -0.370 A  
HETATM   13  N   UNL     1     -11.697  16.214  72.111  1.00  0.00    -0.495 NA 
HETATM   14  C   UNL     1     -12.664  16.018  73.033  1.00  0.00    -0.493 A  
HETATM   15  C   UNL     1     -13.493  14.906  73.053  1.00  0.00    -0.496 A  
HETATM   16  C   UNL     1     -13.323  13.935  72.068  1.00  0.00    -0.523 A  
ENDBRANCH   9  11
ENDBRANCH   8   9
ENDBRANCH   7   8
ENDBRANCH   6   7
ENDBRANCH   5   6
ENDBRANCH   4   5
ENDBRANCH   3   4
ENDBRANCH   2   3
TORSDOF 8
ENDMDL
MODEL       78
REMARK 921   NORMALIZED FREE ENERGY PREDICTED BY IDOCK:   -3.95 KCAL/MOL
REMARK 922        TOTAL FREE ENERGY PREDICTED BY IDOCK:   -6.21 KCAL/MOL
REMARK 923 INTER-LIGAND FREE ENERGY PREDICTED BY IDOCK:   -5.80 KCAL/MOL
REMARK 924 INTRA-LIGAND FREE ENERGY PREDICTED BY IDOCK:   -0.41 KCAL/MOL
REMARK 927      BINDING AFFINITY PREDICTED BY RF-SCORE:    0.00 PKD
ROOT
HETATM    1  C   UNL     1      -7.944  18.645  68.359  1.00  0.00    -0.351 C  
HETATM    2  C   UNL     1      -8.796  19.723  67.710  1.00  0.00    -0.386 C  
ENDROOT
BRANCH   2   3
HETATM    3  C   UNL     1      -9.538  19.198  66.484  1.00  0.00    -0.399 C  
BRANCH   3   4
HETATM    4  C   UNL     1     -10.430  18.018  66.848  1.00  0.00    -0.341 C  
BRANCH   4   5
HETATM    5  O   UNL     1     -10.257  16.990  65.873  1.00  0.00    -0.439 OA 
BRANCH   5   6
HETATM    6  C   UNL     1      -9.993  15.734  66.497  1.00  0.00    -0.269 C  
BRANCH   6   7
HETATM    7  C   UNL     1     -11.130  15.376  67.448  1.00  0.00    -0.311 C  
BRANCH   7   8
HETATM    8  O   UNL     1     -12.024  14.428  66.844  1.00  0.00    -0.410 OA 
BRANCH   8   9
HETATM    9  C   UNL     1     -11.771  13.126  67.134  1.00  0.00    -0.377 C  
HETATM   10  O   UNL     1     -11.882  12.599  68.228  1.00  0.00    -0.318 OA 
BRANCH   9  11
HETATM   11  C   UNL     1     -11.291  12.413  65.932  1.00  0.00    -0.399 A  
HETATM   12  C   UNL     1     -12.080  12.438  64.789  1.00  0.00    -0.416 A  
HETATM   13  N   UNL     1     -11.752  11.813  63.631  1.00  0.00    -0.455 NA 
HETATM   14  C   UNL     1     -10.585  11.134  63.615  1.00  0.00    -0.347 A  
HETATM   15  C   UNL     1      -9.730  11.049  64.703  1.00  0.00    -0.315 A  
HETATM   16  C   UNL     1     -10.090  11.700  65.881  1.00  0.00    -0.267 A  
ENDBRANCH   9  11
ENDBRANCH   8   9
ENDBRANCH   7   8
ENDBRANCH   6   7
ENDBRANCH   5   6
ENDBRANCH   4   5
ENDBRANCH   3   4
ENDBRANCH   2   3
TORSDOF 8
ENDMDL
MODEL       79
REMARK 921   NORMALIZED FREE ENERGY PREDICTED BY IDOCK:   -3.92 KCAL/MOL
REMARK 922        TOTAL FREE ENERGY PREDICTED BY IDOCK:   -6.16 KCAL/MOL
REMARK 923 INTER-LIGAND FREE ENERGY PREDICTED BY IDOCK:   -5.74 KCAL/MOL
REMARK 924 INTRA-LIGAND FREE ENERGY PREDICTED BY IDOCK:   -0.42 KCAL/MOL
REMARK 927      BINDING AFFINITY PREDICTED BY RF-SCORE:    0.00 PKD
ROOT
HETATM    1  C   UNL     1     -13.242  10.272  71.803  1.00  0.00    -0.534 C  
HETATM    2  C   UNL     1     -11.892  10.176  71.115  1.00  0.00    -0.472 C  
ENDROOT
BRANCH   2   3
HETATM    3  C   UNL     1     -11.720  11.255  70.048  1.00  0.00    -0.428 C  
BRANCH   3   4
HETATM    4  C   UNL     1     -11.491  10.636  68.675  1.00  0.00    -0.263 C  
BRANCH   4   5
HETATM    5  O   UNL     1     -10.477  11.377  67.998  1.00  0.00    -0.178 OA 
BRANCH   5   6
HETATM    6  C   UNL     1      -9.281  10.608  67.873  1.00  0.00    -0.148 C  
BRANCH   6   7
HETATM    7  C   UNL     1      -9.031  10.269  66.408  1.00  0.00    -0.148 C  
BRANCH   7   8
HETATM    8  O   UNL     1      -9.058  11.454  65.595  1.00  0.00    -0.209 OA 
BRANCH   8   9
HETATM    9  C   UNL     1      -9.901  11.409  64.533  1.00  0.00    -0.260 C  
HETATM   10  O   UNL     1      -9.961  10.520  63.700  1.00  0.00    -0.320 OA 
BRANCH   9  11
HETATM   11  C   UNL     1     -10.737  12.627  64.485  1.00  0.00    -0.368 A  
HETATM   12  C   UNL     1     -11.811  12.657  63.605  1.00  0.00    -0.530 A  
HETATM   13  N   UNL     1     -12.642  13.720  63.463  1.00  0.00    -0.808 NA 
HETATM   14  C   UNL     1     -12.388  14.798  64.236  1.00  0.00    -0.320 A  
HETATM   15  C   UNL     1     -11.341  14.865  65.143  1.00  0.00    -0.379 A  
HETATM   16  C   UNL     1     -10.502  13.759  65.269  1.00  0.00    -0.376 A  
ENDBRANCH   9  11
ENDBRANCH   8   9
ENDBRANCH   7   8
ENDBRANCH   6   7
ENDBRANCH   5   6
ENDBRANCH   4   5
ENDBRANCH   3   4
ENDBRANCH   2   3
TORSDOF 8
ENDMDL
MODEL       80
REMARK 921   NORMALIZED FREE ENERGY PREDICTED BY IDOCK:   -3.91 KCAL/MOL
REMARK 922        TOTAL FREE ENERGY PREDICTED BY IDOCK:   -6.15 KCAL/MOL
REMARK 923 INTER-LIGAND FREE ENERGY PREDICTED BY IDOCK:   -5.79 KCAL/MOL
REMARK 924 INTRA-LIGAND FREE ENERGY PREDICTED BY IDOCK:   -0.36 KCAL/MOL
REMARK 927      BINDING AFFINITY PREDICTED BY RF-SCORE:    0.00 PKD
ROOT
HETATM    1  C   UNL     1      -8.137  18.701  68.406  1.00  0.00    -0.360 C  
HETATM    2  C   UNL     1      -9.099  19.804  67.996  1.00  0.00    -0.393 C  
ENDROOT
BRANCH   2   3
HETATM    3  C   UNL     1      -9.314  19.836  66.485  1.00  0.00    -0.486 C  
BRANCH   3   4
HETATM    4  C   UNL     1     -10.588  19.096  66.097  1.00  0.00    -0.439 C  
BRANCH   4   5
HETATM    5  O   UNL     1     -10.239  17.945  65.331  1.00  0.00    -0.523 OA 
BRANCH   5   6
HETATM    6  C   UNL     1     -10.579  16.746  66.027  1.00  0.00    -0.228 C  
BRANCH   6   7
HETATM    7  C   UNL     1     -10.993  15.667  65.033  1.00  0.00    -0.431 C  
BRANCH   7   8
HETATM    8  O   UNL     1     -10.814  14.356  65.594  1.00  0.00    -0.296 OA 
BRANCH   8   9
HETATM    9  C   UNL     1     -11.933  13.788  66.110  1.00  0.00    -0.418 C  
HETATM   10  O   UNL     1     -13.080  14.156  65.919  1.00  0.00    -0.373 OA 
BRANCH   9  11
HETATM   11  C   UNL     1     -11.578  12.656  66.992  1.00  0.00    -0.431 A  
HETATM   12  C   UNL     1     -11.912  12.736  68.338  1.00  0.00    -0.231 A  
HETATM   13  N   UNL     1     -11.629  11.769  69.246  1.00  0.00    -0.289 NA 
HETATM   14  C   UNL     1     -10.985  10.674  68.788  1.00  0.00    -0.246 A  
HETATM   15  C   UNL     1     -10.609  10.501  67.464  1.00  0.00    -0.306 A  
HETATM   16  C   UNL     1     -10.911  11.510  66.552  1.00  0.00    -0.346 A  
ENDBRANCH   9  11
ENDBRANCH   8   9
ENDBRANCH   7   8
ENDBRANCH   6   7
ENDBRANCH   5   6
ENDBRANCH   4   5
ENDBRANCH   3   4
ENDBRANCH   2   3
TORSDOF 8
ENDMDL
MODEL       81
REMARK 921   NORMALIZED FREE ENERGY PREDICTED BY IDOCK:   -3.91 KCAL/MOL
REMARK 922        TOTAL FREE ENERGY PREDICTED BY IDOCK:   -6.15 KCAL/MOL
REMARK 923 INTER-LIGAND FREE ENERGY PREDICTED BY IDOCK:   -5.71 KCAL/MOL
REMARK 924 INTRA-LIGAND FREE ENERGY PREDICTED BY IDOCK:   -0.44 KCAL/MOL
REMARK 927      BINDING AFFINITY PREDICTED BY RF-SCORE:    0.00 PKD
ROOT
HETATM    1  C   UNL     1     -12.447  13.847  65.565  1.00  0.00    -0.541 C  
HETATM    2  C   UNL     1     -12.540  12.610  64.689  1.00  0.00    -0.517 C  
ENDROOT
BRANCH   2   3
HETATM    3  C   UNL     1     -11.483  12.614  63.588  1.00  0.00    -0.563 C  
BRANCH   3   4
HETATM    4  C   UNL     1     -10.645  11.342  63.628  1.00  0.00    -0.412 C  
BRANCH   4   5
HETATM    5  O   UNL     1     -10.190  11.130  64.963  1.00  0.00    -0.261 OA 
BRANCH   5   6
HETATM    6  C   UNL     1      -9.712   9.796  65.133  1.00  0.00    -0.268 C  
BRANCH   6   7
HETATM    7  C   UNL     1     -10.095   9.278  66.516  1.00  0.00    -0.273 C  
BRANCH   7   8
HETATM    8  O   UNL     1      -9.951  10.309  67.507  1.00  0.00    -0.177 OA 
BRANCH   8   9
HETATM    9  C   UNL     1     -11.038  10.512  68.294  1.00  0.00    -0.284 C  
HETATM   10  O   UNL     1     -12.040  11.135  67.988  1.00  0.00    -0.635 OA 
BRANCH   9  11
HETATM   11  C   UNL     1     -10.835   9.898  69.623  1.00  0.00    -0.281 A  
HETATM   12  C   UNL     1     -11.918   9.823  70.489  1.00  0.00    -0.206 A  
HETATM   13  N   UNL     1     -11.853   9.293  71.736  1.00  0.00    -0.374 NA 
HETATM   14  C   UNL     1     -10.653   8.817  72.134  1.00  0.00    -0.316 A  
HETATM   15  C   UNL     1      -9.514   8.847  71.343  1.00  0.00    -0.344 A  
HETATM   16  C   UNL     1      -9.608   9.397  70.066  1.00  0.00    -0.256 A  
ENDBRANCH   9  11
ENDBRANCH   8   9
ENDBRANCH   7   8
ENDBRANCH   6   7
ENDBRANCH   5   6
ENDBRANCH   4   5
ENDBRANCH   3   4
ENDBRANCH   2   3
TORSDOF 8
ENDMDL
MODEL       82
REMARK 921   NORMALIZED FREE ENERGY PREDICTED BY IDOCK:   -3.89 KCAL/MOL
REMARK 922        TOTAL FREE ENERGY PREDICTED BY IDOCK:   -6.12 KCAL/MOL
REMARK 923 INTER-LIGAND FREE ENERGY PREDICTED BY IDOCK:   -5.28 KCAL/MOL
REMARK 924 INTRA-LIGAND FREE ENERGY PREDICTED BY IDOCK:   -0.84 KCAL/MOL
REMARK 927      BINDING AFFINITY PREDICTED BY RF-SCORE:    0.00 PKD
ROOT
HETATM    1  C   UNL     1      -6.556  13.221  69.220  1.00  0.00    -0.093 C  
HETATM    2  C   UNL     1      -6.836  13.717  67.812  1.00  0.00    -0.175 C  
ENDROOT
BRANCH   2   3
HETATM    3  C   UNL     1      -8.295  13.506  67.415  1.00  0.00    -0.199 C  
BRANCH   3   4
HETATM    4  C   UNL     1      -9.079  14.809  67.498  1.00  0.00    -0.189 C  
BRANCH   4   5
HETATM    5  O   UNL     1      -9.148  15.391  66.197  1.00  0.00    -0.306 OA 
BRANCH   5   6
HETATM    6  C   UNL     1     -10.351  16.143  66.038  1.00  0.00    -0.358 C  
BRANCH   6   7
HETATM    7  C   UNL     1     -11.085  15.691  64.781  1.00  0.00    -0.412 C  
BRANCH   7   8
HETATM    8  O   UNL     1     -11.016  14.264  64.632  1.00  0.00    -0.391 OA 
BRANCH   8   9
HETATM    9  C   UNL     1     -12.043  13.573  65.187  1.00  0.00    -0.404 C  
HETATM   10  O   UNL     1     -13.223  13.881  65.146  1.00  0.00    -0.768 OA 
BRANCH   9  11
HETATM   11  C   UNL     1     -11.538  12.384  65.906  1.00  0.00    -0.449 A  
HETATM   12  C   UNL     1     -11.906  12.208  67.233  1.00  0.00    -0.223 A  
HETATM   13  N   UNL     1     -11.497  11.166  67.999  1.00  0.00    -0.423 NA 
HETATM   14  C   UNL     1     -10.686  10.260  67.411  1.00  0.00    -0.281 A  
HETATM   15  C   UNL     1     -10.262  10.348  66.093  1.00  0.00    -0.288 A  
HETATM   16  C   UNL     1     -10.697  11.429  65.329  1.00  0.00    -0.326 A  
ENDBRANCH   9  11
ENDBRANCH   8   9
ENDBRANCH   7   8
ENDBRANCH   6   7
ENDBRANCH   5   6
ENDBRANCH   4   5
ENDBRANCH   3   4
ENDBRANCH   2   3
TORSDOF 8
ENDMDL
MODEL       83
REMARK 921   NORMALIZED FREE ENERGY PREDICTED BY IDOCK:   -3.88 KCAL/MOL
REMARK 922        TOTAL FREE ENERGY PREDICTED BY IDOCK:   -6.11 KCAL/MOL
REMARK 923 INTER-LIGAND FREE ENERGY PREDICTED BY IDOCK:   -5.04 KCAL/MOL
REMARK 924 INTRA-LIGAND FREE ENERGY PREDICTED BY IDOCK:   -1.07 KCAL/MOL
REMARK 927      BINDING AFFINITY PREDICTED BY RF-SCORE:    0.00 PKD
ROOT
HETATM    1  C   UNL     1     -11.898  14.642  64.285  1.00  0.00    -0.355 C  
HETATM    2  C   UNL     1     -12.802  13.468  64.616  1.00  0.00    -0.119 C  
ENDROOT
BRANCH   2   3
HETATM    3  C   UNL     1     -12.484  12.247  63.757  1.00  0.00    -0.619 C  
BRANCH   3   4
HETATM    4  C   UNL     1     -10.980  12.074  63.588  1.00  0.00    -0.448 C  
BRANCH   4   5
HETATM    5  O   UNL     1     -10.598  10.803  64.114  1.00  0.00    -0.347 OA 
BRANCH   5   6
HETATM    6  C   UNL     1      -9.337  10.884  64.777  1.00  0.00    -0.226 C  
BRANCH   6   7
HETATM    7  C   UNL     1      -9.470  10.385  66.212  1.00  0.00    -0.171 C  
BRANCH   7   8
HETATM    8  O   UNL     1      -9.544  11.485  67.133  1.00  0.00    -0.175 OA 
BRANCH   8   9
HETATM    9  C   UNL     1     -10.790  11.978  67.349  1.00  0.00    -0.242 C  
HETATM   10  O   UNL     1     -11.825  11.333  67.364  1.00  0.00    -0.590 OA 
BRANCH   9  11
HETATM   11  C   UNL     1     -10.741  13.444  67.528  1.00  0.00    -0.263 A  
HETATM   12  C   UNL     1     -11.824  14.073  68.127  1.00  0.00    -0.367 A  
HETATM   13  N   UNL     1     -11.901  15.411  68.336  1.00  0.00    -0.313 NA 
HETATM   14  C   UNL     1     -10.847  16.152  67.929  1.00  0.00    -0.332 A  
HETATM   15  C   UNL     1      -9.721  15.618  67.321  1.00  0.00    -0.219 A  
HETATM   16  C   UNL     1      -9.668  14.240  67.119  1.00  0.00    -0.254 A  
ENDBRANCH   9  11
ENDBRANCH   8   9
ENDBRANCH   7   8
ENDBRANCH   6   7
ENDBRANCH   5   6
ENDBRANCH   4   5
ENDBRANCH   3   4
ENDBRANCH   2   3
TORSDOF 8
ENDMDL
MODEL       84
REMARK 921   NORMALIZED FREE ENERGY PREDICTED BY IDOCK:   -3.88 KCAL/MOL
REMARK 922        TOTAL FREE ENERGY PREDICTED BY IDOCK:   -6.10 KCAL/MOL
REMARK 923 INTER-LIGAND FREE ENERGY PREDICTED BY IDOCK:   -5.18 KCAL/MOL
REMARK 924 INTRA-LIGAND FREE ENERGY PREDICTED BY IDOCK:   -0.92 KCAL/MOL
REMARK 927      BINDING AFFINITY PREDICTED BY RF-SCORE:    0.00 PKD
ROOT
HETATM    1  C   UNL     1      -7.355  15.042  67.978  1.00  0.00    -0.135 C  
HETATM    2  C   UNL     1      -6.875  16.483  67.960  1.00  0.00    -0.149 C  
ENDROOT
BRANCH   2   3
HETATM    3  C   UNL     1      -7.021  17.112  66.577  1.00  0.00    -0.296 C  
BRANCH   3   4
HETATM    4  C   UNL     1      -7.029  18.633  66.665  1.00  0.00    -0.209 C  
BRANCH   4   5
HETATM    5  O   UNL     1      -7.979  19.145  65.732  1.00  0.00    -0.456 OA 
BRANCH   5   6
HETATM    6  C   UNL     1      -9.077  19.759  66.408  1.00  0.00    -0.382 C  
BRANCH   6   7
HETATM    7  C   UNL     1     -10.369  19.016  66.083  1.00  0.00    -0.468 C  
BRANCH   7   8
HETATM    8  O   UNL     1     -10.566  17.913  66.982  1.00  0.00    -0.344 OA 
BRANCH   8   9
HETATM    9  C   UNL     1     -10.584  16.687  66.400  1.00  0.00    -0.200 C  
HETATM   10  O   UNL     1     -10.335  16.442  65.232  1.00  0.00    -0.581 OA 
BRANCH   9  11
HETATM   11  C   UNL     1     -10.994  15.657  67.378  1.00  0.00    -0.293 A  
HETATM   12  C   UNL     1     -11.159  14.352  66.934  1.00  0.00    -0.323 A  
HETATM   13  N   UNL     1     -11.543  13.324  67.732  1.00  0.00    -0.320 NA 
HETATM   14  C   UNL     1     -11.770  13.615  69.031  1.00  0.00    -0.333 A  
HETATM   15  C   UNL     1     -11.634  14.885  69.570  1.00  0.00    -0.333 A  
HETATM   16  C   UNL     1     -11.238  15.923  68.728  1.00  0.00    -0.359 A  
ENDBRANCH   9  11
ENDBRANCH   8   9
ENDBRANCH   7   8
ENDBRANCH   6   7
ENDBRANCH   5   6
ENDBRANCH   4   5
ENDBRANCH   3   4
ENDBRANCH   2   3
TORSDOF 8
ENDMDL
MODEL       85
REMARK 921   NORMALIZED FREE ENERGY PREDICTED BY IDOCK:   -3.85 KCAL/MOL
REMARK 922        TOTAL FREE ENERGY PREDICTED BY IDOCK:   -6.07 KCAL/MOL
REMARK 923 INTER-LIGAND FREE ENERGY PREDICTED BY IDOCK:   -5.78 KCAL/MOL
REMARK 924 INTRA-LIGAND FREE ENERGY PREDICTED BY IDOCK:   -0.29 KCAL/MOL
REMARK 927      BINDING AFFINITY PREDICTED BY RF-SCORE:    0.00 PKD
ROOT
HETATM    1  C   UNL     1     -10.613   5.353  71.782  1.00  0.00    -0.286 C  
HETATM    2  C   UNL     1     -10.941   5.602  73.244  1.00  0.00    -0.316 C  
ENDROOT
BRANCH   2   3
HETATM    3  C   UNL     1     -10.502   6.992  73.696  1.00  0.00    -0.414 C  
BRANCH   3   4
HETATM    4  C   UNL     1     -10.760   8.028  72.609  1.00  0.00    -0.358 C  
BRANCH   4   5
HETATM    5  O   UNL     1     -12.114   8.467  72.701  1.00  0.00    -0.390 OA 
BRANCH   5   6
HETATM    6  C   UNL     1     -12.515   9.137  71.506  1.00  0.00    -0.346 C  
BRANCH   6   7
HETATM    7  C   UNL     1     -12.916  10.573  71.825  1.00  0.00    -0.476 C  
BRANCH   7   8
HETATM    8  O   UNL     1     -12.237  11.499  70.960  1.00  0.00    -0.344 OA 
BRANCH   8   9
HETATM    9  C   UNL     1     -12.608  12.797  71.095  1.00  0.00    -0.271 C  
HETATM   10  O   UNL     1     -13.250  13.269  72.018  1.00  0.00    -0.418 OA 
BRANCH   9  11
HETATM   11  C   UNL     1     -12.158  13.587  69.929  1.00  0.00    -0.408 A  
HETATM   12  C   UNL     1     -12.086  14.968  70.054  1.00  0.00    -0.337 A  
HETATM   13  N   UNL     1     -11.699  15.799  69.054  1.00  0.00    -0.398 NA 
HETATM   14  C   UNL     1     -11.369  15.222  67.878  1.00  0.00    -0.334 A  
HETATM   15  C   UNL     1     -11.409  13.854  67.654  1.00  0.00    -0.335 A  
HETATM   16  C   UNL     1     -11.810  13.023  68.699  1.00  0.00    -0.353 A  
ENDBRANCH   9  11
ENDBRANCH   8   9
ENDBRANCH   7   8
ENDBRANCH   6   7
ENDBRANCH   5   6
ENDBRANCH   4   5
ENDBRANCH   3   4
ENDBRANCH   2   3
TORSDOF 8
ENDMDL
MODEL       86
REMARK 921   NORMALIZED FREE ENERGY PREDICTED BY IDOCK:   -3.85 KCAL/MOL
REMARK 922        TOTAL FREE ENERGY PREDICTED BY IDOCK:   -6.07 KCAL/MOL
REMARK 923 INTER-LIGAND FREE ENERGY PREDICTED BY IDOCK:   -5.77 KCAL/MOL
REMARK 924 INTRA-LIGAND FREE ENERGY PREDICTED BY IDOCK:   -0.30 KCAL/MOL
REMARK 927      BINDING AFFINITY PREDICTED BY RF-SCORE:    0.00 PKD
ROOT
HETATM    1  C   UNL     1     -10.655   5.446  66.685  1.00  0.00    -0.359 C  
HETATM    2  C   UNL     1     -10.219   5.248  68.127  1.00  0.00    -0.204 C  
ENDROOT
BRANCH   2   3
HETATM    3  C   UNL     1     -11.075   6.060  69.095  1.00  0.00    -0.405 C  
BRANCH   3   4
HETATM    4  C   UNL     1     -10.820   5.640  70.537  1.00  0.00    -0.244 C  
BRANCH   4   5
HETATM    5  O   UNL     1     -10.912   6.790  71.376  1.00  0.00    -0.232 OA 
BRANCH   5   6
HETATM    6  C   UNL     1     -11.037   7.980  70.599  1.00  0.00    -0.262 C  
BRANCH   6   7
HETATM    7  C   UNL     1     -10.825   9.204  71.484  1.00  0.00    -0.366 C  
BRANCH   7   8
HETATM    8  O   UNL     1     -11.466  10.361  70.922  1.00  0.00    -0.344 OA 
BRANCH   8   9
HETATM    9  C   UNL     1     -12.589  10.770  71.565  1.00  0.00    -0.395 C  
HETATM   10  O   UNL     1     -13.364  10.059  72.181  1.00  0.00    -0.444 OA 
BRANCH   9  11
HETATM   11  C   UNL     1     -12.785  12.225  71.386  1.00  0.00    -0.351 A  
HETATM   12  C   UNL     1     -12.215  12.837  70.278  1.00  0.00    -0.277 A  
HETATM   13  N   UNL     1     -12.316  14.164  70.013  1.00  0.00    -0.346 NA 
HETATM   14  C   UNL     1     -13.016  14.909  70.894  1.00  0.00    -0.380 A  
HETATM   15  C   UNL     1     -13.620  14.392  72.030  1.00  0.00    -0.514 A  
HETATM   16  C   UNL     1     -13.502  13.025  72.279  1.00  0.00    -0.645 A  
ENDBRANCH   9  11
ENDBRANCH   8   9
ENDBRANCH   7   8
ENDBRANCH   6   7
ENDBRANCH   5   6
ENDBRANCH   4   5
ENDBRANCH   3   4
ENDBRANCH   2   3
TORSDOF 8
ENDMDL
MODEL       87
REMARK 921   NORMALIZED FREE ENERGY PREDICTED BY IDOCK:   -3.85 KCAL/MOL
REMARK 922        TOTAL FREE ENERGY PREDICTED BY IDOCK:   -6.06 KCAL/MOL
REMARK 923 INTER-LIGAND FREE ENERGY PREDICTED BY IDOCK:   -5.65 KCAL/MOL
REMARK 924 INTRA-LIGAND FREE ENERGY PREDICTED BY IDOCK:   -0.41 KCAL/MOL
REMARK 927      BINDING AFFINITY PREDICTED BY RF-SCORE:    0.00 PKD
ROOT
HETATM    1  C   UNL     1      -9.560  10.688  62.955  1.00  0.00    -0.379 C  
HETATM    2  C   UNL     1      -9.102   9.826  64.118  1.00  0.00    -0.289 C  
ENDROOT
BRANCH   2   3
HETATM    3  C   UNL     1      -9.906  10.109  65.385  1.00  0.00    -0.375 C  
BRANCH   3   4
HETATM    4  C   UNL     1      -9.082  10.903  66.390  1.00  0.00    -0.172 C  
BRANCH   4   5
HETATM    5  O   UNL     1      -9.749  12.134  66.665  1.00  0.00    -0.208 OA 
BRANCH   5   6
HETATM    6  C   UNL     1     -11.152  12.017  66.432  1.00  0.00    -0.318 C  
BRANCH   6   7
HETATM    7  C   UNL     1     -11.924  12.492  67.658  1.00  0.00    -0.221 C  
BRANCH   7   8
HETATM    8  O   UNL     1     -12.163  11.404  68.566  1.00  0.00    -0.557 OA 
BRANCH   8   9
HETATM    9  C   UNL     1     -12.137  11.732  69.883  1.00  0.00    -0.287 C  
HETATM   10  O   UNL     1     -12.211  12.858  70.345  1.00  0.00    -0.354 OA 
BRANCH   9  11
HETATM   11  C   UNL     1     -11.964  10.521  70.713  1.00  0.00    -0.472 A  
HETATM   12  C   UNL     1     -13.028  10.102  71.501  1.00  0.00    -0.444 A  
HETATM   13  N   UNL     1     -12.985   9.015  72.312  1.00  0.00    -0.413 NA 
HETATM   14  C   UNL     1     -11.829   8.318  72.335  1.00  0.00    -0.396 A  
HETATM   15  C   UNL     1     -10.712   8.656  71.586  1.00  0.00    -0.374 A  
HETATM   16  C   UNL     1     -10.782   9.777  70.761  1.00  0.00    -0.393 A  
ENDBRANCH   9  11
ENDBRANCH   8   9
ENDBRANCH   7   8
ENDBRANCH   6   7
ENDBRANCH   5   6
ENDBRANCH   4   5
ENDBRANCH   3   4
ENDBRANCH   2   3
TORSDOF 8
ENDMDL
MODEL       88
REMARK 921   NORMALIZED FREE ENERGY PREDICTED BY IDOCK:   -3.84 KCAL/MOL
REMARK 922        TOTAL FREE ENERGY PREDICTED BY IDOCK:   -6.04 KCAL/MOL
REMARK 923 INTER-LIGAND FREE ENERGY PREDICTED BY IDOCK:   -5.05 KCAL/MOL
REMARK 924 INTRA-LIGAND FREE ENERGY PREDICTED BY IDOCK:   -1.00 KCAL/MOL
REMARK 927      BINDING AFFINITY PREDICTED BY RF-SCORE:    0.00 PKD
ROOT
HETATM    1  C   UNL     1      -9.502  11.198  62.941  1.00  0.00    -0.382 C  
HETATM    2  C   UNL     1     -10.347  12.306  63.546  1.00  0.00    -0.443 C  
ENDROOT
BRANCH   2   3
HETATM    3  C   UNL     1     -11.824  11.924  63.605  1.00  0.00    -0.573 C  
BRANCH   3   4
HETATM    4  C   UNL     1     -12.518  12.603  64.778  1.00  0.00    -0.484 C  
BRANCH   4   5
HETATM    5  O   UNL     1     -11.888  13.859  65.025  1.00  0.00    -0.341 OA 
BRANCH   5   6
HETATM    6  C   UNL     1     -11.971  14.209  66.406  1.00  0.00    -0.436 C  
BRANCH   6   7
HETATM    7  C   UNL     1     -11.926  12.951  67.265  1.00  0.00    -0.309 C  
BRANCH   7   8
HETATM    8  O   UNL     1     -10.660  12.831  67.935  1.00  0.00    -0.212 OA 
BRANCH   8   9
HETATM    9  C   UNL     1      -9.732  12.081  67.290  1.00  0.00    -0.185 C  
HETATM   10  O   UNL     1      -8.831  12.502  66.584  1.00  0.00    -0.207 OA 
BRANCH   9  11
HETATM   11  C   UNL     1      -9.978  10.642  67.524  1.00  0.00    -0.201 A  
HETATM   12  C   UNL     1     -10.065  10.190  68.835  1.00  0.00    -0.200 A  
HETATM   13  N   UNL     1     -10.277   8.895  69.175  1.00  0.00    -0.201 NA 
HETATM   14  C   UNL     1     -10.407   8.013  68.161  1.00  0.00    -0.200 A  
HETATM   15  C   UNL     1     -10.334   8.364  66.821  1.00  0.00    -0.357 A  
HETATM   16  C   UNL     1     -10.117   9.703  66.499  1.00  0.00    -0.314 A  
ENDBRANCH   9  11
ENDBRANCH   8   9
ENDBRANCH   7   8
ENDBRANCH   6   7
ENDBRANCH   5   6
ENDBRANCH   4   5
ENDBRANCH   3   4
ENDBRANCH   2   3
TORSDOF 8
ENDMDL
MODEL       89
REMARK 921   NORMALIZED FREE ENERGY PREDICTED BY IDOCK:   -3.82 KCAL/MOL
REMARK 922        TOTAL FREE ENERGY PREDICTED BY IDOCK:   -6.02 KCAL/MOL
REMARK 923 INTER-LIGAND FREE ENERGY PREDICTED BY IDOCK:   -5.13 KCAL/MOL
REMARK 924 INTRA-LIGAND FREE ENERGY PREDICTED BY IDOCK:   -0.89 KCAL/MOL
REMARK 927      BINDING AFFINITY PREDICTED BY RF-SCORE:    0.00 PKD
ROOT
HETATM    1  C   UNL     1      -9.424  11.579  63.093  1.00  0.00    -0.332 C  
HETATM    2  C   UNL     1     -10.181  11.189  64.351  1.00  0.00    -0.390 C  
ENDROOT
BRANCH   2   3
HETATM    3  C   UNL     1     -11.651  11.593  64.277  1.00  0.00    -0.306 C  
BRANCH   3   4
HETATM    4  C   UNL     1     -11.832  12.847  63.432  1.00  0.00    -0.507 C  
BRANCH   4   5
HETATM    5  O   UNL     1     -12.622  13.786  64.161  1.00  0.00    -0.669 OA 
BRANCH   5   6
HETATM    6  C   UNL     1     -12.051  15.092  64.097  1.00  0.00    -0.176 C  
BRANCH   6   7
HETATM    7  C   UNL     1     -10.871  15.192  65.058  1.00  0.00    -0.440 C  
BRANCH   7   8
HETATM    8  O   UNL     1     -11.246  14.762  66.377  1.00  0.00    -0.336 OA 
BRANCH   8   9
HETATM    9  C   UNL     1     -10.213  14.487  67.212  1.00  0.00    -0.255 C  
HETATM   10  O   UNL     1      -9.332  15.261  67.546  1.00  0.00    -0.201 OA 
BRANCH   9  11
HETATM   11  C   UNL     1     -10.265  13.076  67.651  1.00  0.00    -0.216 A  
HETATM   12  C   UNL     1      -9.082  12.459  68.035  1.00  0.00    -0.195 A  
HETATM   13  N   UNL     1      -9.001  11.168  68.445  1.00  0.00    -0.159 NA 
HETATM   14  C   UNL     1     -10.154  10.465  68.472  1.00  0.00    -0.171 A  
HETATM   15  C   UNL     1     -11.384  10.991  68.107  1.00  0.00    -0.374 A  
HETATM   16  C   UNL     1     -11.439  12.319  67.690  1.00  0.00    -0.401 A  
ENDBRANCH   9  11
ENDBRANCH   8   9
ENDBRANCH   7   8
ENDBRANCH   6   7
ENDBRANCH   5   6
ENDBRANCH   4   5
ENDBRANCH   3   4
ENDBRANCH   2   3
TORSDOF 8
ENDMDL
MODEL       90
REMARK 921   NORMALIZED FREE ENERGY PREDICTED BY IDOCK:   -3.81 KCAL/MOL
REMARK 922        TOTAL FREE ENERGY PREDICTED BY IDOCK:   -6.00 KCAL/MOL
REMARK 923 INTER-LIGAND FREE ENERGY PREDICTED BY IDOCK:   -5.09 KCAL/MOL
REMARK 924 INTRA-LIGAND FREE ENERGY PREDICTED BY IDOCK:   -0.92 KCAL/MOL
REMARK 927      BINDING AFFINITY PREDICTED BY RF-SCORE:    0.00 PKD
ROOT
HETATM    1  C   UNL     1      -7.288  14.017  68.776  1.00  0.00    -0.127 C  
HETATM    2  C   UNL     1      -7.207  13.036  67.619  1.00  0.00    -0.151 C  
ENDROOT
BRANCH   2   3
HETATM    3  C   UNL     1      -8.582  12.744  67.024  1.00  0.00    -0.177 C  
BRANCH   3   4
HETATM    4  C   UNL     1      -8.606  11.382  66.342  1.00  0.00    -0.174 C  
BRANCH   4   5
HETATM    5  O   UNL     1      -9.955  10.924  66.272  1.00  0.00    -0.211 OA 
BRANCH   5   6
HETATM    6  C   UNL     1     -10.407  10.871  64.919  1.00  0.00    -0.304 C  
BRANCH   6   7
HETATM    7  C   UNL     1     -11.429  11.973  64.668  1.00  0.00    -0.308 C  
BRANCH   7   8
HETATM    8  O   UNL     1     -12.147  12.291  65.872  1.00  0.00    -0.609 OA 
BRANCH   8   9
HETATM    9  C   UNL     1     -12.521  13.589  65.999  1.00  0.00    -0.399 C  
HETATM   10  O   UNL     1     -13.284  14.192  65.263  1.00  0.00    -0.760 OA 
BRANCH   9  11
HETATM   11  C   UNL     1     -11.839  14.213  67.152  1.00  0.00    -0.454 A  
HETATM   12  C   UNL     1     -11.966  13.614  68.399  1.00  0.00    -0.356 A  
HETATM   13  N   UNL     1     -11.397  14.098  69.531  1.00  0.00    -0.263 NA 
HETATM   14  C   UNL     1     -10.669  15.229  69.411  1.00  0.00    -0.265 A  
HETATM   15  C   UNL     1     -10.484  15.901  68.212  1.00  0.00    -0.257 A  
HETATM   16  C   UNL     1     -11.080  15.382  67.063  1.00  0.00    -0.273 A  
ENDBRANCH   9  11
ENDBRANCH   8   9
ENDBRANCH   7   8
ENDBRANCH   6   7
ENDBRANCH   5   6
ENDBRANCH   4   5
ENDBRANCH   3   4
ENDBRANCH   2   3
TORSDOF 8
ENDMDL
MODEL       91
REMARK 921   NORMALIZED FREE ENERGY PREDICTED BY IDOCK:   -3.79 KCAL/MOL
REMARK 922        TOTAL FREE ENERGY PREDICTED BY IDOCK:   -5.98 KCAL/MOL
REMARK 923 INTER-LIGAND FREE ENERGY PREDICTED BY IDOCK:   -4.81 KCAL/MOL
REMARK 924 INTRA-LIGAND FREE ENERGY PREDICTED BY IDOCK:   -1.16 KCAL/MOL
REMARK 927      BINDING AFFINITY PREDICTED BY RF-SCORE:    0.00 PKD
ROOT
HETATM    1  C   UNL     1      -5.704  17.128  66.944  1.00  0.00    -0.221 C  
HETATM    2  C   UNL     1      -6.525  16.494  68.053  1.00  0.00    -0.144 C  
ENDROOT
BRANCH   2   3
HETATM    3  C   UNL     1      -6.634  17.408  69.271  1.00  0.00    -0.240 C  
BRANCH   3   4
HETATM    4  C   UNL     1      -5.616  18.539  69.200  1.00  0.00    -0.206 C  
BRANCH   4   5
HETATM    5  O   UNL     1      -6.217  19.734  69.698  1.00  0.00    -0.292 OA 
BRANCH   5   6
HETATM    6  C   UNL     1      -5.449  20.881  69.334  1.00  0.00    -0.376 C  
BRANCH   6   7
HETATM    7  C   UNL     1      -5.578  21.140  67.837  1.00  0.00    -0.330 C  
BRANCH   7   8
HETATM    8  O   UNL     1      -6.955  21.318  67.465  1.00  0.00    -0.490 OA 
BRANCH   8   9
HETATM    9  C   UNL     1      -7.402  20.491  66.487  1.00  0.00    -0.203 C  
HETATM   10  O   UNL     1      -6.969  20.423  65.349  1.00  0.00    -0.280 OA 
BRANCH   9  11
HETATM   11  C   UNL     1      -8.542  19.685  66.973  1.00  0.00    -0.358 A  
HETATM   12  C   UNL     1      -8.984  18.625  66.192  1.00  0.00    -0.122 A  
HETATM   13  N   UNL     1     -10.024  17.822  66.526  1.00  0.00    -0.330 NA 
HETATM   14  C   UNL     1     -10.649  18.090  67.693  1.00  0.00    -0.399 A  
HETATM   15  C   UNL     1     -10.284  19.124  68.541  1.00  0.00    -0.448 A  
HETATM   16  C   UNL     1      -9.211  19.935  68.174  1.00  0.00    -0.374 A  
ENDBRANCH   9  11
ENDBRANCH   8   9
ENDBRANCH   7   8
ENDBRANCH   6   7
ENDBRANCH   5   6
ENDBRANCH   4   5
ENDBRANCH   3   4
ENDBRANCH   2   3
TORSDOF 8
ENDMDL
MODEL       92
REMARK 921   NORMALIZED FREE ENERGY PREDICTED BY IDOCK:   -3.79 KCAL/MOL
REMARK 922        TOTAL FREE ENERGY PREDICTED BY IDOCK:   -5.97 KCAL/MOL
REMARK 923 INTER-LIGAND FREE ENERGY PREDICTED BY IDOCK:   -5.47 KCAL/MOL
REMARK 924 INTRA-LIGAND FREE ENERGY PREDICTED BY IDOCK:   -0.50 KCAL/MOL
REMARK 927      BINDING AFFINITY PREDICTED BY RF-SCORE:    0.00 PKD
ROOT
HETATM    1  C   UNL     1     -12.338  12.331  63.453  1.00  0.00    -0.624 C  
HETATM    2  C   UNL     1     -11.103  12.078  64.300  1.00  0.00    -0.411 C  
ENDROOT
BRANCH   2   3
HETATM    3  C   UNL     1     -10.543  13.370  64.888  1.00  0.00    -0.398 C  
BRANCH   3   4
HETATM    4  C   UNL     1     -11.524  14.522  64.713  1.00  0.00    -0.408 C  
BRANCH   4   5
HETATM    5  O   UNL     1     -10.790  15.724  64.481  1.00  0.00    -0.467 OA 
BRANCH   5   6
HETATM    6  C   UNL     1     -10.616  16.457  65.694  1.00  0.00    -0.323 C  
BRANCH   6   7
HETATM    7  C   UNL     1      -9.161  16.381  66.143  1.00  0.00    -0.330 C  
BRANCH   7   8
HETATM    8  O   UNL     1      -9.003  15.432  67.211  1.00  0.00    -0.184 OA 
BRANCH   8   9
HETATM    9  C   UNL     1      -9.228  15.920  68.457  1.00  0.00    -0.200 C  
HETATM   10  O   UNL     1      -8.634  16.845  68.986  1.00  0.00    -0.238 OA 
BRANCH   9  11
HETATM   11  C   UNL     1     -10.289  15.142  69.133  1.00  0.00    -0.249 A  
HETATM   12  C   UNL     1     -10.611  13.888  68.630  1.00  0.00    -0.257 A  
HETATM   13  N   UNL     1     -11.571  13.087  69.156  1.00  0.00    -0.298 NA 
HETATM   14  C   UNL     1     -12.237  13.561  70.231  1.00  0.00    -0.347 A  
HETATM   15  C   UNL     1     -11.990  14.799  70.805  1.00  0.00    -0.371 A  
HETATM   16  C   UNL     1     -10.998  15.602  70.245  1.00  0.00    -0.363 A  
ENDBRANCH   9  11
ENDBRANCH   8   9
ENDBRANCH   7   8
ENDBRANCH   6   7
ENDBRANCH   5   6
ENDBRANCH   4   5
ENDBRANCH   3   4
ENDBRANCH   2   3
TORSDOF 8
ENDMDL
MODEL       93
REMARK 921   NORMALIZED FREE ENERGY PREDICTED BY IDOCK:   -3.78 KCAL/MOL
REMARK 922        TOTAL FREE ENERGY PREDICTED BY IDOCK:   -5.97 KCAL/MOL
REMARK 923 INTER-LIGAND FREE ENERGY PREDICTED BY IDOCK:   -5.75 KCAL/MOL
REMARK 924 INTRA-LIGAND FREE ENERGY PREDICTED BY IDOCK:   -0.21 KCAL/MOL
REMARK 927      BINDING AFFINITY PREDICTED BY RF-SCORE:    0.00 PKD
ROOT
HETATM    1  C   UNL     1     -10.906   7.229  73.157  1.00  0.00    -0.401 C  
HETATM    2  C   UNL     1     -11.266   7.013  71.697  1.00  0.00    -0.276 C  
ENDROOT
BRANCH   2   3
HETATM    3  C   UNL     1     -12.640   7.585  71.361  1.00  0.00    -0.382 C  
BRANCH   3   4
HETATM    4  C   UNL     1     -12.918   8.850  72.163  1.00  0.00    -0.416 C  
BRANCH   4   5
HETATM    5  O   UNL     1     -12.089   9.902  71.669  1.00  0.00    -0.389 OA 
BRANCH   5   6
HETATM    6  C   UNL     1     -12.694  10.543  70.546  1.00  0.00    -0.305 C  
BRANCH   6   7
HETATM    7  C   UNL     1     -12.266  12.005  70.489  1.00  0.00    -0.325 C  
BRANCH   7   8
HETATM    8  O   UNL     1     -11.541  12.280  69.278  1.00  0.00    -0.284 OA 
BRANCH   8   9
HETATM    9  C   UNL     1     -11.726  13.521  68.762  1.00  0.00    -0.337 C  
HETATM   10  O   UNL     1     -11.928  14.542  69.397  1.00  0.00    -0.303 OA 
BRANCH   9  11
HETATM   11  C   UNL     1     -11.691  13.475  67.284  1.00  0.00    -0.423 A  
HETATM   12  C   UNL     1     -11.502  14.663  66.590  1.00  0.00    -0.357 A  
HETATM   13  N   UNL     1     -11.464  14.750  65.238  1.00  0.00    -0.350 NA 
HETATM   14  C   UNL     1     -11.619  13.599  64.549  1.00  0.00    -0.390 A  
HETATM   15  C   UNL     1     -11.814  12.364  65.149  1.00  0.00    -0.437 A  
HETATM   16  C   UNL     1     -11.850  12.303  66.541  1.00  0.00    -0.378 A  
ENDBRANCH   9  11
ENDBRANCH   8   9
ENDBRANCH   7   8
ENDBRANCH   6   7
ENDBRANCH   5   6
ENDBRANCH   4   5
ENDBRANCH   3   4
ENDBRANCH   2   3
TORSDOF 8
ENDMDL
MODEL       94
REMARK 921   NORMALIZED FREE ENERGY PREDICTED BY IDOCK:   -3.76 KCAL/MOL
REMARK 922        TOTAL FREE ENERGY PREDICTED BY IDOCK:   -5.93 KCAL/MOL
REMARK 923 INTER-LIGAND FREE ENERGY PREDICTED BY IDOCK:   -5.46 KCAL/MOL
REMARK 924 INTRA-LIGAND FREE ENERGY PREDICTED BY IDOCK:   -0.47 KCAL/MOL
REMARK 927      BINDING AFFINITY PREDICTED BY RF-SCORE:    0.00 PKD
ROOT
HETATM    1  C   UNL     1     -10.901   6.226  68.068  1.00  0.00    -0.409 C  
HETATM    2  C   UNL     1     -11.359   6.310  69.514  1.00  0.00    -0.475 C  
ENDROOT
BRANCH   2   3
HETATM    3  C   UNL     1     -10.228   5.987  70.487  1.00  0.00    -0.262 C  
BRANCH   3   4
HETATM    4  C   UNL     1      -9.910   7.183  71.375  1.00  0.00    -0.176 C  
BRANCH   4   5
HETATM    5  O   UNL     1      -8.873   7.950  70.763  1.00  0.00    -0.136 OA 
BRANCH   5   6
HETATM    6  C   UNL     1      -9.192   9.341  70.776  1.00  0.00    -0.253 C  
BRANCH   6   7
HETATM    7  C   UNL     1      -9.739   9.762  69.416  1.00  0.00    -0.202 C  
BRANCH   7   8
HETATM    8  O   UNL     1     -10.126  11.146  69.425  1.00  0.00    -0.111 OA 
BRANCH   8   9
HETATM    9  C   UNL     1     -11.415  11.389  69.080  1.00  0.00    -0.300 C  
HETATM   10  O   UNL     1     -11.947  11.087  68.025  1.00  0.00    -0.623 OA 
BRANCH   9  11
HETATM   11  C   UNL     1     -12.108  12.125  70.159  1.00  0.00    -0.368 A  
HETATM   12  C   UNL     1     -12.806  11.396  71.114  1.00  0.00    -0.341 A  
HETATM   13  N   UNL     1     -13.489  11.957  72.142  1.00  0.00    -0.368 NA 
HETATM   14  C   UNL     1     -13.473  13.305  72.220  1.00  0.00    -0.582 A  
HETATM   15  C   UNL     1     -12.807  14.120  71.317  1.00  0.00    -0.429 A  
HETATM   16  C   UNL     1     -12.113  13.518  70.269  1.00  0.00    -0.425 A  
ENDBRANCH   9  11
ENDBRANCH   8   9
ENDBRANCH   7   8
ENDBRANCH   6   7
ENDBRANCH   5   6
ENDBRANCH   4   5
ENDBRANCH   3   4
ENDBRANCH   2   3
TORSDOF 8
ENDMDL
MODEL       95
REMARK 921   NORMALIZED FREE ENERGY PREDICTED BY IDOCK:   -3.75 KCAL/MOL
REMARK 922        TOTAL FREE ENERGY PREDICTED BY IDOCK:   -5.92 KCAL/MOL
REMARK 923 INTER-LIGAND FREE ENERGY PREDICTED BY IDOCK:   -5.37 KCAL/MOL
REMARK 924 INTRA-LIGAND FREE ENERGY PREDICTED BY IDOCK:   -0.55 KCAL/MOL
REMARK 927      BINDING AFFINITY PREDICTED BY RF-SCORE:    0.00 PKD
ROOT
HETATM    1  C   UNL     1     -10.522  11.731  63.456  1.00  0.00    -0.500 C  
HETATM    2  C   UNL     1     -10.377  11.938  64.954  1.00  0.00    -0.328 C  
ENDROOT
BRANCH   2   3
HETATM    3  C   UNL     1     -10.136  10.621  65.688  1.00  0.00    -0.335 C  
BRANCH   3   4
HETATM    4  C   UNL     1     -10.586  10.713  67.140  1.00  0.00    -0.260 C  
BRANCH   4   5
HETATM    5  O   UNL     1     -11.847  11.377  67.192  1.00  0.00    -0.566 OA 
BRANCH   5   6
HETATM    6  C   UNL     1     -11.909  12.270  68.305  1.00  0.00    -0.310 C  
BRANCH   6   7
HETATM    7  C   UNL     1     -10.525  12.844  68.587  1.00  0.00    -0.213 C  
BRANCH   7   8
HETATM    8  O   UNL     1     -10.504  14.264  68.365  1.00  0.00    -0.235 OA 
BRANCH   8   9
HETATM    9  C   UNL     1      -9.534  14.704  67.524  1.00  0.00    -0.198 C  
HETATM   10  O   UNL     1      -8.577  14.060  67.130  1.00  0.00    -0.205 OA 
BRANCH   9  11
HETATM   11  C   UNL     1      -9.766  16.119  67.164  1.00  0.00    -0.236 A  
HETATM   12  C   UNL     1     -10.329  16.403  65.927  1.00  0.00    -0.362 A  
HETATM   13  N   UNL     1     -10.579  17.659  65.480  1.00  0.00    -0.615 NA 
HETATM   14  C   UNL     1     -10.252  18.675  66.308  1.00  0.00    -0.427 A  
HETATM   15  C   UNL     1      -9.686  18.495  67.561  1.00  0.00    -0.318 A  
HETATM   16  C   UNL     1      -9.440  17.194  67.995  1.00  0.00    -0.262 A  
ENDBRANCH   9  11
ENDBRANCH   8   9
ENDBRANCH   7   8
ENDBRANCH   6   7
ENDBRANCH   5   6
ENDBRANCH   4   5
ENDBRANCH   3   4
ENDBRANCH   2   3
TORSDOF 8
ENDMDL
MODEL       96
REMARK 921   NORMALIZED FREE ENERGY PREDICTED BY IDOCK:   -3.74 KCAL/MOL
REMARK 922        TOTAL FREE ENERGY PREDICTED BY IDOCK:   -5.91 KCAL/MOL
REMARK 923 INTER-LIGAND FREE ENERGY PREDICTED BY IDOCK:   -5.58 KCAL/MOL
REMARK 924 INTRA-LIGAND FREE ENERGY PREDICTED BY IDOCK:   -0.33 KCAL/MOL
REMARK 927      BINDING AFFINITY PREDICTED BY RF-SCORE:    0.00 PKD
ROOT
HETATM    1  C   UNL     1     -10.608   5.133  66.211  1.00  0.00    -0.325 C  
HETATM    2  C   UNL     1     -10.906   6.206  67.244  1.00  0.00    -0.438 C  
ENDROOT
BRANCH   2   3
HETATM    3  C   UNL     1     -10.443   5.795  68.639  1.00  0.00    -0.298 C  
BRANCH   3   4
HETATM    4  C   UNL     1     -11.382   6.335  69.709  1.00  0.00    -0.436 C  
BRANCH   4   5
HETATM    5  O   UNL     1     -10.637   7.160  70.604  1.00  0.00    -0.219 OA 
BRANCH   5   6
HETATM    6  C   UNL     1     -11.447   7.585  71.700  1.00  0.00    -0.261 C  
BRANCH   6   7
HETATM    7  C   UNL     1     -11.414   9.105  71.813  1.00  0.00    -0.381 C  
BRANCH   7   8
HETATM    8  O   UNL     1     -12.342   9.708  70.897  1.00  0.00    -0.299 OA 
BRANCH   8   9
HETATM    9  C   UNL     1     -12.663  11.000  71.163  1.00  0.00    -0.419 C  
HETATM   10  O   UNL     1     -13.255  11.405  72.149  1.00  0.00    -0.490 OA 
BRANCH   9  11
HETATM   11  C   UNL     1     -12.228  11.878  70.056  1.00  0.00    -0.291 A  
HETATM   12  C   UNL     1     -12.191  13.249  70.275  1.00  0.00    -0.321 A  
HETATM   13  N   UNL     1     -11.822  14.155  69.336  1.00  0.00    -0.309 NA 
HETATM   14  C   UNL     1     -11.472  13.669  68.126  1.00  0.00    -0.313 A  
HETATM   15  C   UNL     1     -11.476  12.319  67.809  1.00  0.00    -0.392 A  
HETATM   16  C   UNL     1     -11.861  11.409  68.792  1.00  0.00    -0.388 A  
ENDBRANCH   9  11
ENDBRANCH   8   9
ENDBRANCH   7   8
ENDBRANCH   6   7
ENDBRANCH   5   6
ENDBRANCH   4   5
ENDBRANCH   3   4
ENDBRANCH   2   3
TORSDOF 8
ENDMDL
MODEL       97
REMARK 921   NORMALIZED FREE ENERGY PREDICTED BY IDOCK:   -3.72 KCAL/MOL
REMARK 922        TOTAL FREE ENERGY PREDICTED BY IDOCK:   -5.87 KCAL/MOL
REMARK 923 INTER-LIGAND FREE ENERGY PREDICTED BY IDOCK:   -5.74 KCAL/MOL
REMARK 924 INTRA-LIGAND FREE ENERGY PREDICTED BY IDOCK:   -0.14 KCAL/MOL
REMARK 927      BINDING AFFINITY PREDICTED BY RF-SCORE:    0.00 PKD
ROOT
HETATM    1  C   UNL     1     -11.738  15.797  71.649  1.00  0.00    -0.542 C  
HETATM    2  C   UNL     1     -11.553  14.733  70.582  1.00  0.00    -0.324 C  
ENDROOT
BRANCH   2   3
HETATM    3  C   UNL     1     -11.549  15.332  69.178  1.00  0.00    -0.349 C  
BRANCH   3   4
HETATM    4  C   UNL     1     -11.029  16.764  69.195  1.00  0.00    -0.223 C  
BRANCH   4   5
HETATM    5  O   UNL     1      -9.715  16.786  68.639  1.00  0.00    -0.239 OA 
BRANCH   5   6
HETATM    6  C   UNL     1      -9.653  17.660  67.512  1.00  0.00    -0.267 C  
BRANCH   6   7
HETATM    7  C   UNL     1      -8.496  17.257  66.605  1.00  0.00    -0.260 C  
BRANCH   7   8
HETATM    8  O   UNL     1      -8.870  16.164  65.751  1.00  0.00    -0.362 OA 
BRANCH   8   9
HETATM    9  C   UNL     1     -10.175  16.141  65.377  1.00  0.00    -0.264 C  
HETATM   10  O   UNL     1     -10.838  17.101  65.024  1.00  0.00    -0.684 OA 
BRANCH   9  11
HETATM   11  C   UNL     1     -10.721  14.772  65.493  1.00  0.00    -0.369 A  
HETATM   12  C   UNL     1     -10.009  13.836  66.232  1.00  0.00    -0.305 A  
HETATM   13  N   UNL     1     -10.402  12.549  66.400  1.00  0.00    -0.239 NA 
HETATM   14  C   UNL     1     -11.557  12.182  65.804  1.00  0.00    -0.355 A  
HETATM   15  C   UNL     1     -12.338  13.042  65.046  1.00  0.00    -0.526 A  
HETATM   16  C   UNL     1     -11.912  14.359  64.889  1.00  0.00    -0.430 A  
ENDBRANCH   9  11
ENDBRANCH   8   9
ENDBRANCH   7   8
ENDBRANCH   6   7
ENDBRANCH   5   6
ENDBRANCH   4   5
ENDBRANCH   3   4
ENDBRANCH   2   3
TORSDOF 8
ENDMDL
MODEL       98
REMARK 921   NORMALIZED FREE ENERGY PREDICTED BY IDOCK:   -3.72 KCAL/MOL
REMARK 922        TOTAL FREE ENERGY PREDICTED BY IDOCK:   -5.87 KCAL/MOL
REMARK 923 INTER-LIGAND FREE ENERGY PREDICTED BY IDOCK:   -5.51 KCAL/MOL
REMARK 924 INTRA-LIGAND FREE ENERGY PREDICTED BY IDOCK:   -0.35 KCAL/MOL
REMARK 927      BINDING AFFINITY PREDICTED BY RF-SCORE:    0.00 PKD
ROOT
HETATM    1  C   UNL     1      -6.512  20.094  65.047  1.00  0.00    -0.330 C  
HETATM    2  C   UNL     1      -6.242  18.638  65.384  1.00  0.00    -0.314 C  
ENDROOT
BRANCH   2   3
HETATM    3  C   UNL     1      -6.481  18.344  66.863  1.00  0.00    -0.204 C  
BRANCH   3   4
HETATM    4  C   UNL     1      -7.567  19.248  67.432  1.00  0.00    -0.234 C  
BRANCH   4   5
HETATM    5  O   UNL     1      -8.666  18.442  67.854  1.00  0.00    -0.273 OA 
BRANCH   5   6
HETATM    6  C   UNL     1      -9.605  18.265  66.793  1.00  0.00    -0.299 C  
BRANCH   6   7
HETATM    7  C   UNL     1     -10.614  17.184  67.166  1.00  0.00    -0.244 C  
BRANCH   7   8
HETATM    8  O   UNL     1     -10.741  16.216  66.112  1.00  0.00    -0.296 OA 
BRANCH   8   9
HETATM    9  C   UNL     1     -10.636  14.920  66.499  1.00  0.00    -0.306 C  
HETATM   10  O   UNL     1     -10.142  14.518  67.540  1.00  0.00    -0.227 OA 
BRANCH   9  11
HETATM   11  C   UNL     1     -11.174  14.023  65.455  1.00  0.00    -0.319 A  
HETATM   12  C   UNL     1     -11.964  14.573  64.454  1.00  0.00    -0.449 A  
HETATM   13  N   UNL     1     -12.522  13.852  63.450  1.00  0.00    -0.791 NA 
HETATM   14  C   UNL     1     -12.279  12.524  63.446  1.00  0.00    -0.517 A  
HETATM   15  C   UNL     1     -11.505  11.881  64.401  1.00  0.00    -0.393 A  
HETATM   16  C   UNL     1     -10.943  12.645  65.422  1.00  0.00    -0.320 A  
ENDBRANCH   9  11
ENDBRANCH   8   9
ENDBRANCH   7   8
ENDBRANCH   6   7
ENDBRANCH   5   6
ENDBRANCH   4   5
ENDBRANCH   3   4
ENDBRANCH   2   3
TORSDOF 8
ENDMDL
MODEL       99
REMARK 921   NORMALIZED FREE ENERGY PREDICTED BY IDOCK:   -3.71 KCAL/MOL
REMARK 922        TOTAL FREE ENERGY PREDICTED BY IDOCK:   -5.86 KCAL/MOL
REMARK 923 INTER-LIGAND FREE ENERGY PREDICTED BY IDOCK:   -5.37 KCAL/MOL
REMARK 924 INTRA-LIGAND FREE ENERGY PREDICTED BY IDOCK:   -0.49 KCAL/MOL
REMARK 927      BINDING AFFINITY PREDICTED BY RF-SCORE:    0.00 PKD
ROOT
HETATM    1  C   UNL     1     -10.412   6.804  73.663  1.00  0.00    -0.374 C  
HETATM    2  C   UNL     1     -11.191   7.004  72.375  1.00  0.00    -0.305 C  
ENDROOT
BRANCH   2   3
HETATM    3  C   UNL     1     -12.046   8.268  72.419  1.00  0.00    -0.430 C  
BRANCH   3   4
HETATM    4  C   UNL     1     -11.496   9.335  71.482  1.00  0.00    -0.384 C  
BRANCH   4   5
HETATM    5  O   UNL     1     -10.702   8.704  70.478  1.00  0.00    -0.210 OA 
BRANCH   5   6
HETATM    6  C   UNL     1      -9.564   9.502  70.151  1.00  0.00    -0.248 C  
BRANCH   6   7
HETATM    7  C   UNL     1      -9.828  10.281  68.867  1.00  0.00    -0.195 C  
BRANCH   7   8
HETATM    8  O   UNL     1     -10.179  11.644  69.158  1.00  0.00    -0.111 OA 
BRANCH   8   9
HETATM    9  C   UNL     1     -11.473  11.974  68.915  1.00  0.00    -0.301 C  
HETATM   10  O   UNL     1     -12.265  11.332  68.245  1.00  0.00    -0.611 OA 
BRANCH   9  11
HETATM   11  C   UNL     1     -11.805  13.267  69.550  1.00  0.00    -0.388 A  
HETATM   12  C   UNL     1     -12.395  13.254  70.807  1.00  0.00    -0.344 A  
HETATM   13  N   UNL     1     -12.754  14.373  71.485  1.00  0.00    -0.326 NA 
HETATM   14  C   UNL     1     -12.512  15.555  70.879  1.00  0.00    -0.440 A  
HETATM   15  C   UNL     1     -11.928  15.672  69.627  1.00  0.00    -0.367 A  
HETATM   16  C   UNL     1     -11.569  14.507  68.952  1.00  0.00    -0.341 A  
ENDBRANCH   9  11
ENDBRANCH   8   9
ENDBRANCH   7   8
ENDBRANCH   6   7
ENDBRANCH   5   6
ENDBRANCH   4   5
ENDBRANCH   3   4
ENDBRANCH   2   3
TORSDOF 8
ENDMDL
MODEL      100
REMARK 921   NORMALIZED FREE ENERGY PREDICTED BY IDOCK:   -3.71 KCAL/MOL
REMARK 922        TOTAL FREE ENERGY PREDICTED BY IDOCK:   -5.86 KCAL/MOL
REMARK 923 INTER-LIGAND FREE ENERGY PREDICTED BY IDOCK:   -5.55 KCAL/MOL
REMARK 924 INTRA-LIGAND FREE ENERGY PREDICTED BY IDOCK:   -0.31 KCAL/MOL
REMARK 927      BINDING AFFINITY PREDICTED BY RF-SCORE:    0.00 PKD
ROOT
HETATM    1  C   UNL     1     -13.087   9.898  71.932  1.00  0.00    -0.559 C  
HETATM    2  C   UNL     1     -11.879   9.167  71.374  1.00  0.00    -0.415 C  
ENDROOT
BRANCH   2   3
HETATM    3  C   UNL     1     -11.272   9.901  70.181  1.00  0.00    -0.347 C  
BRANCH   3   4
HETATM    4  C   UNL     1     -12.103  11.122  69.809  1.00  0.00    -0.344 C  
BRANCH   4   5
HETATM    5  O   UNL     1     -12.272  11.152  68.392  1.00  0.00    -0.610 OA 
BRANCH   5   6
HETATM    6  C   UNL     1     -11.170  11.805  67.761  1.00  0.00    -0.266 C  
BRANCH   6   7
HETATM    7  C   UNL     1     -11.663  12.634  66.581  1.00  0.00    -0.398 C  
BRANCH   7   8
HETATM    8  O   UNL     1     -11.585  14.039  66.873  1.00  0.00    -0.346 OA 
BRANCH   8   9
HETATM    9  C   UNL     1     -10.721  14.744  66.100  1.00  0.00    -0.314 C  
HETATM   10  O   UNL     1     -10.630  14.685  64.885  1.00  0.00    -0.416 OA 
BRANCH   9  11
HETATM   11  C   UNL     1      -9.849  15.591  66.941  1.00  0.00    -0.245 A  
HETATM   12  C   UNL     1     -10.434  16.606  67.687  1.00  0.00    -0.320 A  
HETATM   13  N   UNL     1      -9.739  17.454  68.486  1.00  0.00    -0.291 NA 
HETATM   14  C   UNL     1      -8.401  17.278  68.541  1.00  0.00    -0.267 A  
HETATM   15  C   UNL     1      -7.725  16.295  67.834  1.00  0.00    -0.151 A  
HETATM   16  C   UNL     1      -8.463  15.437  67.021  1.00  0.00    -0.262 A  
ENDBRANCH   9  11
ENDBRANCH   8   9
ENDBRANCH   7   8
ENDBRANCH   6   7
ENDBRANCH   5   6
ENDBRANCH   4   5
ENDBRANCH   3   4
ENDBRANCH   2   3
TORSDOF 8
ENDMDL
MODEL      101
REMARK 921   NORMALIZED FREE ENERGY PREDICTED BY IDOCK:   -3.70 KCAL/MOL
REMARK 922        TOTAL FREE ENERGY PREDICTED BY IDOCK:   -5.84 KCAL/MOL
REMARK 923 INTER-LIGAND FREE ENERGY PREDICTED BY IDOCK:   -5.37 KCAL/MOL
REMARK 924 INTRA-LIGAND FREE ENERGY PREDICTED BY IDOCK:   -0.47 KCAL/MOL
REMARK 927      BINDING AFFINITY PREDICTED BY RF-SCORE:    0.00 PKD
ROOT
HETATM    1  C   UNL     1      -8.202   9.037  70.460  1.00  0.00    -0.187 C  
HETATM    2  C   UNL     1      -8.951   8.316  71.567  1.00  0.00    -0.223 C  
ENDROOT
BRANCH   2   3
HETATM    3  C   UNL     1     -10.463   8.473  71.426  1.00  0.00    -0.305 C  
BRANCH   3   4
HETATM    4  C   UNL     1     -10.842   8.872  70.006  1.00  0.00    -0.227 C  
BRANCH   4   5
HETATM    5  O   UNL     1     -11.859   9.871  70.062  1.00  0.00    -0.183 OA 
BRANCH   5   6
HETATM    6  C   UNL     1     -11.288  11.179  70.078  1.00  0.00    -0.243 C  
BRANCH   6   7
HETATM    7  C   UNL     1     -11.966  12.056  69.031  1.00  0.00    -0.264 C  
BRANCH   7   8
HETATM    8  O   UNL     1     -12.085  11.360  67.779  1.00  0.00    -0.637 OA 
BRANCH   8   9
HETATM    9  C   UNL     1     -11.078  11.578  66.897  1.00  0.00    -0.307 C  
HETATM   10  O   UNL     1     -10.041  10.941  66.818  1.00  0.00    -0.201 OA 
BRANCH   9  11
HETATM   11  C   UNL     1     -11.383  12.744  66.041  1.00  0.00    -0.363 A  
HETATM   12  C   UNL     1     -12.281  12.580  64.995  1.00  0.00    -0.456 A  
HETATM   13  N   UNL     1     -12.632  13.571  64.138  1.00  0.00    -0.669 NA 
HETATM   14  C   UNL     1     -12.060  14.778  64.336  1.00  0.00    -0.440 A  
HETATM   15  C   UNL     1     -11.152  15.042  65.350  1.00  0.00    -0.377 A  
HETATM   16  C   UNL     1     -10.809  14.006  66.218  1.00  0.00    -0.291 A  
ENDBRANCH   9  11
ENDBRANCH   8   9
ENDBRANCH   7   8
ENDBRANCH   6   7
ENDBRANCH   5   6
ENDBRANCH   4   5
ENDBRANCH   3   4
ENDBRANCH   2   3
TORSDOF 8
ENDMDL
MODEL      102
REMARK 921   NORMALIZED FREE ENERGY PREDICTED BY IDOCK:   -3.70 KCAL/MOL
REMARK 922        TOTAL FREE ENERGY PREDICTED BY IDOCK:   -5.84 KCAL/MOL
REMARK 923 INTER-LIGAND FREE ENERGY PREDICTED BY IDOCK:   -5.49 KCAL/MOL
REMARK 924 INTRA-LIGAND FREE ENERGY PREDICTED BY IDOCK:   -0.35 KCAL/MOL
REMARK 927      BINDING AFFINITY PREDICTED BY RF-SCORE:    0.00 PKD
ROOT
HETATM    1  C   UNL     1     -12.064  13.018  63.383  1.00  0.00    -0.591 C  
HETATM    2  C   UNL     1     -12.602  12.607  64.743  1.00  0.00    -0.530 C  
ENDROOT
BRANCH   2   3
HETATM    3  C   UNL     1     -12.326  13.666  65.806  1.00  0.00    -0.524 C  
BRANCH   3   4
HETATM    4  C   UNL     1     -11.644  13.056  67.024  1.00  0.00    -0.360 C  
BRANCH   4   5
HETATM    5  O   UNL     1     -10.236  13.258  66.916  1.00  0.00    -0.245 OA 
BRANCH   5   6
HETATM    6  C   UNL     1      -9.563  12.027  66.652  1.00  0.00    -0.216 C  
BRANCH   6   7
HETATM    7  C   UNL     1      -8.930  11.496  67.933  1.00  0.00    -0.159 C  
BRANCH   7   8
HETATM    8  O   UNL     1      -9.577  10.286  68.362  1.00  0.00    -0.143 OA 
BRANCH   8   9
HETATM    9  C   UNL     1      -9.374   9.950  69.661  1.00  0.00    -0.228 C  
HETATM   10  O   UNL     1      -8.298   9.715  70.183  1.00  0.00    -0.173 OA 
BRANCH   9  11
HETATM   11  C   UNL     1     -10.664   9.862  70.378  1.00  0.00    -0.379 A  
HETATM   12  C   UNL     1     -11.689  10.720  70.003  1.00  0.00    -0.336 A  
HETATM   13  N   UNL     1     -12.911  10.741  70.593  1.00  0.00    -0.324 NA 
HETATM   14  C   UNL     1     -13.115   9.866  71.601  1.00  0.00    -0.437 A  
HETATM   15  C   UNL     1     -12.156   8.971  72.048  1.00  0.00    -0.440 A  
HETATM   16  C   UNL     1     -10.909   8.969  71.425  1.00  0.00    -0.400 A  
ENDBRANCH   9  11
ENDBRANCH   8   9
ENDBRANCH   7   8
ENDBRANCH   6   7
ENDBRANCH   5   6
ENDBRANCH   4   5
ENDBRANCH   3   4
ENDBRANCH   2   3
TORSDOF 8
ENDMDL
MODEL      103
REMARK 921   NORMALIZED FREE ENERGY PREDICTED BY IDOCK:   -3.70 KCAL/MOL
REMARK 922        TOTAL FREE ENERGY PREDICTED BY IDOCK:   -5.84 KCAL/MOL
REMARK 923 INTER-LIGAND FREE ENERGY PREDICTED BY IDOCK:   -5.48 KCAL/MOL
REMARK 924 INTRA-LIGAND FREE ENERGY PREDICTED BY IDOCK:   -0.36 KCAL/MOL
REMARK 927      BINDING AFFINITY PREDICTED BY RF-SCORE:    0.00 PKD
ROOT
HETATM    1  C   UNL     1     -11.992  14.267  64.416  1.00  0.00    -0.476 C  
HETATM    2  C   UNL     1     -11.017  15.239  65.058  1.00  0.00    -0.450 C  
ENDROOT
BRANCH   2   3
HETATM    3  C   UNL     1     -10.913  15.026  66.565  1.00  0.00    -0.327 C  
BRANCH   3   4
HETATM    4  C   UNL     1     -10.638  16.339  67.287  1.00  0.00    -0.298 C  
BRANCH   4   5
HETATM    5  O   UNL     1     -10.513  16.082  68.685  1.00  0.00    -0.231 OA 
BRANCH   5   6
HETATM    6  C   UNL     1     -11.700  15.480  69.201  1.00  0.00    -0.365 C  
BRANCH   6   7
HETATM    7  C   UNL     1     -11.338  14.332  70.136  1.00  0.00    -0.129 C  
BRANCH   7   8
HETATM    8  O   UNL     1     -12.382  13.345  70.164  1.00  0.00    -0.306 OA 
BRANCH   8   9
HETATM    9  C   UNL     1     -12.155  12.239  69.411  1.00  0.00    -0.176 C  
HETATM   10  O   UNL     1     -12.101  12.197  68.193  1.00  0.00    -0.447 OA 
BRANCH   9  11
HETATM   11  C   UNL     1     -12.016  11.046  70.273  1.00  0.00    -0.452 A  
HETATM   12  C   UNL     1     -12.874  10.910  71.357  1.00  0.00    -0.449 A  
HETATM   13  N   UNL     1     -12.836   9.868  72.224  1.00  0.00    -0.326 NA 
HETATM   14  C   UNL     1     -11.900   8.921  71.997  1.00  0.00    -0.368 A  
HETATM   15  C   UNL     1     -10.999   8.967  70.945  1.00  0.00    -0.332 A  
HETATM   16  C   UNL     1     -11.059  10.049  70.068  1.00  0.00    -0.350 A  
ENDBRANCH   9  11
ENDBRANCH   8   9
ENDBRANCH   7   8
ENDBRANCH   6   7
ENDBRANCH   5   6
ENDBRANCH   4   5
ENDBRANCH   3   4
ENDBRANCH   2   3
TORSDOF 8
ENDMDL
MODEL      104
REMARK 921   NORMALIZED FREE ENERGY PREDICTED BY IDOCK:   -3.68 KCAL/MOL
REMARK 922        TOTAL FREE ENERGY PREDICTED BY IDOCK:   -5.81 KCAL/MOL
REMARK 923 INTER-LIGAND FREE ENERGY PREDICTED BY IDOCK:   -5.05 KCAL/MOL
REMARK 924 INTRA-LIGAND FREE ENERGY PREDICTED BY IDOCK:   -0.77 KCAL/MOL
REMARK 927      BINDING AFFINITY PREDICTED BY RF-SCORE:    0.00 PKD
ROOT
HETATM    1  C   UNL     1     -12.052  14.882  64.426  1.00  0.00    -0.417 C  
HETATM    2  C   UNL     1     -12.730  13.733  65.152  1.00  0.00    -0.439 C  
ENDROOT
BRANCH   2   3
HETATM    3  C   UNL     1     -12.613  12.424  64.376  1.00  0.00    -0.489 C  
BRANCH   3   4
HETATM    4  C   UNL     1     -11.154  12.032  64.181  1.00  0.00    -0.368 C  
BRANCH   4   5
HETATM    5  O   UNL     1     -10.748  11.204  65.269  1.00  0.00    -0.267 OA 
BRANCH   5   6
HETATM    6  C   UNL     1      -9.411  11.507  65.670  1.00  0.00    -0.222 C  
BRANCH   6   7
HETATM    7  C   UNL     1      -9.394  11.961  67.125  1.00  0.00    -0.180 C  
BRANCH   7   8
HETATM    8  O   UNL     1      -9.824  13.328  67.240  1.00  0.00    -0.225 OA 
BRANCH   8   9
HETATM    9  C   UNL     1      -8.828  14.248  67.265  1.00  0.00    -0.214 C  
HETATM   10  O   UNL     1      -7.637  14.016  67.389  1.00  0.00    -0.178 OA 
BRANCH   9  11
HETATM   11  C   UNL     1      -9.384  15.614  67.160  1.00  0.00    -0.229 A  
HETATM   12  C   UNL     1      -8.994  16.406  66.088  1.00  0.00    -0.332 A  
HETATM   13  N   UNL     1      -9.427  17.676  65.890  1.00  0.00    -0.522 NA 
HETATM   14  C   UNL     1     -10.286  18.176  66.804  1.00  0.00    -0.365 A  
HETATM   15  C   UNL     1     -10.733  17.465  67.908  1.00  0.00    -0.351 A  
HETATM   16  C   UNL     1     -10.274  16.162  68.088  1.00  0.00    -0.247 A  
ENDBRANCH   9  11
ENDBRANCH   8   9
ENDBRANCH   7   8
ENDBRANCH   6   7
ENDBRANCH   5   6
ENDBRANCH   4   5
ENDBRANCH   3   4
ENDBRANCH   2   3
TORSDOF 8
ENDMDL
MODEL      105
REMARK 921   NORMALIZED FREE ENERGY PREDICTED BY IDOCK:   -3.67 KCAL/MOL
REMARK 922        TOTAL FREE ENERGY PREDICTED BY IDOCK:   -5.80 KCAL/MOL
REMARK 923 INTER-LIGAND FREE ENERGY PREDICTED BY IDOCK:   -5.49 KCAL/MOL
REMARK 924 INTRA-LIGAND FREE ENERGY PREDICTED BY IDOCK:   -0.31 KCAL/MOL
REMARK 927      BINDING AFFINITY PREDICTED BY RF-SCORE:    0.00 PKD
ROOT
HETATM    1  C   UNL     1     -10.688   7.167  73.362  1.00  0.00    -0.410 C  
HETATM    2  C   UNL     1     -11.505   7.249  72.083  1.00  0.00    -0.310 C  
ENDROOT
BRANCH   2   3
HETATM    3  C   UNL     1     -12.614   8.293  72.185  1.00  0.00    -0.379 C  
BRANCH   3   4
HETATM    4  C   UNL     1     -12.226   9.576  71.461  1.00  0.00    -0.386 C  
BRANCH   4   5
HETATM    5  O   UNL     1     -11.349   9.252  70.383  1.00  0.00    -0.258 OA 
BRANCH   5   6
HETATM    6  C   UNL     1     -10.786  10.432  69.810  1.00  0.00    -0.292 C  
BRANCH   6   7
HETATM    7  C   UNL     1     -11.896  11.408  69.435  1.00  0.00    -0.351 C  
BRANCH   7   8
HETATM    8  O   UNL     1     -11.349  12.630  68.912  1.00  0.00    -0.260 OA 
BRANCH   8   9
HETATM    9  C   UNL     1     -11.567  12.844  67.590  1.00  0.00    -0.355 C  
HETATM   10  O   UNL     1     -12.065  12.053  66.807  1.00  0.00    -0.613 OA 
BRANCH   9  11
HETATM   11  C   UNL     1     -11.074  14.180  67.195  1.00  0.00    -0.315 A  
HETATM   12  C   UNL     1     -10.277  14.283  66.062  1.00  0.00    -0.315 A  
HETATM   13  N   UNL     1      -9.756  15.450  65.607  1.00  0.00    -0.346 NA 
HETATM   14  C   UNL     1     -10.047  16.563  66.315  1.00  0.00    -0.333 A  
HETATM   15  C   UNL     1     -10.832  16.564  67.458  1.00  0.00    -0.237 A  
HETATM   16  C   UNL     1     -11.354  15.351  67.904  1.00  0.00    -0.328 A  
ENDBRANCH   9  11
ENDBRANCH   8   9
ENDBRANCH   7   8
ENDBRANCH   6   7
ENDBRANCH   5   6
ENDBRANCH   4   5
ENDBRANCH   3   4
ENDBRANCH   2   3
TORSDOF 8
ENDMDL
MODEL      106
REMARK 921   NORMALIZED FREE ENERGY PREDICTED BY IDOCK:   -3.67 KCAL/MOL
REMARK 922        TOTAL FREE ENERGY PREDICTED BY IDOCK:   -5.79 KCAL/MOL
REMARK 923 INTER-LIGAND FREE ENERGY PREDICTED BY IDOCK:   -5.44 KCAL/MOL
REMARK 924 INTRA-LIGAND FREE ENERGY PREDICTED BY IDOCK:   -0.36 KCAL/MOL
REMARK 927      BINDING AFFINITY PREDICTED BY RF-SCORE:    0.00 PKD
ROOT
HETATM    1  C   UNL     1      -9.897  17.464  67.129  1.00  0.00    -0.278 C  
HETATM    2  C   UNL     1      -8.898  16.615  66.361  1.00  0.00    -0.337 C  
ENDROOT
BRANCH   2   3
HETATM    3  C   UNL     1      -9.442  15.218  66.076  1.00  0.00    -0.372 C  
BRANCH   3   4
HETATM    4  C   UNL     1     -10.885  15.280  65.591  1.00  0.00    -0.363 C  
BRANCH   4   5
HETATM    5  O   UNL     1     -11.668  14.361  66.352  1.00  0.00    -0.368 OA 
BRANCH   5   6
HETATM    6  C   UNL     1     -10.833  13.448  67.065  1.00  0.00    -0.273 C  
BRANCH   6   7
HETATM    7  C   UNL     1     -11.645  12.235  67.504  1.00  0.00    -0.353 C  
BRANCH   7   8
HETATM    8  O   UNL     1     -11.618  12.089  68.933  1.00  0.00    -0.270 OA 
BRANCH   8   9
HETATM    9  C   UNL     1     -10.832  11.086  69.398  1.00  0.00    -0.231 C  
HETATM   10  O   UNL     1      -9.713  10.806  69.002  1.00  0.00    -0.197 OA 
BRANCH   9  11
HETATM   11  C   UNL     1     -11.536  10.324  70.452  1.00  0.00    -0.415 A  
HETATM   12  C   UNL     1     -10.882   9.249  71.040  1.00  0.00    -0.314 A  
HETATM   13  N   UNL     1     -11.427   8.469  72.006  1.00  0.00    -0.336 NA 
HETATM   14  C   UNL     1     -12.681   8.779  72.402  1.00  0.00    -0.368 A  
HETATM   15  C   UNL     1     -13.416   9.830  71.877  1.00  0.00    -0.485 A  
HETATM   16  C   UNL     1     -12.832  10.616  70.884  1.00  0.00    -0.473 A  
ENDBRANCH   9  11
ENDBRANCH   8   9
ENDBRANCH   7   8
ENDBRANCH   6   7
ENDBRANCH   5   6
ENDBRANCH   4   5
ENDBRANCH   3   4
ENDBRANCH   2   3
TORSDOF 8
ENDMDL
MODEL      107
REMARK 921   NORMALIZED FREE ENERGY PREDICTED BY IDOCK:   -3.66 KCAL/MOL
REMARK 922        TOTAL FREE ENERGY PREDICTED BY IDOCK:   -5.78 KCAL/MOL
REMARK 923 INTER-LIGAND FREE ENERGY PREDICTED BY IDOCK:   -5.49 KCAL/MOL
REMARK 924 INTRA-LIGAND FREE ENERGY PREDICTED BY IDOCK:   -0.29 KCAL/MOL
REMARK 927      BINDING AFFINITY PREDICTED BY RF-SCORE:    0.00 PKD
ROOT
HETATM    1  C   UNL     1     -13.829  15.525  72.587  1.00  0.00    -0.654 C  
HETATM    2  C   UNL     1     -13.893  14.083  72.114  1.00  0.00    -0.627 C  
ENDROOT
BRANCH   2   3
HETATM    3  C   UNL     1     -12.631  13.676  71.359  1.00  0.00    -0.415 C  
BRANCH   3   4
HETATM    4  C   UNL     1     -12.571  12.166  71.165  1.00  0.00    -0.260 C  
BRANCH   4   5
HETATM    5  O   UNL     1     -13.462  11.545  72.090  1.00  0.00    -0.410 OA 
BRANCH   5   6
HETATM    6  C   UNL     1     -13.206  10.144  72.183  1.00  0.00    -0.362 C  
BRANCH   6   7
HETATM    7  C   UNL     1     -12.187   9.731  71.126  1.00  0.00    -0.362 C  
BRANCH   7   8
HETATM    8  O   UNL     1     -11.084   9.030  71.724  1.00  0.00    -0.334 OA 
BRANCH   8   9
HETATM    9  C   UNL     1      -9.988   8.894  70.935  1.00  0.00    -0.242 C  
HETATM   10  O   UNL     1      -8.917   9.456  71.089  1.00  0.00    -0.267 OA 
BRANCH   9  11
HETATM   11  C   UNL     1     -10.274   7.981  69.808  1.00  0.00    -0.206 A  
HETATM   12  C   UNL     1     -10.426   6.627  70.076  1.00  0.00    -0.212 A  
HETATM   13  N   UNL     1     -10.678   5.692  69.126  1.00  0.00    -0.276 NA 
HETATM   14  C   UNL     1     -10.783   6.131  67.853  1.00  0.00    -0.296 A  
HETATM   15  C   UNL     1     -10.646   7.461  67.484  1.00  0.00    -0.340 A  
HETATM   16  C   UNL     1     -10.387   8.401  68.480  1.00  0.00    -0.232 A  
ENDBRANCH   9  11
ENDBRANCH   8   9
ENDBRANCH   7   8
ENDBRANCH   6   7
ENDBRANCH   5   6
ENDBRANCH   4   5
ENDBRANCH   3   4
ENDBRANCH   2   3
TORSDOF 8
ENDMDL
MODEL      108
REMARK 921   NORMALIZED FREE ENERGY PREDICTED BY IDOCK:   -3.65 KCAL/MOL
REMARK 922        TOTAL FREE ENERGY PREDICTED BY IDOCK:   -5.77 KCAL/MOL
REMARK 923 INTER-LIGAND FREE ENERGY PREDICTED BY IDOCK:   -5.46 KCAL/MOL
REMARK 924 INTRA-LIGAND FREE ENERGY PREDICTED BY IDOCK:   -0.30 KCAL/MOL
REMARK 927      BINDING AFFINITY PREDICTED BY RF-SCORE:    0.00 PKD
ROOT
HETATM    1  C   UNL     1     -12.916  10.400  71.340  1.00  0.00    -0.545 C  
HETATM    2  C   UNL     1     -12.706  11.904  71.313  1.00  0.00    -0.401 C  
ENDROOT
BRANCH   2   3
HETATM    3  C   UNL     1     -13.679  12.629  72.239  1.00  0.00    -0.429 C  
BRANCH   3   4
HETATM    4  C   UNL     1     -13.669  14.130  71.978  1.00  0.00    -0.463 C  
BRANCH   4   5
HETATM    5  O   UNL     1     -12.348  14.526  71.612  1.00  0.00    -0.333 OA 
BRANCH   5   6
HETATM    6  C   UNL     1     -12.378  15.512  70.580  1.00  0.00    -0.416 C  
BRANCH   6   7
HETATM    7  C   UNL     1     -10.959  15.956  70.244  1.00  0.00    -0.362 C  
BRANCH   7   8
HETATM    8  O   UNL     1     -10.957  16.870  69.135  1.00  0.00    -0.277 OA 
BRANCH   8   9
HETATM    9  C   UNL     1     -10.027  16.621  68.180  1.00  0.00    -0.259 C  
HETATM   10  O   UNL     1     -10.146  15.848  67.244  1.00  0.00    -0.250 OA 
BRANCH   9  11
HETATM   11  C   UNL     1      -8.795  17.396  68.443  1.00  0.00    -0.271 A  
HETATM   12  C   UNL     1      -7.623  16.702  68.714  1.00  0.00    -0.227 A  
HETATM   13  N   UNL     1      -6.436  17.301  68.982  1.00  0.00    -0.209 NA 
HETATM   14  C   UNL     1      -6.420  18.651  68.977  1.00  0.00    -0.258 A  
HETATM   15  C   UNL     1      -7.537  19.432  68.719  1.00  0.00    -0.398 A  
HETATM   16  C   UNL     1      -8.744  18.792  68.447  1.00  0.00    -0.369 A  
ENDBRANCH   9  11
ENDBRANCH   8   9
ENDBRANCH   7   8
ENDBRANCH   6   7
ENDBRANCH   5   6
ENDBRANCH   4   5
ENDBRANCH   3   4
ENDBRANCH   2   3
TORSDOF 8
ENDMDL
MODEL      109
REMARK 921   NORMALIZED FREE ENERGY PREDICTED BY IDOCK:   -3.64 KCAL/MOL
REMARK 922        TOTAL FREE ENERGY PREDICTED BY IDOCK:   -5.76 KCAL/MOL
REMARK 923 INTER-LIGAND FREE ENERGY PREDICTED BY IDOCK:   -5.15 KCAL/MOL
REMARK 924 INTRA-LIGAND FREE ENERGY PREDICTED BY IDOCK:   -0.60 KCAL/MOL
REMARK 927      BINDING AFFINITY PREDICTED BY RF-SCORE:    0.00 PKD
ROOT
HETATM    1  C   UNL     1      -6.061  12.837  69.288  1.00  0.00    -0.099 C  
HETATM    2  C   UNL     1      -7.289  12.899  68.396  1.00  0.00    -0.119 C  
ENDROOT
BRANCH   2   3
HETATM    3  C   UNL     1      -8.121  14.151  68.663  1.00  0.00    -0.126 C  
BRANCH   3   4
HETATM    4  C   UNL     1      -7.300  15.414  68.432  1.00  0.00    -0.114 C  
BRANCH   4   5
HETATM    5  O   UNL     1      -8.188  16.519  68.270  1.00  0.00    -0.172 OA 
BRANCH   5   6
HETATM    6  C   UNL     1      -8.113  17.043  66.944  1.00  0.00    -0.219 C  
BRANCH   6   7
HETATM    7  C   UNL     1      -9.479  16.959  66.274  1.00  0.00    -0.271 C  
BRANCH   7   8
HETATM    8  O   UNL     1      -9.711  15.644  65.744  1.00  0.00    -0.328 OA 
BRANCH   8   9
HETATM    9  C   UNL     1     -10.755  14.973  66.294  1.00  0.00    -0.322 C  
HETATM   10  O   UNL     1     -11.229  15.165  67.401  1.00  0.00    -0.320 OA 
BRANCH   9  11
HETATM   11  C   UNL     1     -11.237  13.922  65.374  1.00  0.00    -0.306 A  
HETATM   12  C   UNL     1     -12.591  13.614  65.372  1.00  0.00    -0.491 A  
HETATM   13  N   UNL     1     -13.148  12.663  64.582  1.00  0.00    -0.848 NA 
HETATM   14  C   UNL     1     -12.316  11.991  63.758  1.00  0.00    -0.496 A  
HETATM   15  C   UNL     1     -10.951  12.225  63.687  1.00  0.00    -0.532 A  
HETATM   16  C   UNL     1     -10.403  13.207  64.509  1.00  0.00    -0.389 A  
ENDBRANCH   9  11
ENDBRANCH   8   9
ENDBRANCH   7   8
ENDBRANCH   6   7
ENDBRANCH   5   6
ENDBRANCH   4   5
ENDBRANCH   3   4
ENDBRANCH   2   3
TORSDOF 8
ENDMDL
MODEL      110
REMARK 921   NORMALIZED FREE ENERGY PREDICTED BY IDOCK:   -3.63 KCAL/MOL
REMARK 922        TOTAL FREE ENERGY PREDICTED BY IDOCK:   -5.73 KCAL/MOL
REMARK 923 INTER-LIGAND FREE ENERGY PREDICTED BY IDOCK:   -5.39 KCAL/MOL
REMARK 924 INTRA-LIGAND FREE ENERGY PREDICTED BY IDOCK:   -0.34 KCAL/MOL
REMARK 927      BINDING AFFINITY PREDICTED BY RF-SCORE:    0.00 PKD
ROOT
HETATM    1  C   UNL     1     -10.654   5.605  66.632  1.00  0.00    -0.361 C  
HETATM    2  C   UNL     1     -10.710   6.019  68.092  1.00  0.00    -0.353 C  
ENDROOT
BRANCH   2   3
HETATM    3  C   UNL     1      -9.647   7.061  68.428  1.00  0.00    -0.135 C  
BRANCH   3   4
HETATM    4  C   UNL     1     -10.230   8.468  68.397  1.00  0.00    -0.203 C  
BRANCH   4   5
HETATM    5  O   UNL     1     -10.739   8.786  69.692  1.00  0.00    -0.231 OA 
BRANCH   5   6
HETATM    6  C   UNL     1     -11.089  10.167  69.778  1.00  0.00    -0.279 C  
BRANCH   6   7
HETATM    7  C   UNL     1     -10.952  10.824  68.409  1.00  0.00    -0.248 C  
BRANCH   7   8
HETATM    8  O   UNL     1     -12.062  11.698  68.146  1.00  0.00    -0.577 OA 
BRANCH   8   9
HETATM    9  C   UNL     1     -11.789  13.024  68.230  1.00  0.00    -0.343 C  
HETATM   10  O   UNL     1     -11.675  13.671  69.258  1.00  0.00    -0.281 OA 
BRANCH   9  11
HETATM   11  C   UNL     1     -11.683  13.617  66.880  1.00  0.00    -0.423 A  
HETATM   12  C   UNL     1     -11.050  14.845  66.746  1.00  0.00    -0.335 A  
HETATM   13  N   UNL     1     -10.901  15.493  65.563  1.00  0.00    -0.354 NA 
HETATM   14  C   UNL     1     -11.406  14.885  64.468  1.00  0.00    -0.300 A  
HETATM   15  C   UNL     1     -12.055  13.660  64.500  1.00  0.00    -0.459 A  
HETATM   16  C   UNL     1     -12.195  13.016  65.727  1.00  0.00    -0.511 A  
ENDBRANCH   9  11
ENDBRANCH   8   9
ENDBRANCH   7   8
ENDBRANCH   6   7
ENDBRANCH   5   6
ENDBRANCH   4   5
ENDBRANCH   3   4
ENDBRANCH   2   3
TORSDOF 8
ENDMDL
MODEL      111
REMARK 921   NORMALIZED FREE ENERGY PREDICTED BY IDOCK:   -3.62 KCAL/MOL
REMARK 922        TOTAL FREE ENERGY PREDICTED BY IDOCK:   -5.73 KCAL/MOL
REMARK 923 INTER-LIGAND FREE ENERGY PREDICTED BY IDOCK:   -5.39 KCAL/MOL
REMARK 924 INTRA-LIGAND FREE ENERGY PREDICTED BY IDOCK:   -0.34 KCAL/MOL
REMARK 927      BINDING AFFINITY PREDICTED BY RF-SCORE:    0.00 PKD
ROOT
HETATM    1  C   UNL     1      -8.371   6.186  65.420  1.00  0.00    -0.150 C  
HETATM    2  C   UNL     1      -7.970   7.529  66.006  1.00  0.00    -0.113 C  
ENDROOT
BRANCH   2   3
HETATM    3  C   UNL     1      -8.759   8.678  65.384  1.00  0.00    -0.208 C  
BRANCH   3   4
HETATM    4  C   UNL     1      -8.219   9.029  64.004  1.00  0.00    -0.167 C  
BRANCH   4   5
HETATM    5  O   UNL     1      -9.005  10.086  63.455  1.00  0.00    -0.215 OA 
BRANCH   5   6
HETATM    6  C   UNL     1      -9.914  10.603  64.426  1.00  0.00    -0.350 C  
BRANCH   6   7
HETATM    7  C   UNL     1     -11.026  11.383  63.734  1.00  0.00    -0.370 C  
BRANCH   7   8
HETATM    8  O   UNL     1     -10.713  12.785  63.682  1.00  0.00    -0.407 OA 
BRANCH   8   9
HETATM    9  C   UNL     1     -11.735  13.620  63.996  1.00  0.00    -0.364 C  
HETATM   10  O   UNL     1     -12.767  13.764  63.362  1.00  0.00    -0.795 OA 
BRANCH   9  11
HETATM   11  C   UNL     1     -11.418  14.386  65.220  1.00  0.00    -0.350 A  
HETATM   12  C   UNL     1     -10.558  15.472  65.115  1.00  0.00    -0.431 A  
HETATM   13  N   UNL     1     -10.184  16.243  66.166  1.00  0.00    -0.329 NA 
HETATM   14  C   UNL     1     -10.693  15.915  67.373  1.00  0.00    -0.313 A  
HETATM   15  C   UNL     1     -11.558  14.851  67.580  1.00  0.00    -0.357 A  
HETATM   16  C   UNL     1     -11.926  14.075  66.483  1.00  0.00    -0.470 A  
ENDBRANCH   9  11
ENDBRANCH   8   9
ENDBRANCH   7   8
ENDBRANCH   6   7
ENDBRANCH   5   6
ENDBRANCH   4   5
ENDBRANCH   3   4
ENDBRANCH   2   3
TORSDOF 8
ENDMDL
MODEL      112
REMARK 921   NORMALIZED FREE ENERGY PREDICTED BY IDOCK:   -3.62 KCAL/MOL
REMARK 922        TOTAL FREE ENERGY PREDICTED BY IDOCK:   -5.72 KCAL/MOL
REMARK 923 INTER-LIGAND FREE ENERGY PREDICTED BY IDOCK:   -5.08 KCAL/MOL
REMARK 924 INTRA-LIGAND FREE ENERGY PREDICTED BY IDOCK:   -0.64 KCAL/MOL
REMARK 927      BINDING AFFINITY PREDICTED BY RF-SCORE:    0.00 PKD
ROOT
HETATM    1  C   UNL     1      -9.400  11.142  62.928  1.00  0.00    -0.385 C  
HETATM    2  C   UNL     1     -10.633  11.259  63.808  1.00  0.00    -0.455 C  
ENDROOT
BRANCH   2   3
HETATM    3  C   UNL     1     -11.489  12.464  63.428  1.00  0.00    -0.526 C  
BRANCH   3   4
HETATM    4  C   UNL     1     -12.725  12.558  64.313  1.00  0.00    -0.341 C  
BRANCH   4   5
HETATM    5  O   UNL     1     -12.953  13.927  64.645  1.00  0.00    -0.654 OA 
BRANCH   5   6
HETATM    6  C   UNL     1     -11.848  14.466  65.371  1.00  0.00    -0.366 C  
BRANCH   6   7
HETATM    7  C   UNL     1     -11.878  13.966  66.811  1.00  0.00    -0.424 C  
BRANCH   7   8
HETATM    8  O   UNL     1     -10.757  13.108  67.079  1.00  0.00    -0.259 OA 
BRANCH   8   9
HETATM    9  C   UNL     1     -11.060  11.928  67.677  1.00  0.00    -0.257 C  
HETATM   10  O   UNL     1     -12.165  11.575  68.054  1.00  0.00    -0.582 OA 
BRANCH   9  11
HETATM   11  C   UNL     1      -9.840  11.112  67.858  1.00  0.00    -0.187 A  
HETATM   12  C   UNL     1      -9.865   9.785  67.450  1.00  0.00    -0.174 A  
HETATM   13  N   UNL     1      -8.815   8.936  67.574  1.00  0.00    -0.130 NA 
HETATM   14  C   UNL     1      -7.690   9.437  68.130  1.00  0.00    -0.083 A  
HETATM   15  C   UNL     1      -7.566  10.746  68.568  1.00  0.00    -0.104 A  
HETATM   16  C   UNL     1      -8.660  11.598  68.429  1.00  0.00    -0.156 A  
ENDBRANCH   9  11
ENDBRANCH   8   9
ENDBRANCH   7   8
ENDBRANCH   6   7
ENDBRANCH   5   6
ENDBRANCH   4   5
ENDBRANCH   3   4
ENDBRANCH   2   3
TORSDOF 8
ENDMDL
MODEL      113
REMARK 921   NORMALIZED FREE ENERGY PREDICTED BY IDOCK:   -3.62 KCAL/MOL
REMARK 922        TOTAL FREE ENERGY PREDICTED BY IDOCK:   -5.72 KCAL/MOL
REMARK 923 INTER-LIGAND FREE ENERGY PREDICTED BY IDOCK:   -5.11 KCAL/MOL
REMARK 924 INTRA-LIGAND FREE ENERGY PREDICTED BY IDOCK:   -0.61 KCAL/MOL
REMARK 927      BINDING AFFINITY PREDICTED BY RF-SCORE:    0.00 PKD
ROOT
HETATM    1  C   UNL     1      -7.504   9.084  70.924  1.00  0.00    -0.128 C  
HETATM    2  C   UNL     1      -8.916   9.013  70.370  1.00  0.00    -0.235 C  
ENDROOT
BRANCH   2   3
HETATM    3  C   UNL     1      -9.911   8.511  71.413  1.00  0.00    -0.296 C  
BRANCH   3   4
HETATM    4  C   UNL     1     -10.736   7.352  70.870  1.00  0.00    -0.235 C  
BRANCH   4   5
HETATM    5  O   UNL     1     -12.099   7.538  71.247  1.00  0.00    -0.305 OA 
BRANCH   5   6
HETATM    6  C   UNL     1     -12.212   8.505  72.292  1.00  0.00    -0.389 C  
BRANCH   6   7
HETATM    7  C   UNL     1     -13.470   9.342  72.092  1.00  0.00    -0.471 C  
BRANCH   7   8
HETATM    8  O   UNL     1     -13.302  10.270  71.007  1.00  0.00    -0.368 OA 
BRANCH   8   9
HETATM    9  C   UNL     1     -13.019  11.545  71.375  1.00  0.00    -0.348 C  
HETATM   10  O   UNL     1     -13.398  12.102  72.391  1.00  0.00    -0.427 OA 
BRANCH   9  11
HETATM   11  C   UNL     1     -12.200  12.211  70.339  1.00  0.00    -0.378 A  
HETATM   12  C   UNL     1     -11.469  11.419  69.464  1.00  0.00    -0.312 A  
HETATM   13  N   UNL     1     -10.674  11.913  68.482  1.00  0.00    -0.216 NA 
HETATM   14  C   UNL     1     -10.609  13.257  68.370  1.00  0.00    -0.252 A  
HETATM   15  C   UNL     1     -11.299  14.132  69.196  1.00  0.00    -0.318 A  
HETATM   16  C   UNL     1     -12.109  13.598  70.197  1.00  0.00    -0.431 A  
ENDBRANCH   9  11
ENDBRANCH   8   9
ENDBRANCH   7   8
ENDBRANCH   6   7
ENDBRANCH   5   6
ENDBRANCH   4   5
ENDBRANCH   3   4
ENDBRANCH   2   3
TORSDOF 8
ENDMDL
MODEL      114
REMARK 921   NORMALIZED FREE ENERGY PREDICTED BY IDOCK:   -3.61 KCAL/MOL
REMARK 922        TOTAL FREE ENERGY PREDICTED BY IDOCK:   -5.72 KCAL/MOL
REMARK 923 INTER-LIGAND FREE ENERGY PREDICTED BY IDOCK:   -5.27 KCAL/MOL
REMARK 924 INTRA-LIGAND FREE ENERGY PREDICTED BY IDOCK:   -0.44 KCAL/MOL
REMARK 927      BINDING AFFINITY PREDICTED BY RF-SCORE:    0.00 PKD
ROOT
HETATM    1  C   UNL     1      -7.551  15.213  69.473  1.00  0.00    -0.207 C  
HETATM    2  C   UNL     1      -6.957  15.806  68.207  1.00  0.00    -0.120 C  
ENDROOT
BRANCH   2   3
HETATM    3  C   UNL     1      -7.704  17.061  67.763  1.00  0.00    -0.181 C  
BRANCH   3   4
HETATM    4  C   UNL     1      -7.823  17.120  66.246  1.00  0.00    -0.316 C  
BRANCH   4   5
HETATM    5  O   UNL     1      -8.820  18.080  65.897  1.00  0.00    -0.504 OA 
BRANCH   5   6
HETATM    6  C   UNL     1     -10.054  17.797  66.558  1.00  0.00    -0.358 C  
BRANCH   6   7
HETATM    7  C   UNL     1     -10.745  16.615  65.886  1.00  0.00    -0.175 C  
BRANCH   7   8
HETATM    8  O   UNL     1     -11.023  15.575  66.837  1.00  0.00    -0.317 OA 
BRANCH   8   9
HETATM    9  C   UNL     1     -11.473  14.410  66.306  1.00  0.00    -0.359 C  
HETATM   10  O   UNL     1     -11.794  14.225  65.144  1.00  0.00    -0.353 OA 
BRANCH   9  11
HETATM   11  C   UNL     1     -11.567  13.369  67.351  1.00  0.00    -0.394 A  
HETATM   12  C   UNL     1     -11.620  12.038  66.957  1.00  0.00    -0.317 A  
HETATM   13  N   UNL     1     -11.719  10.997  67.820  1.00  0.00    -0.600 NA 
HETATM   14  C   UNL     1     -11.765  11.300  69.135  1.00  0.00    -0.341 A  
HETATM   15  C   UNL     1     -11.720  12.595  69.629  1.00  0.00    -0.373 A  
HETATM   16  C   UNL     1     -11.619  13.646  68.720  1.00  0.00    -0.359 A  
ENDBRANCH   9  11
ENDBRANCH   8   9
ENDBRANCH   7   8
ENDBRANCH   6   7
ENDBRANCH   5   6
ENDBRANCH   4   5
ENDBRANCH   3   4
ENDBRANCH   2   3
TORSDOF 8
ENDMDL
MODEL      115
REMARK 921   NORMALIZED FREE ENERGY PREDICTED BY IDOCK:   -3.60 KCAL/MOL
REMARK 922        TOTAL FREE ENERGY PREDICTED BY IDOCK:   -5.69 KCAL/MOL
REMARK 923 INTER-LIGAND FREE ENERGY PREDICTED BY IDOCK:   -5.36 KCAL/MOL
REMARK 924 INTRA-LIGAND FREE ENERGY PREDICTED BY IDOCK:   -0.33 KCAL/MOL
REMARK 927      BINDING AFFINITY PREDICTED BY RF-SCORE:    0.00 PKD
ROOT
HETATM    1  C   UNL     1     -10.390   6.098  66.903  1.00  0.00    -0.307 C  
HETATM    2  C   UNL     1     -10.794   7.535  67.183  1.00  0.00    -0.298 C  
ENDROOT
BRANCH   2   3
HETATM    3  C   UNL     1      -9.665   8.513  66.871  1.00  0.00    -0.286 C  
BRANCH   3   4
HETATM    4  C   UNL     1     -10.143   9.625  65.947  1.00  0.00    -0.234 C  
BRANCH   4   5
HETATM    5  O   UNL     1      -9.012  10.208  65.301  1.00  0.00    -0.163 OA 
BRANCH   5   6
HETATM    6  C   UNL     1      -9.284  10.456  63.922  1.00  0.00    -0.266 C  
BRANCH   6   7
HETATM    7  C   UNL     1     -10.583  11.240  63.780  1.00  0.00    -0.392 C  
BRANCH   7   8
HETATM    8  O   UNL     1     -10.322  12.648  63.655  1.00  0.00    -0.399 OA 
BRANCH   8   9
HETATM    9  C   UNL     1     -11.331  13.463  64.052  1.00  0.00    -0.320 C  
HETATM   10  O   UNL     1     -12.455  13.499  63.579  1.00  0.00    -0.745 OA 
BRANCH   9  11
HETATM   11  C   UNL     1     -10.876  14.357  65.138  1.00  0.00    -0.397 A  
HETATM   12  C   UNL     1     -10.709  13.822  66.409  1.00  0.00    -0.281 A  
HETATM   13  N   UNL     1     -10.308  14.543  67.485  1.00  0.00    -0.243 NA 
HETATM   14  C   UNL     1     -10.062  15.855  67.282  1.00  0.00    -0.260 A  
HETATM   15  C   UNL     1     -10.201  16.482  66.052  1.00  0.00    -0.372 A  
HETATM   16  C   UNL     1     -10.614  15.718  64.962  1.00  0.00    -0.397 A  
ENDBRANCH   9  11
ENDBRANCH   8   9
ENDBRANCH   7   8
ENDBRANCH   6   7
ENDBRANCH   5   6
ENDBRANCH   4   5
ENDBRANCH   3   4
ENDBRANCH   2   3
TORSDOF 8
ENDMDL
MODEL      116
REMARK 921   NORMALIZED FREE ENERGY PREDICTED BY IDOCK:   -3.59 KCAL/MOL
REMARK 922        TOTAL FREE ENERGY PREDICTED BY IDOCK:   -5.68 KCAL/MOL
REMARK 923 INTER-LIGAND FREE ENERGY PREDICTED BY IDOCK:   -5.47 KCAL/MOL
REMARK 924 INTRA-LIGAND FREE ENERGY PREDICTED BY IDOCK:   -0.22 KCAL/MOL
REMARK 927      BINDING AFFINITY PREDICTED BY RF-SCORE:    0.00 PKD
ROOT
HETATM    1  C   UNL     1      -8.370   9.085  64.407  1.00  0.00    -0.183 C  
HETATM    2  C   UNL     1      -8.863   8.706  65.793  1.00  0.00    -0.231 C  
ENDROOT
BRANCH   2   3
HETATM    3  C   UNL     1     -10.092   9.516  66.198  1.00  0.00    -0.326 C  
BRANCH   3   4
HETATM    4  C   UNL     1      -9.996  10.949  65.691  1.00  0.00    -0.251 C  
BRANCH   4   5
HETATM    5  O   UNL     1     -11.274  11.353  65.202  1.00  0.00    -0.197 OA 
BRANCH   5   6
HETATM    6  C   UNL     1     -11.717  12.543  65.855  1.00  0.00    -0.426 C  
BRANCH   6   7
HETATM    7  C   UNL     1     -11.076  12.649  67.234  1.00  0.00    -0.278 C  
BRANCH   7   8
HETATM    8  O   UNL     1     -12.061  12.951  68.235  1.00  0.00    -0.294 OA 
BRANCH   8   9
HETATM    9  C   UNL     1     -11.776  12.502  69.484  1.00  0.00    -0.309 C  
HETATM   10  O   UNL     1     -11.121  11.511  69.759  1.00  0.00    -0.199 OA 
BRANCH   9  11
HETATM   11  C   UNL     1     -12.408  13.369  70.501  1.00  0.00    -0.401 A  
HETATM   12  C   UNL     1     -12.314  14.746  70.348  1.00  0.00    -0.344 A  
HETATM   13  N   UNL     1     -12.842  15.641  71.219  1.00  0.00    -0.478 NA 
HETATM   14  C   UNL     1     -13.493  15.137  72.290  1.00  0.00    -0.437 A  
HETATM   15  C   UNL     1     -13.640  13.780  72.531  1.00  0.00    -0.680 A  
HETATM   16  C   UNL     1     -13.087  12.881  71.621  1.00  0.00    -0.430 A  
ENDBRANCH   9  11
ENDBRANCH   8   9
ENDBRANCH   7   8
ENDBRANCH   6   7
ENDBRANCH   5   6
ENDBRANCH   4   5
ENDBRANCH   3   4
ENDBRANCH   2   3
TORSDOF 8
ENDMDL
MODEL      117
REMARK 921   NORMALIZED FREE ENERGY PREDICTED BY IDOCK:   -3.59 KCAL/MOL
REMARK 922        TOTAL FREE ENERGY PREDICTED BY IDOCK:   -5.68 KCAL/MOL
REMARK 923 INTER-LIGAND FREE ENERGY PREDICTED BY IDOCK:   -5.20 KCAL/MOL
REMARK 924 INTRA-LIGAND FREE ENERGY PREDICTED BY IDOCK:   -0.48 KCAL/MOL
REMARK 927      BINDING AFFINITY PREDICTED BY RF-SCORE:    0.00 PKD
ROOT
HETATM    1  C   UNL     1      -7.997   8.155  68.515  1.00  0.00    -0.126 C  
HETATM    2  C   UNL     1      -7.991   9.254  67.467  1.00  0.00    -0.099 C  
ENDROOT
BRANCH   2   3
HETATM    3  C   UNL     1      -7.498   8.746  66.114  1.00  0.00    -0.090 C  
BRANCH   3   4
HETATM    4  C   UNL     1      -8.616   8.769  65.080  1.00  0.00    -0.169 C  
BRANCH   4   5
HETATM    5  O   UNL     1      -8.871  10.122  64.705  1.00  0.00    -0.166 OA 
BRANCH   5   6
HETATM    6  C   UNL     1      -9.244  10.209  63.330  1.00  0.00    -0.291 C  
BRANCH   6   7
HETATM    7  C   UNL     1     -10.115  11.440  63.105  1.00  0.00    -0.352 C  
BRANCH   7   8
HETATM    8  O   UNL     1     -11.301  11.384  63.914  1.00  0.00    -0.370 OA 
BRANCH   8   9
HETATM    9  C   UNL     1     -11.862  12.585  64.206  1.00  0.00    -0.395 C  
HETATM   10  O   UNL     1     -12.304  13.386  63.400  1.00  0.00    -0.728 OA 
BRANCH   9  11
HETATM   11  C   UNL     1     -11.833  12.828  65.663  1.00  0.00    -0.472 A  
HETATM   12  C   UNL     1     -12.116  14.106  66.126  1.00  0.00    -0.435 A  
HETATM   13  N   UNL     1     -12.110  14.454  67.437  1.00  0.00    -0.374 NA 
HETATM   14  C   UNL     1     -11.809  13.481  68.324  1.00  0.00    -0.366 A  
HETATM   15  C   UNL     1     -11.512  12.175  67.961  1.00  0.00    -0.380 A  
HETATM   16  C   UNL     1     -11.525  11.845  66.607  1.00  0.00    -0.382 A  
ENDBRANCH   9  11
ENDBRANCH   8   9
ENDBRANCH   7   8
ENDBRANCH   6   7
ENDBRANCH   5   6
ENDBRANCH   4   5
ENDBRANCH   3   4
ENDBRANCH   2   3
TORSDOF 8
ENDMDL
MODEL      118
REMARK 921   NORMALIZED FREE ENERGY PREDICTED BY IDOCK:   -3.59 KCAL/MOL
REMARK 922        TOTAL FREE ENERGY PREDICTED BY IDOCK:   -5.68 KCAL/MOL
REMARK 923 INTER-LIGAND FREE ENERGY PREDICTED BY IDOCK:   -5.33 KCAL/MOL
REMARK 924 INTRA-LIGAND FREE ENERGY PREDICTED BY IDOCK:   -0.34 KCAL/MOL
REMARK 927      BINDING AFFINITY PREDICTED BY RF-SCORE:    0.00 PKD
ROOT
HETATM    1  C   UNL     1     -10.009  10.700  63.458  1.00  0.00    -0.347 C  
HETATM    2  C   UNL     1     -10.627  12.069  63.230  1.00  0.00    -0.399 C  
ENDROOT
BRANCH   2   3
HETATM    3  C   UNL     1     -12.143  12.043  63.406  1.00  0.00    -0.597 C  
BRANCH   3   4
HETATM    4  C   UNL     1     -12.588  13.031  64.476  1.00  0.00    -0.320 C  
BRANCH   4   5
HETATM    5  O   UNL     1     -12.289  12.487  65.760  1.00  0.00    -0.627 OA 
BRANCH   5   6
HETATM    6  C   UNL     1     -11.631  13.452  66.582  1.00  0.00    -0.362 C  
BRANCH   6   7
HETATM    7  C   UNL     1     -11.732  14.833  65.945  1.00  0.00    -0.248 C  
BRANCH   7   8
HETATM    8  O   UNL     1     -10.459  15.254  65.429  1.00  0.00    -0.336 OA 
BRANCH   8   9
HETATM    9  C   UNL     1      -9.983  16.418  65.939  1.00  0.00    -0.332 C  
HETATM   10  O   UNL     1     -10.386  17.538  65.674  1.00  0.00    -0.601 OA 
BRANCH   9  11
HETATM   11  C   UNL     1      -8.852  16.156  66.854  1.00  0.00    -0.246 A  
HETATM   12  C   UNL     1      -9.132  15.749  68.152  1.00  0.00    -0.185 A  
HETATM   13  N   UNL     1      -8.182  15.491  69.085  1.00  0.00    -0.229 NA 
HETATM   14  C   UNL     1      -6.896  15.644  68.702  1.00  0.00    -0.120 A  
HETATM   15  C   UNL     1      -6.514  16.046  67.431  1.00  0.00    -0.214 A  
HETATM   16  C   UNL     1      -7.510  16.306  66.492  1.00  0.00    -0.169 A  
ENDBRANCH   9  11
ENDBRANCH   8   9
ENDBRANCH   7   8
ENDBRANCH   6   7
ENDBRANCH   5   6
ENDBRANCH   4   5
ENDBRANCH   3   4
ENDBRANCH   2   3
TORSDOF 8
ENDMDL
MODEL      119
REMARK 921   NORMALIZED FREE ENERGY PREDICTED BY IDOCK:   -3.58 KCAL/MOL
REMARK 922        TOTAL FREE ENERGY PREDICTED BY IDOCK:   -5.66 KCAL/MOL
REMARK 923 INTER-LIGAND FREE ENERGY PREDICTED BY IDOCK:   -4.91 KCAL/MOL
REMARK 924 INTRA-LIGAND FREE ENERGY PREDICTED BY IDOCK:   -0.76 KCAL/MOL
REMARK 927      BINDING AFFINITY PREDICTED BY RF-SCORE:    0.00 PKD
ROOT
HETATM    1  C   UNL     1      -7.449  11.556  67.534  1.00  0.00    -0.116 C  
HETATM    2  C   UNL     1      -8.859  11.794  67.021  1.00  0.00    -0.182 C  
ENDROOT
BRANCH   2   3
HETATM    3  C   UNL     1      -9.226  10.828  65.898  1.00  0.00    -0.214 C  
BRANCH   3   4
HETATM    4  C   UNL     1     -10.175  11.481  64.901  1.00  0.00    -0.275 C  
BRANCH   4   5
HETATM    5  O   UNL     1     -11.414  11.755  65.554  1.00  0.00    -0.281 OA 
BRANCH   5   6
HETATM    6  C   UNL     1     -12.168  12.726  64.829  1.00  0.00    -0.459 C  
BRANCH   6   7
HETATM    7  C   UNL     1     -11.514  14.097  64.959  1.00  0.00    -0.352 C  
BRANCH   7   8
HETATM    8  O   UNL     1     -11.936  14.754  66.166  1.00  0.00    -0.281 OA 
BRANCH   8   9
HETATM    9  C   UNL     1     -10.975  14.898  67.113  1.00  0.00    -0.323 C  
HETATM   10  O   UNL     1      -9.809  15.196  66.916  1.00  0.00    -0.229 OA 
BRANCH   9  11
HETATM   11  C   UNL     1     -11.524  14.604  68.454  1.00  0.00    -0.335 A  
HETATM   12  C   UNL     1     -11.997  15.660  69.222  1.00  0.00    -0.320 A  
HETATM   13  N   UNL     1     -12.511  15.517  70.469  1.00  0.00    -0.423 NA 
HETATM   14  C   UNL     1     -12.556  14.263  70.968  1.00  0.00    -0.358 A  
HETATM   15  C   UNL     1     -12.109  13.145  70.281  1.00  0.00    -0.399 A  
HETATM   16  C   UNL     1     -11.585  13.319  69.002  1.00  0.00    -0.359 A  
ENDBRANCH   9  11
ENDBRANCH   8   9
ENDBRANCH   7   8
ENDBRANCH   6   7
ENDBRANCH   5   6
ENDBRANCH   4   5
ENDBRANCH   3   4
ENDBRANCH   2   3
TORSDOF 8
ENDMDL
MODEL      120
REMARK 921   NORMALIZED FREE ENERGY PREDICTED BY IDOCK:   -3.56 KCAL/MOL
REMARK 922        TOTAL FREE ENERGY PREDICTED BY IDOCK:   -5.64 KCAL/MOL
REMARK 923 INTER-LIGAND FREE ENERGY PREDICTED BY IDOCK:   -4.81 KCAL/MOL
REMARK 924 INTRA-LIGAND FREE ENERGY PREDICTED BY IDOCK:   -0.83 KCAL/MOL
REMARK 927      BINDING AFFINITY PREDICTED BY RF-SCORE:    0.00 PKD
ROOT
HETATM    1  C   UNL     1     -12.526  11.728  63.285  1.00  0.00    -0.411 C  
HETATM    2  C   UNL     1     -11.635  12.900  63.658  1.00  0.00    -0.547 C  
ENDROOT
BRANCH   2   3
HETATM    3  C   UNL     1     -12.109  13.591  64.933  1.00  0.00    -0.431 C  
BRANCH   3   4
HETATM    4  C   UNL     1     -11.149  14.699  65.345  1.00  0.00    -0.348 C  
BRANCH   4   5
HETATM    5  O   UNL     1     -11.177  14.832  66.766  1.00  0.00    -0.332 OA 
BRANCH   5   6
HETATM    6  C   UNL     1     -12.246  14.070  67.327  1.00  0.00    -0.290 C  
BRANCH   6   7
HETATM    7  C   UNL     1     -11.979  13.811  68.806  1.00  0.00    -0.365 C  
BRANCH   7   8
HETATM    8  O   UNL     1     -11.031  12.744  68.976  1.00  0.00    -0.242 OA 
BRANCH   8   9
HETATM    9  C   UNL     1     -11.386  11.559  68.418  1.00  0.00    -0.279 C  
HETATM   10  O   UNL     1     -12.371  10.898  68.700  1.00  0.00    -0.501 OA 
BRANCH   9  11
HETATM   11  C   UNL     1     -10.378  11.134  67.424  1.00  0.00    -0.231 A  
HETATM   12  C   UNL     1     -10.582   9.941  66.744  1.00  0.00    -0.144 A  
HETATM   13  N   UNL     1      -9.725   9.442  65.819  1.00  0.00    -0.283 NA 
HETATM   14  C   UNL     1      -8.616  10.168  65.562  1.00  0.00    -0.151 A  
HETATM   15  C   UNL     1      -8.323  11.370  66.188  1.00  0.00    -0.071 A  
HETATM   16  C   UNL     1      -9.220  11.861  67.135  1.00  0.00    -0.183 A  
ENDBRANCH   9  11
ENDBRANCH   8   9
ENDBRANCH   7   8
ENDBRANCH   6   7
ENDBRANCH   5   6
ENDBRANCH   4   5
ENDBRANCH   3   4
ENDBRANCH   2   3
TORSDOF 8
ENDMDL
MODEL      121
REMARK 921   NORMALIZED FREE ENERGY PREDICTED BY IDOCK:   -3.56 KCAL/MOL
REMARK 922        TOTAL FREE ENERGY PREDICTED BY IDOCK:   -5.63 KCAL/MOL
REMARK 923 INTER-LIGAND FREE ENERGY PREDICTED BY IDOCK:   -5.01 KCAL/MOL
REMARK 924 INTRA-LIGAND FREE ENERGY PREDICTED BY IDOCK:   -0.62 KCAL/MOL
REMARK 927      BINDING AFFINITY PREDICTED BY RF-SCORE:    0.00 PKD
ROOT
HETATM    1  C   UNL     1      -9.347   9.251  65.741  1.00  0.00    -0.306 C  
HETATM    2  C   UNL     1     -10.374   8.947  66.818  1.00  0.00    -0.317 C  
ENDROOT
BRANCH   2   3
HETATM    3  C   UNL     1     -10.510   7.447  67.065  1.00  0.00    -0.404 C  
BRANCH   3   4
HETATM    4  C   UNL     1      -9.151   6.809  67.321  1.00  0.00    -0.119 C  
BRANCH   4   5
HETATM    5  O   UNL     1      -9.064   6.444  68.698  1.00  0.00    -0.128 OA 
BRANCH   5   6
HETATM    6  C   UNL     1      -9.593   5.135  68.913  1.00  0.00    -0.144 C  
BRANCH   6   7
HETATM    7  C   UNL     1     -10.408   5.109  70.201  1.00  0.00    -0.270 C  
BRANCH   7   8
HETATM    8  O   UNL     1     -11.411   6.139  70.194  1.00  0.00    -0.391 OA 
BRANCH   8   9
HETATM    9  C   UNL     1     -11.743   6.633  71.414  1.00  0.00    -0.324 C  
HETATM   10  O   UNL     1     -11.857   5.989  72.443  1.00  0.00    -0.310 OA 
BRANCH   9  11
HETATM   11  C   UNL     1     -11.998   8.087  71.330  1.00  0.00    -0.321 A  
HETATM   12  C   UNL     1     -11.218   8.846  70.467  1.00  0.00    -0.252 A  
HETATM   13  N   UNL     1     -11.349  10.187  70.312  1.00  0.00    -0.293 NA 
HETATM   14  C   UNL     1     -12.301  10.795  71.052  1.00  0.00    -0.404 A  
HETATM   15  C   UNL     1     -13.128  10.125  71.941  1.00  0.00    -0.571 A  
HETATM   16  C   UNL     1     -12.973   8.747  72.081  1.00  0.00    -0.457 A  
ENDBRANCH   9  11
ENDBRANCH   8   9
ENDBRANCH   7   8
ENDBRANCH   6   7
ENDBRANCH   5   6
ENDBRANCH   4   5
ENDBRANCH   3   4
ENDBRANCH   2   3
TORSDOF 8
ENDMDL
MODEL      122
REMARK 921   NORMALIZED FREE ENERGY PREDICTED BY IDOCK:   -3.55 KCAL/MOL
REMARK 922        TOTAL FREE ENERGY PREDICTED BY IDOCK:   -5.62 KCAL/MOL
REMARK 923 INTER-LIGAND FREE ENERGY PREDICTED BY IDOCK:   -5.18 KCAL/MOL
REMARK 924 INTRA-LIGAND FREE ENERGY PREDICTED BY IDOCK:   -0.44 KCAL/MOL
REMARK 927      BINDING AFFINITY PREDICTED BY RF-SCORE:    0.00 PKD
ROOT
HETATM    1  C   UNL     1     -10.595   7.608  73.449  1.00  0.00    -0.353 C  
HETATM    2  C   UNL     1     -10.249   8.466  72.244  1.00  0.00    -0.396 C  
ENDROOT
BRANCH   2   3
HETATM    3  C   UNL     1     -11.444   9.290  71.773  1.00  0.00    -0.448 C  
BRANCH   3   4
HETATM    4  C   UNL     1     -11.325   9.630  70.292  1.00  0.00    -0.257 C  
BRANCH   4   5
HETATM    5  O   UNL     1     -10.664   8.557  69.623  1.00  0.00    -0.229 OA 
BRANCH   5   6
HETATM    6  C   UNL     1     -10.288   8.936  68.299  1.00  0.00    -0.206 C  
BRANCH   6   7
HETATM    7  C   UNL     1      -9.143   9.941  68.352  1.00  0.00    -0.123 C  
BRANCH   7   8
HETATM    8  O   UNL     1      -9.497  11.158  67.675  1.00  0.00    -0.163 OA 
BRANCH   8   9
HETATM    9  C   UNL     1      -9.150  11.215  66.364  1.00  0.00    -0.187 C  
HETATM   10  O   UNL     1      -8.050  10.970  65.900  1.00  0.00    -0.150 OA 
BRANCH   9  11
HETATM   11  C   UNL     1     -10.297  11.663  65.546  1.00  0.00    -0.309 A  
HETATM   12  C   UNL     1     -11.399  12.207  66.193  1.00  0.00    -0.361 A  
HETATM   13  N   UNL     1     -12.513  12.642  65.553  1.00  0.00    -0.648 NA 
HETATM   14  C   UNL     1     -12.525  12.529  64.207  1.00  0.00    -0.432 A  
HETATM   15  C   UNL     1     -11.476  11.999  63.471  1.00  0.00    -0.536 A  
HETATM   16  C   UNL     1     -10.343  11.560  64.153  1.00  0.00    -0.386 A  
ENDBRANCH   9  11
ENDBRANCH   8   9
ENDBRANCH   7   8
ENDBRANCH   6   7
ENDBRANCH   5   6
ENDBRANCH   4   5
ENDBRANCH   3   4
ENDBRANCH   2   3
TORSDOF 8
ENDMDL
MODEL      123
REMARK 921   NORMALIZED FREE ENERGY PREDICTED BY IDOCK:   -3.53 KCAL/MOL
REMARK 922        TOTAL FREE ENERGY PREDICTED BY IDOCK:   -5.60 KCAL/MOL
REMARK 923 INTER-LIGAND FREE ENERGY PREDICTED BY IDOCK:   -4.84 KCAL/MOL
REMARK 924 INTRA-LIGAND FREE ENERGY PREDICTED BY IDOCK:   -0.76 KCAL/MOL
REMARK 927      BINDING AFFINITY PREDICTED BY RF-SCORE:    0.00 PKD
ROOT
HETATM    1  C   UNL     1      -9.125   5.766  67.293  1.00  0.00    -0.110 C  
HETATM    2  C   UNL     1      -9.800   5.153  68.507  1.00  0.00    -0.218 C  
ENDROOT
BRANCH   2   3
HETATM    3  C   UNL     1      -9.994   6.175  69.624  1.00  0.00    -0.210 C  
BRANCH   3   4
HETATM    4  C   UNL     1     -11.473   6.400  69.910  1.00  0.00    -0.415 C  
BRANCH   4   5
HETATM    5  O   UNL     1     -11.727   6.112  71.284  1.00  0.00    -0.278 OA 
BRANCH   5   6
HETATM    6  C   UNL     1     -10.618   6.493  72.099  1.00  0.00    -0.214 C  
BRANCH   6   7
HETATM    7  C   UNL     1     -10.962   7.748  72.893  1.00  0.00    -0.407 C  
BRANCH   7   8
HETATM    8  O   UNL     1     -10.617   8.932  72.155  1.00  0.00    -0.340 OA 
BRANCH   8   9
HETATM    9  C   UNL     1     -11.657   9.568  71.560  1.00  0.00    -0.395 C  
HETATM   10  O   UNL     1     -12.784   9.680  72.011  1.00  0.00    -0.383 OA 
BRANCH   9  11
HETATM   11  C   UNL     1     -11.254  10.092  70.237  1.00  0.00    -0.379 A  
HETATM   12  C   UNL     1     -12.193  10.787  69.487  1.00  0.00    -0.221 A  
HETATM   13  N   UNL     1     -11.946  11.304  68.258  1.00  0.00    -0.621 NA 
HETATM   14  C   UNL     1     -10.705  11.118  67.758  1.00  0.00    -0.222 A  
HETATM   15  C   UNL     1      -9.699  10.439  68.428  1.00  0.00    -0.167 A  
HETATM   16  C   UNL     1      -9.980   9.917  69.690  1.00  0.00    -0.255 A  
ENDBRANCH   9  11
ENDBRANCH   8   9
ENDBRANCH   7   8
ENDBRANCH   6   7
ENDBRANCH   5   6
ENDBRANCH   4   5
ENDBRANCH   3   4
ENDBRANCH   2   3
TORSDOF 8
ENDMDL
MODEL      124
REMARK 921   NORMALIZED FREE ENERGY PREDICTED BY IDOCK:   -3.53 KCAL/MOL
REMARK 922        TOTAL FREE ENERGY PREDICTED BY IDOCK:   -5.60 KCAL/MOL
REMARK 923 INTER-LIGAND FREE ENERGY PREDICTED BY IDOCK:   -5.29 KCAL/MOL
REMARK 924 INTRA-LIGAND FREE ENERGY PREDICTED BY IDOCK:   -0.31 KCAL/MOL
REMARK 927      BINDING AFFINITY PREDICTED BY RF-SCORE:    0.00 PKD
ROOT
HETATM    1  C   UNL     1      -9.812  11.668  63.608  1.00  0.00    -0.366 C  
HETATM    2  C   UNL     1     -10.622  10.719  64.474  1.00  0.00    -0.258 C  
ENDROOT
BRANCH   2   3
HETATM    3  C   UNL     1     -10.053  10.614  65.886  1.00  0.00    -0.321 C  
BRANCH   3   4
HETATM    4  C   UNL     1      -9.728   9.168  66.240  1.00  0.00    -0.274 C  
BRANCH   4   5
HETATM    5  O   UNL     1     -10.744   8.665  67.106  1.00  0.00    -0.270 OA 
BRANCH   5   6
HETATM    6  C   UNL     1     -10.809   7.240  67.043  1.00  0.00    -0.280 C  
BRANCH   6   7
HETATM    7  C   UNL     1     -10.351   6.639  68.367  1.00  0.00    -0.193 C  
BRANCH   7   8
HETATM    8  O   UNL     1     -11.477   6.284  69.186  1.00  0.00    -0.394 OA 
BRANCH   8   9
HETATM    9  C   UNL     1     -11.303   6.462  70.520  1.00  0.00    -0.375 C  
HETATM   10  O   UNL     1     -10.690   5.722  71.271  1.00  0.00    -0.246 OA 
BRANCH   9  11
HETATM   11  C   UNL     1     -12.003   7.683  70.973  1.00  0.00    -0.296 A  
HETATM   12  C   UNL     1     -13.286   7.556  71.489  1.00  0.00    -0.352 A  
HETATM   13  N   UNL     1     -14.032   8.601  71.925  1.00  0.00    -0.422 NA 
HETATM   14  C   UNL     1     -13.470   9.826  71.844  1.00  0.00    -0.395 A  
HETATM   15  C   UNL     1     -12.197  10.056  71.344  1.00  0.00    -0.510 A  
HETATM   16  C   UNL     1     -11.452   8.964  70.902  1.00  0.00    -0.339 A  
ENDBRANCH   9  11
ENDBRANCH   8   9
ENDBRANCH   7   8
ENDBRANCH   6   7
ENDBRANCH   5   6
ENDBRANCH   4   5
ENDBRANCH   3   4
ENDBRANCH   2   3
TORSDOF 8
ENDMDL
MODEL      125
REMARK 921   NORMALIZED FREE ENERGY PREDICTED BY IDOCK:   -3.52 KCAL/MOL
REMARK 922        TOTAL FREE ENERGY PREDICTED BY IDOCK:   -5.58 KCAL/MOL
REMARK 923 INTER-LIGAND FREE ENERGY PREDICTED BY IDOCK:   -5.07 KCAL/MOL
REMARK 924 INTRA-LIGAND FREE ENERGY PREDICTED BY IDOCK:   -0.51 KCAL/MOL
REMARK 927      BINDING AFFINITY PREDICTED BY RF-SCORE:    0.00 PKD
ROOT
HETATM    1  C   UNL     1      -9.685   9.050  71.018  1.00  0.00    -0.348 C  
HETATM    2  C   UNL     1     -10.641   8.486  69.980  1.00  0.00    -0.230 C  
ENDROOT
BRANCH   2   3
HETATM    3  C   UNL     1     -10.477   9.172  68.626  1.00  0.00    -0.235 C  
BRANCH   3   4
HETATM    4  C   UNL     1     -10.671  10.678  68.748  1.00  0.00    -0.215 C  
BRANCH   4   5
HETATM    5  O   UNL     1     -12.042  10.945  69.039  1.00  0.00    -0.417 OA 
BRANCH   5   6
HETATM    6  C   UNL     1     -12.163  11.978  70.017  1.00  0.00    -0.206 C  
BRANCH   6   7
HETATM    7  C   UNL     1     -11.415  13.223  69.555  1.00  0.00    -0.234 C  
BRANCH   7   8
HETATM    8  O   UNL     1     -12.117  13.876  68.486  1.00  0.00    -0.362 OA 
BRANCH   8   9
HETATM    9  C   UNL     1     -11.330  14.489  67.565  1.00  0.00    -0.340 C  
HETATM   10  O   UNL     1     -10.679  15.505  67.737  1.00  0.00    -0.281 OA 
BRANCH   9  11
HETATM   11  C   UNL     1     -11.394  13.772  66.273  1.00  0.00    -0.329 A  
HETATM   12  C   UNL     1     -10.407  12.837  65.986  1.00  0.00    -0.276 A  
HETATM   13  N   UNL     1     -10.352  12.127  64.833  1.00  0.00    -0.281 NA 
HETATM   14  C   UNL     1     -11.327  12.360  63.927  1.00  0.00    -0.433 A  
HETATM   15  C   UNL     1     -12.353  13.272  64.120  1.00  0.00    -0.408 A  
HETATM   16  C   UNL     1     -12.387  13.989  65.314  1.00  0.00    -0.480 A  
ENDBRANCH   9  11
ENDBRANCH   8   9
ENDBRANCH   7   8
ENDBRANCH   6   7
ENDBRANCH   5   6
ENDBRANCH   4   5
ENDBRANCH   3   4
ENDBRANCH   2   3
TORSDOF 8
ENDMDL
MODEL      126
REMARK 921   NORMALIZED FREE ENERGY PREDICTED BY IDOCK:   -3.51 KCAL/MOL
REMARK 922        TOTAL FREE ENERGY PREDICTED BY IDOCK:   -5.57 KCAL/MOL
REMARK 923 INTER-LIGAND FREE ENERGY PREDICTED BY IDOCK:   -5.21 KCAL/MOL
REMARK 924 INTRA-LIGAND FREE ENERGY PREDICTED BY IDOCK:   -0.36 KCAL/MOL
REMARK 927      BINDING AFFINITY PREDICTED BY RF-SCORE:    0.00 PKD
ROOT
HETATM    1  C   UNL     1      -9.491  20.074  66.737  1.00  0.00    -0.530 C  
HETATM    2  C   UNL     1     -10.369  19.668  67.908  1.00  0.00    -0.583 C  
ENDROOT
BRANCH   2   3
HETATM    3  C   UNL     1      -9.854  18.405  68.592  1.00  0.00    -0.403 C  
BRANCH   3   4
HETATM    4  C   UNL     1     -10.642  17.180  68.146  1.00  0.00    -0.380 C  
BRANCH   4   5
HETATM    5  O   UNL     1     -10.511  16.160  69.135  1.00  0.00    -0.228 OA 
BRANCH   5   6
HETATM    6  C   UNL     1     -11.792  15.676  69.541  1.00  0.00    -0.372 C  
BRANCH   6   7
HETATM    7  C   UNL     1     -11.928  14.201  69.181  1.00  0.00    -0.349 C  
BRANCH   7   8
HETATM    8  O   UNL     1     -11.997  14.025  67.757  1.00  0.00    -0.362 OA 
BRANCH   8   9
HETATM    9  C   UNL     1     -11.465  12.867  67.290  1.00  0.00    -0.336 C  
HETATM   10  O   UNL     1     -12.079  11.952  66.769  1.00  0.00    -0.593 OA 
BRANCH   9  11
HETATM   11  C   UNL     1     -10.007  12.834  67.534  1.00  0.00    -0.210 A  
HETATM   12  C   UNL     1      -9.478  11.758  68.235  1.00  0.00    -0.193 A  
HETATM   13  N   UNL     1      -8.162  11.622  68.530  1.00  0.00    -0.153 NA 
HETATM   14  C   UNL     1      -7.338  12.603  68.104  1.00  0.00    -0.112 A  
HETATM   15  C   UNL     1      -7.768  13.717  67.399  1.00  0.00    -0.156 A  
HETATM   16  C   UNL     1      -9.127  13.832  67.109  1.00  0.00    -0.243 A  
ENDBRANCH   9  11
ENDBRANCH   8   9
ENDBRANCH   7   8
ENDBRANCH   6   7
ENDBRANCH   5   6
ENDBRANCH   4   5
ENDBRANCH   3   4
ENDBRANCH   2   3
TORSDOF 8
ENDMDL
MODEL      127
REMARK 921   NORMALIZED FREE ENERGY PREDICTED BY IDOCK:   -3.51 KCAL/MOL
REMARK 922        TOTAL FREE ENERGY PREDICTED BY IDOCK:   -5.56 KCAL/MOL
REMARK 923 INTER-LIGAND FREE ENERGY PREDICTED BY IDOCK:   -5.25 KCAL/MOL
REMARK 924 INTRA-LIGAND FREE ENERGY PREDICTED BY IDOCK:   -0.32 KCAL/MOL
REMARK 927      BINDING AFFINITY PREDICTED BY RF-SCORE:    0.00 PKD
ROOT
HETATM    1  C   UNL     1     -14.073  14.857  72.148  1.00  0.00    -0.616 C  
HETATM    2  C   UNL     1     -13.612  13.411  72.214  1.00  0.00    -0.703 C  
ENDROOT
BRANCH   2   3
HETATM    3  C   UNL     1     -12.632  13.077  71.093  1.00  0.00    -0.388 C  
BRANCH   3   4
HETATM    4  C   UNL     1     -12.481  11.570  70.929  1.00  0.00    -0.366 C  
BRANCH   4   5
HETATM    5  O   UNL     1     -13.323  10.915  71.877  1.00  0.00    -0.421 OA 
BRANCH   5   6
HETATM    6  C   UNL     1     -12.762   9.665  72.279  1.00  0.00    -0.282 C  
BRANCH   6   7
HETATM    7  C   UNL     1     -12.375   8.849  71.051  1.00  0.00    -0.171 C  
BRANCH   7   8
HETATM    8  O   UNL     1     -11.181   8.089  71.296  1.00  0.00    -0.247 OA 
BRANCH   8   9
HETATM    9  C   UNL     1     -11.236   6.786  70.921  1.00  0.00    -0.292 C  
HETATM   10  O   UNL     1     -11.707   6.356  69.882  1.00  0.00    -0.426 OA 
BRANCH   9  11
HETATM   11  C   UNL     1     -10.673   5.920  71.979  1.00  0.00    -0.282 A  
HETATM   12  C   UNL     1      -9.310   5.655  71.961  1.00  0.00    -0.150 A  
HETATM   13  N   UNL     1      -8.681   4.868  72.868  1.00  0.00    -0.117 NA 
HETATM   14  C   UNL     1      -9.448   4.323  73.837  1.00  0.00    -0.105 A  
HETATM   15  C   UNL     1     -10.816   4.526  73.940  1.00  0.00    -0.344 A  
HETATM   16  C   UNL     1     -11.438   5.339  72.994  1.00  0.00    -0.340 A  
ENDBRANCH   9  11
ENDBRANCH   8   9
ENDBRANCH   7   8
ENDBRANCH   6   7
ENDBRANCH   5   6
ENDBRANCH   4   5
ENDBRANCH   3   4
ENDBRANCH   2   3
TORSDOF 8
ENDMDL
MODEL      128
REMARK 921   NORMALIZED FREE ENERGY PREDICTED BY IDOCK:   -3.51 KCAL/MOL
REMARK 922        TOTAL FREE ENERGY PREDICTED BY IDOCK:   -5.56 KCAL/MOL
REMARK 923 INTER-LIGAND FREE ENERGY PREDICTED BY IDOCK:   -5.24 KCAL/MOL
REMARK 924 INTRA-LIGAND FREE ENERGY PREDICTED BY IDOCK:   -0.32 KCAL/MOL
REMARK 927      BINDING AFFINITY PREDICTED BY RF-SCORE:    0.00 PKD
ROOT
HETATM    1  C   UNL     1     -13.455   9.553  71.992  1.00  0.00    -0.522 C  
HETATM    2  C   UNL     1     -12.188   8.751  72.237  1.00  0.00    -0.429 C  
ENDROOT
BRANCH   2   3
HETATM    3  C   UNL     1     -11.037   9.225  71.353  1.00  0.00    -0.437 C  
BRANCH   3   4
HETATM    4  C   UNL     1     -11.514  10.259  70.341  1.00  0.00    -0.335 C  
BRANCH   4   5
HETATM    5  O   UNL     1     -10.760  10.111  69.139  1.00  0.00    -0.203 OA 
BRANCH   5   6
HETATM    6  C   UNL     1      -9.423  10.580  69.314  1.00  0.00    -0.173 C  
BRANCH   6   7
HETATM    7  C   UNL     1      -8.995  11.399  68.102  1.00  0.00    -0.169 C  
BRANCH   7   8
HETATM    8  O   UNL     1      -9.747  12.621  68.018  1.00  0.00    -0.203 OA 
BRANCH   8   9
HETATM    9  C   UNL     1      -9.218  13.573  67.208  1.00  0.00    -0.233 C  
HETATM   10  O   UNL     1      -8.080  14.010  67.261  1.00  0.00    -0.183 OA 
BRANCH   9  11
HETATM   11  C   UNL     1     -10.233  14.059  66.250  1.00  0.00    -0.300 A  
HETATM   12  C   UNL     1     -10.038  15.296  65.650  1.00  0.00    -0.371 A  
HETATM   13  N   UNL     1     -10.903  15.852  64.766  1.00  0.00    -0.583 NA 
HETATM   14  C   UNL     1     -12.010  15.140  64.468  1.00  0.00    -0.319 A  
HETATM   15  C   UNL     1     -12.295  13.897  65.014  1.00  0.00    -0.452 A  
HETATM   16  C   UNL     1     -11.390  13.348  65.920  1.00  0.00    -0.327 A  
ENDBRANCH   9  11
ENDBRANCH   8   9
ENDBRANCH   7   8
ENDBRANCH   6   7
ENDBRANCH   5   6
ENDBRANCH   4   5
ENDBRANCH   3   4
ENDBRANCH   2   3
TORSDOF 8
ENDMDL
MODEL      129
REMARK 921   NORMALIZED FREE ENERGY PREDICTED BY IDOCK:   -3.49 KCAL/MOL
REMARK 922        TOTAL FREE ENERGY PREDICTED BY IDOCK:   -5.53 KCAL/MOL
REMARK 923 INTER-LIGAND FREE ENERGY PREDICTED BY IDOCK:   -5.19 KCAL/MOL
REMARK 924 INTRA-LIGAND FREE ENERGY PREDICTED BY IDOCK:   -0.34 KCAL/MOL
REMARK 927      BINDING AFFINITY PREDICTED BY RF-SCORE:    0.00 PKD
ROOT
HETATM    1  C   UNL     1      -9.320  18.306  66.439  1.00  0.00    -0.280 C  
HETATM    2  C   UNL     1     -10.239  18.689  67.587  1.00  0.00    -0.425 C  
ENDROOT
BRANCH   2   3
HETATM    3  C   UNL     1      -9.972  17.848  68.832  1.00  0.00    -0.337 C  
BRANCH   3   4
HETATM    4  C   UNL     1     -10.939  16.675  68.918  1.00  0.00    -0.294 C  
BRANCH   4   5
HETATM    5  O   UNL     1     -10.758  16.016  70.170  1.00  0.00    -0.317 OA 
BRANCH   5   6
HETATM    6  C   UNL     1     -12.009  15.811  70.825  1.00  0.00    -0.407 C  
BRANCH   6   7
HETATM    7  C   UNL     1     -12.112  14.370  71.312  1.00  0.00    -0.335 C  
BRANCH   7   8
HETATM    8  O   UNL     1     -12.766  13.544  70.334  1.00  0.00    -0.223 OA 
BRANCH   8   9
HETATM    9  C   UNL     1     -12.156  12.360  70.075  1.00  0.00    -0.263 C  
HETATM   10  O   UNL     1     -11.979  11.453  70.870  1.00  0.00    -0.319 OA 
BRANCH   9  11
HETATM   11  C   UNL     1     -11.683  12.319  68.675  1.00  0.00    -0.377 A  
HETATM   12  C   UNL     1     -11.811  13.464  67.900  1.00  0.00    -0.357 A  
HETATM   13  N   UNL     1     -11.425  13.546  66.602  1.00  0.00    -0.326 NA 
HETATM   14  C   UNL     1     -10.887  12.434  66.056  1.00  0.00    -0.273 A  
HETATM   15  C   UNL     1     -10.718  11.243  66.747  1.00  0.00    -0.323 A  
HETATM   16  C   UNL     1     -11.123  11.186  68.079  1.00  0.00    -0.334 A  
ENDBRANCH   9  11
ENDBRANCH   8   9
ENDBRANCH   7   8
ENDBRANCH   6   7
ENDBRANCH   5   6
ENDBRANCH   4   5
ENDBRANCH   3   4
ENDBRANCH   2   3
TORSDOF 8
ENDMDL
MODEL      130
REMARK 921   NORMALIZED FREE ENERGY PREDICTED BY IDOCK:   -3.48 KCAL/MOL
REMARK 922        TOTAL FREE ENERGY PREDICTED BY IDOCK:   -5.52 KCAL/MOL
REMARK 923 INTER-LIGAND FREE ENERGY PREDICTED BY IDOCK:   -5.23 KCAL/MOL
REMARK 924 INTRA-LIGAND FREE ENERGY PREDICTED BY IDOCK:   -0.29 KCAL/MOL
REMARK 927      BINDING AFFINITY PREDICTED BY RF-SCORE:    0.00 PKD
ROOT
HETATM    1  C   UNL     1     -12.318  16.193  73.461  1.00  0.00    -0.664 C  
HETATM    2  C   UNL     1     -13.165  15.037  72.958  1.00  0.00    -0.596 C  
ENDROOT
BRANCH   2   3
HETATM    3  C   UNL     1     -13.192  14.975  71.434  1.00  0.00    -0.497 C  
BRANCH   3   4
HETATM    4  C   UNL     1     -12.146  15.901  70.829  1.00  0.00    -0.355 C  
BRANCH   4   5
HETATM    5  O   UNL     1     -12.059  15.647  69.427  1.00  0.00    -0.356 OA 
BRANCH   5   6
HETATM    6  C   UNL     1     -11.599  14.319  69.177  1.00  0.00    -0.305 C  
BRANCH   6   7
HETATM    7  C   UNL     1     -11.520  14.071  67.674  1.00  0.00    -0.334 C  
BRANCH   7   8
HETATM    8  O   UNL     1     -10.626  12.984  67.381  1.00  0.00    -0.232 OA 
BRANCH   8   9
HETATM    9  C   UNL     1     -10.916  11.812  68.000  1.00  0.00    -0.225 C  
HETATM   10  O   UNL     1     -12.015  11.288  68.069  1.00  0.00    -0.621 OA 
BRANCH   9  11
HETATM   11  C   UNL     1      -9.705  11.250  68.634  1.00  0.00    -0.200 A  
HETATM   12  C   UNL     1      -9.863  10.302  69.637  1.00  0.00    -0.198 A  
HETATM   13  N   UNL     1      -8.831   9.724  70.300  1.00  0.00    -0.203 NA 
HETATM   14  C   UNL     1      -7.587  10.109  69.944  1.00  0.00    -0.166 A  
HETATM   15  C   UNL     1      -7.325  11.048  68.957  1.00  0.00    -0.123 A  
HETATM   16  C   UNL     1      -8.404  11.627  68.291  1.00  0.00    -0.159 A  
ENDBRANCH   9  11
ENDBRANCH   8   9
ENDBRANCH   7   8
ENDBRANCH   6   7
ENDBRANCH   5   6
ENDBRANCH   4   5
ENDBRANCH   3   4
ENDBRANCH   2   3
TORSDOF 8
ENDMDL
MODEL      131
REMARK 921   NORMALIZED FREE ENERGY PREDICTED BY IDOCK:   -3.48 KCAL/MOL
REMARK 922        TOTAL FREE ENERGY PREDICTED BY IDOCK:   -5.52 KCAL/MOL
REMARK 923 INTER-LIGAND FREE ENERGY PREDICTED BY IDOCK:   -4.57 KCAL/MOL
REMARK 924 INTRA-LIGAND FREE ENERGY PREDICTED BY IDOCK:   -0.94 KCAL/MOL
REMARK 927      BINDING AFFINITY PREDICTED BY RF-SCORE:    0.00 PKD
ROOT
HETATM    1  C   UNL     1      -7.819  15.204  69.510  1.00  0.00    -0.186 C  
HETATM    2  C   UNL     1      -8.685  14.512  68.471  1.00  0.00    -0.177 C  
ENDROOT
BRANCH   2   3
HETATM    3  C   UNL     1     -10.124  15.018  68.503  1.00  0.00    -0.225 C  
BRANCH   3   4
HETATM    4  C   UNL     1     -10.485  15.728  67.204  1.00  0.00    -0.309 C  
BRANCH   4   5
HETATM    5  O   UNL     1     -11.458  14.951  66.508  1.00  0.00    -0.345 OA 
BRANCH   5   6
HETATM    6  C   UNL     1     -11.095  14.788  65.137  1.00  0.00    -0.384 C  
BRANCH   6   7
HETATM    7  C   UNL     1     -12.090  13.864  64.442  1.00  0.00    -0.443 C  
BRANCH   7   8
HETATM    8  O   UNL     1     -12.294  12.664  65.205  1.00  0.00    -0.472 OA 
BRANCH   8   9
HETATM    9  C   UNL     1     -11.266  11.779  65.179  1.00  0.00    -0.250 C  
HETATM   10  O   UNL     1     -10.807  11.238  64.187  1.00  0.00    -0.357 OA 
BRANCH   9  11
HETATM   11  C   UNL     1     -10.781  11.511  66.550  1.00  0.00    -0.318 A  
HETATM   12  C   UNL     1      -9.465  11.100  66.717  1.00  0.00    -0.184 A  
HETATM   13  N   UNL     1      -8.909  10.815  67.920  1.00  0.00    -0.130 NA 
HETATM   14  C   UNL     1      -9.704  10.946  69.004  1.00  0.00    -0.166 A  
HETATM   15  C   UNL     1     -11.029  11.349  68.941  1.00  0.00    -0.276 A  
HETATM   16  C   UNL     1     -11.576  11.636  67.692  1.00  0.00    -0.349 A  
ENDBRANCH   9  11
ENDBRANCH   8   9
ENDBRANCH   7   8
ENDBRANCH   6   7
ENDBRANCH   5   6
ENDBRANCH   4   5
ENDBRANCH   3   4
ENDBRANCH   2   3
TORSDOF 8
ENDMDL
MODEL      132
REMARK 921   NORMALIZED FREE ENERGY PREDICTED BY IDOCK:   -3.47 KCAL/MOL
REMARK 922        TOTAL FREE ENERGY PREDICTED BY IDOCK:   -5.51 KCAL/MOL
REMARK 923 INTER-LIGAND FREE ENERGY PREDICTED BY IDOCK:   -4.99 KCAL/MOL
REMARK 924 INTRA-LIGAND FREE ENERGY PREDICTED BY IDOCK:   -0.52 KCAL/MOL
REMARK 927      BINDING AFFINITY PREDICTED BY RF-SCORE:    0.00 PKD
ROOT
HETATM    1  C   UNL     1      -6.095  12.980  68.996  1.00  0.00    -0.089 C  
HETATM    2  C   UNL     1      -6.621  13.156  67.582  1.00  0.00    -0.165 C  
ENDROOT
BRANCH   2   3
HETATM    3  C   UNL     1      -8.138  13.000  67.517  1.00  0.00    -0.179 C  
BRANCH   3   4
HETATM    4  C   UNL     1      -8.831  13.989  68.445  1.00  0.00    -0.180 C  
BRANCH   4   5
HETATM    5  O   UNL     1      -9.729  14.791  67.679  1.00  0.00    -0.211 OA 
BRANCH   5   6
HETATM    6  C   UNL     1      -9.731  16.141  68.144  1.00  0.00    -0.222 C  
BRANCH   6   7
HETATM    7  C   UNL     1     -11.156  16.581  68.457  1.00  0.00    -0.335 C  
BRANCH   7   8
HETATM    8  O   UNL     1     -11.918  15.496  69.010  1.00  0.00    -0.354 OA 
BRANCH   8   9
HETATM    9  C   UNL     1     -11.892  15.401  70.364  1.00  0.00    -0.335 C  
HETATM   10  O   UNL     1     -11.538  16.273  71.139  1.00  0.00    -0.427 OA 
BRANCH   9  11
HETATM   11  C   UNL     1     -12.320  14.053  70.795  1.00  0.00    -0.443 A  
HETATM   12  C   UNL     1     -13.121  13.943  71.924  1.00  0.00    -0.385 A  
HETATM   13  N   UNL     1     -13.567  12.763  72.422  1.00  0.00    -0.525 NA 
HETATM   14  C   UNL     1     -13.196  11.645  71.762  1.00  0.00    -0.333 A  
HETATM   15  C   UNL     1     -12.399  11.650  70.628  1.00  0.00    -0.437 A  
HETATM   16  C   UNL     1     -11.954  12.876  70.136  1.00  0.00    -0.373 A  
ENDBRANCH   9  11
ENDBRANCH   8   9
ENDBRANCH   7   8
ENDBRANCH   6   7
ENDBRANCH   5   6
ENDBRANCH   4   5
ENDBRANCH   3   4
ENDBRANCH   2   3
TORSDOF 8
ENDMDL
MODEL      133
REMARK 921   NORMALIZED FREE ENERGY PREDICTED BY IDOCK:   -3.46 KCAL/MOL
REMARK 922        TOTAL FREE ENERGY PREDICTED BY IDOCK:   -5.49 KCAL/MOL
REMARK 923 INTER-LIGAND FREE ENERGY PREDICTED BY IDOCK:   -5.14 KCAL/MOL
REMARK 924 INTRA-LIGAND FREE ENERGY PREDICTED BY IDOCK:   -0.35 KCAL/MOL
REMARK 927      BINDING AFFINITY PREDICTED BY RF-SCORE:    0.00 PKD
ROOT
HETATM    1  C   UNL     1     -10.697   5.045  73.879  1.00  0.00    -0.356 C  
HETATM    2  C   UNL     1     -11.023   5.971  72.720  1.00  0.00    -0.299 C  
ENDROOT
BRANCH   2   3
HETATM    3  C   UNL     1     -10.894   7.440  73.113  1.00  0.00    -0.435 C  
BRANCH   3   4
HETATM    4  C   UNL     1     -11.427   8.350  72.014  1.00  0.00    -0.349 C  
BRANCH   4   5
HETATM    5  O   UNL     1     -12.716   8.829  72.394  1.00  0.00    -0.386 OA 
BRANCH   5   6
HETATM    6  C   UNL     1     -13.305   9.597  71.345  1.00  0.00    -0.368 C  
BRANCH   6   7
HETATM    7  C   UNL     1     -12.484  10.859  71.101  1.00  0.00    -0.405 C  
BRANCH   7   8
HETATM    8  O   UNL     1     -12.398  11.151  69.697  1.00  0.00    -0.296 OA 
BRANCH   8   9
HETATM    9  C   UNL     1     -11.145  11.380  69.228  1.00  0.00    -0.254 C  
HETATM   10  O   UNL     1     -10.157  10.703  69.457  1.00  0.00    -0.209 OA 
BRANCH   9  11
HETATM   11  C   UNL     1     -11.116  12.612  68.412  1.00  0.00    -0.297 A  
HETATM   12  C   UNL     1     -12.008  12.726  67.354  1.00  0.00    -0.272 A  
HETATM   13  N   UNL     1     -12.069  13.801  66.529  1.00  0.00    -0.436 NA 
HETATM   14  C   UNL     1     -11.201  14.806  66.774  1.00  0.00    -0.344 A  
HETATM   15  C   UNL     1     -10.273  14.787  67.804  1.00  0.00    -0.232 A  
HETATM   16  C   UNL     1     -10.231  13.670  68.637  1.00  0.00    -0.199 A  
ENDBRANCH   9  11
ENDBRANCH   8   9
ENDBRANCH   7   8
ENDBRANCH   6   7
ENDBRANCH   5   6
ENDBRANCH   4   5
ENDBRANCH   3   4
ENDBRANCH   2   3
TORSDOF 8
ENDMDL
MODEL      134
REMARK 921   NORMALIZED FREE ENERGY PREDICTED BY IDOCK:   -3.46 KCAL/MOL
REMARK 922        TOTAL FREE ENERGY PREDICTED BY IDOCK:   -5.49 KCAL/MOL
REMARK 923 INTER-LIGAND FREE ENERGY PREDICTED BY IDOCK:   -5.11 KCAL/MOL
REMARK 924 INTRA-LIGAND FREE ENERGY PREDICTED BY IDOCK:   -0.38 KCAL/MOL
REMARK 927      BINDING AFFINITY PREDICTED BY RF-SCORE:    0.00 PKD
ROOT
HETATM    1  C   UNL     1      -7.239  16.104  68.686  1.00  0.00    -0.160 C  
HETATM    2  C   UNL     1      -7.581  17.551  68.995  1.00  0.00    -0.161 C  
ENDROOT
BRANCH   2   3
HETATM    3  C   UNL     1      -8.732  18.059  68.131  1.00  0.00    -0.277 C  
BRANCH   3   4
HETATM    4  C   UNL     1     -10.073  17.831  68.817  1.00  0.00    -0.381 C  
BRANCH   4   5
HETATM    5  O   UNL     1     -10.943  17.148  67.915  1.00  0.00    -0.343 OA 
BRANCH   5   6
HETATM    6  C   UNL     1     -11.504  15.987  68.528  1.00  0.00    -0.357 C  
BRANCH   6   7
HETATM    7  C   UNL     1     -11.631  14.867  67.502  1.00  0.00    -0.339 C  
BRANCH   7   8
HETATM    8  O   UNL     1     -12.162  13.676  68.105  1.00  0.00    -0.322 OA 
BRANCH   8   9
HETATM    9  C   UNL     1     -11.238  12.831  68.630  1.00  0.00    -0.282 C  
HETATM   10  O   UNL     1     -10.102  12.664  68.220  1.00  0.00    -0.224 OA 
BRANCH   9  11
HETATM   11  C   UNL     1     -11.810  12.086  69.771  1.00  0.00    -0.401 A  
HETATM   12  C   UNL     1     -11.502  10.738  69.902  1.00  0.00    -0.321 A  
HETATM   13  N   UNL     1     -11.974   9.947  70.898  1.00  0.00    -0.321 NA 
HETATM   14  C   UNL     1     -12.788  10.531  71.803  1.00  0.00    -0.454 A  
HETATM   15  C   UNL     1     -13.154  11.868  71.760  1.00  0.00    -0.465 A  
HETATM   16  C   UNL     1     -12.655  12.657  70.726  1.00  0.00    -0.302 A  
ENDBRANCH   9  11
ENDBRANCH   8   9
ENDBRANCH   7   8
ENDBRANCH   6   7
ENDBRANCH   5   6
ENDBRANCH   4   5
ENDBRANCH   3   4
ENDBRANCH   2   3
TORSDOF 8
ENDMDL
MODEL      135
REMARK 921   NORMALIZED FREE ENERGY PREDICTED BY IDOCK:   -3.44 KCAL/MOL
REMARK 922        TOTAL FREE ENERGY PREDICTED BY IDOCK:   -5.46 KCAL/MOL
REMARK 923 INTER-LIGAND FREE ENERGY PREDICTED BY IDOCK:   -4.93 KCAL/MOL
REMARK 924 INTRA-LIGAND FREE ENERGY PREDICTED BY IDOCK:   -0.53 KCAL/MOL
REMARK 927      BINDING AFFINITY PREDICTED BY RF-SCORE:    0.00 PKD
ROOT
HETATM    1  C   UNL     1      -8.586   9.123  65.934  1.00  0.00    -0.168 C  
HETATM    2  C   UNL     1      -9.098  10.551  66.009  1.00  0.00    -0.191 C  
ENDROOT
BRANCH   2   3
HETATM    3  C   UNL     1     -10.382  10.736  65.204  1.00  0.00    -0.341 C  
BRANCH   3   4
HETATM    4  C   UNL     1     -10.073  11.076  63.752  1.00  0.00    -0.363 C  
BRANCH   4   5
HETATM    5  O   UNL     1     -10.421  12.439  63.512  1.00  0.00    -0.435 OA 
BRANCH   5   6
HETATM    6  C   UNL     1     -11.837  12.618  63.544  1.00  0.00    -0.541 C  
BRANCH   6   7
HETATM    7  C   UNL     1     -12.171  14.043  63.970  1.00  0.00    -0.355 C  
BRANCH   7   8
HETATM    8  O   UNL     1     -11.204  14.537  64.911  1.00  0.00    -0.354 OA 
BRANCH   8   9
HETATM    9  C   UNL     1     -11.550  14.411  66.217  1.00  0.00    -0.372 C  
HETATM   10  O   UNL     1     -12.576  13.909  66.644  1.00  0.00    -0.351 OA 
BRANCH   9  11
HETATM   11  C   UNL     1     -10.514  15.010  67.086  1.00  0.00    -0.277 A  
HETATM   12  C   UNL     1      -9.186  14.671  66.862  1.00  0.00    -0.249 A  
HETATM   13  N   UNL     1      -8.151  15.146  67.598  1.00  0.00    -0.149 NA 
HETATM   14  C   UNL     1      -8.457  15.997  68.600  1.00  0.00    -0.208 A  
HETATM   15  C   UNL     1      -9.750  16.396  68.903  1.00  0.00    -0.257 A  
HETATM   16  C   UNL     1     -10.796  15.893  68.132  1.00  0.00    -0.317 A  
ENDBRANCH   9  11
ENDBRANCH   8   9
ENDBRANCH   7   8
ENDBRANCH   6   7
ENDBRANCH   5   6
ENDBRANCH   4   5
ENDBRANCH   3   4
ENDBRANCH   2   3
TORSDOF 8
ENDMDL
MODEL      136
REMARK 921   NORMALIZED FREE ENERGY PREDICTED BY IDOCK:   -3.42 KCAL/MOL
REMARK 922        TOTAL FREE ENERGY PREDICTED BY IDOCK:   -5.44 KCAL/MOL
REMARK 923 INTER-LIGAND FREE ENERGY PREDICTED BY IDOCK:   -5.07 KCAL/MOL
REMARK 924 INTRA-LIGAND FREE ENERGY PREDICTED BY IDOCK:   -0.37 KCAL/MOL
REMARK 927      BINDING AFFINITY PREDICTED BY RF-SCORE:    0.00 PKD
ROOT
HETATM    1  C   UNL     1      -5.845  13.097  67.665  1.00  0.00    -0.122 C  
HETATM    2  C   UNL     1      -6.681  11.873  67.332  1.00  0.00    -0.126 C  
ENDROOT
BRANCH   2   3
HETATM    3  C   UNL     1      -7.622  11.500  68.475  1.00  0.00    -0.130 C  
BRANCH   3   4
HETATM    4  C   UNL     1      -8.319  10.174  68.200  1.00  0.00    -0.117 C  
BRANCH   4   5
HETATM    5  O   UNL     1      -9.432  10.045  69.083  1.00  0.00    -0.183 OA 
BRANCH   5   6
HETATM    6  C   UNL     1     -10.634   9.792  68.355  1.00  0.00    -0.226 C  
BRANCH   6   7
HETATM    7  C   UNL     1     -11.655  10.887  68.641  1.00  0.00    -0.303 C  
BRANCH   7   8
HETATM    8  O   UNL     1     -11.332  11.586  69.855  1.00  0.00    -0.258 OA 
BRANCH   8   9
HETATM    9  C   UNL     1     -12.295  11.563  70.811  1.00  0.00    -0.375 C  
HETATM   10  O   UNL     1     -12.783  10.566  71.316  1.00  0.00    -0.356 OA 
BRANCH   9  11
HETATM   11  C   UNL     1     -12.721  12.938  71.147  1.00  0.00    -0.366 A  
HETATM   12  C   UNL     1     -12.276  13.983  70.347  1.00  0.00    -0.363 A  
HETATM   13  N   UNL     1     -12.589  15.285  70.561  1.00  0.00    -0.389 NA 
HETATM   14  C   UNL     1     -13.382  15.554  71.621  1.00  0.00    -0.498 A  
HETATM   15  C   UNL     1     -13.876  14.582  72.478  1.00  0.00    -0.555 A  
HETATM   16  C   UNL     1     -13.539  13.252  72.236  1.00  0.00    -0.703 A  
ENDBRANCH   9  11
ENDBRANCH   8   9
ENDBRANCH   7   8
ENDBRANCH   6   7
ENDBRANCH   5   6
ENDBRANCH   4   5
ENDBRANCH   3   4
ENDBRANCH   2   3
TORSDOF 8
ENDMDL
MODEL      137
REMARK 921   NORMALIZED FREE ENERGY PREDICTED BY IDOCK:   -3.40 KCAL/MOL
REMARK 922        TOTAL FREE ENERGY PREDICTED BY IDOCK:   -5.40 KCAL/MOL
REMARK 923 INTER-LIGAND FREE ENERGY PREDICTED BY IDOCK:   -5.07 KCAL/MOL
REMARK 924 INTRA-LIGAND FREE ENERGY PREDICTED BY IDOCK:   -0.33 KCAL/MOL
REMARK 927      BINDING AFFINITY PREDICTED BY RF-SCORE:    0.00 PKD
ROOT
HETATM    1  C   UNL     1      -8.237  17.844  66.485  1.00  0.00    -0.298 C  
HETATM    2  C   UNL     1      -9.343  17.976  67.518  1.00  0.00    -0.257 C  
ENDROOT
BRANCH   2   3
HETATM    3  C   UNL     1      -9.582  16.666  68.264  1.00  0.00    -0.233 C  
BRANCH   3   4
HETATM    4  C   UNL     1     -10.995  16.150  68.026  1.00  0.00    -0.338 C  
BRANCH   4   5
HETATM    5  O   UNL     1     -10.930  14.763  67.695  1.00  0.00    -0.274 OA 
BRANCH   5   6
HETATM    6  C   UNL     1     -10.034  14.072  68.565  1.00  0.00    -0.230 C  
BRANCH   6   7
HETATM    7  C   UNL     1      -9.575  12.773  67.914  1.00  0.00    -0.211 C  
BRANCH   7   8
HETATM    8  O   UNL     1      -9.887  11.643  68.745  1.00  0.00    -0.193 OA 
BRANCH   8   9
HETATM    9  C   UNL     1     -11.181  11.235  68.707  1.00  0.00    -0.250 C  
HETATM   10  O   UNL     1     -11.984  11.475  67.821  1.00  0.00    -0.623 OA 
BRANCH   9  11
HETATM   11  C   UNL     1     -11.519  10.474  69.928  1.00  0.00    -0.384 A  
HETATM   12  C   UNL     1     -12.830  10.502  70.383  1.00  0.00    -0.206 A  
HETATM   13  N   UNL     1     -13.258   9.854  71.495  1.00  0.00    -0.396 NA 
HETATM   14  C   UNL     1     -12.335   9.147  72.181  1.00  0.00    -0.354 A  
HETATM   15  C   UNL     1     -11.002   9.058  71.809  1.00  0.00    -0.443 A  
HETATM   16  C   UNL     1     -10.588   9.733  70.662  1.00  0.00    -0.382 A  
ENDBRANCH   9  11
ENDBRANCH   8   9
ENDBRANCH   7   8
ENDBRANCH   6   7
ENDBRANCH   5   6
ENDBRANCH   4   5
ENDBRANCH   3   4
ENDBRANCH   2   3
TORSDOF 8
ENDMDL
MODEL      138
REMARK 921   NORMALIZED FREE ENERGY PREDICTED BY IDOCK:   -3.39 KCAL/MOL
REMARK 922        TOTAL FREE ENERGY PREDICTED BY IDOCK:   -5.39 KCAL/MOL
REMARK 923 INTER-LIGAND FREE ENERGY PREDICTED BY IDOCK:   -5.38 KCAL/MOL
REMARK 924 INTRA-LIGAND FREE ENERGY PREDICTED BY IDOCK:   -0.01 KCAL/MOL
REMARK 927      BINDING AFFINITY PREDICTED BY RF-SCORE:    0.00 PKD
ROOT
HETATM    1  C   UNL     1     -11.701  12.399  69.446  1.00  0.00    -0.384 C  
HETATM    2  C   UNL     1     -11.863  11.419  68.296  1.00  0.00    -0.320 C  
ENDROOT
BRANCH   2   3
HETATM    3  C   UNL     1     -10.716  11.527  67.294  1.00  0.00    -0.286 C  
BRANCH   3   4
HETATM    4  C   UNL     1     -10.557  12.957  66.794  1.00  0.00    -0.257 C  
BRANCH   4   5
HETATM    5  O   UNL     1      -9.363  13.509  67.345  1.00  0.00    -0.211 OA 
BRANCH   5   6
HETATM    6  C   UNL     1      -9.171  14.853  66.903  1.00  0.00    -0.246 C  
BRANCH   6   7
HETATM    7  C   UNL     1      -8.420  15.648  67.966  1.00  0.00    -0.146 C  
BRANCH   7   8
HETATM    8  O   UNL     1      -9.332  16.225  68.914  1.00  0.00    -0.227 OA 
BRANCH   8   9
HETATM    9  C   UNL     1     -10.498  16.682  68.393  1.00  0.00    -0.323 C  
HETATM   10  O   UNL     1     -11.576  16.113  68.433  1.00  0.00    -0.355 OA 
BRANCH   9  11
HETATM   11  C   UNL     1     -10.287  17.979  67.715  1.00  0.00    -0.403 A  
HETATM   12  C   UNL     1     -10.486  18.047  66.342  1.00  0.00    -0.339 A  
HETATM   13  N   UNL     1     -10.313  19.174  65.608  1.00  0.00    -0.511 NA 
HETATM   14  C   UNL     1      -9.925  20.282  66.277  1.00  0.00    -0.350 A  
HETATM   15  C   UNL     1      -9.701  20.315  67.644  1.00  0.00    -0.555 A  
HETATM   16  C   UNL     1      -9.885  19.143  68.375  1.00  0.00    -0.473 A  
ENDBRANCH   9  11
ENDBRANCH   8   9
ENDBRANCH   7   8
ENDBRANCH   6   7
ENDBRANCH   5   6
ENDBRANCH   4   5
ENDBRANCH   3   4
ENDBRANCH   2   3
TORSDOF 8
ENDMDL
MODEL      139
REMARK 921   NORMALIZED FREE ENERGY PREDICTED BY IDOCK:   -3.38 KCAL/MOL
REMARK 922        TOTAL FREE ENERGY PREDICTED BY IDOCK:   -5.38 KCAL/MOL
REMARK 923 INTER-LIGAND FREE ENERGY PREDICTED BY IDOCK:   -4.62 KCAL/MOL
REMARK 924 INTRA-LIGAND FREE ENERGY PREDICTED BY IDOCK:   -0.76 KCAL/MOL
REMARK 927      BINDING AFFINITY PREDICTED BY RF-SCORE:    0.00 PKD
ROOT
HETATM    1  C   UNL     1     -12.216  14.551  64.239  1.00  0.00    -0.441 C  
HETATM    2  C   UNL     1     -11.634  14.775  65.624  1.00  0.00    -0.290 C  
ENDROOT
BRANCH   2   3
HETATM    3  C   UNL     1     -10.140  15.084  65.569  1.00  0.00    -0.400 C  
BRANCH   3   4
HETATM    4  C   UNL     1      -9.681  15.797  66.834  1.00  0.00    -0.230 C  
BRANCH   4   5
HETATM    5  O   UNL     1      -8.767  14.953  67.534  1.00  0.00    -0.170 OA 
BRANCH   5   6
HETATM    6  C   UNL     1      -9.465  13.985  68.318  1.00  0.00    -0.216 C  
BRANCH   6   7
HETATM    7  C   UNL     1      -8.931  12.589  68.016  1.00  0.00    -0.192 C  
BRANCH   7   8
HETATM    8  O   UNL     1      -9.935  11.591  68.263  1.00  0.00    -0.188 OA 
BRANCH   8   9
HETATM    9  C   UNL     1     -10.844  11.426  67.269  1.00  0.00    -0.263 C  
HETATM   10  O   UNL     1     -12.036  11.674  67.335  1.00  0.00    -0.605 OA 
BRANCH   9  11
HETATM   11  C   UNL     1     -10.198  10.852  66.069  1.00  0.00    -0.311 A  
HETATM   12  C   UNL     1      -9.552   9.628  66.188  1.00  0.00    -0.233 A  
HETATM   13  N   UNL     1      -8.915   9.008  65.164  1.00  0.00    -0.192 NA 
HETATM   14  C   UNL     1      -8.925   9.638  63.969  1.00  0.00    -0.223 A  
HETATM   15  C   UNL     1      -9.541  10.861  63.750  1.00  0.00    -0.331 A  
HETATM   16  C   UNL     1     -10.189  11.477  64.820  1.00  0.00    -0.331 A  
ENDBRANCH   9  11
ENDBRANCH   8   9
ENDBRANCH   7   8
ENDBRANCH   6   7
ENDBRANCH   5   6
ENDBRANCH   4   5
ENDBRANCH   3   4
ENDBRANCH   2   3
TORSDOF 8
ENDMDL
MODEL      140
REMARK 921   NORMALIZED FREE ENERGY PREDICTED BY IDOCK:   -3.37 KCAL/MOL
REMARK 922        TOTAL FREE ENERGY PREDICTED BY IDOCK:   -5.36 KCAL/MOL
REMARK 923 INTER-LIGAND FREE ENERGY PREDICTED BY IDOCK:   -4.26 KCAL/MOL
REMARK 924 INTRA-LIGAND FREE ENERGY PREDICTED BY IDOCK:   -1.10 KCAL/MOL
REMARK 927      BINDING AFFINITY PREDICTED BY RF-SCORE:    0.00 PKD
ROOT
HETATM    1  C   UNL     1     -10.413  11.112  67.198  1.00  0.00    -0.270 C  
HETATM    2  C   UNL     1     -10.300  10.927  68.702  1.00  0.00    -0.206 C  
ENDROOT
BRANCH   2   3
HETATM    3  C   UNL     1     -11.498  10.174  69.273  1.00  0.00    -0.168 C  
BRANCH   3   4
HETATM    4  C   UNL     1     -11.739  10.550  70.729  1.00  0.00    -0.356 C  
BRANCH   4   5
HETATM    5  O   UNL     1     -11.430   9.427  71.554  1.00  0.00    -0.350 OA 
BRANCH   5   6
HETATM    6  C   UNL     1     -12.612   8.702  71.893  1.00  0.00    -0.359 C  
BRANCH   6   7
HETATM    7  C   UNL     1     -12.341   7.204  71.824  1.00  0.00    -0.350 C  
BRANCH   7   8
HETATM    8  O   UNL     1     -12.105   6.786  70.470  1.00  0.00    -0.386 OA 
BRANCH   8   9
HETATM    9  C   UNL     1     -10.919   6.164  70.253  1.00  0.00    -0.349 C  
HETATM   10  O   UNL     1     -10.445   5.264  70.926  1.00  0.00    -0.241 OA 
BRANCH   9  11
HETATM   11  C   UNL     1     -10.231   6.757  69.086  1.00  0.00    -0.195 A  
HETATM   12  C   UNL     1      -8.994   7.358  69.283  1.00  0.00    -0.136 A  
HETATM   13  N   UNL     1      -8.274   7.944  68.295  1.00  0.00    -0.123 NA 
HETATM   14  C   UNL     1      -8.812   7.928  67.057  1.00  0.00    -0.130 A  
HETATM   15  C   UNL     1     -10.039   7.355  66.759  1.00  0.00    -0.305 A  
HETATM   16  C   UNL     1     -10.760   6.758  67.793  1.00  0.00    -0.334 A  
ENDBRANCH   9  11
ENDBRANCH   8   9
ENDBRANCH   7   8
ENDBRANCH   6   7
ENDBRANCH   5   6
ENDBRANCH   4   5
ENDBRANCH   3   4
ENDBRANCH   2   3
TORSDOF 8
ENDMDL
MODEL      141
REMARK 921   NORMALIZED FREE ENERGY PREDICTED BY IDOCK:   -3.37 KCAL/MOL
REMARK 922        TOTAL FREE ENERGY PREDICTED BY IDOCK:   -5.36 KCAL/MOL
REMARK 923 INTER-LIGAND FREE ENERGY PREDICTED BY IDOCK:   -5.09 KCAL/MOL
REMARK 924 INTRA-LIGAND FREE ENERGY PREDICTED BY IDOCK:   -0.27 KCAL/MOL
REMARK 927      BINDING AFFINITY PREDICTED BY RF-SCORE:    0.00 PKD
ROOT
HETATM    1  C   UNL     1     -10.255  10.824  65.771  1.00  0.00    -0.319 C  
HETATM    2  C   UNL     1      -9.104  11.389  66.584  1.00  0.00    -0.187 C  
ENDROOT
BRANCH   2   3
HETATM    3  C   UNL     1      -9.306  12.868  66.905  1.00  0.00    -0.240 C  
BRANCH   3   4
HETATM    4  C   UNL     1     -10.171  13.543  65.848  1.00  0.00    -0.301 C  
BRANCH   4   5
HETATM    5  O   UNL     1      -9.776  14.909  65.732  1.00  0.00    -0.323 OA 
BRANCH   5   6
HETATM    6  C   UNL     1     -10.735  15.772  66.342  1.00  0.00    -0.277 C  
BRANCH   6   7
HETATM    7  C   UNL     1     -10.380  17.228  66.060  1.00  0.00    -0.305 C  
BRANCH   7   8
HETATM    8  O   UNL     1      -9.188  17.610  66.765  1.00  0.00    -0.255 OA 
BRANCH   8   9
HETATM    9  C   UNL     1      -9.369  18.510  67.764  1.00  0.00    -0.291 C  
HETATM   10  O   UNL     1     -10.377  18.643  68.438  1.00  0.00    -0.368 OA 
BRANCH   9  11
HETATM   11  C   UNL     1      -8.171  19.363  67.914  1.00  0.00    -0.341 A  
HETATM   12  C   UNL     1      -8.015  20.441  67.052  1.00  0.00    -0.312 A  
HETATM   13  N   UNL     1      -6.955  21.287  67.084  1.00  0.00    -0.527 NA 
HETATM   14  C   UNL     1      -6.011  21.045  68.019  1.00  0.00    -0.345 A  
HETATM   15  C   UNL     1      -6.076  19.996  68.924  1.00  0.00    -0.321 A  
HETATM   16  C   UNL     1      -7.176  19.142  68.870  1.00  0.00    -0.376 A  
ENDBRANCH   9  11
ENDBRANCH   8   9
ENDBRANCH   7   8
ENDBRANCH   6   7
ENDBRANCH   5   6
ENDBRANCH   4   5
ENDBRANCH   3   4
ENDBRANCH   2   3
TORSDOF 8
ENDMDL
MODEL      142
REMARK 921   NORMALIZED FREE ENERGY PREDICTED BY IDOCK:   -3.37 KCAL/MOL
REMARK 922        TOTAL FREE ENERGY PREDICTED BY IDOCK:   -5.36 KCAL/MOL
REMARK 923 INTER-LIGAND FREE ENERGY PREDICTED BY IDOCK:   -4.90 KCAL/MOL
REMARK 924 INTRA-LIGAND FREE ENERGY PREDICTED BY IDOCK:   -0.45 KCAL/MOL
REMARK 927      BINDING AFFINITY PREDICTED BY RF-SCORE:    0.00 PKD
ROOT
HETATM    1  C   UNL     1     -10.639   7.369  73.301  1.00  0.00    -0.442 C  
HETATM    2  C   UNL     1     -11.628   7.626  72.177  1.00  0.00    -0.354 C  
ENDROOT
BRANCH   2   3
HETATM    3  C   UNL     1     -12.461   8.880  72.429  1.00  0.00    -0.405 C  
BRANCH   3   4
HETATM    4  C   UNL     1     -12.256   9.906  71.323  1.00  0.00    -0.387 C  
BRANCH   4   5
HETATM    5  O   UNL     1     -11.233   9.440  70.444  1.00  0.00    -0.245 OA 
BRANCH   5   6
HETATM    6  C   UNL     1     -10.811  10.477  69.558  1.00  0.00    -0.256 C  
BRANCH   6   7
HETATM    7  C   UNL     1     -12.025  11.142  68.919  1.00  0.00    -0.298 C  
BRANCH   7   8
HETATM    8  O   UNL     1     -11.729  12.496  68.541  1.00  0.00    -0.290 OA 
BRANCH   8   9
HETATM    9  C   UNL     1     -11.803  13.407  69.544  1.00  0.00    -0.332 C  
HETATM   10  O   UNL     1     -12.485  13.314  70.551  1.00  0.00    -0.315 OA 
BRANCH   9  11
HETATM   11  C   UNL     1     -10.960  14.583  69.238  1.00  0.00    -0.282 A  
HETATM   12  C   UNL     1     -11.418  15.840  69.611  1.00  0.00    -0.346 A  
HETATM   13  N   UNL     1     -10.741  16.991  69.375  1.00  0.00    -0.279 NA 
HETATM   14  C   UNL     1      -9.554  16.880  68.739  1.00  0.00    -0.268 A  
HETATM   15  C   UNL     1      -9.013  15.672  68.327  1.00  0.00    -0.181 A  
HETATM   16  C   UNL     1      -9.729  14.503  68.582  1.00  0.00    -0.221 A  
ENDBRANCH   9  11
ENDBRANCH   8   9
ENDBRANCH   7   8
ENDBRANCH   6   7
ENDBRANCH   5   6
ENDBRANCH   4   5
ENDBRANCH   3   4
ENDBRANCH   2   3
TORSDOF 8
ENDMDL
MODEL      143
REMARK 921   NORMALIZED FREE ENERGY PREDICTED BY IDOCK:   -3.37 KCAL/MOL
REMARK 922        TOTAL FREE ENERGY PREDICTED BY IDOCK:   -5.35 KCAL/MOL
REMARK 923 INTER-LIGAND FREE ENERGY PREDICTED BY IDOCK:   -5.04 KCAL/MOL
REMARK 924 INTRA-LIGAND FREE ENERGY PREDICTED BY IDOCK:   -0.31 KCAL/MOL
REMARK 927      BINDING AFFINITY PREDICTED BY RF-SCORE:    0.00 PKD
ROOT
HETATM    1  C   UNL     1     -10.667   9.594  70.845  1.00  0.00    -0.402 C  
HETATM    2  C   UNL     1     -11.606  10.685  70.359  1.00  0.00    -0.441 C  
ENDROOT
BRANCH   2   3
HETATM    3  C   UNL     1     -11.379  11.013  68.886  1.00  0.00    -0.346 C  
BRANCH   3   4
HETATM    4  C   UNL     1     -10.940  12.461  68.708  1.00  0.00    -0.246 C  
BRANCH   4   5
HETATM    5  O   UNL     1     -12.066  13.240  68.307  1.00  0.00    -0.333 OA 
BRANCH   5   6
HETATM    6  C   UNL     1     -11.668  14.561  67.940  1.00  0.00    -0.351 C  
BRANCH   6   7
HETATM    7  C   UNL     1     -10.458  14.987  68.764  1.00  0.00    -0.238 C  
BRANCH   7   8
HETATM    8  O   UNL     1      -9.371  15.382  67.911  1.00  0.00    -0.191 OA 
BRANCH   8   9
HETATM    9  C   UNL     1      -8.643  16.439  68.352  1.00  0.00    -0.209 C  
HETATM   10  O   UNL     1      -7.644  16.383  69.050  1.00  0.00    -0.213 OA 
BRANCH   9  11
HETATM   11  C   UNL     1      -9.251  17.709  67.901  1.00  0.00    -0.267 A  
HETATM   12  C   UNL     1      -9.729  18.591  68.862  1.00  0.00    -0.308 A  
HETATM   13  N   UNL     1     -10.316  19.779  68.572  1.00  0.00    -0.426 NA 
HETATM   14  C   UNL     1     -10.429  20.098  67.265  1.00  0.00    -0.289 A  
HETATM   15  C   UNL     1      -9.985  19.286  66.233  1.00  0.00    -0.484 A  
HETATM   16  C   UNL     1      -9.385  18.070  66.558  1.00  0.00    -0.294 A  
ENDBRANCH   9  11
ENDBRANCH   8   9
ENDBRANCH   7   8
ENDBRANCH   6   7
ENDBRANCH   5   6
ENDBRANCH   4   5
ENDBRANCH   3   4
ENDBRANCH   2   3
TORSDOF 8
ENDMDL
MODEL      144
REMARK 921   NORMALIZED FREE ENERGY PREDICTED BY IDOCK:   -3.36 KCAL/MOL
REMARK 922        TOTAL FREE ENERGY PREDICTED BY IDOCK:   -5.34 KCAL/MOL
REMARK 923 INTER-LIGAND FREE ENERGY PREDICTED BY IDOCK:   -4.90 KCAL/MOL
REMARK 924 INTRA-LIGAND FREE ENERGY PREDICTED BY IDOCK:   -0.44 KCAL/MOL
REMARK 927      BINDING AFFINITY PREDICTED BY RF-SCORE:    0.00 PKD
ROOT
HETATM    1  C   UNL     1      -9.744  11.328  63.922  1.00  0.00    -0.311 C  
HETATM    2  C   UNL     1     -11.203  11.419  64.336  1.00  0.00    -0.277 C  
ENDROOT
BRANCH   2   3
HETATM    3  C   UNL     1     -11.962  12.458  63.515  1.00  0.00    -0.627 C  
BRANCH   3   4
HETATM    4  C   UNL     1     -12.204  13.726  64.324  1.00  0.00    -0.400 C  
BRANCH   4   5
HETATM    5  O   UNL     1     -12.658  13.363  65.627  1.00  0.00    -0.466 OA 
BRANCH   5   6
HETATM    6  C   UNL     1     -12.200  14.296  66.605  1.00  0.00    -0.381 C  
BRANCH   6   7
HETATM    7  C   UNL     1     -10.676  14.306  66.640  1.00  0.00    -0.290 C  
BRANCH   7   8
HETATM    8  O   UNL     1     -10.195  14.666  67.946  1.00  0.00    -0.224 OA 
BRANCH   8   9
HETATM    9  C   UNL     1      -8.861  14.898  68.029  1.00  0.00    -0.167 C  
HETATM   10  O   UNL     1      -8.019  14.115  68.437  1.00  0.00    -0.129 OA 
BRANCH   9  11
HETATM   11  C   UNL     1      -8.547  16.273  67.586  1.00  0.00    -0.181 A  
HETATM   12  C   UNL     1      -9.037  17.336  68.332  1.00  0.00    -0.265 A  
HETATM   13  N   UNL     1      -8.826  18.639  68.021  1.00  0.00    -0.298 NA 
HETATM   14  C   UNL     1      -8.092  18.889  66.915  1.00  0.00    -0.265 A  
HETATM   15  C   UNL     1      -7.560  17.898  66.105  1.00  0.00    -0.295 A  
HETATM   16  C   UNL     1      -7.791  16.567  66.447  1.00  0.00    -0.324 A  
ENDBRANCH   9  11
ENDBRANCH   8   9
ENDBRANCH   7   8
ENDBRANCH   6   7
ENDBRANCH   5   6
ENDBRANCH   4   5
ENDBRANCH   3   4
ENDBRANCH   2   3
TORSDOF 8
ENDMDL
MODEL      145
REMARK 921   NORMALIZED FREE ENERGY PREDICTED BY IDOCK:   -3.35 KCAL/MOL
REMARK 922        TOTAL FREE ENERGY PREDICTED BY IDOCK:   -5.34 KCAL/MOL
REMARK 923 INTER-LIGAND FREE ENERGY PREDICTED BY IDOCK:   -4.90 KCAL/MOL
REMARK 924 INTRA-LIGAND FREE ENERGY PREDICTED BY IDOCK:   -0.44 KCAL/MOL
REMARK 927      BINDING AFFINITY PREDICTED BY RF-SCORE:    0.00 PKD
ROOT
HETATM    1  C   UNL     1     -12.007  13.424  63.970  1.00  0.00    -0.520 C  
HETATM    2  C   UNL     1     -11.194  13.978  65.128  1.00  0.00    -0.329 C  
ENDROOT
BRANCH   2   3
HETATM    3  C   UNL     1     -10.750  15.416  64.872  1.00  0.00    -0.416 C  
BRANCH   3   4
HETATM    4  C   UNL     1     -10.019  15.986  66.081  1.00  0.00    -0.325 C  
BRANCH   4   5
HETATM    5  O   UNL     1      -9.006  15.067  66.486  1.00  0.00    -0.269 OA 
BRANCH   5   6
HETATM    6  C   UNL     1      -8.965  14.947  67.908  1.00  0.00    -0.177 C  
BRANCH   6   7
HETATM    7  C   UNL     1      -8.823  13.480  68.301  1.00  0.00    -0.179 C  
BRANCH   7   8
HETATM    8  O   UNL     1     -10.111  12.852  68.411  1.00  0.00    -0.233 OA 
BRANCH   8   9
HETATM    9  C   UNL     1     -10.118  11.507  68.232  1.00  0.00    -0.199 C  
HETATM   10  O   UNL     1      -9.678  10.909  67.265  1.00  0.00    -0.163 OA 
BRANCH   9  11
HETATM   11  C   UNL     1     -10.779  10.838  69.372  1.00  0.00    -0.272 A  
HETATM   12  C   UNL     1     -11.950  11.390  69.874  1.00  0.00    -0.359 A  
HETATM   13  N   UNL     1     -12.641  10.875  70.922  1.00  0.00    -0.374 NA 
HETATM   14  C   UNL     1     -12.139   9.758  71.491  1.00  0.00    -0.409 A  
HETATM   15  C   UNL     1     -10.977   9.132  71.063  1.00  0.00    -0.375 A  
HETATM   16  C   UNL     1     -10.287   9.682  69.985  1.00  0.00    -0.298 A  
ENDBRANCH   9  11
ENDBRANCH   8   9
ENDBRANCH   7   8
ENDBRANCH   6   7
ENDBRANCH   5   6
ENDBRANCH   4   5
ENDBRANCH   3   4
ENDBRANCH   2   3
TORSDOF 8
ENDMDL
MODEL      146
REMARK 921   NORMALIZED FREE ENERGY PREDICTED BY IDOCK:   -3.35 KCAL/MOL
REMARK 922        TOTAL FREE ENERGY PREDICTED BY IDOCK:   -5.33 KCAL/MOL
REMARK 923 INTER-LIGAND FREE ENERGY PREDICTED BY IDOCK:   -4.73 KCAL/MOL
REMARK 924 INTRA-LIGAND FREE ENERGY PREDICTED BY IDOCK:   -0.60 KCAL/MOL
REMARK 927      BINDING AFFINITY PREDICTED BY RF-SCORE:    0.00 PKD
ROOT
HETATM    1  C   UNL     1      -7.092  16.385  68.798  1.00  0.00    -0.180 C  
HETATM    2  C   UNL     1      -6.677  17.292  67.652  1.00  0.00    -0.166 C  
ENDROOT
BRANCH   2   3
HETATM    3  C   UNL     1      -6.963  18.760  67.957  1.00  0.00    -0.255 C  
BRANCH   3   4
HETATM    4  C   UNL     1      -7.751  19.411  66.827  1.00  0.00    -0.256 C  
BRANCH   4   5
HETATM    5  O   UNL     1      -8.893  20.066  67.378  1.00  0.00    -0.323 OA 
BRANCH   5   6
HETATM    6  C   UNL     1      -9.547  19.233  68.335  1.00  0.00    -0.385 C  
BRANCH   6   7
HETATM    7  C   UNL     1     -10.643  18.420  67.655  1.00  0.00    -0.408 C  
BRANCH   7   8
HETATM    8  O   UNL     1     -10.271  17.036  67.558  1.00  0.00    -0.302 OA 
BRANCH   8   9
HETATM    9  C   UNL     1     -10.856  16.213  68.464  1.00  0.00    -0.313 C  
HETATM   10  O   UNL     1     -11.194  16.514  69.597  1.00  0.00    -0.284 OA 
BRANCH   9  11
HETATM   11  C   UNL     1     -11.004  14.852  67.906  1.00  0.00    -0.288 A  
HETATM   12  C   UNL     1     -11.753  14.690  66.748  1.00  0.00    -0.341 A  
HETATM   13  N   UNL     1     -11.969  13.493  66.149  1.00  0.00    -0.388 NA 
HETATM   14  C   UNL     1     -11.411  12.411  66.733  1.00  0.00    -0.362 A  
HETATM   15  C   UNL     1     -10.648  12.469  67.889  1.00  0.00    -0.233 A  
HETATM   16  C   UNL     1     -10.442  13.711  68.485  1.00  0.00    -0.249 A  
ENDBRANCH   9  11
ENDBRANCH   8   9
ENDBRANCH   7   8
ENDBRANCH   6   7
ENDBRANCH   5   6
ENDBRANCH   4   5
ENDBRANCH   3   4
ENDBRANCH   2   3
TORSDOF 8
ENDMDL
MODEL      147
REMARK 921   NORMALIZED FREE ENERGY PREDICTED BY IDOCK:   -3.34 KCAL/MOL
REMARK 922        TOTAL FREE ENERGY PREDICTED BY IDOCK:   -5.32 KCAL/MOL
REMARK 923 INTER-LIGAND FREE ENERGY PREDICTED BY IDOCK:   -4.60 KCAL/MOL
REMARK 924 INTRA-LIGAND FREE ENERGY PREDICTED BY IDOCK:   -0.72 KCAL/MOL
REMARK 927      BINDING AFFINITY PREDICTED BY RF-SCORE:    0.00 PKD
ROOT
HETATM    1  C   UNL     1      -5.554  12.508  68.991  1.00  0.00    -0.065 C  
HETATM    2  C   UNL     1      -6.793  11.629  68.971  1.00  0.00    -0.105 C  
ENDROOT
BRANCH   2   3
HETATM    3  C   UNL     1      -8.048  12.426  68.625  1.00  0.00    -0.020 C  
BRANCH   3   4
HETATM    4  C   UNL     1      -7.836  13.263  67.369  1.00  0.00    -0.153 C  
BRANCH   4   5
HETATM    5  O   UNL     1      -8.443  14.540  67.558  1.00  0.00    -0.166 OA 
BRANCH   5   6
HETATM    6  C   UNL     1      -9.010  15.020  66.338  1.00  0.00    -0.251 C  
BRANCH   6   7
HETATM    7  C   UNL     1     -10.262  15.838  66.633  1.00  0.00    -0.285 C  
BRANCH   7   8
HETATM    8  O   UNL     1     -11.375  14.980  66.937  1.00  0.00    -0.341 OA 
BRANCH   8   9
HETATM    9  C   UNL     1     -11.716  14.915  68.249  1.00  0.00    -0.315 C  
HETATM   10  O   UNL     1     -11.882  15.865  68.996  1.00  0.00    -0.389 OA 
BRANCH   9  11
HETATM   11  C   UNL     1     -11.826  13.507  68.684  1.00  0.00    -0.404 A  
HETATM   12  C   UNL     1     -11.764  12.510  67.720  1.00  0.00    -0.359 A  
HETATM   13  N   UNL     1     -11.864  11.185  67.995  1.00  0.00    -0.620 NA 
HETATM   14  C   UNL     1     -12.033  10.844  69.291  1.00  0.00    -0.310 A  
HETATM   15  C   UNL     1     -12.109  11.764  70.325  1.00  0.00    -0.426 A  
HETATM   16  C   UNL     1     -12.003  13.119  70.015  1.00  0.00    -0.391 A  
ENDBRANCH   9  11
ENDBRANCH   8   9
ENDBRANCH   7   8
ENDBRANCH   6   7
ENDBRANCH   5   6
ENDBRANCH   4   5
ENDBRANCH   3   4
ENDBRANCH   2   3
TORSDOF 8
ENDMDL
MODEL      148
REMARK 921   NORMALIZED FREE ENERGY PREDICTED BY IDOCK:   -3.34 KCAL/MOL
REMARK 922        TOTAL FREE ENERGY PREDICTED BY IDOCK:   -5.32 KCAL/MOL
REMARK 923 INTER-LIGAND FREE ENERGY PREDICTED BY IDOCK:   -4.74 KCAL/MOL
REMARK 924 INTRA-LIGAND FREE ENERGY PREDICTED BY IDOCK:   -0.57 KCAL/MOL
REMARK 927      BINDING AFFINITY PREDICTED BY RF-SCORE:    0.00 PKD
ROOT
HETATM    1  C   UNL     1      -7.366   8.956  70.650  1.00  0.00    -0.080 C  
HETATM    2  C   UNL     1      -8.817   9.246  70.304  1.00  0.00    -0.254 C  
ENDROOT
BRANCH   2   3
HETATM    3  C   UNL     1      -9.736   9.052  71.507  1.00  0.00    -0.365 C  
BRANCH   3   4
HETATM    4  C   UNL     1     -10.728   7.922  71.262  1.00  0.00    -0.228 C  
BRANCH   4   5
HETATM    5  O   UNL     1     -12.006   8.484  70.969  1.00  0.00    -0.284 OA 
BRANCH   5   6
HETATM    6  C   UNL     1     -12.163   9.753  71.602  1.00  0.00    -0.404 C  
BRANCH   6   7
HETATM    7  C   UNL     1     -12.773  10.751  70.624  1.00  0.00    -0.331 C  
BRANCH   7   8
HETATM    8  O   UNL     1     -11.762  11.610  70.070  1.00  0.00    -0.318 OA 
BRANCH   8   9
HETATM    9  C   UNL     1     -11.571  11.492  68.732  1.00  0.00    -0.316 C  
HETATM   10  O   UNL     1     -11.702  10.474  68.074  1.00  0.00    -0.450 OA 
BRANCH   9  11
HETATM   11  C   UNL     1     -11.133  12.782  68.158  1.00  0.00    -0.288 A  
HETATM   12  C   UNL     1     -12.000  13.456  67.307  1.00  0.00    -0.347 A  
HETATM   13  N   UNL     1     -11.706  14.638  66.711  1.00  0.00    -0.367 NA 
HETATM   14  C   UNL     1     -10.494  15.170  66.978  1.00  0.00    -0.282 A  
HETATM   15  C   UNL     1      -9.560  14.575  67.812  1.00  0.00    -0.215 A  
HETATM   16  C   UNL     1      -9.886  13.360  68.412  1.00  0.00    -0.216 A  
ENDBRANCH   9  11
ENDBRANCH   8   9
ENDBRANCH   7   8
ENDBRANCH   6   7
ENDBRANCH   5   6
ENDBRANCH   4   5
ENDBRANCH   3   4
ENDBRANCH   2   3
TORSDOF 8
ENDMDL
MODEL      149
REMARK 921   NORMALIZED FREE ENERGY PREDICTED BY IDOCK:   -3.34 KCAL/MOL
REMARK 922        TOTAL FREE ENERGY PREDICTED BY IDOCK:   -5.32 KCAL/MOL
REMARK 923 INTER-LIGAND FREE ENERGY PREDICTED BY IDOCK:   -4.94 KCAL/MOL
REMARK 924 INTRA-LIGAND FREE ENERGY PREDICTED BY IDOCK:   -0.38 KCAL/MOL
REMARK 927      BINDING AFFINITY PREDICTED BY RF-SCORE:    0.00 PKD
ROOT
HETATM    1  C   UNL     1     -11.179   8.253  72.365  1.00  0.00    -0.451 C  
HETATM    2  C   UNL     1     -11.512   9.248  71.267  1.00  0.00    -0.418 C  
ENDROOT
BRANCH   2   3
HETATM    3  C   UNL     1     -12.729  10.097  71.622  1.00  0.00    -0.549 C  
BRANCH   3   4
HETATM    4  C   UNL     1     -12.773  11.369  70.784  1.00  0.00    -0.253 C  
BRANCH   4   5
HETATM    5  O   UNL     1     -11.565  11.468  70.032  1.00  0.00    -0.301 OA 
BRANCH   5   6
HETATM    6  C   UNL     1     -11.842  11.650  68.643  1.00  0.00    -0.308 C  
BRANCH   6   7
HETATM    7  C   UNL     1     -11.662  13.116  68.265  1.00  0.00    -0.349 C  
BRANCH   7   8
HETATM    8  O   UNL     1     -10.511  13.677  68.918  1.00  0.00    -0.226 OA 
BRANCH   8   9
HETATM    9  C   UNL     1     -10.720  14.864  69.541  1.00  0.00    -0.244 C  
HETATM   10  O   UNL     1     -11.288  15.026  70.608  1.00  0.00    -0.272 OA 
BRANCH   9  11
HETATM   11  C   UNL     1     -10.191  15.977  68.723  1.00  0.00    -0.225 A  
HETATM   12  C   UNL     1      -8.844  16.295  68.832  1.00  0.00    -0.253 A  
HETATM   13  N   UNL     1      -8.247  17.300  68.143  1.00  0.00    -0.223 NA 
HETATM   14  C   UNL     1      -9.031  18.016  67.309  1.00  0.00    -0.251 A  
HETATM   15  C   UNL     1     -10.386  17.776  67.132  1.00  0.00    -0.354 A  
HETATM   16  C   UNL     1     -10.974  16.738  67.852  1.00  0.00    -0.260 A  
ENDBRANCH   9  11
ENDBRANCH   8   9
ENDBRANCH   7   8
ENDBRANCH   6   7
ENDBRANCH   5   6
ENDBRANCH   4   5
ENDBRANCH   3   4
ENDBRANCH   2   3
TORSDOF 8
ENDMDL
MODEL      150
REMARK 921   NORMALIZED FREE ENERGY PREDICTED BY IDOCK:   -3.34 KCAL/MOL
REMARK 922        TOTAL FREE ENERGY PREDICTED BY IDOCK:   -5.31 KCAL/MOL
REMARK 923 INTER-LIGAND FREE ENERGY PREDICTED BY IDOCK:   -4.61 KCAL/MOL
REMARK 924 INTRA-LIGAND FREE ENERGY PREDICTED BY IDOCK:   -0.70 KCAL/MOL
REMARK 927      BINDING AFFINITY PREDICTED BY RF-SCORE:    0.00 PKD
ROOT
HETATM    1  C   UNL     1      -8.909   7.075  67.411  1.00  0.00    -0.119 C  
HETATM    2  C   UNL     1     -10.212   7.836  67.232  1.00  0.00    -0.343 C  
ENDROOT
BRANCH   2   3
HETATM    3  C   UNL     1     -10.649   8.523  68.523  1.00  0.00    -0.154 C  
BRANCH   3   4
HETATM    4  C   UNL     1      -9.737   9.697  68.855  1.00  0.00    -0.162 C  
BRANCH   4   5
HETATM    5  O   UNL     1     -10.383  10.527  69.819  1.00  0.00    -0.232 OA 
BRANCH   5   6
HETATM    6  C   UNL     1     -11.685  10.907  69.374  1.00  0.00    -0.325 C  
BRANCH   6   7
HETATM    7  C   UNL     1     -12.678  10.807  70.527  1.00  0.00    -0.305 C  
BRANCH   7   8
HETATM    8  O   UNL     1     -12.109  10.089  71.634  1.00  0.00    -0.387 OA 
BRANCH   8   9
HETATM    9  C   UNL     1     -12.800   8.990  72.028  1.00  0.00    -0.401 C  
HETATM   10  O   UNL     1     -13.976   8.956  72.348  1.00  0.00    -0.454 OA 
BRANCH   9  11
HETATM   11  C   UNL     1     -11.913   7.807  72.061  1.00  0.00    -0.350 A  
HETATM   12  C   UNL     1     -10.893   7.772  73.003  1.00  0.00    -0.389 A  
HETATM   13  N   UNL     1     -10.011   6.748  73.123  1.00  0.00    -0.178 NA 
HETATM   14  C   UNL     1     -10.157   5.715  72.265  1.00  0.00    -0.187 A  
HETATM   15  C   UNL     1     -11.142   5.657  71.291  1.00  0.00    -0.205 A  
HETATM   16  C   UNL     1     -12.035   6.722  71.189  1.00  0.00    -0.421 A  
ENDBRANCH   9  11
ENDBRANCH   8   9
ENDBRANCH   7   8
ENDBRANCH   6   7
ENDBRANCH   5   6
ENDBRANCH   4   5
ENDBRANCH   3   4
ENDBRANCH   2   3
TORSDOF 8
ENDMDL
MODEL      151
REMARK 921   NORMALIZED FREE ENERGY PREDICTED BY IDOCK:   -3.34 KCAL/MOL
REMARK 922        TOTAL FREE ENERGY PREDICTED BY IDOCK:   -5.31 KCAL/MOL
REMARK 923 INTER-LIGAND FREE ENERGY PREDICTED BY IDOCK:   -5.15 KCAL/MOL
REMARK 924 INTRA-LIGAND FREE ENERGY PREDICTED BY IDOCK:   -0.16 KCAL/MOL
REMARK 927      BINDING AFFINITY PREDICTED BY RF-SCORE:    0.00 PKD
ROOT
HETATM    1  C   UNL     1      -9.309  10.101  62.994  1.00  0.00    -0.330 C  
HETATM    2  C   UNL     1      -8.664   9.480  64.221  1.00  0.00    -0.232 C  
ENDROOT
BRANCH   2   3
HETATM    3  C   UNL     1      -9.641   9.384  65.389  1.00  0.00    -0.296 C  
BRANCH   3   4
HETATM    4  C   UNL     1      -9.013   9.910  66.673  1.00  0.00    -0.139 C  
BRANCH   4   5
HETATM    5  O   UNL     1      -9.395  11.274  66.849  1.00  0.00    -0.173 OA 
BRANCH   5   6
HETATM    6  C   UNL     1     -10.569  11.576  66.096  1.00  0.00    -0.266 C  
BRANCH   6   7
HETATM    7  C   UNL     1     -11.763  11.728  67.032  1.00  0.00    -0.167 C  
BRANCH   7   8
HETATM    8  O   UNL     1     -11.982  13.108  67.365  1.00  0.00    -0.365 OA 
BRANCH   8   9
HETATM    9  C   UNL     1     -12.248  13.923  66.314  1.00  0.00    -0.461 C  
HETATM   10  O   UNL     1     -13.000  13.677  65.385  1.00  0.00    -0.683 OA 
BRANCH   9  11
HETATM   11  C   UNL     1     -11.459  15.170  66.414  1.00  0.00    -0.160 A  
HETATM   12  C   UNL     1     -10.915  15.703  65.252  1.00  0.00    -0.364 A  
HETATM   13  N   UNL     1     -10.165  16.833  65.219  1.00  0.00    -0.610 NA 
HETATM   14  C   UNL     1      -9.951  17.456  66.397  1.00  0.00    -0.316 A  
HETATM   15  C   UNL     1     -10.450  17.003  67.609  1.00  0.00    -0.343 A  
HETATM   16  C   UNL     1     -11.218  15.840  67.616  1.00  0.00    -0.246 A  
ENDBRANCH   9  11
ENDBRANCH   8   9
ENDBRANCH   7   8
ENDBRANCH   6   7
ENDBRANCH   5   6
ENDBRANCH   4   5
ENDBRANCH   3   4
ENDBRANCH   2   3
TORSDOF 8
ENDMDL
MODEL      152
REMARK 921   NORMALIZED FREE ENERGY PREDICTED BY IDOCK:   -3.33 KCAL/MOL
REMARK 922        TOTAL FREE ENERGY PREDICTED BY IDOCK:   -5.31 KCAL/MOL
REMARK 923 INTER-LIGAND FREE ENERGY PREDICTED BY IDOCK:   -4.81 KCAL/MOL
REMARK 924 INTRA-LIGAND FREE ENERGY PREDICTED BY IDOCK:   -0.49 KCAL/MOL
REMARK 927      BINDING AFFINITY PREDICTED BY RF-SCORE:    0.00 PKD
ROOT
HETATM    1  C   UNL     1      -6.449  14.046  68.554  1.00  0.00    -0.093 C  
HETATM    2  C   UNL     1      -6.870  12.787  67.816  1.00  0.00    -0.135 C  
ENDROOT
BRANCH   2   3
HETATM    3  C   UNL     1      -7.749  11.889  68.682  1.00  0.00    -0.113 C  
BRANCH   3   4
HETATM    4  C   UNL     1      -8.147  10.624  67.932  1.00  0.00    -0.111 C  
BRANCH   4   5
HETATM    5  O   UNL     1      -9.146   9.936  68.683  1.00  0.00    -0.126 OA 
BRANCH   5   6
HETATM    6  C   UNL     1     -10.407   9.982  68.016  1.00  0.00    -0.198 C  
BRANCH   6   7
HETATM    7  C   UNL     1     -11.361  10.902  68.769  1.00  0.00    -0.292 C  
BRANCH   7   8
HETATM    8  O   UNL     1     -12.038  11.790  67.865  1.00  0.00    -0.592 OA 
BRANCH   8   9
HETATM    9  C   UNL     1     -11.815  13.112  68.076  1.00  0.00    -0.358 C  
HETATM   10  O   UNL     1     -11.752  13.667  69.160  1.00  0.00    -0.283 OA 
BRANCH   9  11
HETATM   11  C   UNL     1     -11.694  13.826  66.787  1.00  0.00    -0.420 A  
HETATM   12  C   UNL     1     -12.734  13.723  65.873  1.00  0.00    -0.401 A  
HETATM   13  N   UNL     1     -12.733  14.322  64.656  1.00  0.00    -0.662 NA 
HETATM   14  C   UNL     1     -11.645  15.057  64.341  1.00  0.00    -0.276 A  
HETATM   15  C   UNL     1     -10.557  15.221  65.184  1.00  0.00    -0.453 A  
HETATM   16  C   UNL     1     -10.583  14.594  66.429  1.00  0.00    -0.301 A  
ENDBRANCH   9  11
ENDBRANCH   8   9
ENDBRANCH   7   8
ENDBRANCH   6   7
ENDBRANCH   5   6
ENDBRANCH   4   5
ENDBRANCH   3   4
ENDBRANCH   2   3
TORSDOF 8
ENDMDL
MODEL      153
REMARK 921   NORMALIZED FREE ENERGY PREDICTED BY IDOCK:   -3.33 KCAL/MOL
REMARK 922        TOTAL FREE ENERGY PREDICTED BY IDOCK:   -5.30 KCAL/MOL
REMARK 923 INTER-LIGAND FREE ENERGY PREDICTED BY IDOCK:   -4.93 KCAL/MOL
REMARK 924 INTRA-LIGAND FREE ENERGY PREDICTED BY IDOCK:   -0.37 KCAL/MOL
REMARK 927      BINDING AFFINITY PREDICTED BY RF-SCORE:    0.00 PKD
ROOT
HETATM    1  C   UNL     1     -10.442   8.181  66.955  1.00  0.00    -0.379 C  
HETATM    2  C   UNL     1      -9.356   8.805  66.096  1.00  0.00    -0.297 C  
ENDROOT
BRANCH   2   3
HETATM    3  C   UNL     1      -9.920   9.853  65.140  1.00  0.00    -0.278 C  
BRANCH   3   4
HETATM    4  C   UNL     1      -9.397  11.242  65.480  1.00  0.00    -0.221 C  
BRANCH   4   5
HETATM    5  O   UNL     1      -8.505  11.142  66.589  1.00  0.00    -0.153 OA 
BRANCH   5   6
HETATM    6  C   UNL     1      -8.688  12.233  67.492  1.00  0.00    -0.177 C  
BRANCH   6   7
HETATM    7  C   UNL     1      -9.943  13.014  67.116  1.00  0.00    -0.235 C  
BRANCH   7   8
HETATM    8  O   UNL     1      -9.697  14.429  67.155  1.00  0.00    -0.237 OA 
BRANCH   8   9
HETATM    9  C   UNL     1     -10.597  15.154  67.866  1.00  0.00    -0.257 C  
HETATM   10  O   UNL     1     -11.441  14.708  68.624  1.00  0.00    -0.272 OA 
BRANCH   9  11
HETATM   11  C   UNL     1     -10.450  16.595  67.568  1.00  0.00    -0.317 A  
HETATM   12  C   UNL     1     -10.354  16.989  66.239  1.00  0.00    -0.306 A  
HETATM   13  N   UNL     1     -10.206  18.277  65.842  1.00  0.00    -0.587 NA 
HETATM   14  C   UNL     1     -10.152  19.212  66.816  1.00  0.00    -0.381 A  
HETATM   15  C   UNL     1     -10.238  18.919  68.168  1.00  0.00    -0.454 A  
HETATM   16  C   UNL     1     -10.390  17.587  68.550  1.00  0.00    -0.380 A  
ENDBRANCH   9  11
ENDBRANCH   8   9
ENDBRANCH   7   8
ENDBRANCH   6   7
ENDBRANCH   5   6
ENDBRANCH   4   5
ENDBRANCH   3   4
ENDBRANCH   2   3
TORSDOF 8
ENDMDL
MODEL      154
REMARK 921   NORMALIZED FREE ENERGY PREDICTED BY IDOCK:   -3.33 KCAL/MOL
REMARK 922        TOTAL FREE ENERGY PREDICTED BY IDOCK:   -5.30 KCAL/MOL
REMARK 923 INTER-LIGAND FREE ENERGY PREDICTED BY IDOCK:   -5.01 KCAL/MOL
REMARK 924 INTRA-LIGAND FREE ENERGY PREDICTED BY IDOCK:   -0.30 KCAL/MOL
REMARK 927      BINDING AFFINITY PREDICTED BY RF-SCORE:    0.00 PKD
ROOT
HETATM    1  C   UNL     1     -12.350  14.285  64.283  1.00  0.00    -0.407 C  
HETATM    2  C   UNL     1     -12.241  13.516  65.588  1.00  0.00    -0.500 C  
ENDROOT
BRANCH   2   3
HETATM    3  C   UNL     1     -11.817  14.418  66.744  1.00  0.00    -0.431 C  
BRANCH   3   4
HETATM    4  C   UNL     1     -12.023  13.725  68.084  1.00  0.00    -0.358 C  
BRANCH   4   5
HETATM    5  O   UNL     1     -10.749  13.485  68.681  1.00  0.00    -0.245 OA 
BRANCH   5   6
HETATM    6  C   UNL     1     -10.366  12.118  68.533  1.00  0.00    -0.221 C  
BRANCH   6   7
HETATM    7  C   UNL     1     -11.517  11.207  68.945  1.00  0.00    -0.295 C  
BRANCH   7   8
HETATM    8  O   UNL     1     -11.114  10.316  69.999  1.00  0.00    -0.267 OA 
BRANCH   8   9
HETATM    9  C   UNL     1     -10.729   9.079  69.596  1.00  0.00    -0.219 C  
HETATM   10  O   UNL     1     -10.367   8.768  68.473  1.00  0.00    -0.199 OA 
BRANCH   9  11
HETATM   11  C   UNL     1     -10.844   8.114  70.710  1.00  0.00    -0.247 A  
HETATM   12  C   UNL     1     -10.888   8.605  72.008  1.00  0.00    -0.360 A  
HETATM   13  N   UNL     1     -10.981   7.821  73.110  1.00  0.00    -0.381 NA 
HETATM   14  C   UNL     1     -11.033   6.487  72.905  1.00  0.00    -0.250 A  
HETATM   15  C   UNL     1     -10.995   5.900  71.650  1.00  0.00    -0.327 A  
HETATM   16  C   UNL     1     -10.899   6.729  70.534  1.00  0.00    -0.301 A  
ENDBRANCH   9  11
ENDBRANCH   8   9
ENDBRANCH   7   8
ENDBRANCH   6   7
ENDBRANCH   5   6
ENDBRANCH   4   5
ENDBRANCH   3   4
ENDBRANCH   2   3
TORSDOF 8
ENDMDL
MODEL      155
REMARK 921   NORMALIZED FREE ENERGY PREDICTED BY IDOCK:   -3.33 KCAL/MOL
REMARK 922        TOTAL FREE ENERGY PREDICTED BY IDOCK:   -5.30 KCAL/MOL
REMARK 923 INTER-LIGAND FREE ENERGY PREDICTED BY IDOCK:   -4.83 KCAL/MOL
REMARK 924 INTRA-LIGAND FREE ENERGY PREDICTED BY IDOCK:   -0.47 KCAL/MOL
REMARK 927      BINDING AFFINITY PREDICTED BY RF-SCORE:    0.00 PKD
ROOT
HETATM    1  C   UNL     1      -8.716   5.503  73.050  1.00  0.00    -0.121 C  
HETATM    2  C   UNL     1      -8.723   5.160  71.570  1.00  0.00    -0.141 C  
ENDROOT
BRANCH   2   3
HETATM    3  C   UNL     1     -10.123   4.802  71.078  1.00  0.00    -0.269 C  
BRANCH   3   4
HETATM    4  C   UNL     1     -11.033   6.023  71.078  1.00  0.00    -0.286 C  
BRANCH   4   5
HETATM    5  O   UNL     1     -11.062   6.579  69.764  1.00  0.00    -0.301 OA 
BRANCH   5   6
HETATM    6  C   UNL     1     -10.854   7.991  69.803  1.00  0.00    -0.194 C  
BRANCH   6   7
HETATM    7  C   UNL     1     -10.896   8.484  71.245  1.00  0.00    -0.251 C  
BRANCH   7   8
HETATM    8  O   UNL     1     -10.902   9.920  71.296  1.00  0.00    -0.289 OA 
BRANCH   8   9
HETATM    9  C   UNL     1     -12.131  10.495  71.291  1.00  0.00    -0.332 C  
HETATM   10  O   UNL     1     -13.117  10.089  71.881  1.00  0.00    -0.412 OA 
BRANCH   9  11
HETATM   11  C   UNL     1     -12.137  11.691  70.421  1.00  0.00    -0.462 A  
HETATM   12  C   UNL     1     -11.823  11.533  69.078  1.00  0.00    -0.343 A  
HETATM   13  N   UNL     1     -11.784  12.554  68.186  1.00  0.00    -0.336 NA 
HETATM   14  C   UNL     1     -12.074  13.786  68.658  1.00  0.00    -0.298 A  
HETATM   15  C   UNL     1     -12.399  14.046  69.981  1.00  0.00    -0.397 A  
HETATM   16  C   UNL     1     -12.431  12.979  70.877  1.00  0.00    -0.396 A  
ENDBRANCH   9  11
ENDBRANCH   8   9
ENDBRANCH   7   8
ENDBRANCH   6   7
ENDBRANCH   5   6
ENDBRANCH   4   5
ENDBRANCH   3   4
ENDBRANCH   2   3
TORSDOF 8
ENDMDL
MODEL      156
REMARK 921   NORMALIZED FREE ENERGY PREDICTED BY IDOCK:   -3.33 KCAL/MOL
REMARK 922        TOTAL FREE ENERGY PREDICTED BY IDOCK:   -5.30 KCAL/MOL
REMARK 923 INTER-LIGAND FREE ENERGY PREDICTED BY IDOCK:   -4.97 KCAL/MOL
REMARK 924 INTRA-LIGAND FREE ENERGY PREDICTED BY IDOCK:   -0.33 KCAL/MOL
REMARK 927      BINDING AFFINITY PREDICTED BY RF-SCORE:    0.00 PKD
ROOT
HETATM    1  C   UNL     1     -10.277   7.428  71.431  1.00  0.00    -0.198 C  
HETATM    2  C   UNL     1     -10.510   8.499  70.380  1.00  0.00    -0.227 C  
ENDROOT
BRANCH   2   3
HETATM    3  C   UNL     1     -11.713   9.374  70.718  1.00  0.00    -0.349 C  
BRANCH   3   4
HETATM    4  C   UNL     1     -11.744  10.624  69.847  1.00  0.00    -0.317 C  
BRANCH   4   5
HETATM    5  O   UNL     1     -10.582  10.638  69.018  1.00  0.00    -0.193 OA 
BRANCH   5   6
HETATM    6  C   UNL     1     -10.939  10.552  67.639  1.00  0.00    -0.314 C  
BRANCH   6   7
HETATM    7  C   UNL     1     -11.699  11.805  67.219  1.00  0.00    -0.217 C  
BRANCH   7   8
HETATM    8  O   UNL     1     -10.893  12.980  67.406  1.00  0.00    -0.245 OA 
BRANCH   8   9
HETATM    9  C   UNL     1     -11.504  14.006  68.051  1.00  0.00    -0.311 C  
HETATM   10  O   UNL     1     -12.301  13.905  68.968  1.00  0.00    -0.308 OA 
BRANCH   9  11
HETATM   11  C   UNL     1     -11.102  15.300  67.460  1.00  0.00    -0.324 A  
HETATM   12  C   UNL     1     -10.888  15.364  66.089  1.00  0.00    -0.313 A  
HETATM   13  N   UNL     1     -10.506  16.489  65.435  1.00  0.00    -0.602 NA 
HETATM   14  C   UNL     1     -10.332  17.599  66.185  1.00  0.00    -0.334 A  
HETATM   15  C   UNL     1     -10.520  17.637  67.558  1.00  0.00    -0.365 A  
HETATM   16  C   UNL     1     -10.912  16.467  68.206  1.00  0.00    -0.355 A  
ENDBRANCH   9  11
ENDBRANCH   8   9
ENDBRANCH   7   8
ENDBRANCH   6   7
ENDBRANCH   5   6
ENDBRANCH   4   5
ENDBRANCH   3   4
ENDBRANCH   2   3
TORSDOF 8
ENDMDL
MODEL      157
REMARK 921   NORMALIZED FREE ENERGY PREDICTED BY IDOCK:   -3.33 KCAL/MOL
REMARK 922        TOTAL FREE ENERGY PREDICTED BY IDOCK:   -5.30 KCAL/MOL
REMARK 923 INTER-LIGAND FREE ENERGY PREDICTED BY IDOCK:   -5.11 KCAL/MOL
REMARK 924 INTRA-LIGAND FREE ENERGY PREDICTED BY IDOCK:   -0.19 KCAL/MOL
REMARK 927      BINDING AFFINITY PREDICTED BY RF-SCORE:    0.00 PKD
ROOT
HETATM    1  C   UNL     1      -6.470  17.885  65.685  1.00  0.00    -0.209 C  
HETATM    2  C   UNL     1      -5.704  17.424  66.913  1.00  0.00    -0.202 C  
ENDROOT
BRANCH   2   3
HETATM    3  C   UNL     1      -6.270  18.029  68.195  1.00  0.00    -0.180 C  
BRANCH   3   4
HETATM    4  C   UNL     1      -7.587  18.747  67.927  1.00  0.00    -0.251 C  
BRANCH   4   5
HETATM    5  O   UNL     1      -8.635  18.062  68.611  1.00  0.00    -0.303 OA 
BRANCH   5   6
HETATM    6  C   UNL     1      -9.522  17.433  67.686  1.00  0.00    -0.251 C  
BRANCH   6   7
HETATM    7  C   UNL     1     -10.909  17.300  68.303  1.00  0.00    -0.287 C  
BRANCH   7   8
HETATM    8  O   UNL     1     -11.299  15.920  68.397  1.00  0.00    -0.346 OA 
BRANCH   8   9
HETATM    9  C   UNL     1     -10.682  15.208  69.373  1.00  0.00    -0.265 C  
HETATM   10  O   UNL     1      -9.553  14.748  69.324  1.00  0.00    -0.172 OA 
BRANCH   9  11
HETATM   11  C   UNL     1     -11.588  15.018  70.525  1.00  0.00    -0.343 A  
HETATM   12  C   UNL     1     -12.286  13.822  70.628  1.00  0.00    -0.375 A  
HETATM   13  N   UNL     1     -13.154  13.536  71.630  1.00  0.00    -0.372 NA 
HETATM   14  C   UNL     1     -13.330  14.488  72.572  1.00  0.00    -0.472 A  
HETATM   15  C   UNL     1     -12.681  15.713  72.558  1.00  0.00    -0.526 A  
HETATM   16  C   UNL     1     -11.795  15.982  71.516  1.00  0.00    -0.554 A  
ENDBRANCH   9  11
ENDBRANCH   8   9
ENDBRANCH   7   8
ENDBRANCH   6   7
ENDBRANCH   5   6
ENDBRANCH   4   5
ENDBRANCH   3   4
ENDBRANCH   2   3
TORSDOF 8
ENDMDL
MODEL      158
REMARK 921   NORMALIZED FREE ENERGY PREDICTED BY IDOCK:   -3.33 KCAL/MOL
REMARK 922        TOTAL FREE ENERGY PREDICTED BY IDOCK:   -5.30 KCAL/MOL
REMARK 923 INTER-LIGAND FREE ENERGY PREDICTED BY IDOCK:   -4.48 KCAL/MOL
REMARK 924 INTRA-LIGAND FREE ENERGY PREDICTED BY IDOCK:   -0.82 KCAL/MOL
REMARK 927      BINDING AFFINITY PREDICTED BY RF-SCORE:    0.00 PKD
ROOT
HETATM    1  C   UNL     1      -8.441  10.529  65.341  1.00  0.00    -0.173 C  
HETATM    2  C   UNL     1      -7.328   9.875  66.141  1.00  0.00    -0.104 C  
ENDROOT
BRANCH   2   3
HETATM    3  C   UNL     1      -7.334  10.330  67.598  1.00  0.00    -0.088 C  
BRANCH   3   4
HETATM    4  C   UNL     1      -8.544  11.206  67.894  1.00  0.00    -0.135 C  
BRANCH   4   5
HETATM    5  O   UNL     1      -9.205  10.705  69.055  1.00  0.00    -0.175 OA 
BRANCH   5   6
HETATM    6  C   UNL     1     -10.406  10.019  68.702  1.00  0.00    -0.190 C  
BRANCH   6   7
HETATM    7  C   UNL     1     -11.598  10.665  69.399  1.00  0.00    -0.280 C  
BRANCH   7   8
HETATM    8  O   UNL     1     -12.361  11.461  68.477  1.00  0.00    -0.504 OA 
BRANCH   8   9
HETATM    9  C   UNL     1     -12.018  12.773  68.422  1.00  0.00    -0.231 C  
HETATM   10  O   UNL     1     -12.000  13.551  69.360  1.00  0.00    -0.311 OA 
BRANCH   9  11
HETATM   11  C   UNL     1     -11.698  13.165  67.033  1.00  0.00    -0.431 A  
HETATM   12  C   UNL     1     -11.330  14.481  66.785  1.00  0.00    -0.352 A  
HETATM   13  N   UNL     1     -11.024  14.961  65.555  1.00  0.00    -0.334 NA 
HETATM   14  C   UNL     1     -11.088  14.087  64.527  1.00  0.00    -0.351 A  
HETATM   15  C   UNL     1     -11.445  12.755  64.671  1.00  0.00    -0.367 A  
HETATM   16  C   UNL     1     -11.755  12.287  65.947  1.00  0.00    -0.451 A  
ENDBRANCH   9  11
ENDBRANCH   8   9
ENDBRANCH   7   8
ENDBRANCH   6   7
ENDBRANCH   5   6
ENDBRANCH   4   5
ENDBRANCH   3   4
ENDBRANCH   2   3
TORSDOF 8
ENDMDL
MODEL      159
REMARK 921   NORMALIZED FREE ENERGY PREDICTED BY IDOCK:   -3.33 KCAL/MOL
REMARK 922        TOTAL FREE ENERGY PREDICTED BY IDOCK:   -5.30 KCAL/MOL
REMARK 923 INTER-LIGAND FREE ENERGY PREDICTED BY IDOCK:   -4.85 KCAL/MOL
REMARK 924 INTRA-LIGAND FREE ENERGY PREDICTED BY IDOCK:   -0.45 KCAL/MOL
REMARK 927      BINDING AFFINITY PREDICTED BY RF-SCORE:    0.00 PKD
ROOT
HETATM    1  C   UNL     1      -6.251  13.256  67.860  1.00  0.00    -0.144 C  
HETATM    2  C   UNL     1      -7.153  12.168  67.303  1.00  0.00    -0.144 C  
ENDROOT
BRANCH   2   3
HETATM    3  C   UNL     1      -7.995  11.515  68.396  1.00  0.00    -0.143 C  
BRANCH   3   4
HETATM    4  C   UNL     1      -9.054  10.598  67.797  1.00  0.00    -0.143 C  
BRANCH   4   5
HETATM    5  O   UNL     1     -10.074  10.374  68.769  1.00  0.00    -0.170 OA 
BRANCH   5   6
HETATM    6  C   UNL     1     -11.365  10.658  68.229  1.00  0.00    -0.289 C  
BRANCH   6   7
HETATM    7  C   UNL     1     -12.104  11.635  69.137  1.00  0.00    -0.251 C  
BRANCH   7   8
HETATM    8  O   UNL     1     -11.711  11.459  70.508  1.00  0.00    -0.320 OA 
BRANCH   8   9
HETATM    9  C   UNL     1     -12.720  11.166  71.367  1.00  0.00    -0.418 C  
HETATM   10  O   UNL     1     -13.390  11.971  71.991  1.00  0.00    -0.495 OA 
BRANCH   9  11
HETATM   11  C   UNL     1     -12.885   9.702  71.489  1.00  0.00    -0.485 A  
HETATM   12  C   UNL     1     -11.745   8.914  71.586  1.00  0.00    -0.341 A  
HETATM   13  N   UNL     1     -11.768   7.562  71.690  1.00  0.00    -0.272 NA 
HETATM   14  C   UNL     1     -12.983   6.972  71.699  1.00  0.00    -0.352 A  
HETATM   15  C   UNL     1     -14.177   7.671  71.606  1.00  0.00    -0.578 A  
HETATM   16  C   UNL     1     -14.126   9.060  71.500  1.00  0.00    -0.299 A  
ENDBRANCH   9  11
ENDBRANCH   8   9
ENDBRANCH   7   8
ENDBRANCH   6   7
ENDBRANCH   5   6
ENDBRANCH   4   5
ENDBRANCH   3   4
ENDBRANCH   2   3
TORSDOF 8
ENDMDL
MODEL      160
REMARK 921   NORMALIZED FREE ENERGY PREDICTED BY IDOCK:   -3.32 KCAL/MOL
REMARK 922        TOTAL FREE ENERGY PREDICTED BY IDOCK:   -5.28 KCAL/MOL
REMARK 923 INTER-LIGAND FREE ENERGY PREDICTED BY IDOCK:   -4.79 KCAL/MOL
REMARK 924 INTRA-LIGAND FREE ENERGY PREDICTED BY IDOCK:   -0.49 KCAL/MOL
REMARK 927      BINDING AFFINITY PREDICTED BY RF-SCORE:    0.00 PKD
ROOT
HETATM    1  C   UNL     1      -6.736  11.584  69.680  1.00  0.00    -0.083 C  
HETATM    2  C   UNL     1      -7.339  10.816  68.516  1.00  0.00    -0.096 C  
ENDROOT
BRANCH   2   3
HETATM    3  C   UNL     1      -8.830  11.102  68.359  1.00  0.00    -0.157 C  
BRANCH   3   4
HETATM    4  C   UNL     1      -9.076  12.573  68.049  1.00  0.00    -0.200 C  
BRANCH   4   5
HETATM    5  O   UNL     1      -9.505  12.694  66.694  1.00  0.00    -0.233 OA 
BRANCH   5   6
HETATM    6  C   UNL     1     -10.775  13.341  66.617  1.00  0.00    -0.280 C  
BRANCH   6   7
HETATM    7  C   UNL     1     -10.722  14.681  67.342  1.00  0.00    -0.280 C  
BRANCH   7   8
HETATM    8  O   UNL     1     -11.808  14.803  68.276  1.00  0.00    -0.320 OA 
BRANCH   8   9
HETATM    9  C   UNL     1     -11.442  15.008  69.566  1.00  0.00    -0.294 C  
HETATM   10  O   UNL     1     -10.653  15.848  69.965  1.00  0.00    -0.297 OA 
BRANCH   9  11
HETATM   11  C   UNL     1     -12.109  14.031  70.453  1.00  0.00    -0.426 A  
HETATM   12  C   UNL     1     -11.922  12.677  70.205  1.00  0.00    -0.284 A  
HETATM   13  N   UNL     1     -12.489  11.689  70.941  1.00  0.00    -0.377 NA 
HETATM   14  C   UNL     1     -13.277  12.071  71.969  1.00  0.00    -0.375 A  
HETATM   15  C   UNL     1     -13.526  13.396  72.296  1.00  0.00    -0.683 A  
HETATM   16  C   UNL     1     -12.931  14.392  71.524  1.00  0.00    -0.406 A  
ENDBRANCH   9  11
ENDBRANCH   8   9
ENDBRANCH   7   8
ENDBRANCH   6   7
ENDBRANCH   5   6
ENDBRANCH   4   5
ENDBRANCH   3   4
ENDBRANCH   2   3
TORSDOF 8
ENDMDL
MODEL      161
REMARK 921   NORMALIZED FREE ENERGY PREDICTED BY IDOCK:   -3.29 KCAL/MOL
REMARK 922        TOTAL FREE ENERGY PREDICTED BY IDOCK:   -5.24 KCAL/MOL
REMARK 923 INTER-LIGAND FREE ENERGY PREDICTED BY IDOCK:   -4.94 KCAL/MOL
REMARK 924 INTRA-LIGAND FREE ENERGY PREDICTED BY IDOCK:   -0.30 KCAL/MOL
REMARK 927      BINDING AFFINITY PREDICTED BY RF-SCORE:    0.00 PKD
ROOT
HETATM    1  C   UNL     1     -10.867  11.608  63.616  1.00  0.00    -0.503 C  
HETATM    2  C   UNL     1     -10.271  10.785  64.745  1.00  0.00    -0.403 C  
ENDROOT
BRANCH   2   3
HETATM    3  C   UNL     1      -9.227   9.796  64.236  1.00  0.00    -0.286 C  
BRANCH   3   4
HETATM    4  C   UNL     1      -8.384   9.251  65.383  1.00  0.00    -0.137 C  
BRANCH   4   5
HETATM    5  O   UNL     1      -9.111   9.398  66.601  1.00  0.00    -0.141 OA 
BRANCH   5   6
HETATM    6  C   UNL     1      -8.226   9.451  67.720  1.00  0.00    -0.114 C  
BRANCH   6   7
HETATM    7  C   UNL     1      -8.815   8.664  68.886  1.00  0.00    -0.138 C  
BRANCH   7   8
HETATM    8  O   UNL     1      -9.810   9.438  69.576  1.00  0.00    -0.167 OA 
BRANCH   8   9
HETATM    9  C   UNL     1      -9.946   9.161  70.898  1.00  0.00    -0.288 C  
HETATM   10  O   UNL     1      -9.046   9.114  71.719  1.00  0.00    -0.346 OA 
BRANCH   9  11
HETATM   11  C   UNL     1     -11.360   8.876  71.223  1.00  0.00    -0.371 A  
HETATM   12  C   UNL     1     -11.789   7.556  71.205  1.00  0.00    -0.294 A  
HETATM   13  N   UNL     1     -13.062   7.172  71.474  1.00  0.00    -0.389 NA 
HETATM   14  C   UNL     1     -13.943   8.150  71.774  1.00  0.00    -0.409 A  
HETATM   15  C   UNL     1     -13.612   9.496  71.817  1.00  0.00    -0.447 A  
HETATM   16  C   UNL     1     -12.297   9.864  71.536  1.00  0.00    -0.504 A  
ENDBRANCH   9  11
ENDBRANCH   8   9
ENDBRANCH   7   8
ENDBRANCH   6   7
ENDBRANCH   5   6
ENDBRANCH   4   5
ENDBRANCH   3   4
ENDBRANCH   2   3
TORSDOF 8
ENDMDL
MODEL      162
REMARK 921   NORMALIZED FREE ENERGY PREDICTED BY IDOCK:   -3.28 KCAL/MOL
REMARK 922        TOTAL FREE ENERGY PREDICTED BY IDOCK:   -5.23 KCAL/MOL
REMARK 923 INTER-LIGAND FREE ENERGY PREDICTED BY IDOCK:   -4.47 KCAL/MOL
REMARK 924 INTRA-LIGAND FREE ENERGY PREDICTED BY IDOCK:   -0.76 KCAL/MOL
REMARK 927      BINDING AFFINITY PREDICTED BY RF-SCORE:    0.00 PKD
ROOT
HETATM    1  C   UNL     1      -8.328  15.319  69.034  1.00  0.00    -0.215 C  
HETATM    2  C   UNL     1      -9.209  14.361  68.251  1.00  0.00    -0.201 C  
ENDROOT
BRANCH   2   3
HETATM    3  C   UNL     1     -10.564  14.159  68.923  1.00  0.00    -0.249 C  
BRANCH   3   4
HETATM    4  C   UNL     1     -11.094  12.752  68.676  1.00  0.00    -0.266 C  
BRANCH   4   5
HETATM    5  O   UNL     1     -10.072  11.810  69.001  1.00  0.00    -0.121 OA 
BRANCH   5   6
HETATM    6  C   UNL     1     -10.063  10.727  68.071  1.00  0.00    -0.176 C  
BRANCH   6   7
HETATM    7  C   UNL     1      -8.780  10.760  67.247  1.00  0.00    -0.130 C  
BRANCH   7   8
HETATM    8  O   UNL     1      -8.934  11.601  66.092  1.00  0.00    -0.209 OA 
BRANCH   8   9
HETATM    9  C   UNL     1      -9.817  11.154  65.164  1.00  0.00    -0.259 C  
HETATM   10  O   UNL     1      -9.876  10.022  64.714  1.00  0.00    -0.322 OA 
BRANCH   9  11
HETATM   11  C   UNL     1     -10.701  12.253  64.721  1.00  0.00    -0.338 A  
HETATM   12  C   UNL     1     -11.630  11.993  63.721  1.00  0.00    -0.476 A  
HETATM   13  N   UNL     1     -12.485  12.920  63.225  1.00  0.00    -0.690 NA 
HETATM   14  C   UNL     1     -12.410  14.162  63.751  1.00  0.00    -0.075 A  
HETATM   15  C   UNL     1     -11.517  14.520  64.750  1.00  0.00    -0.408 A  
HETATM   16  C   UNL     1     -10.649  13.548  65.243  1.00  0.00    -0.335 A  
ENDBRANCH   9  11
ENDBRANCH   8   9
ENDBRANCH   7   8
ENDBRANCH   6   7
ENDBRANCH   5   6
ENDBRANCH   4   5
ENDBRANCH   3   4
ENDBRANCH   2   3
TORSDOF 8
ENDMDL
MODEL      163
REMARK 921   NORMALIZED FREE ENERGY PREDICTED BY IDOCK:   -3.27 KCAL/MOL
REMARK 922        TOTAL FREE ENERGY PREDICTED BY IDOCK:   -5.21 KCAL/MOL
REMARK 923 INTER-LIGAND FREE ENERGY PREDICTED BY IDOCK:   -5.23 KCAL/MOL
REMARK 924 INTRA-LIGAND FREE ENERGY PREDICTED BY IDOCK:    0.02 KCAL/MOL
REMARK 927      BINDING AFFINITY PREDICTED BY RF-SCORE:    0.00 PKD
ROOT
HETATM    1  C   UNL     1      -7.208  14.447  68.030  1.00  0.00    -0.146 C  
HETATM    2  C   UNL     1      -7.536  15.694  67.228  1.00  0.00    -0.257 C  
ENDROOT
BRANCH   2   3
HETATM    3  C   UNL     1      -8.522  16.599  67.963  1.00  0.00    -0.192 C  
BRANCH   3   4
HETATM    4  C   UNL     1      -9.697  16.970  67.067  1.00  0.00    -0.263 C  
BRANCH   4   5
HETATM    5  O   UNL     1     -10.863  17.124  67.874  1.00  0.00    -0.363 OA 
BRANCH   5   6
HETATM    6  C   UNL     1     -11.259  15.875  68.441  1.00  0.00    -0.368 C  
BRANCH   6   7
HETATM    7  C   UNL     1     -11.938  15.015  67.382  1.00  0.00    -0.041 C  
BRANCH   7   8
HETATM    8  O   UNL     1     -12.059  13.654  67.827  1.00  0.00    -0.358 OA 
BRANCH   8   9
HETATM    9  C   UNL     1     -11.120  12.800  67.346  1.00  0.00    -0.275 C  
HETATM   10  O   UNL     1     -10.231  12.272  67.992  1.00  0.00    -0.195 OA 
BRANCH   9  11
HETATM   11  C   UNL     1     -11.289  12.614  65.890  1.00  0.00    -0.373 A  
HETATM   12  C   UNL     1     -12.518  12.925  65.321  1.00  0.00    -0.493 A  
HETATM   13  N   UNL     1     -12.797  12.785  64.002  1.00  0.00    -0.710 NA 
HETATM   14  C   UNL     1     -11.804  12.316  63.216  1.00  0.00    -0.385 A  
HETATM   15  C   UNL     1     -10.544  11.978  63.688  1.00  0.00    -0.503 A  
HETATM   16  C   UNL     1     -10.284  12.130  65.048  1.00  0.00    -0.312 A  
ENDBRANCH   9  11
ENDBRANCH   8   9
ENDBRANCH   7   8
ENDBRANCH   6   7
ENDBRANCH   5   6
ENDBRANCH   4   5
ENDBRANCH   3   4
ENDBRANCH   2   3
TORSDOF 8
ENDMDL
MODEL      164
REMARK 921   NORMALIZED FREE ENERGY PREDICTED BY IDOCK:   -3.27 KCAL/MOL
REMARK 922        TOTAL FREE ENERGY PREDICTED BY IDOCK:   -5.21 KCAL/MOL
REMARK 923 INTER-LIGAND FREE ENERGY PREDICTED BY IDOCK:   -4.33 KCAL/MOL
REMARK 924 INTRA-LIGAND FREE ENERGY PREDICTED BY IDOCK:   -0.87 KCAL/MOL
REMARK 927      BINDING AFFINITY PREDICTED BY RF-SCORE:    0.00 PKD
ROOT
HETATM    1  C   UNL     1      -8.397   8.597  68.529  1.00  0.00    -0.123 C  
HETATM    2  C   UNL     1      -9.282   9.537  67.729  1.00  0.00    -0.136 C  
ENDROOT
BRANCH   2   3
HETATM    3  C   UNL     1      -9.943  10.588  68.617  1.00  0.00    -0.188 C  
BRANCH   3   4
HETATM    4  C   UNL     1     -11.450  10.619  68.399  1.00  0.00    -0.259 C  
BRANCH   4   5
HETATM    5  O   UNL     1     -12.086  10.992  69.621  1.00  0.00    -0.318 OA 
BRANCH   5   6
HETATM    6  C   UNL     1     -11.477  10.336  70.733  1.00  0.00    -0.351 C  
BRANCH   6   7
HETATM    7  C   UNL     1     -12.551   9.806  71.677  1.00  0.00    -0.416 C  
BRANCH   7   8
HETATM    8  O   UNL     1     -12.682   8.380  71.555  1.00  0.00    -0.311 OA 
BRANCH   8   9
HETATM    9  C   UNL     1     -11.690   7.656  72.133  1.00  0.00    -0.311 C  
HETATM   10  O   UNL     1     -11.297   7.764  73.283  1.00  0.00    -0.321 OA 
BRANCH   9  11
HETATM   11  C   UNL     1     -11.099   6.717  71.156  1.00  0.00    -0.313 A  
HETATM   12  C   UNL     1     -10.165   5.794  71.607  1.00  0.00    -0.203 A  
HETATM   13  N   UNL     1      -9.546   4.892  70.806  1.00  0.00    -0.171 NA 
HETATM   14  C   UNL     1      -9.878   4.912  69.497  1.00  0.00    -0.217 A  
HETATM   15  C   UNL     1     -10.798   5.794  68.950  1.00  0.00    -0.305 A  
HETATM   16  C   UNL     1     -11.419   6.711  69.796  1.00  0.00    -0.388 A  
ENDBRANCH   9  11
ENDBRANCH   8   9
ENDBRANCH   7   8
ENDBRANCH   6   7
ENDBRANCH   5   6
ENDBRANCH   4   5
ENDBRANCH   3   4
ENDBRANCH   2   3
TORSDOF 8
ENDMDL
MODEL      165
REMARK 921   NORMALIZED FREE ENERGY PREDICTED BY IDOCK:   -3.26 KCAL/MOL
REMARK 922        TOTAL FREE ENERGY PREDICTED BY IDOCK:   -5.20 KCAL/MOL
REMARK 923 INTER-LIGAND FREE ENERGY PREDICTED BY IDOCK:   -4.80 KCAL/MOL
REMARK 924 INTRA-LIGAND FREE ENERGY PREDICTED BY IDOCK:   -0.40 KCAL/MOL
REMARK 927      BINDING AFFINITY PREDICTED BY RF-SCORE:    0.00 PKD
ROOT
HETATM    1  C   UNL     1     -10.110  10.087  66.016  1.00  0.00    -0.318 C  
HETATM    2  C   UNL     1     -10.612  10.638  67.340  1.00  0.00    -0.304 C  
ENDROOT
BRANCH   2   3
HETATM    3  C   UNL     1     -11.053  12.094  67.218  1.00  0.00    -0.341 C  
BRANCH   3   4
HETATM    4  C   UNL     1     -10.568  12.705  65.909  1.00  0.00    -0.273 C  
BRANCH   4   5
HETATM    5  O   UNL     1      -9.685  13.787  66.203  1.00  0.00    -0.290 OA 
BRANCH   5   6
HETATM    6  C   UNL     1     -10.089  14.974  65.521  1.00  0.00    -0.369 C  
BRANCH   6   7
HETATM    7  C   UNL     1     -11.028  15.788  66.406  1.00  0.00    -0.159 C  
BRANCH   7   8
HETATM    8  O   UNL     1     -10.299  16.455  67.449  1.00  0.00    -0.283 OA 
BRANCH   8   9
HETATM    9  C   UNL     1     -10.050  17.771  67.232  1.00  0.00    -0.337 C  
HETATM   10  O   UNL     1     -10.712  18.523  66.535  1.00  0.00    -0.358 OA 
BRANCH   9  11
HETATM   11  C   UNL     1      -8.817  18.187  67.933  1.00  0.00    -0.273 A  
HETATM   12  C   UNL     1      -7.996  17.202  68.466  1.00  0.00    -0.259 A  
HETATM   13  N   UNL     1      -6.847  17.458  69.140  1.00  0.00    -0.240 NA 
HETATM   14  C   UNL     1      -6.505  18.756  69.286  1.00  0.00    -0.279 A  
HETATM   15  C   UNL     1      -7.258  19.811  68.792  1.00  0.00    -0.352 A  
HETATM   16  C   UNL     1      -8.434  19.519  68.104  1.00  0.00    -0.361 A  
ENDBRANCH   9  11
ENDBRANCH   8   9
ENDBRANCH   7   8
ENDBRANCH   6   7
ENDBRANCH   5   6
ENDBRANCH   4   5
ENDBRANCH   3   4
ENDBRANCH   2   3
TORSDOF 8
ENDMDL
MODEL      166
REMARK 921   NORMALIZED FREE ENERGY PREDICTED BY IDOCK:   -3.25 KCAL/MOL
REMARK 922        TOTAL FREE ENERGY PREDICTED BY IDOCK:   -5.19 KCAL/MOL
REMARK 923 INTER-LIGAND FREE ENERGY PREDICTED BY IDOCK:   -4.55 KCAL/MOL
REMARK 924 INTRA-LIGAND FREE ENERGY PREDICTED BY IDOCK:   -0.64 KCAL/MOL
REMARK 927      BINDING AFFINITY PREDICTED BY RF-SCORE:    0.00 PKD
ROOT
HETATM    1  C   UNL     1     -10.554   4.994  66.135  1.00  0.00    -0.321 C  
HETATM    2  C   UNL     1     -11.012   6.108  67.061  1.00  0.00    -0.414 C  
ENDROOT
BRANCH   2   3
HETATM    3  C   UNL     1     -10.289   6.063  68.404  1.00  0.00    -0.252 C  
BRANCH   3   4
HETATM    4  C   UNL     1     -11.168   6.615  69.519  1.00  0.00    -0.326 C  
BRANCH   4   5
HETATM    5  O   UNL     1     -10.535   7.763  70.082  1.00  0.00    -0.220 OA 
BRANCH   5   6
HETATM    6  C   UNL     1     -11.164   8.143  71.306  1.00  0.00    -0.260 C  
BRANCH   6   7
HETATM    7  C   UNL     1     -11.350   9.656  71.346  1.00  0.00    -0.374 C  
BRANCH   7   8
HETATM    8  O   UNL     1     -12.102  10.111  70.210  1.00  0.00    -0.258 OA 
BRANCH   8   9
HETATM    9  C   UNL     1     -11.774  11.347  69.755  1.00  0.00    -0.344 C  
HETATM   10  O   UNL     1     -12.135  12.409  70.233  1.00  0.00    -0.348 OA 
BRANCH   9  11
HETATM   11  C   UNL     1     -10.931  11.244  68.545  1.00  0.00    -0.266 A  
HETATM   12  C   UNL     1      -9.934  12.191  68.352  1.00  0.00    -0.206 A  
HETATM   13  N   UNL     1      -9.106  12.208  67.278  1.00  0.00    -0.175 NA 
HETATM   14  C   UNL     1      -9.283  11.236  66.357  1.00  0.00    -0.192 A  
HETATM   15  C   UNL     1     -10.250  10.247  66.459  1.00  0.00    -0.289 A  
HETATM   16  C   UNL     1     -11.088  10.253  67.573  1.00  0.00    -0.302 A  
ENDBRANCH   9  11
ENDBRANCH   8   9
ENDBRANCH   7   8
ENDBRANCH   6   7
ENDBRANCH   5   6
ENDBRANCH   4   5
ENDBRANCH   3   4
ENDBRANCH   2   3
TORSDOF 8
ENDMDL
MODEL      167
REMARK 921   NORMALIZED FREE ENERGY PREDICTED BY IDOCK:   -3.25 KCAL/MOL
REMARK 922        TOTAL FREE ENERGY PREDICTED BY IDOCK:   -5.19 KCAL/MOL
REMARK 923 INTER-LIGAND FREE ENERGY PREDICTED BY IDOCK:   -4.80 KCAL/MOL
REMARK 924 INTRA-LIGAND FREE ENERGY PREDICTED BY IDOCK:   -0.38 KCAL/MOL
REMARK 927      BINDING AFFINITY PREDICTED BY RF-SCORE:    0.00 PKD
ROOT
HETATM    1  C   UNL     1      -8.652  10.434  64.431  1.00  0.00    -0.185 C  
HETATM    2  C   UNL     1     -10.076  10.649  64.915  1.00  0.00    -0.402 C  
ENDROOT
BRANCH   2   3
HETATM    3  C   UNL     1     -10.227  10.323  66.398  1.00  0.00    -0.290 C  
BRANCH   3   4
HETATM    4  C   UNL     1     -10.486  11.584  67.213  1.00  0.00    -0.212 C  
BRANCH   4   5
HETATM    5  O   UNL     1     -11.642  12.240  66.694  1.00  0.00    -0.362 OA 
BRANCH   5   6
HETATM    6  C   UNL     1     -11.449  13.654  66.651  1.00  0.00    -0.343 C  
BRANCH   6   7
HETATM    7  C   UNL     1     -10.895  14.144  67.985  1.00  0.00    -0.246 C  
BRANCH   7   8
HETATM    8  O   UNL     1     -10.002  15.253  67.793  1.00  0.00    -0.223 OA 
BRANCH   8   9
HETATM    9  C   UNL     1     -10.560  16.480  67.947  1.00  0.00    -0.329 C  
HETATM   10  O   UNL     1     -11.632  16.721  68.477  1.00  0.00    -0.103 OA 
BRANCH   9  11
HETATM   11  C   UNL     1      -9.700  17.519  67.342  1.00  0.00    -0.274 A  
HETATM   12  C   UNL     1      -8.773  17.133  66.382  1.00  0.00    -0.256 A  
HETATM   13  N   UNL     1      -7.923  17.990  65.764  1.00  0.00    -0.529 NA 
HETATM   14  C   UNL     1      -8.004  19.290  66.122  1.00  0.00    -0.294 A  
HETATM   15  C   UNL     1      -8.893  19.773  67.069  1.00  0.00    -0.395 A  
HETATM   16  C   UNL     1      -9.756  18.871  67.689  1.00  0.00    -0.362 A  
ENDBRANCH   9  11
ENDBRANCH   8   9
ENDBRANCH   7   8
ENDBRANCH   6   7
ENDBRANCH   5   6
ENDBRANCH   4   5
ENDBRANCH   3   4
ENDBRANCH   2   3
TORSDOF 8
ENDMDL
MODEL      168
REMARK 921   NORMALIZED FREE ENERGY PREDICTED BY IDOCK:   -3.25 KCAL/MOL
REMARK 922        TOTAL FREE ENERGY PREDICTED BY IDOCK:   -5.19 KCAL/MOL
REMARK 923 INTER-LIGAND FREE ENERGY PREDICTED BY IDOCK:   -4.81 KCAL/MOL
REMARK 924 INTRA-LIGAND FREE ENERGY PREDICTED BY IDOCK:   -0.37 KCAL/MOL
REMARK 927      BINDING AFFINITY PREDICTED BY RF-SCORE:    0.00 PKD
ROOT
HETATM    1  C   UNL     1     -10.250   6.782  73.924  1.00  0.00    -0.396 C  
HETATM    2  C   UNL     1     -10.859   6.946  72.542  1.00  0.00    -0.277 C  
ENDROOT
BRANCH   2   3
HETATM    3  C   UNL     1     -11.450   8.339  72.344  1.00  0.00    -0.463 C  
BRANCH   3   4
HETATM    4  C   UNL     1     -10.470   9.253  71.621  1.00  0.00    -0.258 C  
BRANCH   4   5
HETATM    5  O   UNL     1      -9.832   8.515  70.580  1.00  0.00    -0.174 OA 
BRANCH   5   6
HETATM    6  C   UNL     1      -9.249   9.392  69.615  1.00  0.00    -0.185 C  
BRANCH   6   7
HETATM    7  C   UNL     1     -10.115   9.435  68.361  1.00  0.00    -0.185 C  
BRANCH   7   8
HETATM    8  O   UNL     1     -10.107  10.748  67.777  1.00  0.00    -0.168 OA 
BRANCH   8   9
HETATM    9  C   UNL     1     -11.194  11.512  68.052  1.00  0.00    -0.269 C  
HETATM   10  O   UNL     1     -12.186  11.156  68.666  1.00  0.00    -0.582 OA 
BRANCH   9  11
HETATM   11  C   UNL     1     -11.040  12.860  67.465  1.00  0.00    -0.302 A  
HETATM   12  C   UNL     1     -11.811  13.896  67.976  1.00  0.00    -0.375 A  
HETATM   13  N   UNL     1     -11.767  15.170  67.513  1.00  0.00    -0.277 NA 
HETATM   14  C   UNL     1     -10.914  15.419  66.497  1.00  0.00    -0.271 A  
HETATM   15  C   UNL     1     -10.103  14.454  65.919  1.00  0.00    -0.344 A  
HETATM   16  C   UNL     1     -10.168  13.152  66.413  1.00  0.00    -0.286 A  
ENDBRANCH   9  11
ENDBRANCH   8   9
ENDBRANCH   7   8
ENDBRANCH   6   7
ENDBRANCH   5   6
ENDBRANCH   4   5
ENDBRANCH   3   4
ENDBRANCH   2   3
TORSDOF 8
ENDMDL
MODEL      169
REMARK 921   NORMALIZED FREE ENERGY PREDICTED BY IDOCK:   -3.25 KCAL/MOL
REMARK 922        TOTAL FREE ENERGY PREDICTED BY IDOCK:   -5.18 KCAL/MOL
REMARK 923 INTER-LIGAND FREE ENERGY PREDICTED BY IDOCK:   -5.07 KCAL/MOL
REMARK 924 INTRA-LIGAND FREE ENERGY PREDICTED BY IDOCK:   -0.11 KCAL/MOL
REMARK 927      BINDING AFFINITY PREDICTED BY RF-SCORE:    0.00 PKD
ROOT
HETATM    1  C   UNL     1      -7.714   9.317  68.507  1.00  0.00    -0.085 C  
HETATM    2  C   UNL     1      -6.822   9.885  67.416  1.00  0.00    -0.082 C  
ENDROOT
BRANCH   2   3
HETATM    3  C   UNL     1      -7.062  11.378  67.206  1.00  0.00    -0.119 C  
BRANCH   3   4
HETATM    4  C   UNL     1      -8.433  11.632  66.593  1.00  0.00    -0.165 C  
BRANCH   4   5
HETATM    5  O   UNL     1      -9.228  12.363  67.525  1.00  0.00    -0.172 OA 
BRANCH   5   6
HETATM    6  C   UNL     1     -10.562  12.525  67.042  1.00  0.00    -0.232 C  
BRANCH   6   7
HETATM    7  C   UNL     1     -11.559  12.163  68.136  1.00  0.00    -0.337 C  
BRANCH   7   8
HETATM    8  O   UNL     1     -11.347  12.965  69.310  1.00  0.00    -0.261 OA 
BRANCH   8   9
HETATM    9  C   UNL     1     -11.923  14.193  69.284  1.00  0.00    -0.340 C  
HETATM   10  O   UNL     1     -12.117  14.877  68.293  1.00  0.00    -0.246 OA 
BRANCH   9  11
HETATM   11  C   UNL     1     -12.262  14.633  70.655  1.00  0.00    -0.394 A  
HETATM   12  C   UNL     1     -13.035  13.793  71.446  1.00  0.00    -0.355 A  
HETATM   13  N   UNL     1     -13.419  14.090  72.712  1.00  0.00    -0.663 NA 
HETATM   14  C   UNL     1     -13.013  15.279  73.209  1.00  0.00    -0.527 A  
HETATM   15  C   UNL     1     -12.241  16.185  72.498  1.00  0.00    -0.609 A  
HETATM   16  C   UNL     1     -11.859  15.855  71.199  1.00  0.00    -0.483 A  
ENDBRANCH   9  11
ENDBRANCH   8   9
ENDBRANCH   7   8
ENDBRANCH   6   7
ENDBRANCH   5   6
ENDBRANCH   4   5
ENDBRANCH   3   4
ENDBRANCH   2   3
TORSDOF 8
ENDMDL
MODEL      170
REMARK 921   NORMALIZED FREE ENERGY PREDICTED BY IDOCK:   -3.24 KCAL/MOL
REMARK 922        TOTAL FREE ENERGY PREDICTED BY IDOCK:   -5.16 KCAL/MOL
REMARK 923 INTER-LIGAND FREE ENERGY PREDICTED BY IDOCK:   -5.06 KCAL/MOL
REMARK 924 INTRA-LIGAND FREE ENERGY PREDICTED BY IDOCK:   -0.10 KCAL/MOL
REMARK 927      BINDING AFFINITY PREDICTED BY RF-SCORE:    0.00 PKD
ROOT
HETATM    1  C   UNL     1      -8.880  19.795  66.378  1.00  0.00    -0.428 C  
HETATM    2  C   UNL     1      -7.514  19.413  65.834  1.00  0.00    -0.297 C  
ENDROOT
BRANCH   2   3
HETATM    3  C   UNL     1      -7.221  17.928  66.030  1.00  0.00    -0.325 C  
BRANCH   3   4
HETATM    4  C   UNL     1      -7.186  17.567  67.509  1.00  0.00    -0.169 C  
BRANCH   4   5
HETATM    5  O   UNL     1      -7.716  16.253  67.677  1.00  0.00    -0.133 OA 
BRANCH   5   6
HETATM    6  C   UNL     1      -7.924  15.959  69.059  1.00  0.00    -0.222 C  
BRANCH   6   7
HETATM    7  C   UNL     1      -9.194  15.133  69.229  1.00  0.00    -0.205 C  
BRANCH   7   8
HETATM    8  O   UNL     1     -10.345  15.984  69.361  1.00  0.00    -0.234 OA 
BRANCH   8   9
HETATM    9  C   UNL     1     -11.542  15.344  69.362  1.00  0.00    -0.340 C  
HETATM   10  O   UNL     1     -12.404  15.433  70.220  1.00  0.00    -0.357 OA 
BRANCH   9  11
HETATM   11  C   UNL     1     -11.659  14.468  68.177  1.00  0.00    -0.359 A  
HETATM   12  C   UNL     1     -11.841  13.106  68.377  1.00  0.00    -0.351 A  
HETATM   13  N   UNL     1     -11.951  12.202  67.372  1.00  0.00    -0.570 NA 
HETATM   14  C   UNL     1     -11.876  12.682  66.111  1.00  0.00    -0.418 A  
HETATM   15  C   UNL     1     -11.695  14.023  65.809  1.00  0.00    -0.368 A  
HETATM   16  C   UNL     1     -11.585  14.931  66.860  1.00  0.00    -0.286 A  
ENDBRANCH   9  11
ENDBRANCH   8   9
ENDBRANCH   7   8
ENDBRANCH   6   7
ENDBRANCH   5   6
ENDBRANCH   4   5
ENDBRANCH   3   4
ENDBRANCH   2   3
TORSDOF 8
ENDMDL
MODEL      171
REMARK 921   NORMALIZED FREE ENERGY PREDICTED BY IDOCK:   -3.21 KCAL/MOL
REMARK 922        TOTAL FREE ENERGY PREDICTED BY IDOCK:   -5.12 KCAL/MOL
REMARK 923 INTER-LIGAND FREE ENERGY PREDICTED BY IDOCK:   -4.75 KCAL/MOL
REMARK 924 INTRA-LIGAND FREE ENERGY PREDICTED BY IDOCK:   -0.37 KCAL/MOL
REMARK 927      BINDING AFFINITY PREDICTED BY RF-SCORE:    0.00 PKD
ROOT
HETATM    1  C   UNL     1      -6.383  10.887  70.140  1.00  0.00    -0.149 C  
HETATM    2  C   UNL     1      -6.677   9.451  69.741  1.00  0.00    -0.053 C  
ENDROOT
BRANCH   2   3
HETATM    3  C   UNL     1      -8.172   9.206  69.562  1.00  0.00    -0.120 C  
BRANCH   3   4
HETATM    4  C   UNL     1      -8.912  10.509  69.285  1.00  0.00    -0.134 C  
BRANCH   4   5
HETATM    5  O   UNL     1      -9.291  10.542  67.910  1.00  0.00    -0.141 OA 
BRANCH   5   6
HETATM    6  C   UNL     1     -10.700  10.727  67.773  1.00  0.00    -0.251 C  
BRANCH   6   7
HETATM    7  C   UNL     1     -11.003  12.184  67.440  1.00  0.00    -0.260 C  
BRANCH   7   8
HETATM    8  O   UNL     1     -11.971  12.728  68.352  1.00  0.00    -0.319 OA 
BRANCH   8   9
HETATM    9  C   UNL     1     -11.688  13.968  68.826  1.00  0.00    -0.353 C  
HETATM   10  O   UNL     1     -10.983  14.802  68.282  1.00  0.00    -0.244 OA 
BRANCH   9  11
HETATM   11  C   UNL     1     -12.327  14.176  70.142  1.00  0.00    -0.413 A  
HETATM   12  C   UNL     1     -12.610  13.063  70.923  1.00  0.00    -0.280 A  
HETATM   13  N   UNL     1     -13.204  13.125  72.141  1.00  0.00    -0.464 NA 
HETATM   14  C   UNL     1     -13.528  14.354  72.598  1.00  0.00    -0.509 A  
HETATM   15  C   UNL     1     -13.287  15.524  71.894  1.00  0.00    -0.569 A  
HETATM   16  C   UNL     1     -12.676  15.432  70.645  1.00  0.00    -0.490 A  
ENDBRANCH   9  11
ENDBRANCH   8   9
ENDBRANCH   7   8
ENDBRANCH   6   7
ENDBRANCH   5   6
ENDBRANCH   4   5
ENDBRANCH   3   4
ENDBRANCH   2   3
TORSDOF 8
ENDMDL
MODEL      172
REMARK 921   NORMALIZED FREE ENERGY PREDICTED BY IDOCK:   -3.19 KCAL/MOL
REMARK 922        TOTAL FREE ENERGY PREDICTED BY IDOCK:   -5.10 KCAL/MOL
REMARK 923 INTER-LIGAND FREE ENERGY PREDICTED BY IDOCK:   -4.71 KCAL/MOL
REMARK 924 INTRA-LIGAND FREE ENERGY PREDICTED BY IDOCK:   -0.39 KCAL/MOL
REMARK 927      BINDING AFFINITY PREDICTED BY RF-SCORE:    0.00 PKD
ROOT
HETATM    1  C   UNL     1      -8.376  15.437  69.438  1.00  0.00    -0.250 C  
HETATM    2  C   UNL     1      -9.615  14.635  69.078  1.00  0.00    -0.145 C  
ENDROOT
BRANCH   2   3
HETATM    3  C   UNL     1     -10.858  15.161  69.790  1.00  0.00    -0.298 C  
BRANCH   3   4
HETATM    4  C   UNL     1     -12.033  15.278  68.826  1.00  0.00    -0.251 C  
BRANCH   4   5
HETATM    5  O   UNL     1     -12.148  14.062  68.088  1.00  0.00    -0.355 OA 
BRANCH   5   6
HETATM    6  C   UNL     1     -12.180  14.318  66.684  1.00  0.00    -0.381 C  
BRANCH   6   7
HETATM    7  C   UNL     1     -11.005  13.626  66.002  1.00  0.00    -0.286 C  
BRANCH   7   8
HETATM    8  O   UNL     1      -9.939  14.556  65.749  1.00  0.00    -0.309 OA 
BRANCH   8   9
HETATM    9  C   UNL     1     -10.329  15.833  65.508  1.00  0.00    -0.404 C  
HETATM   10  O   UNL     1     -11.233  16.181  64.767  1.00  0.00    -0.425 OA 
BRANCH   9  11
HETATM   11  C   UNL     1      -9.469  16.783  66.245  1.00  0.00    -0.314 A  
HETATM   12  C   UNL     1      -8.091  16.647  66.140  1.00  0.00    -0.238 A  
HETATM   13  N   UNL     1      -7.202  17.449  66.777  1.00  0.00    -0.197 NA 
HETATM   14  C   UNL     1      -7.713  18.430  67.551  1.00  0.00    -0.228 A  
HETATM   15  C   UNL     1      -9.072  18.647  67.720  1.00  0.00    -0.303 A  
HETATM   16  C   UNL     1      -9.965  17.809  67.055  1.00  0.00    -0.322 A  
ENDBRANCH   9  11
ENDBRANCH   8   9
ENDBRANCH   7   8
ENDBRANCH   6   7
ENDBRANCH   5   6
ENDBRANCH   4   5
ENDBRANCH   3   4
ENDBRANCH   2   3
TORSDOF 8
ENDMDL
MODEL      173
REMARK 921   NORMALIZED FREE ENERGY PREDICTED BY IDOCK:   -3.19 KCAL/MOL
REMARK 922        TOTAL FREE ENERGY PREDICTED BY IDOCK:   -5.10 KCAL/MOL
REMARK 923 INTER-LIGAND FREE ENERGY PREDICTED BY IDOCK:   -4.50 KCAL/MOL
REMARK 924 INTRA-LIGAND FREE ENERGY PREDICTED BY IDOCK:   -0.60 KCAL/MOL
REMARK 927      BINDING AFFINITY PREDICTED BY RF-SCORE:    0.00 PKD
ROOT
HETATM    1  C   UNL     1      -9.668   5.528  66.241  1.00  0.00    -0.172 C  
HETATM    2  C   UNL     1     -10.779   5.976  67.174  1.00  0.00    -0.409 C  
ENDROOT
BRANCH   2   3
HETATM    3  C   UNL     1     -10.365   5.872  68.640  1.00  0.00    -0.271 C  
BRANCH   3   4
HETATM    4  C   UNL     1      -8.893   5.505  68.768  1.00  0.00    -0.107 C  
BRANCH   4   5
HETATM    5  O   UNL     1      -8.248   6.464  69.605  1.00  0.00    -0.121 OA 
BRANCH   5   6
HETATM    6  C   UNL     1      -8.595   6.261  70.975  1.00  0.00    -0.132 C  
BRANCH   6   7
HETATM    7  C   UNL     1      -8.321   7.530  71.774  1.00  0.00    -0.107 C  
BRANCH   7   8
HETATM    8  O   UNL     1      -9.545   8.103  72.263  1.00  0.00    -0.200 OA 
BRANCH   8   9
HETATM    9  C   UNL     1     -10.203   8.901  71.386  1.00  0.00    -0.305 C  
HETATM   10  O   UNL     1      -9.691   9.678  70.597  1.00  0.00    -0.257 OA 
BRANCH   9  11
HETATM   11  C   UNL     1     -11.665   8.738  71.534  1.00  0.00    -0.377 A  
HETATM   12  C   UNL     1     -12.205   7.467  71.396  1.00  0.00    -0.342 A  
HETATM   13  N   UNL     1     -13.530   7.193  71.499  1.00  0.00    -0.372 NA 
HETATM   14  C   UNL     1     -14.349   8.237  71.753  1.00  0.00    -0.483 A  
HETATM   15  C   UNL     1     -13.906   9.542  71.906  1.00  0.00    -0.338 A  
HETATM   16  C   UNL     1     -12.540   9.795  71.796  1.00  0.00    -0.506 A  
ENDBRANCH   9  11
ENDBRANCH   8   9
ENDBRANCH   7   8
ENDBRANCH   6   7
ENDBRANCH   5   6
ENDBRANCH   4   5
ENDBRANCH   3   4
ENDBRANCH   2   3
TORSDOF 8
ENDMDL
MODEL      174
REMARK 921   NORMALIZED FREE ENERGY PREDICTED BY IDOCK:   -3.19 KCAL/MOL
REMARK 922        TOTAL FREE ENERGY PREDICTED BY IDOCK:   -5.09 KCAL/MOL
REMARK 923 INTER-LIGAND FREE ENERGY PREDICTED BY IDOCK:   -4.44 KCAL/MOL
REMARK 924 INTRA-LIGAND FREE ENERGY PREDICTED BY IDOCK:   -0.65 KCAL/MOL
REMARK 927      BINDING AFFINITY PREDICTED BY RF-SCORE:    0.00 PKD
ROOT
HETATM    1  C   UNL     1     -11.076   6.369  69.406  1.00  0.00    -0.450 C  
HETATM    2  C   UNL     1     -10.942   7.425  70.489  1.00  0.00    -0.270 C  
ENDROOT
BRANCH   2   3
HETATM    3  C   UNL     1     -12.179   7.483  71.381  1.00  0.00    -0.363 C  
BRANCH   3   4
HETATM    4  C   UNL     1     -12.380   8.883  71.948  1.00  0.00    -0.376 C  
BRANCH   4   5
HETATM    5  O   UNL     1     -12.862   9.737  70.912  1.00  0.00    -0.305 OA 
BRANCH   5   6
HETATM    6  C   UNL     1     -12.319  11.051  71.041  1.00  0.00    -0.385 C  
BRANCH   6   7
HETATM    7  C   UNL     1     -12.473  11.808  69.726  1.00  0.00     0.012 C  
BRANCH   7   8
HETATM    8  O   UNL     1     -12.151  10.965  68.608  1.00  0.00    -0.527 OA 
BRANCH   8   9
HETATM    9  C   UNL     1     -11.488  11.575  67.594  1.00  0.00    -0.285 C  
HETATM   10  O   UNL     1     -11.972  12.335  66.772  1.00  0.00    -0.586 OA 
BRANCH   9  11
HETATM   11  C   UNL     1     -10.068  11.162  67.583  1.00  0.00    -0.203 A  
HETATM   12  C   UNL     1      -9.167  11.912  66.838  1.00  0.00    -0.193 A  
HETATM   13  N   UNL     1      -7.845  11.626  66.741  1.00  0.00    -0.154 NA 
HETATM   14  C   UNL     1      -7.405  10.545  67.420  1.00  0.00    -0.093 A  
HETATM   15  C   UNL     1      -8.224   9.734  68.190  1.00  0.00    -0.109 A  
HETATM   16  C   UNL     1      -9.579  10.049  68.272  1.00  0.00    -0.151 A  
ENDBRANCH   9  11
ENDBRANCH   8   9
ENDBRANCH   7   8
ENDBRANCH   6   7
ENDBRANCH   5   6
ENDBRANCH   4   5
ENDBRANCH   3   4
ENDBRANCH   2   3
TORSDOF 8
ENDMDL
MODEL      175
REMARK 921   NORMALIZED FREE ENERGY PREDICTED BY IDOCK:   -3.19 KCAL/MOL
REMARK 922        TOTAL FREE ENERGY PREDICTED BY IDOCK:   -5.09 KCAL/MOL
REMARK 923 INTER-LIGAND FREE ENERGY PREDICTED BY IDOCK:   -4.80 KCAL/MOL
REMARK 924 INTRA-LIGAND FREE ENERGY PREDICTED BY IDOCK:   -0.29 KCAL/MOL
REMARK 927      BINDING AFFINITY PREDICTED BY RF-SCORE:    0.00 PKD
ROOT
HETATM    1  C   UNL     1     -11.857  15.823  71.707  1.00  0.00    -0.549 C  
HETATM    2  C   UNL     1     -12.042  14.347  71.397  1.00  0.00    -0.397 C  
ENDROOT
BRANCH   2   3
HETATM    3  C   UNL     1     -12.379  14.115  69.927  1.00  0.00    -0.382 C  
BRANCH   3   4
HETATM    4  C   UNL     1     -12.143  15.375  69.104  1.00  0.00    -0.242 C  
BRANCH   4   5
HETATM    5  O   UNL     1     -11.144  15.106  68.122  1.00  0.00    -0.278 OA 
BRANCH   5   6
HETATM    6  C   UNL     1     -11.737  14.823  66.855  1.00  0.00    -0.302 C  
BRANCH   6   7
HETATM    7  C   UNL     1     -10.685  14.268  65.900  1.00  0.00    -0.303 C  
BRANCH   7   8
HETATM    8  O   UNL     1     -10.068  13.091  66.446  1.00  0.00    -0.265 OA 
BRANCH   8   9
HETATM    9  C   UNL     1     -10.912  12.061  66.705  1.00  0.00    -0.285 C  
HETATM   10  O   UNL     1     -11.988  11.859  66.167  1.00  0.00    -0.537 OA 
BRANCH   9  11
HETATM   11  C   UNL     1     -10.369  11.207  67.783  1.00  0.00    -0.215 A  
HETATM   12  C   UNL     1      -9.077  11.449  68.231  1.00  0.00    -0.179 A  
HETATM   13  N   UNL     1      -8.467  10.728  69.204  1.00  0.00    -0.134 NA 
HETATM   14  C   UNL     1      -9.180   9.721  69.753  1.00  0.00    -0.226 A  
HETATM   15  C   UNL     1     -10.475   9.400  69.374  1.00  0.00    -0.231 A  
HETATM   16  C   UNL     1     -11.079  10.157  68.372  1.00  0.00    -0.273 A  
ENDBRANCH   9  11
ENDBRANCH   8   9
ENDBRANCH   7   8
ENDBRANCH   6   7
ENDBRANCH   5   6
ENDBRANCH   4   5
ENDBRANCH   3   4
ENDBRANCH   2   3
TORSDOF 8
ENDMDL
MODEL      176
REMARK 921   NORMALIZED FREE ENERGY PREDICTED BY IDOCK:   -3.18 KCAL/MOL
REMARK 922        TOTAL FREE ENERGY PREDICTED BY IDOCK:   -5.08 KCAL/MOL
REMARK 923 INTER-LIGAND FREE ENERGY PREDICTED BY IDOCK:   -5.17 KCAL/MOL
REMARK 924 INTRA-LIGAND FREE ENERGY PREDICTED BY IDOCK:    0.09 KCAL/MOL
REMARK 927      BINDING AFFINITY PREDICTED BY RF-SCORE:    0.00 PKD
ROOT
HETATM    1  C   UNL     1     -12.771  11.859  63.458  1.00  0.00    -0.530 C  
HETATM    2  C   UNL     1     -11.663  12.751  63.990  1.00  0.00    -0.494 C  
ENDROOT
BRANCH   2   3
HETATM    3  C   UNL     1     -11.191  12.307  65.372  1.00  0.00    -0.372 C  
BRANCH   3   4
HETATM    4  C   UNL     1     -12.011  12.972  66.470  1.00  0.00    -0.391 C  
BRANCH   4   5
HETATM    5  O   UNL     1     -11.495  12.570  67.739  1.00  0.00    -0.279 OA 
BRANCH   5   6
HETATM    6  C   UNL     1     -11.238  13.704  68.567  1.00  0.00    -0.280 C  
BRANCH   6   7
HETATM    7  C   UNL     1     -11.890  14.945  67.967  1.00  0.00    -0.268 C  
BRANCH   7   8
HETATM    8  O   UNL     1     -11.722  16.081  68.831  1.00  0.00    -0.381 OA 
BRANCH   8   9
HETATM    9  C   UNL     1     -10.693  15.992  69.712  1.00  0.00    -0.331 C  
HETATM   10  O   UNL     1     -10.721  15.435  70.796  1.00  0.00    -0.306 OA 
BRANCH   9  11
HETATM   11  C   UNL     1      -9.508  16.710  69.196  1.00  0.00    -0.188 A  
HETATM   12  C   UNL     1      -9.674  18.005  68.722  1.00  0.00    -0.328 A  
HETATM   13  N   UNL     1      -8.668  18.759  68.215  1.00  0.00    -0.322 NA 
HETATM   14  C   UNL     1      -7.441  18.194  68.182  1.00  0.00    -0.258 A  
HETATM   15  C   UNL     1      -7.174  16.909  68.630  1.00  0.00    -0.215 A  
HETATM   16  C   UNL     1      -8.227  16.156  69.146  1.00  0.00    -0.230 A  
ENDBRANCH   9  11
ENDBRANCH   8   9
ENDBRANCH   7   8
ENDBRANCH   6   7
ENDBRANCH   5   6
ENDBRANCH   4   5
ENDBRANCH   3   4
ENDBRANCH   2   3
TORSDOF 8
ENDMDL
MODEL      177
REMARK 921   NORMALIZED FREE ENERGY PREDICTED BY IDOCK:   -3.18 KCAL/MOL
REMARK 922        TOTAL FREE ENERGY PREDICTED BY IDOCK:   -5.08 KCAL/MOL
REMARK 923 INTER-LIGAND FREE ENERGY PREDICTED BY IDOCK:   -4.69 KCAL/MOL
REMARK 924 INTRA-LIGAND FREE ENERGY PREDICTED BY IDOCK:   -0.39 KCAL/MOL
REMARK 927      BINDING AFFINITY PREDICTED BY RF-SCORE:    0.00 PKD
ROOT
HETATM    1  C   UNL     1      -7.151  10.430  65.955  1.00  0.00    -0.133 C  
HETATM    2  C   UNL     1      -6.503  10.454  67.329  1.00  0.00    -0.067 C  
ENDROOT
BRANCH   2   3
HETATM    3  C   UNL     1      -6.552  11.845  67.955  1.00  0.00    -0.063 C  
BRANCH   3   4
HETATM    4  C   UNL     1      -7.984  12.246  68.287  1.00  0.00    -0.163 C  
BRANCH   4   5
HETATM    5  O   UNL     1      -8.430  13.202  67.326  1.00  0.00    -0.189 OA 
BRANCH   5   6
HETATM    6  C   UNL     1      -9.628  13.843  67.764  1.00  0.00    -0.222 C  
BRANCH   6   7
HETATM    7  C   UNL     1     -10.840  13.009  67.365  1.00  0.00    -0.251 C  
BRANCH   7   8
HETATM    8  O   UNL     1     -11.940  13.242  68.260  1.00  0.00    -0.342 OA 
BRANCH   8   9
HETATM    9  C   UNL     1     -11.826  12.662  69.482  1.00  0.00    -0.312 C  
HETATM   10  O   UNL     1     -11.346  11.565  69.715  1.00  0.00    -0.266 OA 
BRANCH   9  11
HETATM   11  C   UNL     1     -12.410  13.533  70.524  1.00  0.00    -0.412 A  
HETATM   12  C   UNL     1     -12.503  14.895  70.270  1.00  0.00    -0.336 A  
HETATM   13  N   UNL     1     -13.008  15.795  71.151  1.00  0.00    -0.480 NA 
HETATM   14  C   UNL     1     -13.440  15.311  72.335  1.00  0.00    -0.463 A  
HETATM   15  C   UNL     1     -13.389  13.969  72.682  1.00  0.00    -0.643 A  
HETATM   16  C   UNL     1     -12.865  13.066  71.759  1.00  0.00    -0.351 A  
ENDBRANCH   9  11
ENDBRANCH   8   9
ENDBRANCH   7   8
ENDBRANCH   6   7
ENDBRANCH   5   6
ENDBRANCH   4   5
ENDBRANCH   3   4
ENDBRANCH   2   3
TORSDOF 8
ENDMDL
MODEL      178
REMARK 921   NORMALIZED FREE ENERGY PREDICTED BY IDOCK:   -3.18 KCAL/MOL
REMARK 922        TOTAL FREE ENERGY PREDICTED BY IDOCK:   -5.07 KCAL/MOL
REMARK 923 INTER-LIGAND FREE ENERGY PREDICTED BY IDOCK:   -4.67 KCAL/MOL
REMARK 924 INTRA-LIGAND FREE ENERGY PREDICTED BY IDOCK:   -0.40 KCAL/MOL
REMARK 927      BINDING AFFINITY PREDICTED BY RF-SCORE:    0.00 PKD
ROOT
HETATM    1  C   UNL     1      -6.298   9.119  70.249  1.00  0.00    -0.047 C  
HETATM    2  C   UNL     1      -7.754   8.702  70.373  1.00  0.00    -0.081 C  
ENDROOT
BRANCH   2   3
HETATM    3  C   UNL     1      -8.099   8.259  71.792  1.00  0.00    -0.179 C  
BRANCH   3   4
HETATM    4  C   UNL     1      -8.397   6.766  71.843  1.00  0.00    -0.109 C  
BRANCH   4   5
HETATM    5  O   UNL     1      -9.779   6.582  72.150  1.00  0.00    -0.153 OA 
BRANCH   5   6
HETATM    6  C   UNL     1     -10.258   7.629  72.994  1.00  0.00    -0.320 C  
BRANCH   6   7
HETATM    7  C   UNL     1     -11.614   8.117  72.497  1.00  0.00    -0.404 C  
BRANCH   7   8
HETATM    8  O   UNL     1     -11.465   9.263  71.643  1.00  0.00    -0.355 OA 
BRANCH   8   9
HETATM    9  C   UNL     1     -12.539  10.091  71.591  1.00  0.00    -0.427 C  
HETATM   10  O   UNL     1     -13.602   9.927  72.167  1.00  0.00    -0.409 OA 
BRANCH   9  11
HETATM   11  C   UNL     1     -12.269  11.232  70.691  1.00  0.00    -0.489 A  
HETATM   12  C   UNL     1     -12.590  12.510  71.128  1.00  0.00    -0.253 A  
HETATM   13  N   UNL     1     -12.400  13.631  70.390  1.00  0.00    -0.351 NA 
HETATM   14  C   UNL     1     -11.865  13.467  69.161  1.00  0.00    -0.340 A  
HETATM   15  C   UNL     1     -11.512  12.234  68.634  1.00  0.00    -0.355 A  
HETATM   16  C   UNL     1     -11.718  11.097  69.414  1.00  0.00    -0.402 A  
ENDBRANCH   9  11
ENDBRANCH   8   9
ENDBRANCH   7   8
ENDBRANCH   6   7
ENDBRANCH   5   6
ENDBRANCH   4   5
ENDBRANCH   3   4
ENDBRANCH   2   3
TORSDOF 8
ENDMDL
MODEL      179
REMARK 921   NORMALIZED FREE ENERGY PREDICTED BY IDOCK:   -3.17 KCAL/MOL
REMARK 922        TOTAL FREE ENERGY PREDICTED BY IDOCK:   -5.07 KCAL/MOL
REMARK 923 INTER-LIGAND FREE ENERGY PREDICTED BY IDOCK:   -4.74 KCAL/MOL
REMARK 924 INTRA-LIGAND FREE ENERGY PREDICTED BY IDOCK:   -0.34 KCAL/MOL
REMARK 927      BINDING AFFINITY PREDICTED BY RF-SCORE:    0.00 PKD
ROOT
HETATM    1  C   UNL     1      -9.158  19.725  66.491  1.00  0.00    -0.450 C  
HETATM    2  C   UNL     1      -7.827  19.028  66.267  1.00  0.00    -0.303 C  
ENDROOT
BRANCH   2   3
HETATM    3  C   UNL     1      -7.955  17.511  66.383  1.00  0.00    -0.320 C  
BRANCH   3   4
HETATM    4  C   UNL     1      -7.950  17.071  67.842  1.00  0.00    -0.189 C  
BRANCH   4   5
HETATM    5  O   UNL     1      -8.870  15.993  68.002  1.00  0.00    -0.174 OA 
BRANCH   5   6
HETATM    6  C   UNL     1      -9.626  15.785  66.808  1.00  0.00    -0.236 C  
BRANCH   6   7
HETATM    7  C   UNL     1     -10.789  14.839  67.087  1.00  0.00    -0.311 C  
BRANCH   7   8
HETATM    8  O   UNL     1     -10.322  13.492  67.269  1.00  0.00    -0.240 OA 
BRANCH   8   9
HETATM    9  C   UNL     1     -11.287  12.538  67.263  1.00  0.00    -0.315 C  
HETATM   10  O   UNL     1     -12.243  12.487  66.507  1.00  0.00    -0.569 OA 
BRANCH   9  11
HETATM   11  C   UNL     1     -11.053  11.559  68.346  1.00  0.00    -0.288 A  
HETATM   12  C   UNL     1     -12.070  11.332  69.263  1.00  0.00    -0.303 A  
HETATM   13  N   UNL     1     -11.969  10.468  70.304  1.00  0.00    -0.301 NA 
HETATM   14  C   UNL     1     -10.801   9.803  70.432  1.00  0.00    -0.311 A  
HETATM   15  C   UNL     1      -9.727   9.961  69.570  1.00  0.00    -0.238 A  
HETATM   16  C   UNL     1      -9.857  10.855  68.508  1.00  0.00    -0.188 A  
ENDBRANCH   9  11
ENDBRANCH   8   9
ENDBRANCH   7   8
ENDBRANCH   6   7
ENDBRANCH   5   6
ENDBRANCH   4   5
ENDBRANCH   3   4
ENDBRANCH   2   3
TORSDOF 8
ENDMDL
MODEL      180
REMARK 921   NORMALIZED FREE ENERGY PREDICTED BY IDOCK:   -3.17 KCAL/MOL
REMARK 922        TOTAL FREE ENERGY PREDICTED BY IDOCK:   -5.06 KCAL/MOL
REMARK 923 INTER-LIGAND FREE ENERGY PREDICTED BY IDOCK:   -4.54 KCAL/MOL
REMARK 924 INTRA-LIGAND FREE ENERGY PREDICTED BY IDOCK:   -0.52 KCAL/MOL
REMARK 927      BINDING AFFINITY PREDICTED BY RF-SCORE:    0.00 PKD
ROOT
HETATM    1  C   UNL     1      -8.805   7.033  65.960  1.00  0.00    -0.155 C  
HETATM    2  C   UNL     1      -8.216   8.430  65.863  1.00  0.00    -0.123 C  
ENDROOT
BRANCH   2   3
HETATM    3  C   UNL     1      -8.892   9.257  64.773  1.00  0.00    -0.225 C  
BRANCH   3   4
HETATM    4  C   UNL     1      -9.988  10.139  65.356  1.00  0.00    -0.307 C  
BRANCH   4   5
HETATM    5  O   UNL     1      -9.582  11.504  65.263  1.00  0.00    -0.230 OA 
BRANCH   5   6
HETATM    6  C   UNL     1     -10.073  12.259  66.371  1.00  0.00    -0.226 C  
BRANCH   6   7
HETATM    7  C   UNL     1     -11.020  11.403  67.205  1.00  0.00    -0.285 C  
BRANCH   7   8
HETATM    8  O   UNL     1     -10.703  11.502  68.603  1.00  0.00    -0.190 OA 
BRANCH   8   9
HETATM    9  C   UNL     1     -10.435  10.323  69.220  1.00  0.00    -0.228 C  
HETATM   10  O   UNL     1      -9.538   9.549  68.933  1.00  0.00    -0.151 OA 
BRANCH   9  11
HETATM   11  C   UNL     1     -11.419  10.067  70.294  1.00  0.00    -0.372 A  
HETATM   12  C   UNL     1     -11.498   8.787  70.826  1.00  0.00    -0.270 A  
HETATM   13  N   UNL     1     -12.366   8.427  71.804  1.00  0.00    -0.313 NA 
HETATM   14  C   UNL     1     -13.190   9.390  72.270  1.00  0.00    -0.446 A  
HETATM   15  C   UNL     1     -13.188  10.696  71.804  1.00  0.00    -0.526 A  
HETATM   16  C   UNL     1     -12.286  11.039  70.798  1.00  0.00    -0.496 A  
ENDBRANCH   9  11
ENDBRANCH   8   9
ENDBRANCH   7   8
ENDBRANCH   6   7
ENDBRANCH   5   6
ENDBRANCH   4   5
ENDBRANCH   3   4
ENDBRANCH   2   3
TORSDOF 8
ENDMDL
MODEL      181
REMARK 921   NORMALIZED FREE ENERGY PREDICTED BY IDOCK:   -3.15 KCAL/MOL
REMARK 922        TOTAL FREE ENERGY PREDICTED BY IDOCK:   -5.04 KCAL/MOL
REMARK 923 INTER-LIGAND FREE ENERGY PREDICTED BY IDOCK:   -4.62 KCAL/MOL
REMARK 924 INTRA-LIGAND FREE ENERGY PREDICTED BY IDOCK:   -0.42 KCAL/MOL
REMARK 927      BINDING AFFINITY PREDICTED BY RF-SCORE:    0.00 PKD
ROOT
HETATM    1  C   UNL     1      -6.894   6.447  67.839  1.00  0.00    -0.074 C  
HETATM    2  C   UNL     1      -6.979   7.324  69.076  1.00  0.00    -0.077 C  
ENDROOT
BRANCH   2   3
HETATM    3  C   UNL     1      -8.415   7.742  69.378  1.00  0.00    -0.134 C  
BRANCH   3   4
HETATM    4  C   UNL     1      -8.459   8.802  70.471  1.00  0.00    -0.166 C  
BRANCH   4   5
HETATM    5  O   UNL     1      -9.609   9.623  70.273  1.00  0.00    -0.241 OA 
BRANCH   5   6
HETATM    6  C   UNL     1     -10.440   9.096  69.238  1.00  0.00    -0.221 C  
BRANCH   6   7
HETATM    7  C   UNL     1     -11.088  10.236  68.461  1.00  0.00    -0.242 C  
BRANCH   7   8
HETATM    8  O   UNL     1     -10.091  11.099  67.890  1.00  0.00    -0.170 OA 
BRANCH   8   9
HETATM    9  C   UNL     1     -10.532  12.328  67.519  1.00  0.00    -0.213 C  
HETATM   10  O   UNL     1     -10.516  13.335  68.207  1.00  0.00    -0.237 OA 
BRANCH   9  11
HETATM   11  C   UNL     1     -11.088  12.286  66.150  1.00  0.00    -0.349 A  
HETATM   12  C   UNL     1     -12.340  12.842  65.928  1.00  0.00    -0.313 A  
HETATM   13  N   UNL     1     -12.959  12.854  64.721  1.00  0.00    -0.788 NA 
HETATM   14  C   UNL     1     -12.295  12.286  63.691  1.00  0.00    -0.562 A  
HETATM   15  C   UNL     1     -11.041  11.704  63.812  1.00  0.00    -0.499 A  
HETATM   16  C   UNL     1     -10.428  11.705  65.063  1.00  0.00    -0.336 A  
ENDBRANCH   9  11
ENDBRANCH   8   9
ENDBRANCH   7   8
ENDBRANCH   6   7
ENDBRANCH   5   6
ENDBRANCH   4   5
ENDBRANCH   3   4
ENDBRANCH   2   3
TORSDOF 8
ENDMDL
MODEL      182
REMARK 921   NORMALIZED FREE ENERGY PREDICTED BY IDOCK:   -3.15 KCAL/MOL
REMARK 922        TOTAL FREE ENERGY PREDICTED BY IDOCK:   -5.03 KCAL/MOL
REMARK 923 INTER-LIGAND FREE ENERGY PREDICTED BY IDOCK:   -4.65 KCAL/MOL
REMARK 924 INTRA-LIGAND FREE ENERGY PREDICTED BY IDOCK:   -0.38 KCAL/MOL
REMARK 927      BINDING AFFINITY PREDICTED BY RF-SCORE:    0.00 PKD
ROOT
HETATM    1  C   UNL     1     -13.181  12.035  71.919  1.00  0.00    -0.469 C  
HETATM    2  C   UNL     1     -12.921  10.691  71.259  1.00  0.00    -0.513 C  
ENDROOT
BRANCH   2   3
HETATM    3  C   UNL     1     -11.675  10.723  70.378  1.00  0.00    -0.445 C  
BRANCH   3   4
HETATM    4  C   UNL     1     -11.742  11.868  69.376  1.00  0.00    -0.339 C  
BRANCH   4   5
HETATM    5  O   UNL     1     -12.038  11.336  68.085  1.00  0.00    -0.635 OA 
BRANCH   5   6
HETATM    6  C   UNL     1     -11.902  12.338  67.077  1.00  0.00    -0.259 C  
BRANCH   6   7
HETATM    7  C   UNL     1     -10.972  11.844  65.975  1.00  0.00    -0.309 C  
BRANCH   7   8
HETATM    8  O   UNL     1      -9.874  11.098  66.526  1.00  0.00    -0.199 OA 
BRANCH   8   9
HETATM    9  C   UNL     1      -9.669   9.875  65.974  1.00  0.00    -0.247 C  
HETATM   10  O   UNL     1     -10.241   8.843  66.280  1.00  0.00    -0.284 OA 
BRANCH   9  11
HETATM   11  C   UNL     1      -8.604   9.943  64.951  1.00  0.00    -0.183 A  
HETATM   12  C   UNL     1      -7.319  10.280  65.356  1.00  0.00    -0.144 A  
HETATM   13  N   UNL     1      -6.263  10.386  64.511  1.00  0.00    -0.109 NA 
HETATM   14  C   UNL     1      -6.503  10.142  63.204  1.00  0.00    -0.138 A  
HETATM   15  C   UNL     1      -7.750   9.800  62.702  1.00  0.00    -0.125 A  
HETATM   16  C   UNL     1      -8.817   9.699  63.592  1.00  0.00    -0.256 A  
ENDBRANCH   9  11
ENDBRANCH   8   9
ENDBRANCH   7   8
ENDBRANCH   6   7
ENDBRANCH   5   6
ENDBRANCH   4   5
ENDBRANCH   3   4
ENDBRANCH   2   3
TORSDOF 8
ENDMDL
MODEL      183
REMARK 921   NORMALIZED FREE ENERGY PREDICTED BY IDOCK:   -3.14 KCAL/MOL
REMARK 922        TOTAL FREE ENERGY PREDICTED BY IDOCK:   -5.02 KCAL/MOL
REMARK 923 INTER-LIGAND FREE ENERGY PREDICTED BY IDOCK:   -4.78 KCAL/MOL
REMARK 924 INTRA-LIGAND FREE ENERGY PREDICTED BY IDOCK:   -0.24 KCAL/MOL
REMARK 927      BINDING AFFINITY PREDICTED BY RF-SCORE:    0.00 PKD
ROOT
HETATM    1  C   UNL     1     -14.095  14.099  72.065  1.00  0.00    -0.619 C  
HETATM    2  C   UNL     1     -13.624  12.663  72.213  1.00  0.00    -0.508 C  
ENDROOT
BRANCH   2   3
HETATM    3  C   UNL     1     -12.541  12.313  71.195  1.00  0.00    -0.353 C  
BRANCH   3   4
HETATM    4  C   UNL     1     -12.738  10.906  70.646  1.00  0.00    -0.309 C  
BRANCH   4   5
HETATM    5  O   UNL     1     -12.244   9.965  71.598  1.00  0.00    -0.382 OA 
BRANCH   5   6
HETATM    6  C   UNL     1     -10.918   9.553  71.266  1.00  0.00    -0.370 C  
BRANCH   6   7
HETATM    7  C   UNL     1     -10.963   8.478  70.185  1.00  0.00    -0.216 C  
BRANCH   7   8
HETATM    8  O   UNL     1     -10.622   9.028  68.902  1.00  0.00    -0.222 OA 
BRANCH   8   9
HETATM    9  C   UNL     1     -10.017   8.167  68.045  1.00  0.00    -0.184 C  
HETATM   10  O   UNL     1      -9.730   7.005  68.276  1.00  0.00    -0.133 OA 
BRANCH   9  11
HETATM   11  C   UNL     1      -9.701   8.845  66.770  1.00  0.00    -0.282 A  
HETATM   12  C   UNL     1      -8.804   8.236  65.902  1.00  0.00    -0.160 A  
HETATM   13  N   UNL     1      -8.427   8.764  64.711  1.00  0.00    -0.171 NA 
HETATM   14  C   UNL     1      -8.972   9.953  64.373  1.00  0.00    -0.239 A  
HETATM   15  C   UNL     1      -9.875  10.640  65.171  1.00  0.00    -0.344 A  
HETATM   16  C   UNL     1     -10.245  10.074  66.390  1.00  0.00    -0.290 A  
ENDBRANCH   9  11
ENDBRANCH   8   9
ENDBRANCH   7   8
ENDBRANCH   6   7
ENDBRANCH   5   6
ENDBRANCH   4   5
ENDBRANCH   3   4
ENDBRANCH   2   3
TORSDOF 8
ENDMDL
MODEL      184
REMARK 921   NORMALIZED FREE ENERGY PREDICTED BY IDOCK:   -3.14 KCAL/MOL
REMARK 922        TOTAL FREE ENERGY PREDICTED BY IDOCK:   -5.02 KCAL/MOL
REMARK 923 INTER-LIGAND FREE ENERGY PREDICTED BY IDOCK:   -4.22 KCAL/MOL
REMARK 924 INTRA-LIGAND FREE ENERGY PREDICTED BY IDOCK:   -0.80 KCAL/MOL
REMARK 927      BINDING AFFINITY PREDICTED BY RF-SCORE:    0.00 PKD
ROOT
HETATM    1  C   UNL     1     -10.115  10.921  63.437  1.00  0.00    -0.398 C  
HETATM    2  C   UNL     1      -8.884  10.652  64.285  1.00  0.00    -0.175 C  
ENDROOT
BRANCH   2   3
HETATM    3  C   UNL     1      -8.685   9.161  64.541  1.00  0.00    -0.192 C  
BRANCH   3   4
HETATM    4  C   UNL     1      -8.993   8.808  65.990  1.00  0.00    -0.192 C  
BRANCH   4   5
HETATM    5  O   UNL     1      -9.404   9.989  66.676  1.00  0.00    -0.158 OA 
BRANCH   5   6
HETATM    6  C   UNL     1      -8.962   9.970  68.034  1.00  0.00    -0.128 C  
BRANCH   6   7
HETATM    7  C   UNL     1      -8.546  11.372  68.464  1.00  0.00    -0.150 C  
BRANCH   7   8
HETATM    8  O   UNL     1      -8.711  12.310  67.388  1.00  0.00    -0.164 OA 
BRANCH   8   9
HETATM    9  C   UNL     1      -9.439  13.415  67.688  1.00  0.00    -0.216 C  
HETATM   10  O   UNL     1      -9.337  14.090  68.698  1.00  0.00    -0.196 OA 
BRANCH   9  11
HETATM   11  C   UNL     1     -10.429  13.686  66.624  1.00  0.00    -0.272 A  
HETATM   12  C   UNL     1      -9.985  14.249  65.435  1.00  0.00    -0.303 A  
HETATM   13  N   UNL     1     -10.798  14.554  64.393  1.00  0.00    -0.195 NA 
HETATM   14  C   UNL     1     -12.112  14.282  64.546  1.00  0.00    -0.480 A  
HETATM   15  C   UNL     1     -12.652  13.721  65.694  1.00  0.00    -0.551 A  
HETATM   16  C   UNL     1     -11.795  13.418  66.750  1.00  0.00    -0.452 A  
ENDBRANCH   9  11
ENDBRANCH   8   9
ENDBRANCH   7   8
ENDBRANCH   6   7
ENDBRANCH   5   6
ENDBRANCH   4   5
ENDBRANCH   3   4
ENDBRANCH   2   3
TORSDOF 8
ENDMDL
MODEL      185
REMARK 921   NORMALIZED FREE ENERGY PREDICTED BY IDOCK:   -3.13 KCAL/MOL
REMARK 922        TOTAL FREE ENERGY PREDICTED BY IDOCK:   -5.01 KCAL/MOL
REMARK 923 INTER-LIGAND FREE ENERGY PREDICTED BY IDOCK:   -4.70 KCAL/MOL
REMARK 924 INTRA-LIGAND FREE ENERGY PREDICTED BY IDOCK:   -0.31 KCAL/MOL
REMARK 927      BINDING AFFINITY PREDICTED BY RF-SCORE:    0.00 PKD
ROOT
HETATM    1  C   UNL     1      -8.991  19.633  66.313  1.00  0.00    -0.420 C  
HETATM    2  C   UNL     1      -7.563  19.916  65.879  1.00  0.00    -0.334 C  
ENDROOT
BRANCH   2   3
HETATM    3  C   UNL     1      -6.776  18.630  65.641  1.00  0.00    -0.309 C  
BRANCH   3   4
HETATM    4  C   UNL     1      -6.733  17.773  66.899  1.00  0.00    -0.179 C  
BRANCH   4   5
HETATM    5  O   UNL     1      -7.267  16.485  66.600  1.00  0.00    -0.222 OA 
BRANCH   5   6
HETATM    6  C   UNL     1      -7.079  15.588  67.694  1.00  0.00    -0.174 C  
BRANCH   6   7
HETATM    7  C   UNL     1      -7.622  14.209  67.336  1.00  0.00    -0.158 C  
BRANCH   7   8
HETATM    8  O   UNL     1      -9.032  14.267  67.067  1.00  0.00    -0.216 OA 
BRANCH   8   9
HETATM    9  C   UNL     1      -9.657  13.065  66.985  1.00  0.00    -0.236 C  
HETATM   10  O   UNL     1      -9.547  12.142  67.775  1.00  0.00    -0.184 OA 
BRANCH   9  11
HETATM   11  C   UNL     1     -10.483  12.995  65.761  1.00  0.00    -0.292 A  
HETATM   12  C   UNL     1     -10.542  11.791  65.071  1.00  0.00    -0.288 A  
HETATM   13  N   UNL     1     -11.255  11.607  63.932  1.00  0.00    -0.396 NA 
HETATM   14  C   UNL     1     -11.940  12.673  63.464  1.00  0.00    -0.548 A  
HETATM   15  C   UNL     1     -11.944  13.915  64.080  1.00  0.00    -0.425 A  
HETATM   16  C   UNL     1     -11.203  14.078  65.249  1.00  0.00    -0.319 A  
ENDBRANCH   9  11
ENDBRANCH   8   9
ENDBRANCH   7   8
ENDBRANCH   6   7
ENDBRANCH   5   6
ENDBRANCH   4   5
ENDBRANCH   3   4
ENDBRANCH   2   3
TORSDOF 8
ENDMDL
MODEL      186
REMARK 921   NORMALIZED FREE ENERGY PREDICTED BY IDOCK:   -3.13 KCAL/MOL
REMARK 922        TOTAL FREE ENERGY PREDICTED BY IDOCK:   -5.01 KCAL/MOL
REMARK 923 INTER-LIGAND FREE ENERGY PREDICTED BY IDOCK:   -4.38 KCAL/MOL
REMARK 924 INTRA-LIGAND FREE ENERGY PREDICTED BY IDOCK:   -0.63 KCAL/MOL
REMARK 927      BINDING AFFINITY PREDICTED BY RF-SCORE:    0.00 PKD
ROOT
HETATM    1  C   UNL     1     -10.251   4.571  66.120  1.00  0.00    -0.283 C  
HETATM    2  C   UNL     1     -10.630   5.965  66.590  1.00  0.00    -0.330 C  
ENDROOT
BRANCH   2   3
HETATM    3  C   UNL     1     -10.815   6.022  68.104  1.00  0.00    -0.365 C  
BRANCH   3   4
HETATM    4  C   UNL     1      -9.471   6.009  68.821  1.00  0.00    -0.125 C  
BRANCH   4   5
HETATM    5  O   UNL     1      -8.602   6.950  68.191  1.00  0.00    -0.123 OA 
BRANCH   5   6
HETATM    6  C   UNL     1      -7.944   7.764  69.162  1.00  0.00    -0.119 C  
BRANCH   6   7
HETATM    7  C   UNL     1      -8.279   9.232  68.922  1.00  0.00    -0.111 C  
BRANCH   7   8
HETATM    8  O   UNL     1      -9.331   9.668  69.797  1.00  0.00    -0.188 OA 
BRANCH   8   9
HETATM    9  C   UNL     1     -10.553   9.788  69.220  1.00  0.00    -0.221 C  
HETATM   10  O   UNL     1     -10.806   9.644  68.035  1.00  0.00    -0.242 OA 
BRANCH   9  11
HETATM   11  C   UNL     1     -11.566  10.167  70.228  1.00  0.00    -0.379 A  
HETATM   12  C   UNL     1     -11.951  11.499  70.311  1.00  0.00    -0.368 A  
HETATM   13  N   UNL     1     -12.860  11.969  71.200  1.00  0.00    -0.301 NA 
HETATM   14  C   UNL     1     -13.410  11.067  72.043  1.00  0.00    -0.288 A  
HETATM   15  C   UNL     1     -13.091   9.717  72.039  1.00  0.00    -0.546 A  
HETATM   16  C   UNL     1     -12.153   9.261  71.115  1.00  0.00    -0.389 A  
ENDBRANCH   9  11
ENDBRANCH   8   9
ENDBRANCH   7   8
ENDBRANCH   6   7
ENDBRANCH   5   6
ENDBRANCH   4   5
ENDBRANCH   3   4
ENDBRANCH   2   3
TORSDOF 8
ENDMDL
MODEL      187
REMARK 921   NORMALIZED FREE ENERGY PREDICTED BY IDOCK:   -3.13 KCAL/MOL
REMARK 922        TOTAL FREE ENERGY PREDICTED BY IDOCK:   -5.00 KCAL/MOL
REMARK 923 INTER-LIGAND FREE ENERGY PREDICTED BY IDOCK:   -4.36 KCAL/MOL
REMARK 924 INTRA-LIGAND FREE ENERGY PREDICTED BY IDOCK:   -0.64 KCAL/MOL
REMARK 927      BINDING AFFINITY PREDICTED BY RF-SCORE:    0.00 PKD
ROOT
HETATM    1  C   UNL     1     -10.666   7.669  73.194  1.00  0.00    -0.445 C  
HETATM    2  C   UNL     1      -9.839   6.419  73.439  1.00  0.00    -0.190 C  
ENDROOT
BRANCH   2   3
HETATM    3  C   UNL     1     -10.690   5.154  73.369  1.00  0.00    -0.331 C  
BRANCH   3   4
HETATM    4  C   UNL     1     -10.259   4.267  72.207  1.00  0.00    -0.175 C  
BRANCH   4   5
HETATM    5  O   UNL     1      -9.643   5.080  71.210  1.00  0.00    -0.151 OA 
BRANCH   5   6
HETATM    6  C   UNL     1     -10.380   5.034  69.988  1.00  0.00    -0.233 C  
BRANCH   6   7
HETATM    7  C   UNL     1     -11.191   6.315  69.822  1.00  0.00    -0.430 C  
BRANCH   7   8
HETATM    8  O   UNL     1     -10.555   7.208  68.893  1.00  0.00    -0.206 OA 
BRANCH   8   9
HETATM    9  C   UNL     1      -9.887   8.248  69.453  1.00  0.00    -0.185 C  
HETATM   10  O   UNL     1      -8.908   8.168  70.176  1.00  0.00    -0.142 OA 
BRANCH   9  11
HETATM   11  C   UNL     1     -10.537   9.528  69.102  1.00  0.00    -0.237 A  
HETATM   12  C   UNL     1     -11.055  10.310  70.126  1.00  0.00    -0.319 A  
HETATM   13  N   UNL     1     -11.683  11.496  69.928  1.00  0.00    -0.327 NA 
HETATM   14  C   UNL     1     -11.795  11.919  68.650  1.00  0.00    -0.308 A  
HETATM   15  C   UNL     1     -11.311  11.212  67.560  1.00  0.00    -0.351 A  
HETATM   16  C   UNL     1     -10.670   9.995  67.792  1.00  0.00    -0.333 A  
ENDBRANCH   9  11
ENDBRANCH   8   9
ENDBRANCH   7   8
ENDBRANCH   6   7
ENDBRANCH   5   6
ENDBRANCH   4   5
ENDBRANCH   3   4
ENDBRANCH   2   3
TORSDOF 8
ENDMDL
MODEL      188
REMARK 921   NORMALIZED FREE ENERGY PREDICTED BY IDOCK:   -3.11 KCAL/MOL
REMARK 922        TOTAL FREE ENERGY PREDICTED BY IDOCK:   -4.98 KCAL/MOL
REMARK 923 INTER-LIGAND FREE ENERGY PREDICTED BY IDOCK:   -4.57 KCAL/MOL
REMARK 924 INTRA-LIGAND FREE ENERGY PREDICTED BY IDOCK:   -0.41 KCAL/MOL
REMARK 927      BINDING AFFINITY PREDICTED BY RF-SCORE:    0.00 PKD
ROOT
HETATM    1  C   UNL     1      -8.670  19.866  66.373  1.00  0.00    -0.397 C  
HETATM    2  C   UNL     1      -7.313  19.973  65.699  1.00  0.00    -0.311 C  
ENDROOT
BRANCH   2   3
HETATM    3  C   UNL     1      -6.625  18.615  65.589  1.00  0.00    -0.309 C  
BRANCH   3   4
HETATM    4  C   UNL     1      -6.408  17.998  66.964  1.00  0.00    -0.169 C  
BRANCH   4   5
HETATM    5  O   UNL     1      -7.118  16.762  67.034  1.00  0.00    -0.161 OA 
BRANCH   5   6
HETATM    6  C   UNL     1      -6.939  16.142  68.307  1.00  0.00    -0.124 C  
BRANCH   6   7
HETATM    7  C   UNL     1      -8.216  15.417  68.717  1.00  0.00    -0.172 C  
BRANCH   7   8
HETATM    8  O   UNL     1      -9.352  15.941  68.011  1.00  0.00    -0.199 OA 
BRANCH   8   9
HETATM    9  C   UNL     1     -10.219  16.666  68.763  1.00  0.00    -0.288 C  
HETATM   10  O   UNL     1     -10.294  17.882  68.802  1.00  0.00    -0.366 OA 
BRANCH   9  11
HETATM   11  C   UNL     1     -11.062  15.771  69.584  1.00  0.00    -0.307 A  
HETATM   12  C   UNL     1     -11.314  16.127  70.903  1.00  0.00    -0.359 A  
HETATM   13  N   UNL     1     -12.061  15.384  71.757  1.00  0.00    -0.350 NA 
HETATM   14  C   UNL     1     -12.580  14.236  71.270  1.00  0.00    -0.364 A  
HETATM   15  C   UNL     1     -12.386  13.795  69.969  1.00  0.00    -0.364 A  
HETATM   16  C   UNL     1     -11.614  14.577  69.113  1.00  0.00    -0.331 A  
ENDBRANCH   9  11
ENDBRANCH   8   9
ENDBRANCH   7   8
ENDBRANCH   6   7
ENDBRANCH   5   6
ENDBRANCH   4   5
ENDBRANCH   3   4
ENDBRANCH   2   3
TORSDOF 8
ENDMDL
MODEL      189
REMARK 921   NORMALIZED FREE ENERGY PREDICTED BY IDOCK:   -3.11 KCAL/MOL
REMARK 922        TOTAL FREE ENERGY PREDICTED BY IDOCK:   -4.97 KCAL/MOL
REMARK 923 INTER-LIGAND FREE ENERGY PREDICTED BY IDOCK:   -4.54 KCAL/MOL
REMARK 924 INTRA-LIGAND FREE ENERGY PREDICTED BY IDOCK:   -0.44 KCAL/MOL
REMARK 927      BINDING AFFINITY PREDICTED BY RF-SCORE:    0.00 PKD
ROOT
HETATM    1  C   UNL     1      -6.371  12.676  69.451  1.00  0.00    -0.112 C  
HETATM    2  C   UNL     1      -6.936  11.473  68.716  1.00  0.00    -0.096 C  
ENDROOT
BRANCH   2   3
HETATM    3  C   UNL     1      -8.164  11.840  67.887  1.00  0.00    -0.147 C  
BRANCH   3   4
HETATM    4  C   UNL     1      -8.217  13.339  67.620  1.00  0.00    -0.179 C  
BRANCH   4   5
HETATM    5  O   UNL     1      -9.325  13.618  66.766  1.00  0.00    -0.250 OA 
BRANCH   5   6
HETATM    6  C   UNL     1     -10.558  13.286  67.405  1.00  0.00    -0.246 C  
BRANCH   6   7
HETATM    7  C   UNL     1     -11.647  14.260  66.971  1.00  0.00    -0.386 C  
BRANCH   7   8
HETATM    8  O   UNL     1     -11.151  15.608  66.951  1.00  0.00    -0.287 OA 
BRANCH   8   9
HETATM    9  C   UNL     1     -11.126  16.235  68.154  1.00  0.00    -0.329 C  
HETATM   10  O   UNL     1     -11.776  15.928  69.139  1.00  0.00    -0.376 OA 
BRANCH   9  11
HETATM   11  C   UNL     1     -10.213  17.397  68.112  1.00  0.00    -0.350 A  
HETATM   12  C   UNL     1      -8.860  17.185  68.343  1.00  0.00    -0.255 A  
HETATM   13  N   UNL     1      -7.929  18.171  68.342  1.00  0.00    -0.294 NA 
HETATM   14  C   UNL     1      -8.370  19.424  68.098  1.00  0.00    -0.328 A  
HETATM   15  C   UNL     1      -9.699  19.738  67.857  1.00  0.00    -0.503 A  
HETATM   16  C   UNL     1     -10.636  18.706  67.864  1.00  0.00    -0.397 A  
ENDBRANCH   9  11
ENDBRANCH   8   9
ENDBRANCH   7   8
ENDBRANCH   6   7
ENDBRANCH   5   6
ENDBRANCH   4   5
ENDBRANCH   3   4
ENDBRANCH   2   3
TORSDOF 8
ENDMDL
MODEL      190
REMARK 921   NORMALIZED FREE ENERGY PREDICTED BY IDOCK:   -3.10 KCAL/MOL
REMARK 922        TOTAL FREE ENERGY PREDICTED BY IDOCK:   -4.96 KCAL/MOL
REMARK 923 INTER-LIGAND FREE ENERGY PREDICTED BY IDOCK:   -4.33 KCAL/MOL
REMARK 924 INTRA-LIGAND FREE ENERGY PREDICTED BY IDOCK:   -0.63 KCAL/MOL
REMARK 927      BINDING AFFINITY PREDICTED BY RF-SCORE:    0.00 PKD
ROOT
HETATM    1  C   UNL     1     -10.090  11.335  64.835  1.00  0.00    -0.333 C  
HETATM    2  C   UNL     1     -11.183  12.096  65.566  1.00  0.00    -0.381 C  
ENDROOT
BRANCH   2   3
HETATM    3  C   UNL     1     -12.380  12.376  64.662  1.00  0.00    -0.518 C  
BRANCH   3   4
HETATM    4  C   UNL     1     -12.400  13.833  64.215  1.00  0.00    -0.337 C  
BRANCH   4   5
HETATM    5  O   UNL     1     -11.745  14.628  65.202  1.00  0.00    -0.357 OA 
BRANCH   5   6
HETATM    6  C   UNL     1     -11.193  15.809  64.621  1.00  0.00    -0.363 C  
BRANCH   6   7
HETATM    7  C   UNL     1     -10.463  16.621  65.685  1.00  0.00    -0.297 C  
BRANCH   7   8
HETATM    8  O   UNL     1      -9.051  16.357  65.653  1.00  0.00    -0.446 OA 
BRANCH   8   9
HETATM    9  C   UNL     1      -8.390  16.593  66.815  1.00  0.00    -0.235 C  
HETATM   10  O   UNL     1      -8.124  17.688  67.281  1.00  0.00    -0.203 OA 
BRANCH   9  11
HETATM   11  C   UNL     1      -7.985  15.319  67.446  1.00  0.00    -0.211 A  
HETATM   12  C   UNL     1      -7.039  15.356  68.462  1.00  0.00    -0.114 A  
HETATM   13  N   UNL     1      -6.581  14.255  69.108  1.00  0.00    -0.107 NA 
HETATM   14  C   UNL     1      -7.091  13.066  68.722  1.00  0.00    -0.097 A  
HETATM   15  C   UNL     1      -8.037  12.925  67.718  1.00  0.00    -0.166 A  
HETATM   16  C   UNL     1      -8.492  14.072  67.070  1.00  0.00    -0.168 A  
ENDBRANCH   9  11
ENDBRANCH   8   9
ENDBRANCH   7   8
ENDBRANCH   6   7
ENDBRANCH   5   6
ENDBRANCH   4   5
ENDBRANCH   3   4
ENDBRANCH   2   3
TORSDOF 8
ENDMDL
MODEL      191
REMARK 921   NORMALIZED FREE ENERGY PREDICTED BY IDOCK:   -3.09 KCAL/MOL
REMARK 922        TOTAL FREE ENERGY PREDICTED BY IDOCK:   -4.95 KCAL/MOL
REMARK 923 INTER-LIGAND FREE ENERGY PREDICTED BY IDOCK:   -4.56 KCAL/MOL
REMARK 924 INTRA-LIGAND FREE ENERGY PREDICTED BY IDOCK:   -0.39 KCAL/MOL
REMARK 927      BINDING AFFINITY PREDICTED BY RF-SCORE:    0.00 PKD
ROOT
HETATM    1  C   UNL     1     -14.392   7.360  71.655  1.00  0.00    -0.614 C  
HETATM    2  C   UNL     1     -13.080   6.767  71.171  1.00  0.00    -0.096 C  
ENDROOT
BRANCH   2   3
HETATM    3  C   UNL     1     -11.911   7.726  71.383  1.00  0.00    -0.331 C  
BRANCH   3   4
HETATM    4  C   UNL     1     -10.643   7.197  70.727  1.00  0.00    -0.222 C  
BRANCH   4   5
HETATM    5  O   UNL     1     -10.360   7.981  69.568  1.00  0.00    -0.212 OA 
BRANCH   5   6
HETATM    6  C   UNL     1      -9.071   8.587  69.665  1.00  0.00    -0.149 C  
BRANCH   6   7
HETATM    7  C   UNL     1      -9.178  10.084  69.393  1.00  0.00    -0.216 C  
BRANCH   7   8
HETATM    8  O   UNL     1     -10.545  10.521  69.460  1.00  0.00    -0.224 OA 
BRANCH   8   9
HETATM    9  C   UNL     1     -11.065  10.981  68.294  1.00  0.00    -0.257 C  
HETATM   10  O   UNL     1     -11.331  10.310  67.311  1.00  0.00    -0.280 OA 
BRANCH   9  11
HETATM   11  C   UNL     1     -11.236  12.448  68.348  1.00  0.00    -0.316 A  
HETATM   12  C   UNL     1     -10.832  13.202  67.255  1.00  0.00    -0.257 A  
HETATM   13  N   UNL     1     -10.928  14.554  67.192  1.00  0.00    -0.296 NA 
HETATM   14  C   UNL     1     -11.452  15.178  68.269  1.00  0.00    -0.336 A  
HETATM   15  C   UNL     1     -11.883  14.514  69.408  1.00  0.00    -0.367 A  
HETATM   16  C   UNL     1     -11.773  13.125  69.447  1.00  0.00    -0.386 A  
ENDBRANCH   9  11
ENDBRANCH   8   9
ENDBRANCH   7   8
ENDBRANCH   6   7
ENDBRANCH   5   6
ENDBRANCH   4   5
ENDBRANCH   3   4
ENDBRANCH   2   3
TORSDOF 8
ENDMDL
MODEL      192
REMARK 921   NORMALIZED FREE ENERGY PREDICTED BY IDOCK:   -3.08 KCAL/MOL
REMARK 922        TOTAL FREE ENERGY PREDICTED BY IDOCK:   -4.93 KCAL/MOL
REMARK 923 INTER-LIGAND FREE ENERGY PREDICTED BY IDOCK:   -4.54 KCAL/MOL
REMARK 924 INTRA-LIGAND FREE ENERGY PREDICTED BY IDOCK:   -0.39 KCAL/MOL
REMARK 927      BINDING AFFINITY PREDICTED BY RF-SCORE:    0.00 PKD
ROOT
HETATM    1  C   UNL     1      -8.394   7.075  67.442  1.00  0.00    -0.122 C  
HETATM    2  C   UNL     1      -9.102   8.373  67.791  1.00  0.00    -0.142 C  
ENDROOT
BRANCH   2   3
HETATM    3  C   UNL     1     -10.529   8.128  68.275  1.00  0.00    -0.210 C  
BRANCH   3   4
HETATM    4  C   UNL     1     -10.588   8.057  69.795  1.00  0.00    -0.238 C  
BRANCH   4   5
HETATM    5  O   UNL     1     -10.324   9.354  70.329  1.00  0.00    -0.209 OA 
BRANCH   5   6
HETATM    6  C   UNL     1     -11.396   9.789  71.166  1.00  0.00    -0.389 C  
BRANCH   6   7
HETATM    7  C   UNL     1     -12.282  10.771  70.407  1.00  0.00    -0.349 C  
BRANCH   7   8
HETATM    8  O   UNL     1     -11.496  11.814  69.808  1.00  0.00    -0.280 OA 
BRANCH   8   9
HETATM    9  C   UNL     1     -11.915  13.078  70.069  1.00  0.00    -0.312 C  
HETATM   10  O   UNL     1     -12.555  13.437  71.043  1.00  0.00    -0.355 OA 
BRANCH   9  11
HETATM   11  C   UNL     1     -11.523  13.989  68.973  1.00  0.00    -0.337 A  
HETATM   12  C   UNL     1     -10.822  15.144  69.292  1.00  0.00    -0.255 A  
HETATM   13  N   UNL     1     -10.418  16.060  68.377  1.00  0.00    -0.252 NA 
HETATM   14  C   UNL     1     -10.728  15.809  67.086  1.00  0.00    -0.312 A  
HETATM   15  C   UNL     1     -11.425  14.686  66.668  1.00  0.00    -0.363 A  
HETATM   16  C   UNL     1     -11.828  13.760  67.628  1.00  0.00    -0.413 A  
ENDBRANCH   9  11
ENDBRANCH   8   9
ENDBRANCH   7   8
ENDBRANCH   6   7
ENDBRANCH   5   6
ENDBRANCH   4   5
ENDBRANCH   3   4
ENDBRANCH   2   3
TORSDOF 8
ENDMDL
MODEL      193
REMARK 921   NORMALIZED FREE ENERGY PREDICTED BY IDOCK:   -3.08 KCAL/MOL
REMARK 922        TOTAL FREE ENERGY PREDICTED BY IDOCK:   -4.93 KCAL/MOL
REMARK 923 INTER-LIGAND FREE ENERGY PREDICTED BY IDOCK:   -4.62 KCAL/MOL
REMARK 924 INTRA-LIGAND FREE ENERGY PREDICTED BY IDOCK:   -0.31 KCAL/MOL
REMARK 927      BINDING AFFINITY PREDICTED BY RF-SCORE:    0.00 PKD
ROOT
HETATM    1  C   UNL     1     -13.910  13.532  72.360  1.00  0.00    -0.687 C  
HETATM    2  C   UNL     1     -12.853  13.200  71.322  1.00  0.00    -0.384 C  
ENDROOT
BRANCH   2   3
HETATM    3  C   UNL     1     -12.496  14.413  70.466  1.00  0.00    -0.416 C  
BRANCH   3   4
HETATM    4  C   UNL     1     -12.026  13.987  69.081  1.00  0.00    -0.360 C  
BRANCH   4   5
HETATM    5  O   UNL     1     -12.144  12.570  68.968  1.00  0.00    -0.259 OA 
BRANCH   5   6
HETATM    6  C   UNL     1     -11.461  12.092  67.809  1.00  0.00    -0.325 C  
BRANCH   6   7
HETATM    7  C   UNL     1     -11.258  13.233  66.818  1.00  0.00    -0.304 C  
BRANCH   7   8
HETATM    8  O   UNL     1     -10.069  13.028  66.037  1.00  0.00    -0.275 OA 
BRANCH   8   9
HETATM    9  C   UNL     1     -10.133  12.011  65.141  1.00  0.00    -0.266 C  
HETATM   10  O   UNL     1     -10.827  11.978  64.139  1.00  0.00    -0.297 OA 
BRANCH   9  11
HETATM   11  C   UNL     1      -9.258  10.896  65.562  1.00  0.00    -0.232 A  
HETATM   12  C   UNL     1      -9.710   9.596  65.378  1.00  0.00    -0.295 A  
HETATM   13  N   UNL     1      -9.005   8.493  65.734  1.00  0.00    -0.190 NA 
HETATM   14  C   UNL     1      -7.795   8.700  66.297  1.00  0.00    -0.102 A  
HETATM   15  C   UNL     1      -7.257   9.958  66.523  1.00  0.00    -0.095 A  
HETATM   16  C   UNL     1      -8.002  11.074  66.148  1.00  0.00    -0.129 A  
ENDBRANCH   9  11
ENDBRANCH   8   9
ENDBRANCH   7   8
ENDBRANCH   6   7
ENDBRANCH   5   6
ENDBRANCH   4   5
ENDBRANCH   3   4
ENDBRANCH   2   3
TORSDOF 8
ENDMDL
MODEL      194
REMARK 921   NORMALIZED FREE ENERGY PREDICTED BY IDOCK:   -3.08 KCAL/MOL
REMARK 922        TOTAL FREE ENERGY PREDICTED BY IDOCK:   -4.93 KCAL/MOL
REMARK 923 INTER-LIGAND FREE ENERGY PREDICTED BY IDOCK:   -4.42 KCAL/MOL
REMARK 924 INTRA-LIGAND FREE ENERGY PREDICTED BY IDOCK:   -0.51 KCAL/MOL
REMARK 927      BINDING AFFINITY PREDICTED BY RF-SCORE:    0.00 PKD
ROOT
HETATM    1  C   UNL     1      -9.811   8.564  71.282  1.00  0.00    -0.279 C  
HETATM    2  C   UNL     1     -10.149   7.221  70.659  1.00  0.00    -0.198 C  
ENDROOT
BRANCH   2   3
HETATM    3  C   UNL     1      -9.288   6.931  69.432  1.00  0.00    -0.146 C  
BRANCH   3   4
HETATM    4  C   UNL     1      -8.834   8.223  68.765  1.00  0.00    -0.137 C  
BRANCH   4   5
HETATM    5  O   UNL     1      -9.473   8.336  67.494  1.00  0.00    -0.144 OA 
BRANCH   5   6
HETATM    6  C   UNL     1     -10.453   9.374  67.506  1.00  0.00    -0.280 C  
BRANCH   6   7
HETATM    7  C   UNL     1      -9.841  10.661  68.049  1.00  0.00    -0.160 C  
BRANCH   7   8
HETATM    8  O   UNL     1      -9.042  11.311  67.047  1.00  0.00    -0.158 OA 
BRANCH   8   9
HETATM    9  C   UNL     1      -9.407  12.584  66.750  1.00  0.00    -0.230 C  
HETATM   10  O   UNL     1      -8.977  13.596  67.277  1.00  0.00    -0.204 OA 
BRANCH   9  11
HETATM   11  C   UNL     1     -10.451  12.591  65.704  1.00  0.00    -0.299 A  
HETATM   12  C   UNL     1     -10.091  12.245  64.408  1.00  0.00    -0.270 A  
HETATM   13  N   UNL     1     -10.956  12.226  63.364  1.00  0.00    -0.441 NA 
HETATM   14  C   UNL     1     -12.236  12.567  63.627  1.00  0.00    -0.550 A  
HETATM   15  C   UNL     1     -12.692  12.928  64.885  1.00  0.00    -0.474 A  
HETATM   16  C   UNL     1     -11.783  12.940  65.942  1.00  0.00    -0.449 A  
ENDBRANCH   9  11
ENDBRANCH   8   9
ENDBRANCH   7   8
ENDBRANCH   6   7
ENDBRANCH   5   6
ENDBRANCH   4   5
ENDBRANCH   3   4
ENDBRANCH   2   3
TORSDOF 8
ENDMDL
MODEL      195
REMARK 921   NORMALIZED FREE ENERGY PREDICTED BY IDOCK:   -3.07 KCAL/MOL
REMARK 922        TOTAL FREE ENERGY PREDICTED BY IDOCK:   -4.92 KCAL/MOL
REMARK 923 INTER-LIGAND FREE ENERGY PREDICTED BY IDOCK:   -4.23 KCAL/MOL
REMARK 924 INTRA-LIGAND FREE ENERGY PREDICTED BY IDOCK:   -0.68 KCAL/MOL
REMARK 927      BINDING AFFINITY PREDICTED BY RF-SCORE:    0.00 PKD
ROOT
HETATM    1  C   UNL     1      -7.004  13.683  67.614  1.00  0.00    -0.183 C  
HETATM    2  C   UNL     1      -8.071  14.675  67.183  1.00  0.00    -0.213 C  
ENDROOT
BRANCH   2   3
HETATM    3  C   UNL     1      -9.061  14.968  68.308  1.00  0.00    -0.182 C  
BRANCH   3   4
HETATM    4  C   UNL     1     -10.449  15.260  67.753  1.00  0.00    -0.253 C  
BRANCH   4   5
HETATM    5  O   UNL     1     -10.610  14.563  66.519  1.00  0.00    -0.289 OA 
BRANCH   5   6
HETATM    6  C   UNL     1     -11.839  14.920  65.887  1.00  0.00    -0.113 C  
BRANCH   6   7
HETATM    7  C   UNL     1     -12.588  13.664  65.457  1.00  0.00    -0.496 C  
BRANCH   7   8
HETATM    8  O   UNL     1     -11.788  12.490  65.678  1.00  0.00    -0.402 OA 
BRANCH   8   9
HETATM    9  C   UNL     1     -11.344  11.872  64.554  1.00  0.00    -0.316 C  
HETATM   10  O   UNL     1     -11.850  11.943  63.447  1.00  0.00    -0.463 OA 
BRANCH   9  11
HETATM   11  C   UNL     1     -10.157  11.044  64.855  1.00  0.00    -0.359 A  
HETATM   12  C   UNL     1      -9.547  10.358  63.813  1.00  0.00    -0.310 A  
HETATM   13  N   UNL     1      -8.462   9.560  63.967  1.00  0.00    -0.172 NA 
HETATM   14  C   UNL     1      -7.963   9.443  65.216  1.00  0.00    -0.110 A  
HETATM   15  C   UNL     1      -8.500  10.087  66.321  1.00  0.00    -0.134 A  
HETATM   16  C   UNL     1      -9.616  10.901  66.136  1.00  0.00    -0.239 A  
ENDBRANCH   9  11
ENDBRANCH   8   9
ENDBRANCH   7   8
ENDBRANCH   6   7
ENDBRANCH   5   6
ENDBRANCH   4   5
ENDBRANCH   3   4
ENDBRANCH   2   3
TORSDOF 8
ENDMDL
MODEL      196
REMARK 921   NORMALIZED FREE ENERGY PREDICTED BY IDOCK:   -3.07 KCAL/MOL
REMARK 922        TOTAL FREE ENERGY PREDICTED BY IDOCK:   -4.92 KCAL/MOL
REMARK 923 INTER-LIGAND FREE ENERGY PREDICTED BY IDOCK:   -4.39 KCAL/MOL
REMARK 924 INTRA-LIGAND FREE ENERGY PREDICTED BY IDOCK:   -0.53 KCAL/MOL
REMARK 927      BINDING AFFINITY PREDICTED BY RF-SCORE:    0.00 PKD
ROOT
HETATM    1  C   UNL     1     -11.059  15.833  64.420  1.00  0.00    -0.174 C  
HETATM    2  C   UNL     1     -10.411  15.635  65.779  1.00  0.00    -0.383 C  
ENDROOT
BRANCH   2   3
HETATM    3  C   UNL     1      -9.016  16.251  65.838  1.00  0.00    -0.222 C  
BRANCH   3   4
HETATM    4  C   UNL     1      -8.993  17.470  66.751  1.00  0.00    -0.256 C  
BRANCH   4   5
HETATM    5  O   UNL     1      -8.109  17.214  67.842  1.00  0.00    -0.193 OA 
BRANCH   5   6
HETATM    6  C   UNL     1      -8.828  17.134  69.073  1.00  0.00    -0.105 C  
BRANCH   6   7
HETATM    7  C   UNL     1      -9.132  15.677  69.404  1.00  0.00    -0.278 C  
BRANCH   7   8
HETATM    8  O   UNL     1     -10.380  15.560  70.106  1.00  0.00    -0.304 OA 
BRANCH   8   9
HETATM    9  C   UNL     1     -11.434  15.160  69.352  1.00  0.00    -0.306 C  
HETATM   10  O   UNL     1     -12.168  15.884  68.700  1.00  0.00    -0.139 OA 
BRANCH   9  11
HETATM   11  C   UNL     1     -11.614  13.696  69.451  1.00  0.00    -0.368 A  
HETATM   12  C   UNL     1     -11.201  12.906  68.386  1.00  0.00    -0.270 A  
HETATM   13  N   UNL     1     -11.324  11.555  68.355  1.00  0.00    -0.252 NA 
HETATM   14  C   UNL     1     -11.883  10.970  69.437  1.00  0.00    -0.335 A  
HETATM   15  C   UNL     1     -12.327  11.672  70.547  1.00  0.00    -0.410 A  
HETATM   16  C   UNL     1     -12.189  13.059  70.553  1.00  0.00    -0.392 A  
ENDBRANCH   9  11
ENDBRANCH   8   9
ENDBRANCH   7   8
ENDBRANCH   6   7
ENDBRANCH   5   6
ENDBRANCH   4   5
ENDBRANCH   3   4
ENDBRANCH   2   3
TORSDOF 8
ENDMDL
MODEL      197
REMARK 921   NORMALIZED FREE ENERGY PREDICTED BY IDOCK:   -3.07 KCAL/MOL
REMARK 922        TOTAL FREE ENERGY PREDICTED BY IDOCK:   -4.91 KCAL/MOL
REMARK 923 INTER-LIGAND FREE ENERGY PREDICTED BY IDOCK:   -4.65 KCAL/MOL
REMARK 924 INTRA-LIGAND FREE ENERGY PREDICTED BY IDOCK:   -0.26 KCAL/MOL
REMARK 927      BINDING AFFINITY PREDICTED BY RF-SCORE:    0.00 PKD
ROOT
HETATM    1  C   UNL     1     -13.280  14.259  71.832  1.00  0.00    -0.456 C  
HETATM    2  C   UNL     1     -13.747  12.866  72.216  1.00  0.00    -0.553 C  
ENDROOT
BRANCH   2   3
HETATM    3  C   UNL     1     -12.720  11.800  71.842  1.00  0.00    -0.215 C  
BRANCH   3   4
HETATM    4  C   UNL     1     -13.403  10.507  71.416  1.00  0.00    -0.246 C  
BRANCH   4   5
HETATM    5  O   UNL     1     -13.251   9.540  72.454  1.00  0.00    -0.431 OA 
BRANCH   5   6
HETATM    6  C   UNL     1     -12.118   8.706  72.213  1.00  0.00    -0.373 C  
BRANCH   6   7
HETATM    7  C   UNL     1     -12.575   7.333  71.734  1.00  0.00    -0.341 C  
BRANCH   7   8
HETATM    8  O   UNL     1     -12.072   7.055  70.417  1.00  0.00    -0.265 OA 
BRANCH   8   9
HETATM    9  C   UNL     1     -10.920   6.340  70.376  1.00  0.00    -0.322 C  
HETATM   10  O   UNL     1     -10.304   5.913  71.337  1.00  0.00    -0.204 OA 
BRANCH   9  11
HETATM   11  C   UNL     1     -10.467   6.171  68.979  1.00  0.00    -0.305 A  
HETATM   12  C   UNL     1      -9.951   4.939  68.595  1.00  0.00    -0.125 A  
HETATM   13  N   UNL     1      -9.494   4.667  67.348  1.00  0.00    -0.144 NA 
HETATM   14  C   UNL     1      -9.557   5.669  66.444  1.00  0.00    -0.157 A  
HETATM   15  C   UNL     1     -10.054   6.931  66.729  1.00  0.00    -0.264 A  
HETATM   16  C   UNL     1     -10.517   7.185  68.019  1.00  0.00    -0.251 A  
ENDBRANCH   9  11
ENDBRANCH   8   9
ENDBRANCH   7   8
ENDBRANCH   6   7
ENDBRANCH   5   6
ENDBRANCH   4   5
ENDBRANCH   3   4
ENDBRANCH   2   3
TORSDOF 8
ENDMDL
MODEL      198
REMARK 921   NORMALIZED FREE ENERGY PREDICTED BY IDOCK:   -3.05 KCAL/MOL
REMARK 922        TOTAL FREE ENERGY PREDICTED BY IDOCK:   -4.88 KCAL/MOL
REMARK 923 INTER-LIGAND FREE ENERGY PREDICTED BY IDOCK:   -4.56 KCAL/MOL
REMARK 924 INTRA-LIGAND FREE ENERGY PREDICTED BY IDOCK:   -0.33 KCAL/MOL
REMARK 927      BINDING AFFINITY PREDICTED BY RF-SCORE:    0.00 PKD
ROOT
HETATM    1  C   UNL     1     -14.396   7.254  71.628  1.00  0.00    -0.583 C  
HETATM    2  C   UNL     1     -13.027   6.766  71.186  1.00  0.00    -0.152 C  
ENDROOT
BRANCH   2   3
HETATM    3  C   UNL     1     -11.942   7.808  71.446  1.00  0.00    -0.331 C  
BRANCH   3   4
HETATM    4  C   UNL     1     -10.617   7.386  70.824  1.00  0.00    -0.223 C  
BRANCH   4   5
HETATM    5  O   UNL     1     -10.358   8.208  69.686  1.00  0.00    -0.212 OA 
BRANCH   5   6
HETATM    6  C   UNL     1      -9.213   9.032  69.902  1.00  0.00    -0.173 C  
BRANCH   6   7
HETATM    7  C   UNL     1      -9.266  10.247  68.982  1.00  0.00    -0.183 C  
BRANCH   7   8
HETATM    8  O   UNL     1     -10.555  10.362  68.358  1.00  0.00    -0.183 OA 
BRANCH   8   9
HETATM    9  C   UNL     1     -10.568  10.172  67.015  1.00  0.00    -0.225 C  
HETATM   10  O   UNL     1     -10.304   9.133  66.433  1.00  0.00    -0.258 OA 
BRANCH   9  11
HETATM   11  C   UNL     1     -10.914  11.429  66.318  1.00  0.00    -0.303 A  
HETATM   12  C   UNL     1     -10.114  11.840  65.260  1.00  0.00    -0.262 A  
HETATM   13  N   UNL     1     -10.323  12.979  64.553  1.00  0.00    -0.375 NA 
HETATM   14  C   UNL     1     -11.379  13.737  64.919  1.00  0.00    -0.347 A  
HETATM   15  C   UNL     1     -12.235  13.413  65.961  1.00  0.00    -0.491 A  
HETATM   16  C   UNL     1     -11.997  12.238  66.672  1.00  0.00    -0.257 A  
ENDBRANCH   9  11
ENDBRANCH   8   9
ENDBRANCH   7   8
ENDBRANCH   6   7
ENDBRANCH   5   6
ENDBRANCH   4   5
ENDBRANCH   3   4
ENDBRANCH   2   3
TORSDOF 8
ENDMDL
MODEL      199
REMARK 921   NORMALIZED FREE ENERGY PREDICTED BY IDOCK:   -3.05 KCAL/MOL
REMARK 922        TOTAL FREE ENERGY PREDICTED BY IDOCK:   -4.88 KCAL/MOL
REMARK 923 INTER-LIGAND FREE ENERGY PREDICTED BY IDOCK:   -4.35 KCAL/MOL
REMARK 924 INTRA-LIGAND FREE ENERGY PREDICTED BY IDOCK:   -0.53 KCAL/MOL
REMARK 927      BINDING AFFINITY PREDICTED BY RF-SCORE:    0.00 PKD
ROOT
HETATM    1  C   UNL     1      -7.243   8.939  70.769  1.00  0.00    -0.083 C  
HETATM    2  C   UNL     1      -8.633   8.923  70.157  1.00  0.00    -0.161 C  
ENDROOT
BRANCH   2   3
HETATM    3  C   UNL     1      -9.723   8.872  71.225  1.00  0.00    -0.359 C  
BRANCH   3   4
HETATM    4  C   UNL     1     -10.815   7.881  70.846  1.00  0.00    -0.234 C  
BRANCH   4   5
HETATM    5  O   UNL     1     -12.083   8.435  71.194  1.00  0.00    -0.289 OA 
BRANCH   5   6
HETATM    6  C   UNL     1     -11.954   9.804  71.578  1.00  0.00    -0.407 C  
BRANCH   6   7
HETATM    7  C   UNL     1     -12.963  10.655  70.815  1.00  0.00    -0.311 C  
BRANCH   7   8
HETATM    8  O   UNL     1     -12.537  10.864  69.459  1.00  0.00    -0.304 OA 
BRANCH   8   9
HETATM    9  C   UNL     1     -11.878  12.028  69.231  1.00  0.00    -0.318 C  
HETATM   10  O   UNL     1     -11.973  13.049  69.892  1.00  0.00    -0.320 OA 
BRANCH   9  11
HETATM   11  C   UNL     1     -11.036  11.917  68.021  1.00  0.00    -0.271 A  
HETATM   12  C   UNL     1      -9.670  11.727  68.182  1.00  0.00    -0.192 A  
HETATM   13  N   UNL     1      -8.794  11.622  67.152  1.00  0.00    -0.166 NA 
HETATM   14  C   UNL     1      -9.308  11.708  65.906  1.00  0.00    -0.218 A  
HETATM   15  C   UNL     1     -10.656  11.898  65.641  1.00  0.00    -0.311 A  
HETATM   16  C   UNL     1     -11.534  12.003  66.719  1.00  0.00    -0.410 A  
ENDBRANCH   9  11
ENDBRANCH   8   9
ENDBRANCH   7   8
ENDBRANCH   6   7
ENDBRANCH   5   6
ENDBRANCH   4   5
ENDBRANCH   3   4
ENDBRANCH   2   3
TORSDOF 8
ENDMDL
MODEL      200
REMARK 921   NORMALIZED FREE ENERGY PREDICTED BY IDOCK:   -3.04 KCAL/MOL
REMARK 922        TOTAL FREE ENERGY PREDICTED BY IDOCK:   -4.88 KCAL/MOL
REMARK 923 INTER-LIGAND FREE ENERGY PREDICTED BY IDOCK:   -4.44 KCAL/MOL
REMARK 924 INTRA-LIGAND FREE ENERGY PREDICTED BY IDOCK:   -0.44 KCAL/MOL
REMARK 927      BINDING AFFINITY PREDICTED BY RF-SCORE:    0.00 PKD
ROOT
HETATM    1  C   UNL     1      -7.688  10.124  69.604  1.00  0.00    -0.167 C  
HETATM    2  C   UNL     1      -6.737  11.305  69.516  1.00  0.00    -0.128 C  
ENDROOT
BRANCH   2   3
HETATM    3  C   UNL     1      -7.266  12.391  68.583  1.00  0.00    -0.104 C  
BRANCH   3   4
HETATM    4  C   UNL     1      -7.182  11.952  67.127  1.00  0.00    -0.144 C  
BRANCH   4   5
HETATM    5  O   UNL     1      -8.498  11.920  66.578  1.00  0.00    -0.173 OA 
BRANCH   5   6
HETATM    6  C   UNL     1      -8.924  10.576  66.352  1.00  0.00    -0.159 C  
BRANCH   6   7
HETATM    7  C   UNL     1     -10.399  10.430  66.711  1.00  0.00    -0.235 C  
BRANCH   7   8
HETATM    8  O   UNL     1     -10.792  11.420  67.676  1.00  0.00    -0.209 OA 
BRANCH   8   9
HETATM    9  C   UNL     1     -11.633  12.378  67.214  1.00  0.00    -0.365 C  
HETATM   10  O   UNL     1     -12.192  12.383  66.129  1.00  0.00    -0.635 OA 
BRANCH   9  11
HETATM   11  C   UNL     1     -11.764  13.471  68.201  1.00  0.00    -0.396 A  
HETATM   12  C   UNL     1     -12.100  13.144  69.508  1.00  0.00    -0.238 A  
HETATM   13  N   UNL     1     -12.260  14.057  70.498  1.00  0.00    -0.343 NA 
HETATM   14  C   UNL     1     -12.074  15.353  70.167  1.00  0.00    -0.369 A  
HETATM   15  C   UNL     1     -11.738  15.780  68.891  1.00  0.00    -0.404 A  
HETATM   16  C   UNL     1     -11.580  14.821  67.892  1.00  0.00    -0.373 A  
ENDBRANCH   9  11
ENDBRANCH   8   9
ENDBRANCH   7   8
ENDBRANCH   6   7
ENDBRANCH   5   6
ENDBRANCH   4   5
ENDBRANCH   3   4
ENDBRANCH   2   3
TORSDOF 8
ENDMDL
MODEL      201
REMARK 921   NORMALIZED FREE ENERGY PREDICTED BY IDOCK:   -3.04 KCAL/MOL
REMARK 922        TOTAL FREE ENERGY PREDICTED BY IDOCK:   -4.87 KCAL/MOL
REMARK 923 INTER-LIGAND FREE ENERGY PREDICTED BY IDOCK:   -4.68 KCAL/MOL
REMARK 924 INTRA-LIGAND FREE ENERGY PREDICTED BY IDOCK:   -0.19 KCAL/MOL
REMARK 927      BINDING AFFINITY PREDICTED BY RF-SCORE:    0.00 PKD
ROOT
HETATM    1  C   UNL     1      -6.483   6.121  71.190  1.00  0.00    -0.049 C  
HETATM    2  C   UNL     1      -6.896   7.466  70.618  1.00  0.00    -0.048 C  
ENDROOT
BRANCH   2   3
HETATM    3  C   UNL     1      -7.968   8.140  71.470  1.00  0.00    -0.135 C  
BRANCH   3   4
HETATM    4  C   UNL     1      -9.085   8.702  70.601  1.00  0.00    -0.171 C  
BRANCH   4   5
HETATM    5  O   UNL     1     -10.061   9.317  71.441  1.00  0.00    -0.314 OA 
BRANCH   5   6
HETATM    6  C   UNL     1     -11.299   9.482  70.750  1.00  0.00    -0.321 C  
BRANCH   6   7
HETATM    7  C   UNL     1     -11.066  10.223  69.438  1.00  0.00    -0.252 C  
BRANCH   7   8
HETATM    8  O   UNL     1     -12.235  10.967  69.055  1.00  0.00    -0.483 OA 
BRANCH   8   9
HETATM    9  C   UNL     1     -11.996  12.083  68.320  1.00  0.00    -0.179 C  
HETATM   10  O   UNL     1     -11.766  12.120  67.123  1.00  0.00    -0.465 OA 
BRANCH   9  11
HETATM   11  C   UNL     1     -12.011  13.283  69.184  1.00  0.00    -0.343 A  
HETATM   12  C   UNL     1     -11.804  14.524  68.596  1.00  0.00    -0.320 A  
HETATM   13  N   UNL     1     -11.783  15.692  69.284  1.00  0.00    -0.358 NA 
HETATM   14  C   UNL     1     -11.980  15.616  70.618  1.00  0.00    -0.402 A  
HETATM   15  C   UNL     1     -12.194  14.427  71.298  1.00  0.00    -0.429 A  
HETATM   16  C   UNL     1     -12.210  13.240  70.567  1.00  0.00    -0.416 A  
ENDBRANCH   9  11
ENDBRANCH   8   9
ENDBRANCH   7   8
ENDBRANCH   6   7
ENDBRANCH   5   6
ENDBRANCH   4   5
ENDBRANCH   3   4
ENDBRANCH   2   3
TORSDOF 8
ENDMDL
MODEL      202
REMARK 921   NORMALIZED FREE ENERGY PREDICTED BY IDOCK:   -3.04 KCAL/MOL
REMARK 922        TOTAL FREE ENERGY PREDICTED BY IDOCK:   -4.87 KCAL/MOL
REMARK 923 INTER-LIGAND FREE ENERGY PREDICTED BY IDOCK:   -4.30 KCAL/MOL
REMARK 924 INTRA-LIGAND FREE ENERGY PREDICTED BY IDOCK:   -0.58 KCAL/MOL
REMARK 927      BINDING AFFINITY PREDICTED BY RF-SCORE:    0.00 PKD
ROOT
HETATM    1  C   UNL     1     -12.607  13.096  65.171  1.00  0.00    -0.525 C  
HETATM    2  C   UNL     1     -12.034  14.404  64.650  1.00  0.00    -0.475 C  
ENDROOT
BRANCH   2   3
HETATM    3  C   UNL     1     -10.844  14.873  65.482  1.00  0.00    -0.365 C  
BRANCH   3   4
HETATM    4  C   UNL     1     -11.198  14.926  66.963  1.00  0.00    -0.344 C  
BRANCH   4   5
HETATM    5  O   UNL     1     -10.178  14.261  67.706  1.00  0.00    -0.231 OA 
BRANCH   5   6
HETATM    6  C   UNL     1     -10.682  13.071  68.312  1.00  0.00    -0.245 C  
BRANCH   6   7
HETATM    7  C   UNL     1      -9.778  11.891  67.975  1.00  0.00    -0.191 C  
BRANCH   7   8
HETATM    8  O   UNL     1     -10.212  11.240  66.769  1.00  0.00    -0.212 OA 
BRANCH   8   9
HETATM    9  C   UNL     1      -9.456  10.185  66.375  1.00  0.00    -0.176 C  
HETATM   10  O   UNL     1      -9.142   9.228  67.064  1.00  0.00    -0.128 OA 
BRANCH   9  11
HETATM   11  C   UNL     1      -9.012  10.361  64.976  1.00  0.00    -0.221 A  
HETATM   12  C   UNL     1      -9.828  11.074  64.108  1.00  0.00    -0.308 A  
HETATM   13  N   UNL     1      -9.534  11.292  62.802  1.00  0.00    -0.355 NA 
HETATM   14  C   UNL     1      -8.373  10.775  62.345  1.00  0.00    -0.247 A  
HETATM   15  C   UNL     1      -7.493  10.048  63.132  1.00  0.00    -0.137 A  
HETATM   16  C   UNL     1      -7.818   9.838  64.470  1.00  0.00    -0.137 A  
ENDBRANCH   9  11
ENDBRANCH   8   9
ENDBRANCH   7   8
ENDBRANCH   6   7
ENDBRANCH   5   6
ENDBRANCH   4   5
ENDBRANCH   3   4
ENDBRANCH   2   3
TORSDOF 8
ENDMDL
MODEL      203
REMARK 921   NORMALIZED FREE ENERGY PREDICTED BY IDOCK:   -3.04 KCAL/MOL
REMARK 922        TOTAL FREE ENERGY PREDICTED BY IDOCK:   -4.87 KCAL/MOL
REMARK 923 INTER-LIGAND FREE ENERGY PREDICTED BY IDOCK:   -4.31 KCAL/MOL
REMARK 924 INTRA-LIGAND FREE ENERGY PREDICTED BY IDOCK:   -0.56 KCAL/MOL
REMARK 927      BINDING AFFINITY PREDICTED BY RF-SCORE:    0.00 PKD
ROOT
HETATM    1  C   UNL     1     -11.768  12.851  69.354  1.00  0.00    -0.382 C  
HETATM    2  C   UNL     1     -11.585  12.526  67.881  1.00  0.00    -0.403 C  
ENDROOT
BRANCH   2   3
HETATM    3  C   UNL     1     -10.344  13.198  67.301  1.00  0.00    -0.243 C  
BRANCH   3   4
HETATM    4  C   UNL     1      -9.174  13.121  68.274  1.00  0.00    -0.194 C  
BRANCH   4   5
HETATM    5  O   UNL     1      -8.341  12.022  67.909  1.00  0.00    -0.137 OA 
BRANCH   5   6
HETATM    6  C   UNL     1      -8.052  11.203  69.042  1.00  0.00    -0.076 C  
BRANCH   6   7
HETATM    7  C   UNL     1      -9.044  10.047  69.115  1.00  0.00    -0.184 C  
BRANCH   7   8
HETATM    8  O   UNL     1      -8.473   8.923  69.805  1.00  0.00    -0.121 OA 
BRANCH   8   9
HETATM    9  C   UNL     1      -8.776   8.839  71.125  1.00  0.00    -0.212 C  
HETATM   10  O   UNL     1      -8.041   9.137  72.051  1.00  0.00    -0.321 OA 
BRANCH   9  11
HETATM   11  C   UNL     1     -10.134   8.285  71.309  1.00  0.00    -0.249 A  
HETATM   12  C   UNL     1     -10.402   7.014  70.818  1.00  0.00    -0.206 A  
HETATM   13  N   UNL     1     -11.610   6.406  70.916  1.00  0.00    -0.345 NA 
HETATM   14  C   UNL     1     -12.592   7.098  71.532  1.00  0.00    -0.390 A  
HETATM   15  C   UNL     1     -12.424   8.372  72.054  1.00  0.00    -0.407 A  
HETATM   16  C   UNL     1     -11.173   8.974  71.940  1.00  0.00    -0.438 A  
ENDBRANCH   9  11
ENDBRANCH   8   9
ENDBRANCH   7   8
ENDBRANCH   6   7
ENDBRANCH   5   6
ENDBRANCH   4   5
ENDBRANCH   3   4
ENDBRANCH   2   3
TORSDOF 8
ENDMDL
MODEL      204
REMARK 921   NORMALIZED FREE ENERGY PREDICTED BY IDOCK:   -3.03 KCAL/MOL
REMARK 922        TOTAL FREE ENERGY PREDICTED BY IDOCK:   -4.86 KCAL/MOL
REMARK 923 INTER-LIGAND FREE ENERGY PREDICTED BY IDOCK:   -4.21 KCAL/MOL
REMARK 924 INTRA-LIGAND FREE ENERGY PREDICTED BY IDOCK:   -0.64 KCAL/MOL
REMARK 927      BINDING AFFINITY PREDICTED BY RF-SCORE:    0.00 PKD
ROOT
HETATM    1  C   UNL     1      -7.308  14.627  67.500  1.00  0.00    -0.220 C  
HETATM    2  C   UNL     1      -8.383  15.560  66.969  1.00  0.00    -0.265 C  
ENDROOT
BRANCH   2   3
HETATM    3  C   UNL     1      -9.366  15.973  68.061  1.00  0.00    -0.202 C  
BRANCH   3   4
HETATM    4  C   UNL     1     -10.804  15.717  67.629  1.00  0.00    -0.310 C  
BRANCH   4   5
HETATM    5  O   UNL     1     -10.804  14.777  66.556  1.00  0.00    -0.307 OA 
BRANCH   5   6
HETATM    6  C   UNL     1     -12.103  14.215  66.370  1.00  0.00    -0.451 C  
BRANCH   6   7
HETATM    7  C   UNL     1     -11.989  12.718  66.105  1.00  0.00    -0.414 C  
BRANCH   7   8
HETATM    8  O   UNL     1     -10.811  12.176  66.724  1.00  0.00    -0.231 OA 
BRANCH   8   9
HETATM    9  C   UNL     1     -11.038  11.317  67.749  1.00  0.00    -0.271 C  
HETATM   10  O   UNL     1     -12.129  10.992  68.187  1.00  0.00    -0.610 OA 
BRANCH   9  11
HETATM   11  C   UNL     1      -9.759  10.837  68.314  1.00  0.00    -0.172 A  
HETATM   12  C   UNL     1      -9.777  10.213  69.555  1.00  0.00    -0.229 A  
HETATM   13  N   UNL     1      -8.669   9.742  70.180  1.00  0.00    -0.211 NA 
HETATM   14  C   UNL     1      -7.493   9.902  69.536  1.00  0.00    -0.112 A  
HETATM   15  C   UNL     1      -7.371  10.512  68.296  1.00  0.00    -0.088 A  
HETATM   16  C   UNL     1      -8.525  10.987  67.676  1.00  0.00    -0.121 A  
ENDBRANCH   9  11
ENDBRANCH   8   9
ENDBRANCH   7   8
ENDBRANCH   6   7
ENDBRANCH   5   6
ENDBRANCH   4   5
ENDBRANCH   3   4
ENDBRANCH   2   3
TORSDOF 8
ENDMDL
MODEL      205
REMARK 921   NORMALIZED FREE ENERGY PREDICTED BY IDOCK:   -3.02 KCAL/MOL
REMARK 922        TOTAL FREE ENERGY PREDICTED BY IDOCK:   -4.85 KCAL/MOL
REMARK 923 INTER-LIGAND FREE ENERGY PREDICTED BY IDOCK:   -4.35 KCAL/MOL
REMARK 924 INTRA-LIGAND FREE ENERGY PREDICTED BY IDOCK:   -0.50 KCAL/MOL
REMARK 927      BINDING AFFINITY PREDICTED BY RF-SCORE:    0.00 PKD
ROOT
HETATM    1  C   UNL     1      -9.488  10.386  62.719  1.00  0.00    -0.351 C  
HETATM    2  C   UNL     1      -8.352   9.967  63.637  1.00  0.00    -0.166 C  
ENDROOT
BRANCH   2   3
HETATM    3  C   UNL     1      -8.852   9.631  65.039  1.00  0.00    -0.221 C  
BRANCH   3   4
HETATM    4  C   UNL     1      -8.378  10.665  66.052  1.00  0.00    -0.160 C  
BRANCH   4   5
HETATM    5  O   UNL     1      -9.510  11.375  66.552  1.00  0.00    -0.190 OA 
BRANCH   5   6
HETATM    6  C   UNL     1     -10.561  10.475  66.906  1.00  0.00    -0.243 C  
BRANCH   6   7
HETATM    7  C   UNL     1     -10.400  10.033  68.357  1.00  0.00    -0.191 C  
BRANCH   7   8
HETATM    8  O   UNL     1     -10.513  11.153  69.249  1.00  0.00    -0.214 OA 
BRANCH   8   9
HETATM    9  C   UNL     1     -11.778  11.464  69.632  1.00  0.00    -0.345 C  
HETATM   10  O   UNL     1     -12.673  10.671  69.867  1.00  0.00    -0.241 OA 
BRANCH   9  11
HETATM   11  C   UNL     1     -11.952  12.931  69.693  1.00  0.00    -0.358 A  
HETATM   12  C   UNL     1     -12.490  13.485  70.848  1.00  0.00    -0.369 A  
HETATM   13  N   UNL     1     -12.709  14.813  71.018  1.00  0.00    -0.323 NA 
HETATM   14  C   UNL     1     -12.374  15.621  69.989  1.00  0.00    -0.276 A  
HETATM   15  C   UNL     1     -11.832  15.165  68.797  1.00  0.00    -0.329 A  
HETATM   16  C   UNL     1     -11.618  13.796  68.648  1.00  0.00    -0.369 A  
ENDBRANCH   9  11
ENDBRANCH   8   9
ENDBRANCH   7   8
ENDBRANCH   6   7
ENDBRANCH   5   6
ENDBRANCH   4   5
ENDBRANCH   3   4
ENDBRANCH   2   3
TORSDOF 8
ENDMDL
MODEL      206
REMARK 921   NORMALIZED FREE ENERGY PREDICTED BY IDOCK:   -3.01 KCAL/MOL
REMARK 922        TOTAL FREE ENERGY PREDICTED BY IDOCK:   -4.83 KCAL/MOL
REMARK 923 INTER-LIGAND FREE ENERGY PREDICTED BY IDOCK:   -4.34 KCAL/MOL
REMARK 924 INTRA-LIGAND FREE ENERGY PREDICTED BY IDOCK:   -0.49 KCAL/MOL
REMARK 927      BINDING AFFINITY PREDICTED BY RF-SCORE:    0.00 PKD
ROOT
HETATM    1  C   UNL     1      -7.982  18.340  67.684  1.00  0.00    -0.245 C  
HETATM    2  C   UNL     1      -6.983  17.785  68.685  1.00  0.00    -0.247 C  
ENDROOT
BRANCH   2   3
HETATM    3  C   UNL     1      -5.877  16.987  68.000  1.00  0.00    -0.124 C  
BRANCH   3   4
HETATM    4  C   UNL     1      -6.047  15.493  68.244  1.00  0.00    -0.118 C  
BRANCH   4   5
HETATM    5  O   UNL     1      -7.075  15.297  69.213  1.00  0.00    -0.147 OA 
BRANCH   5   6
HETATM    6  C   UNL     1      -7.906  14.191  68.860  1.00  0.00    -0.076 C  
BRANCH   6   7
HETATM    7  C   UNL     1      -9.052  14.664  67.973  1.00  0.00    -0.189 C  
BRANCH   7   8
HETATM    8  O   UNL     1     -10.055  13.643  67.844  1.00  0.00    -0.232 OA 
BRANCH   8   9
HETATM    9  C   UNL     1     -11.337  14.089  67.822  1.00  0.00    -0.303 C  
HETATM   10  O   UNL     1     -12.000  14.323  66.826  1.00  0.00    -0.414 OA 
BRANCH   9  11
HETATM   11  C   UNL     1     -11.832  14.301  69.199  1.00  0.00    -0.368 A  
HETATM   12  C   UNL     1     -12.071  13.187  69.994  1.00  0.00    -0.305 A  
HETATM   13  N   UNL     1     -12.536  13.253  71.267  1.00  0.00    -0.347 NA 
HETATM   14  C   UNL     1     -12.772  14.486  71.765  1.00  0.00    -0.343 A  
HETATM   15  C   UNL     1     -12.566  15.657  71.051  1.00  0.00    -0.515 A  
HETATM   16  C   UNL     1     -12.088  15.561  69.746  1.00  0.00    -0.372 A  
ENDBRANCH   9  11
ENDBRANCH   8   9
ENDBRANCH   7   8
ENDBRANCH   6   7
ENDBRANCH   5   6
ENDBRANCH   4   5
ENDBRANCH   3   4
ENDBRANCH   2   3
TORSDOF 8
ENDMDL
MODEL      207
REMARK 921   NORMALIZED FREE ENERGY PREDICTED BY IDOCK:   -3.01 KCAL/MOL
REMARK 922        TOTAL FREE ENERGY PREDICTED BY IDOCK:   -4.83 KCAL/MOL
REMARK 923 INTER-LIGAND FREE ENERGY PREDICTED BY IDOCK:   -4.51 KCAL/MOL
REMARK 924 INTRA-LIGAND FREE ENERGY PREDICTED BY IDOCK:   -0.32 KCAL/MOL
REMARK 927      BINDING AFFINITY PREDICTED BY RF-SCORE:    0.00 PKD
ROOT
HETATM    1  C   UNL     1      -8.090   8.080  71.381  1.00  0.00    -0.118 C  
HETATM    2  C   UNL     1      -9.179   7.520  70.483  1.00  0.00    -0.157 C  
ENDROOT
BRANCH   2   3
HETATM    3  C   UNL     1      -9.758   8.587  69.558  1.00  0.00    -0.176 C  
BRANCH   3   4
HETATM    4  C   UNL     1      -8.881   8.778  68.327  1.00  0.00    -0.141 C  
BRANCH   4   5
HETATM    5  O   UNL     1      -8.607  10.169  68.166  1.00  0.00    -0.116 OA 
BRANCH   5   6
HETATM    6  C   UNL     1      -9.628  10.963  68.770  1.00  0.00    -0.189 C  
BRANCH   6   7
HETATM    7  C   UNL     1      -9.623  12.364  68.166  1.00  0.00    -0.218 C  
BRANCH   7   8
HETATM    8  O   UNL     1     -10.696  13.156  68.699  1.00  0.00    -0.247 OA 
BRANCH   8   9
HETATM    9  C   UNL     1     -10.723  14.448  68.287  1.00  0.00    -0.242 C  
HETATM   10  O   UNL     1     -10.433  15.424  68.958  1.00  0.00    -0.229 OA 
BRANCH   9  11
HETATM   11  C   UNL     1     -11.200  14.534  66.890  1.00  0.00    -0.340 A  
HETATM   12  C   UNL     1     -12.391  13.902  66.558  1.00  0.00    -0.404 A  
HETATM   13  N   UNL     1     -12.923  13.900  65.310  1.00  0.00    -0.774 NA 
HETATM   14  C   UNL     1     -12.236  14.561  64.354  1.00  0.00    -0.458 A  
HETATM   15  C   UNL     1     -11.039  15.222  64.586  1.00  0.00    -0.346 A  
HETATM   16  C   UNL     1     -10.514  15.208  65.876  1.00  0.00    -0.350 A  
ENDBRANCH   9  11
ENDBRANCH   8   9
ENDBRANCH   7   8
ENDBRANCH   6   7
ENDBRANCH   5   6
ENDBRANCH   4   5
ENDBRANCH   3   4
ENDBRANCH   2   3
TORSDOF 8
ENDMDL
MODEL      208
REMARK 921   NORMALIZED FREE ENERGY PREDICTED BY IDOCK:   -3.00 KCAL/MOL
REMARK 922        TOTAL FREE ENERGY PREDICTED BY IDOCK:   -4.81 KCAL/MOL
REMARK 923 INTER-LIGAND FREE ENERGY PREDICTED BY IDOCK:   -4.43 KCAL/MOL
REMARK 924 INTRA-LIGAND FREE ENERGY PREDICTED BY IDOCK:   -0.38 KCAL/MOL
REMARK 927      BINDING AFFINITY PREDICTED BY RF-SCORE:    0.00 PKD
ROOT
HETATM    1  C   UNL     1      -5.973   6.939  65.507  1.00  0.00    -0.036 C  
HETATM    2  C   UNL     1      -6.204   8.172  66.363  1.00  0.00    -0.046 C  
ENDROOT
BRANCH   2   3
HETATM    3  C   UNL     1      -7.574   8.146  67.037  1.00  0.00    -0.096 C  
BRANCH   3   4
HETATM    4  C   UNL     1      -8.648   7.656  66.075  1.00  0.00    -0.151 C  
BRANCH   4   5
HETATM    5  O   UNL     1      -9.378   8.780  65.586  1.00  0.00    -0.214 OA 
BRANCH   5   6
HETATM    6  C   UNL     1      -9.640   9.713  66.634  1.00  0.00    -0.187 C  
BRANCH   6   7
HETATM    7  C   UNL     1      -9.649  11.132  66.077  1.00  0.00    -0.217 C  
BRANCH   7   8
HETATM    8  O   UNL     1      -9.962  12.085  67.107  1.00  0.00    -0.194 OA 
BRANCH   8   9
HETATM    9  C   UNL     1     -11.244  12.528  67.116  1.00  0.00    -0.300 C  
HETATM   10  O   UNL     1     -12.153  12.087  67.800  1.00  0.00    -0.537 OA 
BRANCH   9  11
HETATM   11  C   UNL     1     -11.421  13.621  66.136  1.00  0.00    -0.342 A  
HETATM   12  C   UNL     1     -12.505  13.564  65.270  1.00  0.00    -0.482 A  
HETATM   13  N   UNL     1     -12.765  14.499  64.323  1.00  0.00    -0.670 NA 
HETATM   14  C   UNL     1     -11.904  15.536  64.238  1.00  0.00    -0.173 A  
HETATM   15  C   UNL     1     -10.794  15.682  65.056  1.00  0.00    -0.468 A  
HETATM   16  C   UNL     1     -10.549  14.707  66.021  1.00  0.00    -0.314 A  
ENDBRANCH   9  11
ENDBRANCH   8   9
ENDBRANCH   7   8
ENDBRANCH   6   7
ENDBRANCH   5   6
ENDBRANCH   4   5
ENDBRANCH   3   4
ENDBRANCH   2   3
TORSDOF 8
ENDMDL
MODEL      209
REMARK 921   NORMALIZED FREE ENERGY PREDICTED BY IDOCK:   -3.00 KCAL/MOL
REMARK 922        TOTAL FREE ENERGY PREDICTED BY IDOCK:   -4.81 KCAL/MOL
REMARK 923 INTER-LIGAND FREE ENERGY PREDICTED BY IDOCK:   -4.16 KCAL/MOL
REMARK 924 INTRA-LIGAND FREE ENERGY PREDICTED BY IDOCK:   -0.65 KCAL/MOL
REMARK 927      BINDING AFFINITY PREDICTED BY RF-SCORE:    0.00 PKD
ROOT
HETATM    1  C   UNL     1     -10.222   9.410  71.029  1.00  0.00    -0.369 C  
HETATM    2  C   UNL     1     -10.565   8.260  71.960  1.00  0.00    -0.365 C  
ENDROOT
BRANCH   2   3
HETATM    3  C   UNL     1     -11.978   7.737  71.717  1.00  0.00    -0.332 C  
BRANCH   3   4
HETATM    4  C   UNL     1     -12.013   6.787  70.527  1.00  0.00    -0.328 C  
BRANCH   4   5
HETATM    5  O   UNL     1     -10.801   6.034  70.500  1.00  0.00    -0.272 OA 
BRANCH   5   6
HETATM    6  C   UNL     1     -10.463   5.660  69.164  1.00  0.00    -0.269 C  
BRANCH   6   7
HETATM    7  C   UNL     1     -10.901   6.749  68.192  1.00  0.00    -0.228 C  
BRANCH   7   8
HETATM    8  O   UNL     1      -9.860   7.722  68.008  1.00  0.00    -0.153 OA 
BRANCH   8   9
HETATM    9  C   UNL     1      -9.553   8.006  66.717  1.00  0.00    -0.216 C  
HETATM   10  O   UNL     1      -9.150   7.213  65.883  1.00  0.00    -0.122 OA 
BRANCH   9  11
HETATM   11  C   UNL     1      -9.734   9.448  66.448  1.00  0.00    -0.315 A  
HETATM   12  C   UNL     1      -9.850   9.865  65.128  1.00  0.00    -0.278 A  
HETATM   13  N   UNL     1     -10.008  11.160  64.756  1.00  0.00    -0.265 NA 
HETATM   14  C   UNL     1     -10.053  12.077  65.747  1.00  0.00    -0.238 A  
HETATM   15  C   UNL     1      -9.946  11.761  67.093  1.00  0.00    -0.221 A  
HETATM   16  C   UNL     1      -9.784  10.423  67.448  1.00  0.00    -0.191 A  
ENDBRANCH   9  11
ENDBRANCH   8   9
ENDBRANCH   7   8
ENDBRANCH   6   7
ENDBRANCH   5   6
ENDBRANCH   4   5
ENDBRANCH   3   4
ENDBRANCH   2   3
TORSDOF 8
ENDMDL
MODEL      210
REMARK 921   NORMALIZED FREE ENERGY PREDICTED BY IDOCK:   -2.99 KCAL/MOL
REMARK 922        TOTAL FREE ENERGY PREDICTED BY IDOCK:   -4.81 KCAL/MOL
REMARK 923 INTER-LIGAND FREE ENERGY PREDICTED BY IDOCK:   -4.47 KCAL/MOL
REMARK 924 INTRA-LIGAND FREE ENERGY PREDICTED BY IDOCK:   -0.33 KCAL/MOL
REMARK 927      BINDING AFFINITY PREDICTED BY RF-SCORE:    0.00 PKD
ROOT
HETATM    1  C   UNL     1     -14.108  13.189  72.439  1.00  0.00    -0.388 C  
HETATM    2  C   UNL     1     -12.857  13.865  71.905  1.00  0.00    -0.411 C  
ENDROOT
BRANCH   2   3
HETATM    3  C   UNL     1     -13.149  15.271  71.389  1.00  0.00    -0.529 C  
BRANCH   3   4
HETATM    4  C   UNL     1     -12.330  15.578  70.142  1.00  0.00    -0.353 C  
BRANCH   4   5
HETATM    5  O   UNL     1     -10.943  15.505  70.469  1.00  0.00    -0.308 OA 
BRANCH   5   6
HETATM    6  C   UNL     1     -10.162  15.187  69.317  1.00  0.00    -0.251 C  
BRANCH   6   7
HETATM    7  C   UNL     1     -10.877  14.133  68.480  1.00  0.00    -0.252 C  
BRANCH   7   8
HETATM    8  O   UNL     1     -10.572  14.292  67.084  1.00  0.00    -0.275 OA 
BRANCH   8   9
HETATM    9  C   UNL     1      -9.319  13.921  66.719  1.00  0.00    -0.275 C  
HETATM   10  O   UNL     1      -8.334  14.639  66.699  1.00  0.00    -0.128 OA 
BRANCH   9  11
HETATM   11  C   UNL     1      -9.303  12.505  66.296  1.00  0.00    -0.177 A  
HETATM   12  C   UNL     1     -10.309  12.056  65.449  1.00  0.00    -0.266 A  
HETATM   13  N   UNL     1     -10.407  10.779  65.003  1.00  0.00    -0.303 NA 
HETATM   14  C   UNL     1      -9.457   9.914  65.420  1.00  0.00    -0.257 A  
HETATM   15  C   UNL     1      -8.414  10.265  66.264  1.00  0.00    -0.138 A  
HETATM   16  C   UNL     1      -8.337  11.584  66.709  1.00  0.00    -0.165 A  
ENDBRANCH   9  11
ENDBRANCH   8   9
ENDBRANCH   7   8
ENDBRANCH   6   7
ENDBRANCH   5   6
ENDBRANCH   4   5
ENDBRANCH   3   4
ENDBRANCH   2   3
TORSDOF 8
ENDMDL
MODEL      211
REMARK 921   NORMALIZED FREE ENERGY PREDICTED BY IDOCK:   -2.98 KCAL/MOL
REMARK 922        TOTAL FREE ENERGY PREDICTED BY IDOCK:   -4.79 KCAL/MOL
REMARK 923 INTER-LIGAND FREE ENERGY PREDICTED BY IDOCK:   -4.43 KCAL/MOL
REMARK 924 INTRA-LIGAND FREE ENERGY PREDICTED BY IDOCK:   -0.36 KCAL/MOL
REMARK 927      BINDING AFFINITY PREDICTED BY RF-SCORE:    0.00 PKD
ROOT
HETATM    1  C   UNL     1      -6.108  12.811  70.039  1.00  0.00    -0.112 C  
HETATM    2  C   UNL     1      -6.059  11.328  69.714  1.00  0.00    -0.112 C  
ENDROOT
BRANCH   2   3
HETATM    3  C   UNL     1      -7.442  10.772  69.389  1.00  0.00    -0.124 C  
BRANCH   3   4
HETATM    4  C   UNL     1      -7.740  10.878  67.899  1.00  0.00    -0.104 C  
BRANCH   4   5
HETATM    5  O   UNL     1      -8.215   9.617  67.431  1.00  0.00    -0.113 OA 
BRANCH   5   6
HETATM    6  C   UNL     1      -9.101   9.022  68.379  1.00  0.00    -0.133 C  
BRANCH   6   7
HETATM    7  C   UNL     1     -10.530   9.059  67.849  1.00  0.00    -0.234 C  
BRANCH   7   8
HETATM    8  O   UNL     1     -10.640   9.958  66.732  1.00  0.00    -0.208 OA 
BRANCH   8   9
HETATM    9  C   UNL     1     -11.357  11.086  66.965  1.00  0.00    -0.085 C  
HETATM   10  O   UNL     1     -11.838  11.425  68.033  1.00  0.00    -0.570 OA 
BRANCH   9  11
HETATM   11  C   UNL     1     -11.523  11.858  65.715  1.00  0.00    -0.326 A  
HETATM   12  C   UNL     1     -12.367  12.961  65.727  1.00  0.00    -0.375 A  
HETATM   13  N   UNL     1     -12.609  13.740  64.643  1.00  0.00    -0.652 NA 
HETATM   14  C   UNL     1     -11.978  13.401  63.498  1.00  0.00    -0.407 A  
HETATM   15  C   UNL     1     -11.118  12.319  63.385  1.00  0.00    -0.487 A  
HETATM   16  C   UNL     1     -10.887  11.536  64.514  1.00  0.00    -0.390 A  
ENDBRANCH   9  11
ENDBRANCH   8   9
ENDBRANCH   7   8
ENDBRANCH   6   7
ENDBRANCH   5   6
ENDBRANCH   4   5
ENDBRANCH   3   4
ENDBRANCH   2   3
TORSDOF 8
ENDMDL
MODEL      212
REMARK 921   NORMALIZED FREE ENERGY PREDICTED BY IDOCK:   -2.98 KCAL/MOL
REMARK 922        TOTAL FREE ENERGY PREDICTED BY IDOCK:   -4.79 KCAL/MOL
REMARK 923 INTER-LIGAND FREE ENERGY PREDICTED BY IDOCK:   -4.22 KCAL/MOL
REMARK 924 INTRA-LIGAND FREE ENERGY PREDICTED BY IDOCK:   -0.57 KCAL/MOL
REMARK 927      BINDING AFFINITY PREDICTED BY RF-SCORE:    0.00 PKD
ROOT
HETATM    1  C   UNL     1      -9.626   9.628  65.422  1.00  0.00    -0.361 C  
HETATM    2  C   UNL     1      -9.798   9.770  66.924  1.00  0.00    -0.256 C  
ENDROOT
BRANCH   2   3
HETATM    3  C   UNL     1     -10.400  11.121  67.301  1.00  0.00    -0.243 C  
BRANCH   3   4
HETATM    4  C   UNL     1     -10.577  12.004  66.072  1.00  0.00    -0.268 C  
BRANCH   4   5
HETATM    5  O   UNL     1      -9.733  13.147  66.199  1.00  0.00    -0.276 OA 
BRANCH   5   6
HETATM    6  C   UNL     1     -10.355  14.305  65.642  1.00  0.00    -0.336 C  
BRANCH   6   7
HETATM    7  C   UNL     1     -11.431  14.823  66.590  1.00  0.00    -0.335 C  
BRANCH   7   8
HETATM    8  O   UNL     1     -10.889  15.065  67.898  1.00  0.00    -0.265 OA 
BRANCH   8   9
HETATM    9  C   UNL     1     -10.358  16.300  68.087  1.00  0.00    -0.277 C  
HETATM   10  O   UNL     1     -10.907  17.362  67.847  1.00  0.00    -0.375 OA 
BRANCH   9  11
HETATM   11  C   UNL     1      -8.975  16.195  68.597  1.00  0.00    -0.221 A  
HETATM   12  C   UNL     1      -8.514  14.951  69.008  1.00  0.00    -0.178 A  
HETATM   13  N   UNL     1      -7.271  14.731  69.504  1.00  0.00    -0.170 NA 
HETATM   14  C   UNL     1      -6.453  15.802  69.592  1.00  0.00    -0.181 A  
HETATM   15  C   UNL     1      -6.820  17.084  69.210  1.00  0.00    -0.219 A  
HETATM   16  C   UNL     1      -8.103  17.282  68.703  1.00  0.00    -0.261 A  
ENDBRANCH   9  11
ENDBRANCH   8   9
ENDBRANCH   7   8
ENDBRANCH   6   7
ENDBRANCH   5   6
ENDBRANCH   4   5
ENDBRANCH   3   4
ENDBRANCH   2   3
TORSDOF 8
ENDMDL
MODEL      213
REMARK 921   NORMALIZED FREE ENERGY PREDICTED BY IDOCK:   -2.98 KCAL/MOL
REMARK 922        TOTAL FREE ENERGY PREDICTED BY IDOCK:   -4.78 KCAL/MOL
REMARK 923 INTER-LIGAND FREE ENERGY PREDICTED BY IDOCK:   -4.36 KCAL/MOL
REMARK 924 INTRA-LIGAND FREE ENERGY PREDICTED BY IDOCK:   -0.43 KCAL/MOL
REMARK 927      BINDING AFFINITY PREDICTED BY RF-SCORE:    0.00 PKD
ROOT
HETATM    1  C   UNL     1     -12.385  12.186  63.331  1.00  0.00    -0.648 C  
HETATM    2  C   UNL     1     -10.885  12.423  63.332  1.00  0.00    -0.417 C  
ENDROOT
BRANCH   2   3
HETATM    3  C   UNL     1     -10.103  11.113  63.357  1.00  0.00    -0.439 C  
BRANCH   3   4
HETATM    4  C   UNL     1     -10.205  10.440  64.720  1.00  0.00    -0.249 C  
BRANCH   4   5
HETATM    5  O   UNL     1      -8.947   9.847  65.038  1.00  0.00    -0.170 OA 
BRANCH   5   6
HETATM    6  C   UNL     1      -8.257  10.614  66.025  1.00  0.00    -0.158 C  
BRANCH   6   7
HETATM    7  C   UNL     1      -9.253  11.200  67.018  1.00  0.00    -0.163 C  
BRANCH   7   8
HETATM    8  O   UNL     1      -9.113  12.628  67.103  1.00  0.00    -0.195 OA 
BRANCH   8   9
HETATM    9  C   UNL     1     -10.206  13.292  67.558  1.00  0.00    -0.222 C  
HETATM   10  O   UNL     1     -11.300  12.804  67.786  1.00  0.00    -0.258 OA 
BRANCH   9  11
HETATM   11  C   UNL     1      -9.909  14.732  67.709  1.00  0.00    -0.214 A  
HETATM   12  C   UNL     1      -8.847  15.267  66.993  1.00  0.00    -0.237 A  
HETATM   13  N   UNL     1      -8.471  16.569  67.057  1.00  0.00    -0.183 NA 
HETATM   14  C   UNL     1      -9.190  17.370  67.873  1.00  0.00    -0.256 A  
HETATM   15  C   UNL     1     -10.266  16.931  68.629  1.00  0.00    -0.301 A  
HETATM   16  C   UNL     1     -10.631  15.589  68.544  1.00  0.00    -0.246 A  
ENDBRANCH   9  11
ENDBRANCH   8   9
ENDBRANCH   7   8
ENDBRANCH   6   7
ENDBRANCH   5   6
ENDBRANCH   4   5
ENDBRANCH   3   4
ENDBRANCH   2   3
TORSDOF 8
ENDMDL
MODEL      214
REMARK 921   NORMALIZED FREE ENERGY PREDICTED BY IDOCK:   -2.97 KCAL/MOL
REMARK 922        TOTAL FREE ENERGY PREDICTED BY IDOCK:   -4.78 KCAL/MOL
REMARK 923 INTER-LIGAND FREE ENERGY PREDICTED BY IDOCK:   -4.34 KCAL/MOL
REMARK 924 INTRA-LIGAND FREE ENERGY PREDICTED BY IDOCK:   -0.43 KCAL/MOL
REMARK 927      BINDING AFFINITY PREDICTED BY RF-SCORE:    0.00 PKD
ROOT
HETATM    1  C   UNL     1     -10.833  11.555  63.862  1.00  0.00    -0.469 C  
HETATM    2  C   UNL     1     -10.854  11.600  65.380  1.00  0.00    -0.336 C  
ENDROOT
BRANCH   2   3
HETATM    3  C   UNL     1     -10.392  10.281  65.993  1.00  0.00    -0.248 C  
BRANCH   3   4
HETATM    4  C   UNL     1     -10.198  10.415  67.498  1.00  0.00    -0.210 C  
BRANCH   4   5
HETATM    5  O   UNL     1     -11.477  10.469  68.126  1.00  0.00    -0.342 OA 
BRANCH   5   6
HETATM    6  C   UNL     1     -11.433  11.275  69.304  1.00  0.00    -0.301 C  
BRANCH   6   7
HETATM    7  C   UNL     1     -12.119  10.549  70.457  1.00  0.00    -0.345 C  
BRANCH   7   8
HETATM    8  O   UNL     1     -11.961   9.126  70.333  1.00  0.00    -0.120 OA 
BRANCH   8   9
HETATM    9  C   UNL     1     -11.078   8.563  71.196  1.00  0.00    -0.260 C  
HETATM   10  O   UNL     1     -10.835   8.948  72.328  1.00  0.00    -0.332 OA 
BRANCH   9  11
HETATM   11  C   UNL     1     -10.398   7.414  70.563  1.00  0.00    -0.220 A  
HETATM   12  C   UNL     1      -9.024   7.481  70.375  1.00  0.00    -0.152 A  
HETATM   13  N   UNL     1      -8.291   6.497  69.796  1.00  0.00    -0.126 NA 
HETATM   14  C   UNL     1      -8.962   5.398  69.390  1.00  0.00    -0.104 A  
HETATM   15  C   UNL     1     -10.332   5.236  69.532  1.00  0.00    -0.333 A  
HETATM   16  C   UNL     1     -11.061   6.263  70.130  1.00  0.00    -0.443 A  
ENDBRANCH   9  11
ENDBRANCH   8   9
ENDBRANCH   7   8
ENDBRANCH   6   7
ENDBRANCH   5   6
ENDBRANCH   4   5
ENDBRANCH   3   4
ENDBRANCH   2   3
TORSDOF 8
ENDMDL
MODEL      215
REMARK 921   NORMALIZED FREE ENERGY PREDICTED BY IDOCK:   -2.97 KCAL/MOL
REMARK 922        TOTAL FREE ENERGY PREDICTED BY IDOCK:   -4.78 KCAL/MOL
REMARK 923 INTER-LIGAND FREE ENERGY PREDICTED BY IDOCK:   -4.44 KCAL/MOL
REMARK 924 INTRA-LIGAND FREE ENERGY PREDICTED BY IDOCK:   -0.33 KCAL/MOL
REMARK 927      BINDING AFFINITY PREDICTED BY RF-SCORE:    0.00 PKD
ROOT
HETATM    1  C   UNL     1     -12.656  12.697  64.626  1.00  0.00    -0.517 C  
HETATM    2  C   UNL     1     -11.648  13.369  65.542  1.00  0.00    -0.346 C  
ENDROOT
BRANCH   2   3
HETATM    3  C   UNL     1     -10.722  14.308  64.774  1.00  0.00    -0.435 C  
BRANCH   3   4
HETATM    4  C   UNL     1     -11.380  15.663  64.549  1.00  0.00    -0.320 C  
BRANCH   4   5
HETATM    5  O   UNL     1     -10.457  16.691  64.905  1.00  0.00    -0.657 OA 
BRANCH   5   6
HETATM    6  C   UNL     1     -10.868  17.354  66.101  1.00  0.00     0.040 C  
BRANCH   6   7
HETATM    7  C   UNL     1      -9.726  17.359  67.111  1.00  0.00    -0.267 C  
BRANCH   7   8
HETATM    8  O   UNL     1     -10.196  16.995  68.419  1.00  0.00    -0.290 OA 
BRANCH   8   9
HETATM    9  C   UNL     1     -10.614  15.710  68.547  1.00  0.00    -0.256 C  
HETATM   10  O   UNL     1     -11.768  15.340  68.687  1.00  0.00    -0.343 OA 
BRANCH   9  11
HETATM   11  C   UNL     1      -9.460  14.787  68.534  1.00  0.00    -0.214 A  
HETATM   12  C   UNL     1      -8.265  15.215  69.100  1.00  0.00    -0.214 A  
HETATM   13  N   UNL     1      -7.136  14.464  69.138  1.00  0.00    -0.124 NA 
HETATM   14  C   UNL     1      -7.205  13.233  68.588  1.00  0.00    -0.106 A  
HETATM   15  C   UNL     1      -8.349  12.716  67.999  1.00  0.00    -0.175 A  
HETATM   16  C   UNL     1      -9.496  13.508  67.973  1.00  0.00    -0.220 A  
ENDBRANCH   9  11
ENDBRANCH   8   9
ENDBRANCH   7   8
ENDBRANCH   6   7
ENDBRANCH   5   6
ENDBRANCH   4   5
ENDBRANCH   3   4
ENDBRANCH   2   3
TORSDOF 8
ENDMDL
MODEL      216
REMARK 921   NORMALIZED FREE ENERGY PREDICTED BY IDOCK:   -2.96 KCAL/MOL
REMARK 922        TOTAL FREE ENERGY PREDICTED BY IDOCK:   -4.75 KCAL/MOL
REMARK 923 INTER-LIGAND FREE ENERGY PREDICTED BY IDOCK:   -4.03 KCAL/MOL
REMARK 924 INTRA-LIGAND FREE ENERGY PREDICTED BY IDOCK:   -0.73 KCAL/MOL
REMARK 927      BINDING AFFINITY PREDICTED BY RF-SCORE:    0.00 PKD
ROOT
HETATM    1  C   UNL     1     -13.085  12.580  64.453  1.00  0.00    -0.076 C  
HETATM    2  C   UNL     1     -11.777  12.579  65.226  1.00  0.00    -0.430 C  
ENDROOT
BRANCH   2   3
HETATM    3  C   UNL     1     -10.821  13.659  64.724  1.00  0.00    -0.402 C  
BRANCH   3   4
HETATM    4  C   UNL     1     -11.564  14.957  64.435  1.00  0.00    -0.288 C  
BRANCH   4   5
HETATM    5  O   UNL     1     -10.670  16.053  64.624  1.00  0.00    -0.601 OA 
BRANCH   5   6
HETATM    6  C   UNL     1     -10.249  16.138  65.986  1.00  0.00    -0.356 C  
BRANCH   6   7
HETATM    7  C   UNL     1      -8.788  16.569  66.052  1.00  0.00    -0.232 C  
BRANCH   7   8
HETATM    8  O   UNL     1      -7.976  15.541  66.643  1.00  0.00    -0.226 OA 
BRANCH   8   9
HETATM    9  C   UNL     1      -8.370  15.128  67.874  1.00  0.00    -0.149 C  
HETATM   10  O   UNL     1      -8.313  15.779  68.904  1.00  0.00    -0.180 OA 
BRANCH   9  11
HETATM   11  C   UNL     1      -8.855  13.732  67.819  1.00  0.00    -0.188 A  
HETATM   12  C   UNL     1      -9.996  13.400  68.538  1.00  0.00    -0.193 A  
HETATM   13  N   UNL     1     -10.530  12.154  68.575  1.00  0.00    -0.230 NA 
HETATM   14  C   UNL     1      -9.896  11.199  67.861  1.00  0.00    -0.174 A  
HETATM   15  C   UNL     1      -8.752  11.430  67.113  1.00  0.00    -0.155 A  
HETATM   16  C   UNL     1      -8.224  12.720  67.092  1.00  0.00    -0.146 A  
ENDBRANCH   9  11
ENDBRANCH   8   9
ENDBRANCH   7   8
ENDBRANCH   6   7
ENDBRANCH   5   6
ENDBRANCH   4   5
ENDBRANCH   3   4
ENDBRANCH   2   3
TORSDOF 8
ENDMDL
MODEL      217
REMARK 921   NORMALIZED FREE ENERGY PREDICTED BY IDOCK:   -2.95 KCAL/MOL
REMARK 922        TOTAL FREE ENERGY PREDICTED BY IDOCK:   -4.74 KCAL/MOL
REMARK 923 INTER-LIGAND FREE ENERGY PREDICTED BY IDOCK:   -4.42 KCAL/MOL
REMARK 924 INTRA-LIGAND FREE ENERGY PREDICTED BY IDOCK:   -0.32 KCAL/MOL
REMARK 927      BINDING AFFINITY PREDICTED BY RF-SCORE:    0.00 PKD
ROOT
HETATM    1  C   UNL     1      -8.517   3.425  65.538  1.00  0.00    -0.108 C  
HETATM    2  C   UNL     1      -8.366   4.664  66.403  1.00  0.00    -0.106 C  
ENDROOT
BRANCH   2   3
HETATM    3  C   UNL     1      -9.449   5.698  66.106  1.00  0.00    -0.157 C  
BRANCH   3   4
HETATM    4  C   UNL     1     -10.667   5.488  66.996  1.00  0.00    -0.204 C  
BRANCH   4   5
HETATM    5  O   UNL     1     -11.258   6.756  67.278  1.00  0.00    -0.348 OA 
BRANCH   5   6
HETATM    6  C   UNL     1     -10.488   7.815  66.709  1.00  0.00    -0.248 C  
BRANCH   6   7
HETATM    7  C   UNL     1     -10.289   8.923  67.737  1.00  0.00    -0.242 C  
BRANCH   7   8
HETATM    8  O   UNL     1     -10.972  10.122  67.338  1.00  0.00    -0.292 OA 
BRANCH   8   9
HETATM    9  C   UNL     1     -10.210  11.034  66.683  1.00  0.00    -0.235 C  
HETATM   10  O   UNL     1      -9.000  11.157  66.773  1.00  0.00    -0.157 OA 
BRANCH   9  11
HETATM   11  C   UNL     1     -11.057  11.914  65.850  1.00  0.00    -0.365 A  
HETATM   12  C   UNL     1     -10.888  11.884  64.472  1.00  0.00    -0.316 A  
HETATM   13  N   UNL     1     -11.597  12.651  63.607  1.00  0.00    -0.466 NA 
HETATM   14  C   UNL     1     -12.515  13.483  64.143  1.00  0.00    -0.239 A  
HETATM   15  C   UNL     1     -12.757  13.586  65.505  1.00  0.00    -0.493 A  
HETATM   16  C   UNL     1     -12.015  12.787  66.372  1.00  0.00    -0.443 A  
ENDBRANCH   9  11
ENDBRANCH   8   9
ENDBRANCH   7   8
ENDBRANCH   6   7
ENDBRANCH   5   6
ENDBRANCH   4   5
ENDBRANCH   3   4
ENDBRANCH   2   3
TORSDOF 8
ENDMDL
MODEL      218
REMARK 921   NORMALIZED FREE ENERGY PREDICTED BY IDOCK:   -2.95 KCAL/MOL
REMARK 922        TOTAL FREE ENERGY PREDICTED BY IDOCK:   -4.74 KCAL/MOL
REMARK 923 INTER-LIGAND FREE ENERGY PREDICTED BY IDOCK:   -4.21 KCAL/MOL
REMARK 924 INTRA-LIGAND FREE ENERGY PREDICTED BY IDOCK:   -0.53 KCAL/MOL
REMARK 927      BINDING AFFINITY PREDICTED BY RF-SCORE:    0.00 PKD
ROOT
HETATM    1  C   UNL     1      -9.058  10.807  65.111  1.00  0.00    -0.225 C  
HETATM    2  C   UNL     1      -7.886  10.173  65.838  1.00  0.00    -0.132 C  
ENDROOT
BRANCH   2   3
HETATM    3  C   UNL     1      -7.869  10.543  67.319  1.00  0.00    -0.107 C  
BRANCH   3   4
HETATM    4  C   UNL     1      -9.037  11.456  67.669  1.00  0.00    -0.155 C  
BRANCH   4   5
HETATM    5  O   UNL     1      -9.750  10.894  68.769  1.00  0.00    -0.179 OA 
BRANCH   5   6
HETATM    6  C   UNL     1     -11.133  10.736  68.455  1.00  0.00    -0.266 C  
BRANCH   6   7
HETATM    7  C   UNL     1     -11.987  11.472  69.482  1.00  0.00    -0.335 C  
BRANCH   7   8
HETATM    8  O   UNL     1     -11.727  10.985  70.808  1.00  0.00    -0.313 OA 
BRANCH   8   9
HETATM    9  C   UNL     1     -12.510   9.952  71.210  1.00  0.00    -0.381 C  
HETATM   10  O   UNL     1     -13.729   9.939  71.231  1.00  0.00    -0.275 OA 
BRANCH   9  11
HETATM   11  C   UNL     1     -11.676   8.821  71.671  1.00  0.00    -0.402 A  
HETATM   12  C   UNL     1     -12.288   7.593  71.887  1.00  0.00    -0.306 A  
HETATM   13  N   UNL     1     -11.633   6.488  72.320  1.00  0.00    -0.292 NA 
HETATM   14  C   UNL     1     -10.307   6.616  72.547  1.00  0.00    -0.195 A  
HETATM   15  C   UNL     1      -9.606   7.798  72.362  1.00  0.00    -0.238 A  
HETATM   16  C   UNL     1     -10.304   8.919  71.916  1.00  0.00    -0.407 A  
ENDBRANCH   9  11
ENDBRANCH   8   9
ENDBRANCH   7   8
ENDBRANCH   6   7
ENDBRANCH   5   6
ENDBRANCH   4   5
ENDBRANCH   3   4
ENDBRANCH   2   3
TORSDOF 8
ENDMDL
MODEL      219
REMARK 921   NORMALIZED FREE ENERGY PREDICTED BY IDOCK:   -2.94 KCAL/MOL
REMARK 922        TOTAL FREE ENERGY PREDICTED BY IDOCK:   -4.73 KCAL/MOL
REMARK 923 INTER-LIGAND FREE ENERGY PREDICTED BY IDOCK:   -5.34 KCAL/MOL
REMARK 924 INTRA-LIGAND FREE ENERGY PREDICTED BY IDOCK:    0.61 KCAL/MOL
REMARK 927      BINDING AFFINITY PREDICTED BY RF-SCORE:    0.00 PKD
ROOT
HETATM    1  C   UNL     1     -13.778  13.663  72.541  1.00  0.00    -0.663 C  
HETATM    2  C   UNL     1     -12.936  13.120  71.399  1.00  0.00    -0.386 C  
ENDROOT
BRANCH   2   3
HETATM    3  C   UNL     1     -12.294  14.241  70.585  1.00  0.00    -0.431 C  
BRANCH   3   4
HETATM    4  C   UNL     1     -11.836  13.735  69.223  1.00  0.00    -0.344 C  
BRANCH   4   5
HETATM    5  O   UNL     1     -12.160  12.350  69.111  1.00  0.00    -0.253 OA 
BRANCH   5   6
HETATM    6  C   UNL     1     -11.197  11.664  68.311  1.00  0.00    -0.260 C  
BRANCH   6   7
HETATM    7  C   UNL     1     -10.312  12.671  67.585  1.00  0.00    -0.220 C  
BRANCH   7   8
HETATM    8  O   UNL     1      -9.307  12.002  66.805  1.00  0.00    -0.193 OA 
BRANCH   8   9
HETATM    9  C   UNL     1      -9.626  11.799  65.502  1.00  0.00    -0.201 C  
HETATM   10  O   UNL     1      -9.211  10.898  64.792  1.00  0.00    -0.201 OA 
BRANCH   9  11
HETATM   11  C   UNL     1     -10.535  12.861  65.021  1.00  0.00    -0.337 A  
HETATM   12  C   UNL     1     -10.244  14.179  65.348  1.00  0.00    -0.358 A  
HETATM   13  N   UNL     1     -11.007  15.236  64.976  1.00  0.00    -0.416 NA 
HETATM   14  C   UNL     1     -12.108  14.964  64.243  1.00  0.00    -0.353 A  
HETATM   15  C   UNL     1     -12.484  13.683  63.866  1.00  0.00    -0.276 A  
HETATM   16  C   UNL     1     -11.682  12.614  64.262  1.00  0.00    -0.446 A  
ENDBRANCH   9  11
ENDBRANCH   8   9
ENDBRANCH   7   8
ENDBRANCH   6   7
ENDBRANCH   5   6
ENDBRANCH   4   5
ENDBRANCH   3   4
ENDBRANCH   2   3
TORSDOF 8
ENDMDL
MODEL      220
REMARK 921   NORMALIZED FREE ENERGY PREDICTED BY IDOCK:   -2.94 KCAL/MOL
REMARK 922        TOTAL FREE ENERGY PREDICTED BY IDOCK:   -4.73 KCAL/MOL
REMARK 923 INTER-LIGAND FREE ENERGY PREDICTED BY IDOCK:   -4.25 KCAL/MOL
REMARK 924 INTRA-LIGAND FREE ENERGY PREDICTED BY IDOCK:   -0.48 KCAL/MOL
REMARK 927      BINDING AFFINITY PREDICTED BY RF-SCORE:    0.00 PKD
ROOT
HETATM    1  C   UNL     1      -8.176   7.400  66.750  1.00  0.00    -0.121 C  
HETATM    2  C   UNL     1      -9.516   8.041  66.431  1.00  0.00    -0.268 C  
ENDROOT
BRANCH   2   3
HETATM    3  C   UNL     1     -10.143   8.689  67.662  1.00  0.00    -0.271 C  
BRANCH   3   4
HETATM    4  C   UNL     1      -9.097   9.436  68.481  1.00  0.00    -0.131 C  
BRANCH   4   5
HETATM    5  O   UNL     1      -9.758  10.372  69.331  1.00  0.00    -0.217 OA 
BRANCH   5   6
HETATM    6  C   UNL     1     -11.122  10.539  68.943  1.00  0.00    -0.261 C  
BRANCH   6   7
HETATM    7  C   UNL     1     -11.609  11.927  69.341  1.00  0.00    -0.325 C  
BRANCH   7   8
HETATM    8  O   UNL     1     -12.270  12.573  68.240  1.00  0.00    -0.228 OA 
BRANCH   8   9
HETATM    9  C   UNL     1     -11.485  13.386  67.489  1.00  0.00    -0.323 C  
HETATM   10  O   UNL     1     -10.716  14.233  67.910  1.00  0.00    -0.237 OA 
BRANCH   9  11
HETATM   11  C   UNL     1     -11.713  13.138  66.049  1.00  0.00    -0.424 A  
HETATM   12  C   UNL     1     -11.711  11.825  65.597  1.00  0.00    -0.026 A  
HETATM   13  N   UNL     1     -11.897  11.472  64.300  1.00  0.00    -0.112 NA 
HETATM   14  C   UNL     1     -12.094  12.476  63.419  1.00  0.00    -0.529 A  
HETATM   15  C   UNL     1     -12.113  13.817  63.772  1.00  0.00    -0.385 A  
HETATM   16  C   UNL     1     -11.919  14.152  65.111  1.00  0.00    -0.390 A  
ENDBRANCH   9  11
ENDBRANCH   8   9
ENDBRANCH   7   8
ENDBRANCH   6   7
ENDBRANCH   5   6
ENDBRANCH   4   5
ENDBRANCH   3   4
ENDBRANCH   2   3
TORSDOF 8
ENDMDL
MODEL      221
REMARK 921   NORMALIZED FREE ENERGY PREDICTED BY IDOCK:   -2.94 KCAL/MOL
REMARK 922        TOTAL FREE ENERGY PREDICTED BY IDOCK:   -4.72 KCAL/MOL
REMARK 923 INTER-LIGAND FREE ENERGY PREDICTED BY IDOCK:   -4.23 KCAL/MOL
REMARK 924 INTRA-LIGAND FREE ENERGY PREDICTED BY IDOCK:   -0.49 KCAL/MOL
REMARK 927      BINDING AFFINITY PREDICTED BY RF-SCORE:    0.00 PKD
ROOT
HETATM    1  C   UNL     1      -9.538  10.944  63.224  1.00  0.00    -0.377 C  
HETATM    2  C   UNL     1     -10.198  12.244  63.654  1.00  0.00    -0.430 C  
ENDROOT
BRANCH   2   3
HETATM    3  C   UNL     1     -11.712  12.200  63.468  1.00  0.00    -0.579 C  
BRANCH   3   4
HETATM    4  C   UNL     1     -12.432  12.680  64.722  1.00  0.00    -0.484 C  
BRANCH   4   5
HETATM    5  O   UNL     1     -11.697  13.763  65.290  1.00  0.00    -0.319 OA 
BRANCH   5   6
HETATM    6  C   UNL     1     -12.243  14.143  66.553  1.00  0.00    -0.433 C  
BRANCH   6   7
HETATM    7  C   UNL     1     -11.134  14.650  67.468  1.00  0.00    -0.313 C  
BRANCH   7   8
HETATM    8  O   UNL     1     -10.200  13.601  67.772  1.00  0.00    -0.234 OA 
BRANCH   8   9
HETATM    9  C   UNL     1      -8.934  13.807  67.328  1.00  0.00    -0.224 C  
HETATM   10  O   UNL     1      -8.553  14.748  66.653  1.00  0.00    -0.229 OA 
BRANCH   9  11
HETATM   11  C   UNL     1      -8.054  12.694  67.744  1.00  0.00    -0.166 A  
HETATM   12  C   UNL     1      -8.525  11.799  68.695  1.00  0.00    -0.068 A  
HETATM   13  N   UNL     1      -7.808  10.747  69.164  1.00  0.00    -0.148 NA 
HETATM   14  C   UNL     1      -6.567  10.583  68.657  1.00  0.00    -0.052 A  
HETATM   15  C   UNL     1      -6.007  11.422  67.706  1.00  0.00    -0.049 A  
HETATM   16  C   UNL     1      -6.765  12.495  67.241  1.00  0.00    -0.122 A  
ENDBRANCH   9  11
ENDBRANCH   8   9
ENDBRANCH   7   8
ENDBRANCH   6   7
ENDBRANCH   5   6
ENDBRANCH   4   5
ENDBRANCH   3   4
ENDBRANCH   2   3
TORSDOF 8
ENDMDL
MODEL      222
REMARK 921   NORMALIZED FREE ENERGY PREDICTED BY IDOCK:   -2.93 KCAL/MOL
REMARK 922        TOTAL FREE ENERGY PREDICTED BY IDOCK:   -4.71 KCAL/MOL
REMARK 923 INTER-LIGAND FREE ENERGY PREDICTED BY IDOCK:   -4.87 KCAL/MOL
REMARK 924 INTRA-LIGAND FREE ENERGY PREDICTED BY IDOCK:    0.16 KCAL/MOL
REMARK 927      BINDING AFFINITY PREDICTED BY RF-SCORE:    0.00 PKD
ROOT
HETATM    1  C   UNL     1      -9.202   4.681  67.475  1.00  0.00    -0.148 C  
HETATM    2  C   UNL     1     -10.173   5.346  68.435  1.00  0.00    -0.229 C  
ENDROOT
BRANCH   2   3
HETATM    3  C   UNL     1      -9.743   6.769  68.784  1.00  0.00    -0.132 C  
BRANCH   3   4
HETATM    4  C   UNL     1      -9.194   7.490  67.560  1.00  0.00    -0.128 C  
BRANCH   4   5
HETATM    5  O   UNL     1     -10.159   8.441  67.112  1.00  0.00    -0.211 OA 
BRANCH   5   6
HETATM    6  C   UNL     1     -10.550   9.310  68.175  1.00  0.00    -0.198 C  
BRANCH   6   7
HETATM    7  C   UNL     1     -11.064  10.628  67.606  1.00  0.00    -0.319 C  
BRANCH   7   8
HETATM    8  O   UNL     1     -12.195  11.103  68.355  1.00  0.00    -0.610 OA 
BRANCH   8   9
HETATM    9  C   UNL     1     -11.907  11.615  69.578  1.00  0.00    -0.348 C  
HETATM   10  O   UNL     1     -11.711  10.975  70.597  1.00  0.00    -0.329 OA 
BRANCH   9  11
HETATM   11  C   UNL     1     -11.899  13.093  69.530  1.00  0.00    -0.383 A  
HETATM   12  C   UNL     1     -11.365  13.715  68.409  1.00  0.00    -0.295 A  
HETATM   13  N   UNL     1     -11.291  15.060  68.255  1.00  0.00    -0.304 NA 
HETATM   14  C   UNL     1     -11.774  15.816  69.265  1.00  0.00    -0.374 A  
HETATM   15  C   UNL     1     -12.325  15.290  70.423  1.00  0.00    -0.422 A  
HETATM   16  C   UNL     1     -12.389  13.904  70.557  1.00  0.00    -0.439 A  
ENDBRANCH   9  11
ENDBRANCH   8   9
ENDBRANCH   7   8
ENDBRANCH   6   7
ENDBRANCH   5   6
ENDBRANCH   4   5
ENDBRANCH   3   4
ENDBRANCH   2   3
TORSDOF 8
ENDMDL
MODEL      223
REMARK 921   NORMALIZED FREE ENERGY PREDICTED BY IDOCK:   -2.93 KCAL/MOL
REMARK 922        TOTAL FREE ENERGY PREDICTED BY IDOCK:   -4.71 KCAL/MOL
REMARK 923 INTER-LIGAND FREE ENERGY PREDICTED BY IDOCK:   -4.28 KCAL/MOL
REMARK 924 INTRA-LIGAND FREE ENERGY PREDICTED BY IDOCK:   -0.43 KCAL/MOL
REMARK 927      BINDING AFFINITY PREDICTED BY RF-SCORE:    0.00 PKD
ROOT
HETATM    1  C   UNL     1     -10.161  10.651  66.877  1.00  0.00    -0.260 C  
HETATM    2  C   UNL     1     -10.330  11.856  67.787  1.00  0.00    -0.214 C  
ENDROOT
BRANCH   2   3
HETATM    3  C   UNL     1     -11.781  12.039  68.221  1.00  0.00    -0.396 C  
BRANCH   3   4
HETATM    4  C   UNL     1     -11.865  12.507  69.669  1.00  0.00    -0.314 C  
BRANCH   4   5
HETATM    5  O   UNL     1     -11.549  11.412  70.527  1.00  0.00    -0.278 OA 
BRANCH   5   6
HETATM    6  C   UNL     1     -12.712  10.951  71.215  1.00  0.00    -0.437 C  
BRANCH   6   7
HETATM    7  C   UNL     1     -12.796   9.431  71.134  1.00  0.00    -0.251 C  
BRANCH   7   8
HETATM    8  O   UNL     1     -11.573   8.876  70.621  1.00  0.00    -0.271 OA 
BRANCH   8   9
HETATM    9  C   UNL     1     -11.402   7.548  70.840  1.00  0.00    -0.277 C  
HETATM   10  O   UNL     1     -12.152   6.657  70.478  1.00  0.00    -0.390 OA 
BRANCH   9  11
HETATM   11  C   UNL     1     -10.177   7.309  71.632  1.00  0.00    -0.207 A  
HETATM   12  C   UNL     1      -9.533   6.085  71.501  1.00  0.00    -0.149 A  
HETATM   13  N   UNL     1      -8.410   5.746  72.182  1.00  0.00    -0.115 NA 
HETATM   14  C   UNL     1      -7.909   6.670  73.029  1.00  0.00    -0.099 A  
HETATM   15  C   UNL     1      -8.479   7.918  73.230  1.00  0.00    -0.261 A  
HETATM   16  C   UNL     1      -9.632   8.242  72.518  1.00  0.00    -0.365 A  
ENDBRANCH   9  11
ENDBRANCH   8   9
ENDBRANCH   7   8
ENDBRANCH   6   7
ENDBRANCH   5   6
ENDBRANCH   4   5
ENDBRANCH   3   4
ENDBRANCH   2   3
TORSDOF 8
ENDMDL
MODEL      224
REMARK 921   NORMALIZED FREE ENERGY PREDICTED BY IDOCK:   -2.92 KCAL/MOL
REMARK 922        TOTAL FREE ENERGY PREDICTED BY IDOCK:   -4.70 KCAL/MOL
REMARK 923 INTER-LIGAND FREE ENERGY PREDICTED BY IDOCK:   -4.52 KCAL/MOL
REMARK 924 INTRA-LIGAND FREE ENERGY PREDICTED BY IDOCK:   -0.18 KCAL/MOL
REMARK 927      BINDING AFFINITY PREDICTED BY RF-SCORE:    0.00 PKD
ROOT
HETATM    1  C   UNL     1      -9.738   6.351  72.802  1.00  0.00    -0.163 C  
HETATM    2  C   UNL     1     -10.103   5.715  71.472  1.00  0.00    -0.253 C  
ENDROOT
BRANCH   2   3
HETATM    3  C   UNL     1     -11.414   6.270  70.919  1.00  0.00    -0.377 C  
BRANCH   3   4
HETATM    4  C   UNL     1     -11.159   7.436  69.972  1.00  0.00    -0.220 C  
BRANCH   4   5
HETATM    5  O   UNL     1     -10.609   6.932  68.756  1.00  0.00    -0.202 OA 
BRANCH   5   6
HETATM    6  C   UNL     1      -9.791   7.914  68.120  1.00  0.00    -0.169 C  
BRANCH   6   7
HETATM    7  C   UNL     1     -10.472   9.277  68.183  1.00  0.00    -0.215 C  
BRANCH   7   8
HETATM    8  O   UNL     1      -9.735  10.253  67.428  1.00  0.00    -0.155 OA 
BRANCH   8   9
HETATM    9  C   UNL     1     -10.071  10.345  66.116  1.00  0.00    -0.237 C  
HETATM   10  O   UNL     1      -9.686   9.611  65.222  1.00  0.00    -0.300 OA 
BRANCH   9  11
HETATM   11  C   UNL     1     -10.958  11.507  65.891  1.00  0.00    -0.301 A  
HETATM   12  C   UNL     1     -11.115  12.428  66.918  1.00  0.00    -0.287 A  
HETATM   13  N   UNL     1     -11.909  13.524  66.835  1.00  0.00    -0.389 NA 
HETATM   14  C   UNL     1     -12.573  13.708  65.674  1.00  0.00    -0.484 A  
HETATM   15  C   UNL     1     -12.483  12.846  64.591  1.00  0.00    -0.499 A  
HETATM   16  C   UNL     1     -11.660  11.727  64.703  1.00  0.00    -0.270 A  
ENDBRANCH   9  11
ENDBRANCH   8   9
ENDBRANCH   7   8
ENDBRANCH   6   7
ENDBRANCH   5   6
ENDBRANCH   4   5
ENDBRANCH   3   4
ENDBRANCH   2   3
TORSDOF 8
ENDMDL
MODEL      225
REMARK 921   NORMALIZED FREE ENERGY PREDICTED BY IDOCK:   -2.90 KCAL/MOL
REMARK 922        TOTAL FREE ENERGY PREDICTED BY IDOCK:   -4.67 KCAL/MOL
REMARK 923 INTER-LIGAND FREE ENERGY PREDICTED BY IDOCK:   -4.41 KCAL/MOL
REMARK 924 INTRA-LIGAND FREE ENERGY PREDICTED BY IDOCK:   -0.26 KCAL/MOL
REMARK 927      BINDING AFFINITY PREDICTED BY RF-SCORE:    0.00 PKD
ROOT
HETATM    1  C   UNL     1      -6.042  14.556  70.287  1.00  0.00    -0.170 C  
HETATM    2  C   UNL     1      -6.491  15.419  69.121  1.00  0.00    -0.128 C  
ENDROOT
BRANCH   2   3
HETATM    3  C   UNL     1      -7.842  16.077  69.390  1.00  0.00    -0.167 C  
BRANCH   3   4
HETATM    4  C   UNL     1      -8.231  17.014  68.254  1.00  0.00    -0.227 C  
BRANCH   4   5
HETATM    5  O   UNL     1      -7.610  16.564  67.050  1.00  0.00    -0.162 OA 
BRANCH   5   6
HETATM    6  C   UNL     1      -8.587  16.271  66.051  1.00  0.00    -0.211 C  
BRANCH   6   7
HETATM    7  C   UNL     1      -9.610  15.281  66.598  1.00  0.00    -0.257 C  
BRANCH   7   8
HETATM    8  O   UNL     1      -9.061  13.954  66.652  1.00  0.00    -0.247 OA 
BRANCH   8   9
HETATM    9  C   UNL     1      -9.945  12.973  66.966  1.00  0.00    -0.242 C  
HETATM   10  O   UNL     1     -10.012  12.379  68.029  1.00  0.00    -0.195 OA 
BRANCH   9  11
HETATM   11  C   UNL     1     -10.819  12.676  65.811  1.00  0.00    -0.304 A  
HETATM   12  C   UNL     1     -10.277  11.994  64.729  1.00  0.00    -0.279 A  
HETATM   13  N   UNL     1     -10.973  11.675  63.610  1.00  0.00    -0.413 NA 
HETATM   14  C   UNL     1     -12.269  12.054  63.572  1.00  0.00    -0.547 A  
HETATM   15  C   UNL     1     -12.901  12.739  64.599  1.00  0.00    -0.355 A  
HETATM   16  C   UNL     1     -12.162  13.054  65.738  1.00  0.00    -0.511 A  
ENDBRANCH   9  11
ENDBRANCH   8   9
ENDBRANCH   7   8
ENDBRANCH   6   7
ENDBRANCH   5   6
ENDBRANCH   4   5
ENDBRANCH   3   4
ENDBRANCH   2   3
TORSDOF 8
ENDMDL
MODEL      226
REMARK 921   NORMALIZED FREE ENERGY PREDICTED BY IDOCK:   -2.89 KCAL/MOL
REMARK 922        TOTAL FREE ENERGY PREDICTED BY IDOCK:   -4.66 KCAL/MOL
REMARK 923 INTER-LIGAND FREE ENERGY PREDICTED BY IDOCK:   -4.03 KCAL/MOL
REMARK 924 INTRA-LIGAND FREE ENERGY PREDICTED BY IDOCK:   -0.63 KCAL/MOL
REMARK 927      BINDING AFFINITY PREDICTED BY RF-SCORE:    0.00 PKD
ROOT
HETATM    1  C   UNL     1      -7.691   5.402  67.489  1.00  0.00    -0.092 C  
HETATM    2  C   UNL     1      -8.933   4.829  68.149  1.00  0.00    -0.129 C  
ENDROOT
BRANCH   2   3
HETATM    3  C   UNL     1      -9.433   5.717  69.285  1.00  0.00    -0.167 C  
BRANCH   3   4
HETATM    4  C   UNL     1     -10.528   6.659  68.802  1.00  0.00    -0.213 C  
BRANCH   4   5
HETATM    5  O   UNL     1     -11.746   6.335  69.472  1.00  0.00    -0.360 OA 
BRANCH   5   6
HETATM    6  C   UNL     1     -11.519   6.110  70.863  1.00  0.00    -0.248 C  
BRANCH   6   7
HETATM    7  C   UNL     1     -12.498   6.936  71.690  1.00  0.00    -0.375 C  
BRANCH   7   8
HETATM    8  O   UNL     1     -11.799   7.853  72.547  1.00  0.00    -0.354 OA 
BRANCH   8   9
HETATM    9  C   UNL     1     -11.254   8.928  71.923  1.00  0.00    -0.377 C  
HETATM   10  O   UNL     1     -11.867   9.835  71.387  1.00  0.00    -0.361 OA 
BRANCH   9  11
HETATM   11  C   UNL     1      -9.778   8.842  71.941  1.00  0.00    -0.386 A  
HETATM   12  C   UNL     1      -9.070   9.404  70.886  1.00  0.00    -0.152 A  
HETATM   13  N   UNL     1      -7.718   9.378  70.785  1.00  0.00    -0.241 NA 
HETATM   14  C   UNL     1      -7.044   8.765  71.782  1.00  0.00    -0.054 A  
HETATM   15  C   UNL     1      -7.659   8.174  72.875  1.00  0.00    -0.181 A  
HETATM   16  C   UNL     1      -9.050   8.214  72.955  1.00  0.00    -0.344 A  
ENDBRANCH   9  11
ENDBRANCH   8   9
ENDBRANCH   7   8
ENDBRANCH   6   7
ENDBRANCH   5   6
ENDBRANCH   4   5
ENDBRANCH   3   4
ENDBRANCH   2   3
TORSDOF 8
ENDMDL
MODEL      227
REMARK 921   NORMALIZED FREE ENERGY PREDICTED BY IDOCK:   -2.86 KCAL/MOL
REMARK 922        TOTAL FREE ENERGY PREDICTED BY IDOCK:   -4.61 KCAL/MOL
REMARK 923 INTER-LIGAND FREE ENERGY PREDICTED BY IDOCK:   -4.30 KCAL/MOL
REMARK 924 INTRA-LIGAND FREE ENERGY PREDICTED BY IDOCK:   -0.32 KCAL/MOL
REMARK 927      BINDING AFFINITY PREDICTED BY RF-SCORE:    0.00 PKD
ROOT
HETATM    1  C   UNL     1      -5.847  11.086  68.745  1.00  0.00    -0.039 C  
HETATM    2  C   UNL     1      -6.155  11.091  67.258  1.00  0.00    -0.066 C  
ENDROOT
BRANCH   2   3
HETATM    3  C   UNL     1      -7.476  11.792  66.954  1.00  0.00    -0.106 C  
BRANCH   3   4
HETATM    4  C   UNL     1      -8.240  12.102  68.235  1.00  0.00    -0.168 C  
BRANCH   4   5
HETATM    5  O   UNL     1      -8.244  13.514  68.441  1.00  0.00    -0.150 OA 
BRANCH   5   6
HETATM    6  C   UNL     1      -8.721  14.196  67.281  1.00  0.00    -0.218 C  
BRANCH   6   7
HETATM    7  C   UNL     1     -10.221  13.973  67.126  1.00  0.00    -0.258 C  
BRANCH   7   8
HETATM    8  O   UNL     1     -10.946  15.196  67.334  1.00  0.00    -0.300 OA 
BRANCH   8   9
HETATM    9  C   UNL     1     -10.771  16.144  66.380  1.00  0.00    -0.211 C  
HETATM   10  O   UNL     1     -10.814  15.967  65.174  1.00  0.00    -0.414 OA 
BRANCH   9  11
HETATM   11  C   UNL     1     -10.472  17.452  67.000  1.00  0.00    -0.284 A  
HETATM   12  C   UNL     1     -10.428  18.576  66.185  1.00  0.00    -0.413 A  
HETATM   13  N   UNL     1     -10.153  19.825  66.635  1.00  0.00    -0.423 NA 
HETATM   14  C   UNL     1      -9.913  19.957  67.957  1.00  0.00    -0.429 A  
HETATM   15  C   UNL     1      -9.933  18.897  68.852  1.00  0.00    -0.437 A  
HETATM   16  C   UNL     1     -10.218  17.623  68.363  1.00  0.00    -0.381 A  
ENDBRANCH   9  11
ENDBRANCH   8   9
ENDBRANCH   7   8
ENDBRANCH   6   7
ENDBRANCH   5   6
ENDBRANCH   4   5
ENDBRANCH   3   4
ENDBRANCH   2   3
TORSDOF 8
ENDMDL
MODEL      228
REMARK 921   NORMALIZED FREE ENERGY PREDICTED BY IDOCK:   -2.86 KCAL/MOL
REMARK 922        TOTAL FREE ENERGY PREDICTED BY IDOCK:   -4.61 KCAL/MOL
REMARK 923 INTER-LIGAND FREE ENERGY PREDICTED BY IDOCK:   -4.29 KCAL/MOL
REMARK 924 INTRA-LIGAND FREE ENERGY PREDICTED BY IDOCK:   -0.32 KCAL/MOL
REMARK 927      BINDING AFFINITY PREDICTED BY RF-SCORE:    0.00 PKD
ROOT
HETATM    1  C   UNL     1      -6.225   7.170  67.021  1.00  0.00    -0.049 C  
HETATM    2  C   UNL     1      -6.919   5.959  67.621  1.00  0.00    -0.069 C  
ENDROOT
BRANCH   2   3
HETATM    3  C   UNL     1      -8.240   5.656  66.919  1.00  0.00    -0.105 C  
BRANCH   3   4
HETATM    4  C   UNL     1      -9.136   6.887  66.884  1.00  0.00    -0.139 C  
BRANCH   4   5
HETATM    5  O   UNL     1      -9.620   7.144  68.202  1.00  0.00    -0.132 OA 
BRANCH   5   6
HETATM    6  C   UNL     1     -10.689   8.090  68.177  1.00  0.00    -0.032 C  
BRANCH   6   7
HETATM    7  C   UNL     1     -10.389   9.187  67.162  1.00  0.00    -0.267 C  
BRANCH   7   8
HETATM    8  O   UNL     1     -11.385  10.222  67.214  1.00  0.00    -0.280 OA 
BRANCH   8   9
HETATM    9  C   UNL     1     -10.908  11.490  67.157  1.00  0.00    -0.268 C  
HETATM   10  O   UNL     1     -10.210  12.035  67.996  1.00  0.00    -0.187 OA 
BRANCH   9  11
HETATM   11  C   UNL     1     -11.384  12.167  65.932  1.00  0.00    -0.407 A  
HETATM   12  C   UNL     1     -12.310  13.194  66.061  1.00  0.00    -0.359 A  
HETATM   13  N   UNL     1     -12.828  13.880  65.012  1.00  0.00    -0.733 NA 
HETATM   14  C   UNL     1     -12.403  13.524  63.781  1.00  0.00    -0.327 A  
HETATM   15  C   UNL     1     -11.483  12.512  63.549  1.00  0.00    -0.570 A  
HETATM   16  C   UNL     1     -10.966  11.823  64.644  1.00  0.00    -0.368 A  
ENDBRANCH   9  11
ENDBRANCH   8   9
ENDBRANCH   7   8
ENDBRANCH   6   7
ENDBRANCH   5   6
ENDBRANCH   4   5
ENDBRANCH   3   4
ENDBRANCH   2   3
TORSDOF 8
ENDMDL
MODEL      229
REMARK 921   NORMALIZED FREE ENERGY PREDICTED BY IDOCK:   -2.86 KCAL/MOL
REMARK 922        TOTAL FREE ENERGY PREDICTED BY IDOCK:   -4.61 KCAL/MOL
REMARK 923 INTER-LIGAND FREE ENERGY PREDICTED BY IDOCK:   -3.74 KCAL/MOL
REMARK 924 INTRA-LIGAND FREE ENERGY PREDICTED BY IDOCK:   -0.87 KCAL/MOL
REMARK 927      BINDING AFFINITY PREDICTED BY RF-SCORE:    0.00 PKD
ROOT
HETATM    1  C   UNL     1     -13.159  11.682  71.784  1.00  0.00    -0.487 C  
HETATM    2  C   UNL     1     -13.182  10.184  71.530  1.00  0.00    -0.496 C  
ENDROOT
BRANCH   2   3
HETATM    3  C   UNL     1     -11.863   9.689  70.942  1.00  0.00    -0.403 C  
BRANCH   3   4
HETATM    4  C   UNL     1     -11.221  10.755  70.064  1.00  0.00    -0.291 C  
BRANCH   4   5
HETATM    5  O   UNL     1     -11.486  10.449  68.696  1.00  0.00    -0.245 OA 
BRANCH   5   6
HETATM    6  C   UNL     1     -10.536  11.081  67.838  1.00  0.00    -0.192 C  
BRANCH   6   7
HETATM    7  C   UNL     1      -9.952  10.060  66.867  1.00  0.00    -0.209 C  
BRANCH   7   8
HETATM    8  O   UNL     1      -9.756   8.792  67.514  1.00  0.00    -0.153 OA 
BRANCH   8   9
HETATM    9  C   UNL     1      -8.498   8.559  67.966  1.00  0.00    -0.131 C  
HETATM   10  O   UNL     1      -7.485   8.529  67.288  1.00  0.00    -0.090 OA 
BRANCH   9  11
HETATM   11  C   UNL     1      -8.512   8.301  69.421  1.00  0.00    -0.123 A  
HETATM   12  C   UNL     1      -7.899   9.221  70.262  1.00  0.00    -0.141 A  
HETATM   13  N   UNL     1      -7.837   9.088  71.610  1.00  0.00    -0.341 NA 
HETATM   14  C   UNL     1      -8.413   7.988  72.141  1.00  0.00    -0.146 A  
HETATM   15  C   UNL     1      -9.048   7.013  71.386  1.00  0.00    -0.147 A  
HETATM   16  C   UNL     1      -9.098   7.174  70.003  1.00  0.00    -0.145 A  
ENDBRANCH   9  11
ENDBRANCH   8   9
ENDBRANCH   7   8
ENDBRANCH   6   7
ENDBRANCH   5   6
ENDBRANCH   4   5
ENDBRANCH   3   4
ENDBRANCH   2   3
TORSDOF 8
ENDMDL
MODEL      230
REMARK 921   NORMALIZED FREE ENERGY PREDICTED BY IDOCK:   -2.85 KCAL/MOL
REMARK 922        TOTAL FREE ENERGY PREDICTED BY IDOCK:   -4.60 KCAL/MOL
REMARK 923 INTER-LIGAND FREE ENERGY PREDICTED BY IDOCK:   -4.27 KCAL/MOL
REMARK 924 INTRA-LIGAND FREE ENERGY PREDICTED BY IDOCK:   -0.33 KCAL/MOL
REMARK 927      BINDING AFFINITY PREDICTED BY RF-SCORE:    0.00 PKD
ROOT
HETATM    1  C   UNL     1      -6.045   7.362  70.706  1.00  0.00    -0.035 C  
HETATM    2  C   UNL     1      -7.364   6.957  70.071  1.00  0.00    -0.082 C  
ENDROOT
BRANCH   2   3
HETATM    3  C   UNL     1      -8.256   8.164  69.797  1.00  0.00    -0.122 C  
BRANCH   3   4
HETATM    4  C   UNL     1      -8.672   8.218  68.333  1.00  0.00    -0.133 C  
BRANCH   4   5
HETATM    5  O   UNL     1     -10.067   7.937  68.237  1.00  0.00    -0.182 OA 
BRANCH   5   6
HETATM    6  C   UNL     1     -10.594   8.388  66.989  1.00  0.00    -0.246 C  
BRANCH   6   7
HETATM    7  C   UNL     1      -9.951   9.715  66.602  1.00  0.00    -0.236 C  
BRANCH   7   8
HETATM    8  O   UNL     1     -10.932  10.764  66.550  1.00  0.00    -0.192 OA 
BRANCH   8   9
HETATM    9  C   UNL     1     -10.531  11.958  67.055  1.00  0.00    -0.224 C  
HETATM   10  O   UNL     1      -9.897  12.127  68.083  1.00  0.00    -0.196 OA 
BRANCH   9  11
HETATM   11  C   UNL     1     -11.007  13.066  66.201  1.00  0.00    -0.300 A  
HETATM   12  C   UNL     1     -12.285  12.985  65.663  1.00  0.00    -0.466 A  
HETATM   13  N   UNL     1     -12.827  13.931  64.856  1.00  0.00    -0.715 NA 
HETATM   14  C   UNL     1     -12.059  15.006  64.578  1.00  0.00    -0.363 A  
HETATM   15  C   UNL     1     -10.773  15.179  65.066  1.00  0.00    -0.451 A  
HETATM   16  C   UNL     1     -10.239  14.192  65.892  1.00  0.00    -0.332 A  
ENDBRANCH   9  11
ENDBRANCH   8   9
ENDBRANCH   7   8
ENDBRANCH   6   7
ENDBRANCH   5   6
ENDBRANCH   4   5
ENDBRANCH   3   4
ENDBRANCH   2   3
TORSDOF 8
ENDMDL
MODEL      231
REMARK 921   NORMALIZED FREE ENERGY PREDICTED BY IDOCK:   -2.85 KCAL/MOL
REMARK 922        TOTAL FREE ENERGY PREDICTED BY IDOCK:   -4.60 KCAL/MOL
REMARK 923 INTER-LIGAND FREE ENERGY PREDICTED BY IDOCK:   -3.99 KCAL/MOL
REMARK 924 INTRA-LIGAND FREE ENERGY PREDICTED BY IDOCK:   -0.60 KCAL/MOL
REMARK 927      BINDING AFFINITY PREDICTED BY RF-SCORE:    0.00 PKD
ROOT
HETATM    1  C   UNL     1      -6.304   6.397  67.824  1.00  0.00    -0.040 C  
HETATM    2  C   UNL     1      -6.890   5.574  68.959  1.00  0.00    -0.055 C  
ENDROOT
BRANCH   2   3
HETATM    3  C   UNL     1      -8.268   5.022  68.605  1.00  0.00    -0.085 C  
BRANCH   3   4
HETATM    4  C   UNL     1      -8.811   5.673  67.339  1.00  0.00    -0.105 C  
BRANCH   4   5
HETATM    5  O   UNL     1     -10.201   5.371  67.224  1.00  0.00    -0.180 OA 
BRANCH   5   6
HETATM    6  C   UNL     1     -10.999   6.513  67.541  1.00  0.00    -0.359 C  
BRANCH   6   7
HETATM    7  C   UNL     1     -10.196   7.788  67.309  1.00  0.00    -0.273 C  
BRANCH   7   8
HETATM    8  O   UNL     1     -10.614   8.827  68.209  1.00  0.00    -0.210 OA 
BRANCH   8   9
HETATM    9  C   UNL     1     -10.195   8.685  69.492  1.00  0.00    -0.209 C  
HETATM   10  O   UNL     1      -9.084   8.335  69.852  1.00  0.00    -0.145 OA 
BRANCH   9  11
HETATM   11  C   UNL     1     -11.299   8.978  70.431  1.00  0.00    -0.242 A  
HETATM   12  C   UNL     1     -11.914   7.916  71.081  1.00  0.00    -0.285 A  
HETATM   13  N   UNL     1     -12.942   8.057  71.953  1.00  0.00    -0.322 NA 
HETATM   14  C   UNL     1     -13.374   9.315  72.187  1.00  0.00    -0.468 A  
HETATM   15  C   UNL     1     -12.827  10.439  71.588  1.00  0.00    -0.579 A  
HETATM   16  C   UNL     1     -11.771  10.267  70.695  1.00  0.00    -0.438 A  
ENDBRANCH   9  11
ENDBRANCH   8   9
ENDBRANCH   7   8
ENDBRANCH   6   7
ENDBRANCH   5   6
ENDBRANCH   4   5
ENDBRANCH   3   4
ENDBRANCH   2   3
TORSDOF 8
ENDMDL
MODEL      232
REMARK 921   NORMALIZED FREE ENERGY PREDICTED BY IDOCK:   -2.84 KCAL/MOL
REMARK 922        TOTAL FREE ENERGY PREDICTED BY IDOCK:   -4.59 KCAL/MOL
REMARK 923 INTER-LIGAND FREE ENERGY PREDICTED BY IDOCK:   -4.15 KCAL/MOL
REMARK 924 INTRA-LIGAND FREE ENERGY PREDICTED BY IDOCK:   -0.43 KCAL/MOL
REMARK 927      BINDING AFFINITY PREDICTED BY RF-SCORE:    0.00 PKD
ROOT
HETATM    1  C   UNL     1      -9.803  19.903  67.265  1.00  0.00    -0.536 C  
HETATM    2  C   UNL     1      -8.595  19.053  67.618  1.00  0.00    -0.317 C  
ENDROOT
BRANCH   2   3
HETATM    3  C   UNL     1      -8.845  17.572  67.347  1.00  0.00    -0.230 C  
BRANCH   3   4
HETATM    4  C   UNL     1      -9.713  16.955  68.435  1.00  0.00    -0.263 C  
BRANCH   4   5
HETATM    5  O   UNL     1     -10.421  15.843  67.887  1.00  0.00    -0.271 OA 
BRANCH   5   6
HETATM    6  C   UNL     1     -10.855  16.121  66.556  1.00  0.00    -0.139 C  
BRANCH   6   7
HETATM    7  C   UNL     1     -11.481  14.874  65.942  1.00  0.00    -0.276 C  
BRANCH   7   8
HETATM    8  O   UNL     1     -10.619  13.736  66.101  1.00  0.00    -0.284 OA 
BRANCH   8   9
HETATM    9  C   UNL     1     -11.192  12.651  66.681  1.00  0.00    -0.300 C  
HETATM   10  O   UNL     1     -12.381  12.502  66.910  1.00  0.00    -0.431 OA 
BRANCH   9  11
HETATM   11  C   UNL     1     -10.161  11.658  67.050  1.00  0.00    -0.240 A  
HETATM   12  C   UNL     1      -9.049  12.091  67.761  1.00  0.00    -0.187 A  
HETATM   13  N   UNL     1      -8.034  11.279  68.145  1.00  0.00    -0.124 NA 
HETATM   14  C   UNL     1      -8.136   9.975  67.806  1.00  0.00    -0.109 A  
HETATM   15  C   UNL     1      -9.204   9.446  67.098  1.00  0.00    -0.159 A  
HETATM   16  C   UNL     1     -10.234  10.303  66.715  1.00  0.00    -0.286 A  
ENDBRANCH   9  11
ENDBRANCH   8   9
ENDBRANCH   7   8
ENDBRANCH   6   7
ENDBRANCH   5   6
ENDBRANCH   4   5
ENDBRANCH   3   4
ENDBRANCH   2   3
TORSDOF 8
ENDMDL
MODEL      233
REMARK 921   NORMALIZED FREE ENERGY PREDICTED BY IDOCK:   -2.84 KCAL/MOL
REMARK 922        TOTAL FREE ENERGY PREDICTED BY IDOCK:   -4.58 KCAL/MOL
REMARK 923 INTER-LIGAND FREE ENERGY PREDICTED BY IDOCK:   -3.90 KCAL/MOL
REMARK 924 INTRA-LIGAND FREE ENERGY PREDICTED BY IDOCK:   -0.68 KCAL/MOL
REMARK 927      BINDING AFFINITY PREDICTED BY RF-SCORE:    0.00 PKD
ROOT
HETATM    1  C   UNL     1      -7.880   8.789  67.574  1.00  0.00    -0.102 C  
HETATM    2  C   UNL     1      -7.201  10.086  67.978  1.00  0.00    -0.082 C  
ENDROOT
BRANCH   2   3
HETATM    3  C   UNL     1      -7.087  11.056  66.804  1.00  0.00    -0.135 C  
BRANCH   3   4
HETATM    4  C   UNL     1      -8.350  11.895  66.663  1.00  0.00    -0.117 C  
BRANCH   4   5
HETATM    5  O   UNL     1      -8.100  13.199  67.185  1.00  0.00    -0.168 OA 
BRANCH   5   6
HETATM    6  C   UNL     1      -8.922  13.460  68.323  1.00  0.00    -0.176 C  
BRANCH   6   7
HETATM    7  C   UNL     1     -10.215  12.657  68.225  1.00  0.00    -0.239 C  
BRANCH   7   8
HETATM    8  O   UNL     1     -10.469  11.943  69.445  1.00  0.00    -0.001 OA 
BRANCH   8   9
HETATM    9  C   UNL     1     -11.423  10.981  69.366  1.00  0.00    -0.294 C  
HETATM   10  O   UNL     1     -12.369  10.968  68.598  1.00  0.00    -0.539 OA 
BRANCH   9  11
HETATM   11  C   UNL     1     -11.188   9.936  70.386  1.00  0.00    -0.379 A  
HETATM   12  C   UNL     1     -12.268   9.491  71.137  1.00  0.00    -0.338 A  
HETATM   13  N   UNL     1     -12.177   8.547  72.107  1.00  0.00    -0.358 NA 
HETATM   14  C   UNL     1     -10.952   8.026  72.335  1.00  0.00    -0.338 A  
HETATM   15  C   UNL     1      -9.813   8.405  71.640  1.00  0.00    -0.290 A  
HETATM   16  C   UNL     1      -9.935   9.377  70.649  1.00  0.00    -0.349 A  
ENDBRANCH   9  11
ENDBRANCH   8   9
ENDBRANCH   7   8
ENDBRANCH   6   7
ENDBRANCH   5   6
ENDBRANCH   4   5
ENDBRANCH   3   4
ENDBRANCH   2   3
TORSDOF 8
ENDMDL
MODEL      234
REMARK 921   NORMALIZED FREE ENERGY PREDICTED BY IDOCK:   -2.83 KCAL/MOL
REMARK 922        TOTAL FREE ENERGY PREDICTED BY IDOCK:   -4.56 KCAL/MOL
REMARK 923 INTER-LIGAND FREE ENERGY PREDICTED BY IDOCK:   -4.38 KCAL/MOL
REMARK 924 INTRA-LIGAND FREE ENERGY PREDICTED BY IDOCK:   -0.19 KCAL/MOL
REMARK 927      BINDING AFFINITY PREDICTED BY RF-SCORE:    0.00 PKD
ROOT
HETATM    1  C   UNL     1     -12.825  12.340  63.969  1.00  0.00    -0.387 C  
HETATM    2  C   UNL     1     -11.389  11.856  64.073  1.00  0.00    -0.475 C  
ENDROOT
BRANCH   2   3
HETATM    3  C   UNL     1     -10.901  11.832  65.519  1.00  0.00    -0.348 C  
BRANCH   3   4
HETATM    4  C   UNL     1     -11.023  13.208  66.160  1.00  0.00    -0.283 C  
BRANCH   4   5
HETATM    5  O   UNL     1     -11.154  13.050  67.572  1.00  0.00    -0.252 OA 
BRANCH   5   6
HETATM    6  C   UNL     1      -9.885  13.158  68.218  1.00  0.00    -0.227 C  
BRANCH   6   7
HETATM    7  C   UNL     1      -9.768  14.512  68.910  1.00  0.00    -0.169 C  
BRANCH   7   8
HETATM    8  O   UNL     1      -9.774  15.581  67.950  1.00  0.00    -0.210 OA 
BRANCH   8   9
HETATM    9  C   UNL     1      -8.552  15.961  67.498  1.00  0.00    -0.168 C  
HETATM   10  O   UNL     1      -7.773  15.269  66.863  1.00  0.00    -0.199 OA 
BRANCH   9  11
HETATM   11  C   UNL     1      -8.255  17.347  67.916  1.00  0.00    -0.225 A  
HETATM   12  C   UNL     1      -7.090  17.586  68.634  1.00  0.00    -0.243 A  
HETATM   13  N   UNL     1      -6.716  18.810  69.082  1.00  0.00    -0.283 NA 
HETATM   14  C   UNL     1      -7.542  19.840  68.799  1.00  0.00    -0.267 A  
HETATM   15  C   UNL     1      -8.726  19.704  68.090  1.00  0.00    -0.359 A  
HETATM   16  C   UNL     1      -9.087  18.435  67.641  1.00  0.00    -0.282 A  
ENDBRANCH   9  11
ENDBRANCH   8   9
ENDBRANCH   7   8
ENDBRANCH   6   7
ENDBRANCH   5   6
ENDBRANCH   4   5
ENDBRANCH   3   4
ENDBRANCH   2   3
TORSDOF 8
ENDMDL
MODEL      235
REMARK 921   NORMALIZED FREE ENERGY PREDICTED BY IDOCK:   -2.83 KCAL/MOL
REMARK 922        TOTAL FREE ENERGY PREDICTED BY IDOCK:   -4.56 KCAL/MOL
REMARK 923 INTER-LIGAND FREE ENERGY PREDICTED BY IDOCK:   -3.91 KCAL/MOL
REMARK 924 INTRA-LIGAND FREE ENERGY PREDICTED BY IDOCK:   -0.65 KCAL/MOL
REMARK 927      BINDING AFFINITY PREDICTED BY RF-SCORE:    0.00 PKD
ROOT
HETATM    1  C   UNL     1     -10.400  12.090  67.167  1.00  0.00    -0.235 C  
HETATM    2  C   UNL     1     -11.419  12.963  66.454  1.00  0.00    -0.389 C  
ENDROOT
BRANCH   2   3
HETATM    3  C   UNL     1     -10.904  13.448  65.102  1.00  0.00    -0.322 C  
BRANCH   3   4
HETATM    4  C   UNL     1     -11.685  12.814  63.959  1.00  0.00    -0.426 C  
BRANCH   4   5
HETATM    5  O   UNL     1     -11.204  11.486  63.751  1.00  0.00    -0.400 OA 
BRANCH   5   6
HETATM    6  C   UNL     1      -9.969  11.497  63.034  1.00  0.00    -0.322 C  
BRANCH   6   7
HETATM    7  C   UNL     1      -9.129  10.287  63.427  1.00  0.00    -0.262 C  
BRANCH   7   8
HETATM    8  O   UNL     1      -9.645   9.670  64.618  1.00  0.00    -0.247 OA 
BRANCH   8   9
HETATM    9  C   UNL     1      -8.771   8.871  65.282  1.00  0.00    -0.186 C  
HETATM   10  O   UNL     1      -7.559   8.867  65.151  1.00  0.00    -0.094 OA 
BRANCH   9  11
HETATM   11  C   UNL     1      -9.496   7.950  66.182  1.00  0.00    -0.158 A  
HETATM   12  C   UNL     1      -9.323   6.583  66.008  1.00  0.00     0.001 A  
HETATM   13  N   UNL     1      -9.942   5.640  66.762  1.00  0.00    -0.162 NA 
HETATM   14  C   UNL     1     -10.768   6.085  67.734  1.00  0.00    -0.289 A  
HETATM   15  C   UNL     1     -11.006   7.427  67.986  1.00  0.00    -0.037 A  
HETATM   16  C   UNL     1     -10.358   8.375  67.196  1.00  0.00    -0.381 A  
ENDBRANCH   9  11
ENDBRANCH   8   9
ENDBRANCH   7   8
ENDBRANCH   6   7
ENDBRANCH   5   6
ENDBRANCH   4   5
ENDBRANCH   3   4
ENDBRANCH   2   3
TORSDOF 8
ENDMDL
MODEL      236
REMARK 921   NORMALIZED FREE ENERGY PREDICTED BY IDOCK:   -2.83 KCAL/MOL
REMARK 922        TOTAL FREE ENERGY PREDICTED BY IDOCK:   -4.56 KCAL/MOL
REMARK 923 INTER-LIGAND FREE ENERGY PREDICTED BY IDOCK:   -4.07 KCAL/MOL
REMARK 924 INTRA-LIGAND FREE ENERGY PREDICTED BY IDOCK:   -0.49 KCAL/MOL
REMARK 927      BINDING AFFINITY PREDICTED BY RF-SCORE:    0.00 PKD
ROOT
HETATM    1  C   UNL     1      -8.676  10.136  69.436  1.00  0.00    -0.186 C  
HETATM    2  C   UNL     1     -10.098  10.346  68.944  1.00  0.00    -0.213 C  
ENDROOT
BRANCH   2   3
HETATM    3  C   UNL     1     -10.167  10.416  67.421  1.00  0.00    -0.259 C  
BRANCH   3   4
HETATM    4  C   UNL     1     -10.626   9.089  66.832  1.00  0.00    -0.173 C  
BRANCH   4   5
HETATM    5  O   UNL     1      -9.479   8.321  66.472  1.00  0.00    -0.188 OA 
BRANCH   5   6
HETATM    6  C   UNL     1      -9.362   7.161  67.295  1.00  0.00    -0.134 C  
BRANCH   6   7
HETATM    7  C   UNL     1     -10.723   6.491  67.445  1.00  0.00    -0.340 C  
BRANCH   7   8
HETATM    8  O   UNL     1     -11.166   6.528  68.812  1.00  0.00    -0.293 OA 
BRANCH   8   9
HETATM    9  C   UNL     1     -10.547   5.654  69.646  1.00  0.00    -0.331 C  
HETATM   10  O   UNL     1     -10.022   4.602  69.323  1.00  0.00    -0.202 OA 
BRANCH   9  11
HETATM   11  C   UNL     1     -10.623   6.131  71.043  1.00  0.00    -0.301 A  
HETATM   12  C   UNL     1     -10.653   7.500  71.274  1.00  0.00    -0.215 A  
HETATM   13  N   UNL     1     -10.711   8.056  72.509  1.00  0.00    -0.314 NA 
HETATM   14  C   UNL     1     -10.742   7.207  73.559  1.00  0.00    -0.333 A  
HETATM   15  C   UNL     1     -10.716   5.826  73.432  1.00  0.00    -0.303 A  
HETATM   16  C   UNL     1     -10.656   5.280  72.151  1.00  0.00    -0.281 A  
ENDBRANCH   9  11
ENDBRANCH   8   9
ENDBRANCH   7   8
ENDBRANCH   6   7
ENDBRANCH   5   6
ENDBRANCH   4   5
ENDBRANCH   3   4
ENDBRANCH   2   3
TORSDOF 8
ENDMDL
MODEL      237
REMARK 921   NORMALIZED FREE ENERGY PREDICTED BY IDOCK:   -2.82 KCAL/MOL
REMARK 922        TOTAL FREE ENERGY PREDICTED BY IDOCK:   -4.56 KCAL/MOL
REMARK 923 INTER-LIGAND FREE ENERGY PREDICTED BY IDOCK:   -4.16 KCAL/MOL
REMARK 924 INTRA-LIGAND FREE ENERGY PREDICTED BY IDOCK:   -0.39 KCAL/MOL
REMARK 927      BINDING AFFINITY PREDICTED BY RF-SCORE:    0.00 PKD
ROOT
HETATM    1  C   UNL     1     -12.138  12.963  63.561  1.00  0.00    -0.633 C  
HETATM    2  C   UNL     1     -11.148  13.661  64.477  1.00  0.00    -0.396 C  
ENDROOT
BRANCH   2   3
HETATM    3  C   UNL     1     -11.032  12.959  65.827  1.00  0.00    -0.303 C  
BRANCH   3   4
HETATM    4  C   UNL     1     -10.889  13.968  66.959  1.00  0.00    -0.290 C  
BRANCH   4   5
HETATM    5  O   UNL     1     -10.546  13.274  68.157  1.00  0.00    -0.235 OA 
BRANCH   5   6
HETATM    6  C   UNL     1     -11.610  12.418  68.573  1.00  0.00    -0.313 C  
BRANCH   6   7
HETATM    7  C   UNL     1     -11.047  11.206  69.307  1.00  0.00    -0.259 C  
BRANCH   7   8
HETATM    8  O   UNL     1     -11.384   9.989  68.622  1.00  0.00    -0.172 OA 
BRANCH   8   9
HETATM    9  C   UNL     1     -10.386   9.447  67.879  1.00  0.00    -0.225 C  
HETATM   10  O   UNL     1      -9.830   9.972  66.929  1.00  0.00    -0.180 OA 
BRANCH   9  11
HETATM   11  C   UNL     1     -10.072   8.082  68.353  1.00  0.00    -0.221 A  
HETATM   12  C   UNL     1      -8.950   7.901  69.152  1.00  0.00    -0.145 A  
HETATM   13  N   UNL     1      -8.554   6.698  69.637  1.00  0.00    -0.132 NA 
HETATM   14  C   UNL     1      -9.313   5.630  69.310  1.00  0.00    -0.121 A  
HETATM   15  C   UNL     1     -10.450   5.708  68.519  1.00  0.00    -0.273 A  
HETATM   16  C   UNL     1     -10.835   6.956  68.034  1.00  0.00    -0.266 A  
ENDBRANCH   9  11
ENDBRANCH   8   9
ENDBRANCH   7   8
ENDBRANCH   6   7
ENDBRANCH   5   6
ENDBRANCH   4   5
ENDBRANCH   3   4
ENDBRANCH   2   3
TORSDOF 8
ENDMDL
MODEL      238
REMARK 921   NORMALIZED FREE ENERGY PREDICTED BY IDOCK:   -2.82 KCAL/MOL
REMARK 922        TOTAL FREE ENERGY PREDICTED BY IDOCK:   -4.56 KCAL/MOL
REMARK 923 INTER-LIGAND FREE ENERGY PREDICTED BY IDOCK:   -4.29 KCAL/MOL
REMARK 924 INTRA-LIGAND FREE ENERGY PREDICTED BY IDOCK:   -0.27 KCAL/MOL
REMARK 927      BINDING AFFINITY PREDICTED BY RF-SCORE:    0.00 PKD
ROOT
HETATM    1  C   UNL     1     -12.150  13.321  63.828  1.00  0.00    -0.546 C  
HETATM    2  C   UNL     1     -12.650  12.835  65.177  1.00  0.00    -0.513 C  
ENDROOT
BRANCH   2   3
HETATM    3  C   UNL     1     -12.226  13.767  66.309  1.00  0.00    -0.489 C  
BRANCH   3   4
HETATM    4  C   UNL     1     -11.766  12.977  67.527  1.00  0.00    -0.370 C  
BRANCH   4   5
HETATM    5  O   UNL     1     -10.340  12.985  67.572  1.00  0.00    -0.221 OA 
BRANCH   5   6
HETATM    6  C   UNL     1      -9.815  11.674  67.364  1.00  0.00    -0.183 C  
BRANCH   6   7
HETATM    7  C   UNL     1      -9.880  10.876  68.662  1.00  0.00    -0.190 C  
BRANCH   7   8
HETATM    8  O   UNL     1      -8.624  10.233  68.932  1.00  0.00    -0.131 OA 
BRANCH   8   9
HETATM    9  C   UNL     1      -8.638   9.340  69.954  1.00  0.00    -0.170 C  
HETATM   10  O   UNL     1      -8.149   9.505  71.059  1.00  0.00    -0.312 OA 
BRANCH   9  11
HETATM   11  C   UNL     1      -9.305   8.088  69.537  1.00  0.00    -0.156 A  
HETATM   12  C   UNL     1     -10.155   7.461  70.438  1.00  0.00    -0.192 A  
HETATM   13  N   UNL     1     -10.814   6.304  70.176  1.00  0.00    -0.281 NA 
HETATM   14  C   UNL     1     -10.614   5.752  68.960  1.00  0.00    -0.281 A  
HETATM   15  C   UNL     1      -9.785   6.301  67.993  1.00  0.00    -0.122 A  
HETATM   16  C   UNL     1      -9.120   7.490  68.288  1.00  0.00    -0.132 A  
ENDBRANCH   9  11
ENDBRANCH   8   9
ENDBRANCH   7   8
ENDBRANCH   6   7
ENDBRANCH   5   6
ENDBRANCH   4   5
ENDBRANCH   3   4
ENDBRANCH   2   3
TORSDOF 8
ENDMDL
MODEL      239
REMARK 921   NORMALIZED FREE ENERGY PREDICTED BY IDOCK:   -2.82 KCAL/MOL
REMARK 922        TOTAL FREE ENERGY PREDICTED BY IDOCK:   -4.55 KCAL/MOL
REMARK 923 INTER-LIGAND FREE ENERGY PREDICTED BY IDOCK:   -4.17 KCAL/MOL
REMARK 924 INTRA-LIGAND FREE ENERGY PREDICTED BY IDOCK:   -0.39 KCAL/MOL
REMARK 927      BINDING AFFINITY PREDICTED BY RF-SCORE:    0.00 PKD
ROOT
HETATM    1  C   UNL     1      -7.646   5.933  65.701  1.00  0.00    -0.084 C  
HETATM    2  C   UNL     1      -8.855   5.055  65.976  1.00  0.00    -0.130 C  
ENDROOT
BRANCH   2   3
HETATM    3  C   UNL     1      -8.499   3.861  66.858  1.00  0.00    -0.104 C  
BRANCH   3   4
HETATM    4  C   UNL     1      -9.423   3.779  68.067  1.00  0.00    -0.164 C  
BRANCH   4   5
HETATM    5  O   UNL     1      -9.379   5.022  68.767  1.00  0.00    -0.116 OA 
BRANCH   5   6
HETATM    6  C   UNL     1     -10.239   4.996  69.906  1.00  0.00    -0.270 C  
BRANCH   6   7
HETATM    7  C   UNL     1     -11.183   6.193  69.873  1.00  0.00    -0.414 C  
BRANCH   7   8
HETATM    8  O   UNL     1     -10.927   7.078  70.975  1.00  0.00    -0.240 OA 
BRANCH   8   9
HETATM    9  C   UNL     1     -10.306   8.241  70.652  1.00  0.00    -0.199 C  
HETATM   10  O   UNL     1      -9.154   8.358  70.267  1.00  0.00    -0.143 OA 
BRANCH   9  11
HETATM   11  C   UNL     1     -11.212   9.388  70.869  1.00  0.00    -0.393 A  
HETATM   12  C   UNL     1     -11.066  10.508  70.060  1.00  0.00    -0.308 A  
HETATM   13  N   UNL     1     -11.829  11.624  70.171  1.00  0.00    -0.347 NA 
HETATM   14  C   UNL     1     -12.778  11.620  71.131  1.00  0.00    -0.325 A  
HETATM   15  C   UNL     1     -13.001  10.553  71.988  1.00  0.00    -0.490 A  
HETATM   16  C   UNL     1     -12.203   9.418  71.853  1.00  0.00    -0.440 A  
ENDBRANCH   9  11
ENDBRANCH   8   9
ENDBRANCH   7   8
ENDBRANCH   6   7
ENDBRANCH   5   6
ENDBRANCH   4   5
ENDBRANCH   3   4
ENDBRANCH   2   3
TORSDOF 8
ENDMDL
MODEL      240
REMARK 921   NORMALIZED FREE ENERGY PREDICTED BY IDOCK:   -2.80 KCAL/MOL
REMARK 922        TOTAL FREE ENERGY PREDICTED BY IDOCK:   -4.52 KCAL/MOL
REMARK 923 INTER-LIGAND FREE ENERGY PREDICTED BY IDOCK:   -4.07 KCAL/MOL
REMARK 924 INTRA-LIGAND FREE ENERGY PREDICTED BY IDOCK:   -0.46 KCAL/MOL
REMARK 927      BINDING AFFINITY PREDICTED BY RF-SCORE:    0.00 PKD
ROOT
HETATM    1  C   UNL     1      -6.876   9.860  69.242  1.00  0.00    -0.057 C  
HETATM    2  C   UNL     1      -6.936   9.306  67.829  1.00  0.00    -0.081 C  
ENDROOT
BRANCH   2   3
HETATM    3  C   UNL     1      -8.292   9.561  67.177  1.00  0.00    -0.131 C  
BRANCH   3   4
HETATM    4  C   UNL     1      -9.323   9.999  68.209  1.00  0.00    -0.132 C  
BRANCH   4   5
HETATM    5  O   UNL     1      -9.710  11.344  67.933  1.00  0.00    -0.171 OA 
BRANCH   5   6
HETATM    6  C   UNL     1      -9.579  11.638  66.542  1.00  0.00    -0.209 C  
BRANCH   6   7
HETATM    7  C   UNL     1     -10.955  11.868  65.928  1.00  0.00    -0.307 C  
BRANCH   7   8
HETATM    8  O   UNL     1     -11.515  13.114  66.374  1.00  0.00    -0.308 OA 
BRANCH   8   9
HETATM    9  C   UNL     1     -11.038  14.220  65.749  1.00  0.00    -0.310 C  
HETATM   10  O   UNL     1     -10.728  14.304  64.572  1.00  0.00    -0.388 OA 
BRANCH   9  11
HETATM   11  C   UNL     1     -10.899  15.336  66.709  1.00  0.00    -0.312 A  
HETATM   12  C   UNL     1     -10.186  16.461  66.315  1.00  0.00    -0.330 A  
HETATM   13  N   UNL     1      -9.981  17.541  67.110  1.00  0.00    -0.303 NA 
HETATM   14  C   UNL     1     -10.513  17.494  68.350  1.00  0.00    -0.372 A  
HETATM   15  C   UNL     1     -11.239  16.417  68.835  1.00  0.00    -0.304 A  
HETATM   16  C   UNL     1     -11.435  15.320  67.999  1.00  0.00    -0.351 A  
ENDBRANCH   9  11
ENDBRANCH   8   9
ENDBRANCH   7   8
ENDBRANCH   6   7
ENDBRANCH   5   6
ENDBRANCH   4   5
ENDBRANCH   3   4
ENDBRANCH   2   3
TORSDOF 8
ENDMDL
MODEL      241
REMARK 921   NORMALIZED FREE ENERGY PREDICTED BY IDOCK:   -2.79 KCAL/MOL
REMARK 922        TOTAL FREE ENERGY PREDICTED BY IDOCK:   -4.51 KCAL/MOL
REMARK 923 INTER-LIGAND FREE ENERGY PREDICTED BY IDOCK:   -3.96 KCAL/MOL
REMARK 924 INTRA-LIGAND FREE ENERGY PREDICTED BY IDOCK:   -0.55 KCAL/MOL
REMARK 927      BINDING AFFINITY PREDICTED BY RF-SCORE:    0.00 PKD
ROOT
HETATM    1  C   UNL     1      -9.163  10.218  67.302  1.00  0.00    -0.157 C  
HETATM    2  C   UNL     1      -9.919   9.200  66.466  1.00  0.00    -0.359 C  
ENDROOT
BRANCH   2   3
HETATM    3  C   UNL     1      -8.977   8.348  65.620  1.00  0.00    -0.183 C  
BRANCH   3   4
HETATM    4  C   UNL     1      -8.313   7.266  66.461  1.00  0.00    -0.121 C  
BRANCH   4   5
HETATM    5  O   UNL     1      -9.175   6.130  66.518  1.00  0.00    -0.142 OA 
BRANCH   5   6
HETATM    6  C   UNL     1      -9.073   5.475  67.782  1.00  0.00    -0.107 C  
BRANCH   6   7
HETATM    7  C   UNL     1      -8.870   6.506  68.887  1.00  0.00    -0.126 C  
BRANCH   7   8
HETATM    8  O   UNL     1     -10.086   6.718  69.622  1.00  0.00    -0.177 OA 
BRANCH   8   9
HETATM    9  C   UNL     1     -10.080   7.786  70.458  1.00  0.00    -0.192 C  
HETATM   10  O   UNL     1      -9.101   8.431  70.793  1.00  0.00    -0.142 OA 
BRANCH   9  11
HETATM   11  C   UNL     1     -11.444   8.057  70.960  1.00  0.00    -0.300 A  
HETATM   12  C   UNL     1     -11.857   9.379  71.072  1.00  0.00    -0.322 A  
HETATM   13  N   UNL     1     -13.078   9.753  71.529  1.00  0.00    -0.384 NA 
HETATM   14  C   UNL     1     -13.923   8.762  71.888  1.00  0.00    -0.436 A  
HETATM   15  C   UNL     1     -13.604   7.415  71.814  1.00  0.00    -0.396 A  
HETATM   16  C   UNL     1     -12.343   7.058  71.341  1.00  0.00    -0.419 A  
ENDBRANCH   9  11
ENDBRANCH   8   9
ENDBRANCH   7   8
ENDBRANCH   6   7
ENDBRANCH   5   6
ENDBRANCH   4   5
ENDBRANCH   3   4
ENDBRANCH   2   3
TORSDOF 8
ENDMDL
MODEL      242
REMARK 921   NORMALIZED FREE ENERGY PREDICTED BY IDOCK:   -2.79 KCAL/MOL
REMARK 922        TOTAL FREE ENERGY PREDICTED BY IDOCK:   -4.51 KCAL/MOL
REMARK 923 INTER-LIGAND FREE ENERGY PREDICTED BY IDOCK:   -3.65 KCAL/MOL
REMARK 924 INTRA-LIGAND FREE ENERGY PREDICTED BY IDOCK:   -0.86 KCAL/MOL
REMARK 927      BINDING AFFINITY PREDICTED BY RF-SCORE:    0.00 PKD
ROOT
HETATM    1  C   UNL     1     -13.140  11.593  71.793  1.00  0.00    -0.487 C  
HETATM    2  C   UNL     1     -12.883  10.129  71.484  1.00  0.00    -0.548 C  
ENDROOT
BRANCH   2   3
HETATM    3  C   UNL     1     -11.791   9.953  70.432  1.00  0.00    -0.310 C  
BRANCH   3   4
HETATM    4  C   UNL     1     -10.956   8.711  70.711  1.00  0.00    -0.245 C  
BRANCH   4   5
HETATM    5  O   UNL     1      -9.779   9.095  71.421  1.00  0.00    -0.295 OA 
BRANCH   5   6
HETATM    6  C   UNL     1      -8.758   8.106  71.288  1.00  0.00    -0.145 C  
BRANCH   6   7
HETATM    7  C   UNL     1      -7.397   8.778  71.148  1.00  0.00    -0.097 C  
BRANCH   7   8
HETATM    8  O   UNL     1      -7.534  10.111  70.629  1.00  0.00    -0.277 OA 
BRANCH   8   9
HETATM    9  C   UNL     1      -7.235  10.254  69.314  1.00  0.00    -0.093 C  
HETATM   10  O   UNL     1      -6.119  10.233  68.824  1.00  0.00    -0.047 OA 
BRANCH   9  11
HETATM   11  C   UNL     1      -8.465  10.487  68.527  1.00  0.00    -0.131 A  
HETATM   12  C   UNL     1      -8.950   9.453  67.737  1.00  0.00    -0.122 A  
HETATM   13  N   UNL     1     -10.060   9.550  66.963  1.00  0.00    -0.217 NA 
HETATM   14  C   UNL     1     -10.714  10.731  66.982  1.00  0.00    -0.265 A  
HETATM   15  C   UNL     1     -10.309  11.822  67.736  1.00  0.00    -0.211 A  
HETATM   16  C   UNL     1      -9.165  11.696  68.522  1.00  0.00    -0.163 A  
ENDBRANCH   9  11
ENDBRANCH   8   9
ENDBRANCH   7   8
ENDBRANCH   6   7
ENDBRANCH   5   6
ENDBRANCH   4   5
ENDBRANCH   3   4
ENDBRANCH   2   3
TORSDOF 8
ENDMDL
MODEL      243
REMARK 921   NORMALIZED FREE ENERGY PREDICTED BY IDOCK:   -2.77 KCAL/MOL
REMARK 922        TOTAL FREE ENERGY PREDICTED BY IDOCK:   -4.49 KCAL/MOL
REMARK 923 INTER-LIGAND FREE ENERGY PREDICTED BY IDOCK:   -4.04 KCAL/MOL
REMARK 924 INTRA-LIGAND FREE ENERGY PREDICTED BY IDOCK:   -0.44 KCAL/MOL
REMARK 927      BINDING AFFINITY PREDICTED BY RF-SCORE:    0.00 PKD
ROOT
HETATM    1  C   UNL     1     -10.313  10.854  65.713  1.00  0.00    -0.303 C  
HETATM    2  C   UNL     1      -9.182  11.459  66.527  1.00  0.00    -0.200 C  
ENDROOT
BRANCH   2   3
HETATM    3  C   UNL     1      -9.416  12.941  66.808  1.00  0.00    -0.245 C  
BRANCH   3   4
HETATM    4  C   UNL     1     -10.234  13.587  65.697  1.00  0.00    -0.296 C  
BRANCH   4   5
HETATM    5  O   UNL     1      -9.859  14.960  65.585  1.00  0.00    -0.328 OA 
BRANCH   5   6
HETATM    6  C   UNL     1     -10.851  15.808  66.162  1.00  0.00    -0.240 C  
BRANCH   6   7
HETATM    7  C   UNL     1     -10.442  17.269  66.004  1.00  0.00    -0.282 C  
BRANCH   7   8
HETATM    8  O   UNL     1      -9.519  17.657  67.035  1.00  0.00    -0.252 OA 
BRANCH   8   9
HETATM    9  C   UNL     1      -8.206  17.563  66.702  1.00  0.00    -0.256 C  
HETATM   10  O   UNL     1      -7.727  17.771  65.601  1.00  0.00    -0.545 OA 
BRANCH   9  11
HETATM   11  C   UNL     1      -7.409  17.126  67.868  1.00  0.00    -0.185 A  
HETATM   12  C   UNL     1      -7.363  15.771  68.167  1.00  0.00    -0.124 A  
HETATM   13  N   UNL     1      -6.677  15.251  69.215  1.00  0.00    -0.135 NA 
HETATM   14  C   UNL     1      -6.006  16.124  69.996  1.00  0.00    -0.164 A  
HETATM   15  C   UNL     1      -5.990  17.494  69.781  1.00  0.00    -0.245 A  
HETATM   16  C   UNL     1      -6.704  18.002  68.697  1.00  0.00    -0.240 A  
ENDBRANCH   9  11
ENDBRANCH   8   9
ENDBRANCH   7   8
ENDBRANCH   6   7
ENDBRANCH   5   6
ENDBRANCH   4   5
ENDBRANCH   3   4
ENDBRANCH   2   3
TORSDOF 8
ENDMDL
MODEL      244
REMARK 921   NORMALIZED FREE ENERGY PREDICTED BY IDOCK:   -2.77 KCAL/MOL
REMARK 922        TOTAL FREE ENERGY PREDICTED BY IDOCK:   -4.47 KCAL/MOL
REMARK 923 INTER-LIGAND FREE ENERGY PREDICTED BY IDOCK:   -4.12 KCAL/MOL
REMARK 924 INTRA-LIGAND FREE ENERGY PREDICTED BY IDOCK:   -0.35 KCAL/MOL
REMARK 927      BINDING AFFINITY PREDICTED BY RF-SCORE:    0.00 PKD
ROOT
HETATM    1  C   UNL     1      -7.223   7.828  66.879  1.00  0.00    -0.089 C  
HETATM    2  C   UNL     1      -8.390   6.863  67.002  1.00  0.00    -0.121 C  
ENDROOT
BRANCH   2   3
HETATM    3  C   UNL     1      -8.045   5.663  67.880  1.00  0.00    -0.101 C  
BRANCH   3   4
HETATM    4  C   UNL     1      -7.014   6.037  68.936  1.00  0.00    -0.068 C  
BRANCH   4   5
HETATM    5  O   UNL     1      -7.690   6.568  70.075  1.00  0.00    -0.097 OA 
BRANCH   5   6
HETATM    6  C   UNL     1      -8.464   5.560  70.725  1.00  0.00    -0.122 C  
BRANCH   6   7
HETATM    7  C   UNL     1      -9.459   6.205  71.683  1.00  0.00    -0.148 C  
BRANCH   7   8
HETATM    8  O   UNL     1     -10.797   5.756  71.412  1.00  0.00    -0.254 OA 
BRANCH   8   9
HETATM    9  C   UNL     1     -11.439   6.415  70.415  1.00  0.00    -0.393 C  
HETATM   10  O   UNL     1     -11.345   6.182  69.222  1.00  0.00    -0.416 OA 
BRANCH   9  11
HETATM   11  C   UNL     1     -12.263   7.511  70.967  1.00  0.00    -0.288 A  
HETATM   12  C   UNL     1     -11.722   8.790  71.008  1.00  0.00    -0.282 A  
HETATM   13  N   UNL     1     -12.374   9.871  71.501  1.00  0.00    -0.385 NA 
HETATM   14  C   UNL     1     -13.623   9.666  71.973  1.00  0.00    -0.385 A  
HETATM   15  C   UNL     1     -14.249   8.429  71.977  1.00  0.00    -0.528 A  
HETATM   16  C   UNL     1     -13.557   7.334  71.465  1.00  0.00    -0.442 A  
ENDBRANCH   9  11
ENDBRANCH   8   9
ENDBRANCH   7   8
ENDBRANCH   6   7
ENDBRANCH   5   6
ENDBRANCH   4   5
ENDBRANCH   3   4
ENDBRANCH   2   3
TORSDOF 8
ENDMDL
MODEL      245
REMARK 921   NORMALIZED FREE ENERGY PREDICTED BY IDOCK:   -2.74 KCAL/MOL
REMARK 922        TOTAL FREE ENERGY PREDICTED BY IDOCK:   -4.43 KCAL/MOL
REMARK 923 INTER-LIGAND FREE ENERGY PREDICTED BY IDOCK:   -4.14 KCAL/MOL
REMARK 924 INTRA-LIGAND FREE ENERGY PREDICTED BY IDOCK:   -0.29 KCAL/MOL
REMARK 927      BINDING AFFINITY PREDICTED BY RF-SCORE:    0.00 PKD
ROOT
HETATM    1  C   UNL     1      -8.265   6.770  65.845  1.00  0.00    -0.132 C  
HETATM    2  C   UNL     1      -8.269   8.236  66.244  1.00  0.00    -0.112 C  
ENDROOT
BRANCH   2   3
HETATM    3  C   UNL     1      -8.869   9.119  65.153  1.00  0.00    -0.241 C  
BRANCH   3   4
HETATM    4  C   UNL     1      -9.788  10.178  65.749  1.00  0.00    -0.266 C  
BRANCH   4   5
HETATM    5  O   UNL     1     -10.556  10.767  64.701  1.00  0.00    -0.328 OA 
BRANCH   5   6
HETATM    6  C   UNL     1     -11.118  12.011  65.118  1.00  0.00    -0.318 C  
BRANCH   6   7
HETATM    7  C   UNL     1     -10.042  13.091  65.128  1.00  0.00    -0.221 C  
BRANCH   7   8
HETATM    8  O   UNL     1     -10.242  14.005  66.219  1.00  0.00    -0.281 OA 
BRANCH   8   9
HETATM    9  C   UNL     1     -10.454  15.297  65.861  1.00  0.00    -0.331 C  
HETATM   10  O   UNL     1     -11.184  15.684  64.965  1.00  0.00    -0.368 OA 
BRANCH   9  11
HETATM   11  C   UNL     1      -9.635  16.203  66.693  1.00  0.00    -0.263 A  
HETATM   12  C   UNL     1      -8.292  15.901  66.875  1.00  0.00    -0.246 A  
HETATM   13  N   UNL     1      -7.443  16.648  67.624  1.00  0.00    -0.145 NA 
HETATM   14  C   UNL     1      -7.960  17.747  68.215  1.00  0.00    -0.282 A  
HETATM   15  C   UNL     1      -9.287  18.133  68.094  1.00  0.00    -0.295 A  
HETATM   16  C   UNL     1     -10.137  17.347  67.319  1.00  0.00    -0.310 A  
ENDBRANCH   9  11
ENDBRANCH   8   9
ENDBRANCH   7   8
ENDBRANCH   6   7
ENDBRANCH   5   6
ENDBRANCH   4   5
ENDBRANCH   3   4
ENDBRANCH   2   3
TORSDOF 8
ENDMDL
MODEL      246
REMARK 921   NORMALIZED FREE ENERGY PREDICTED BY IDOCK:   -2.74 KCAL/MOL
REMARK 922        TOTAL FREE ENERGY PREDICTED BY IDOCK:   -4.43 KCAL/MOL
REMARK 923 INTER-LIGAND FREE ENERGY PREDICTED BY IDOCK:   -4.11 KCAL/MOL
REMARK 924 INTRA-LIGAND FREE ENERGY PREDICTED BY IDOCK:   -0.32 KCAL/MOL
REMARK 927      BINDING AFFINITY PREDICTED BY RF-SCORE:    0.00 PKD
ROOT
HETATM    1  C   UNL     1     -10.356   5.042  66.799  1.00  0.00    -0.290 C  
HETATM    2  C   UNL     1      -9.591   6.263  67.280  1.00  0.00    -0.138 C  
ENDROOT
BRANCH   2   3
HETATM    3  C   UNL     1     -10.322   6.981  68.411  1.00  0.00    -0.216 C  
BRANCH   3   4
HETATM    4  C   UNL     1      -9.546   6.879  69.717  1.00  0.00    -0.154 C  
BRANCH   4   5
HETATM    5  O   UNL     1      -9.786   8.053  70.491  1.00  0.00    -0.181 OA 
BRANCH   5   6
HETATM    6  C   UNL     1     -11.034   8.649  70.139  1.00  0.00    -0.226 C  
BRANCH   6   7
HETATM    7  C   UNL     1     -10.820  10.105  69.739  1.00  0.00    -0.279 C  
BRANCH   7   8
HETATM    8  O   UNL     1     -11.709  10.480  68.674  1.00  0.00    -0.277 OA 
BRANCH   8   9
HETATM    9  C   UNL     1     -11.107  10.790  67.498  1.00  0.00    -0.308 C  
HETATM   10  O   UNL     1     -10.637   9.996  66.700  1.00  0.00    -0.198 OA 
BRANCH   9  11
HETATM   11  C   UNL     1     -11.052  12.256  67.316  1.00  0.00    -0.326 A  
HETATM   12  C   UNL     1      -9.850  12.908  67.559  1.00  0.00    -0.208 A  
HETATM   13  N   UNL     1      -9.679  14.248  67.438  1.00  0.00    -0.231 NA 
HETATM   14  C   UNL     1     -10.757  14.967  67.056  1.00  0.00    -0.307 A  
HETATM   15  C   UNL     1     -11.998  14.409  66.791  1.00  0.00    -0.423 A  
HETATM   16  C   UNL     1     -12.147  13.030  66.923  1.00  0.00    -0.349 A  
ENDBRANCH   9  11
ENDBRANCH   8   9
ENDBRANCH   7   8
ENDBRANCH   6   7
ENDBRANCH   5   6
ENDBRANCH   4   5
ENDBRANCH   3   4
ENDBRANCH   2   3
TORSDOF 8
ENDMDL
MODEL      247
REMARK 921   NORMALIZED FREE ENERGY PREDICTED BY IDOCK:   -2.74 KCAL/MOL
REMARK 922        TOTAL FREE ENERGY PREDICTED BY IDOCK:   -4.43 KCAL/MOL
REMARK 923 INTER-LIGAND FREE ENERGY PREDICTED BY IDOCK:   -4.06 KCAL/MOL
REMARK 924 INTRA-LIGAND FREE ENERGY PREDICTED BY IDOCK:   -0.37 KCAL/MOL
REMARK 927      BINDING AFFINITY PREDICTED BY RF-SCORE:    0.00 PKD
ROOT
HETATM    1  C   UNL     1      -8.935   7.479  71.107  1.00  0.00    -0.144 C  
HETATM    2  C   UNL     1      -9.882   6.765  70.158  1.00  0.00    -0.187 C  
ENDROOT
BRANCH   2   3
HETATM    3  C   UNL     1     -10.635   7.746  69.263  1.00  0.00    -0.199 C  
BRANCH   3   4
HETATM    4  C   UNL     1     -10.126   7.679  67.829  1.00  0.00    -0.186 C  
BRANCH   4   5
HETATM    5  O   UNL     1      -9.963   9.007  67.334  1.00  0.00    -0.180 OA 
BRANCH   5   6
HETATM    6  C   UNL     1     -10.910   9.894  67.931  1.00  0.00    -0.258 C  
BRANCH   6   7
HETATM    7  C   UNL     1     -10.941  11.213  67.166  1.00  0.00    -0.291 C  
BRANCH   7   8
HETATM    8  O   UNL     1     -12.078  12.003  67.553  1.00  0.00    -0.555 OA 
BRANCH   8   9
HETATM    9  C   UNL     1     -11.874  12.836  68.605  1.00  0.00    -0.304 C  
HETATM   10  O   UNL     1     -12.263  12.660  69.747  1.00  0.00    -0.244 OA 
BRANCH   9  11
HETATM   11  C   UNL     1     -11.131  14.039  68.174  1.00  0.00    -0.280 A  
HETATM   12  C   UNL     1     -11.623  14.770  67.100  1.00  0.00    -0.359 A  
HETATM   13  N   UNL     1     -11.025  15.883  66.607  1.00  0.00    -0.207 NA 
HETATM   14  C   UNL     1      -9.887  16.283  67.214  1.00  0.00    -0.243 A  
HETATM   15  C   UNL     1      -9.317  15.621  68.291  1.00  0.00    -0.192 A  
HETATM   16  C   UNL     1      -9.951  14.480  68.779  1.00  0.00    -0.232 A  
ENDBRANCH   9  11
ENDBRANCH   8   9
ENDBRANCH   7   8
ENDBRANCH   6   7
ENDBRANCH   5   6
ENDBRANCH   4   5
ENDBRANCH   3   4
ENDBRANCH   2   3
TORSDOF 8
ENDMDL
MODEL      248
REMARK 921   NORMALIZED FREE ENERGY PREDICTED BY IDOCK:   -2.74 KCAL/MOL
REMARK 922        TOTAL FREE ENERGY PREDICTED BY IDOCK:   -4.43 KCAL/MOL
REMARK 923 INTER-LIGAND FREE ENERGY PREDICTED BY IDOCK:   -3.92 KCAL/MOL
REMARK 924 INTRA-LIGAND FREE ENERGY PREDICTED BY IDOCK:   -0.51 KCAL/MOL
REMARK 927      BINDING AFFINITY PREDICTED BY RF-SCORE:    0.00 PKD
ROOT
HETATM    1  C   UNL     1     -12.057  12.287  63.703  1.00  0.00    -0.648 C  
HETATM    2  C   UNL     1     -12.020  12.384  65.219  1.00  0.00    -0.461 C  
ENDROOT
BRANCH   2   3
HETATM    3  C   UNL     1     -12.650  13.681  65.720  1.00  0.00    -0.511 C  
BRANCH   3   4
HETATM    4  C   UNL     1     -11.987  14.150  67.009  1.00  0.00    -0.439 C  
BRANCH   4   5
HETATM    5  O   UNL     1     -10.573  14.007  66.880  1.00  0.00    -0.277 OA 
BRANCH   5   6
HETATM    6  C   UNL     1      -9.963  13.799  68.153  1.00  0.00    -0.242 C  
BRANCH   6   7
HETATM    7  C   UNL     1      -9.287  12.433  68.189  1.00  0.00    -0.209 C  
BRANCH   7   8
HETATM    8  O   UNL     1      -8.754  12.091  66.899  1.00  0.00    -0.184 OA 
BRANCH   8   9
HETATM    9  C   UNL     1      -7.606  11.367  66.919  1.00  0.00    -0.151 C  
HETATM   10  O   UNL     1      -6.485  11.803  67.122  1.00  0.00    -0.118 OA 
BRANCH   9  11
HETATM   11  C   UNL     1      -7.885   9.947  66.617  1.00  0.00    -0.110 A  
HETATM   12  C   UNL     1      -8.541   9.640  65.432  1.00  0.00    -0.151 A  
HETATM   13  N   UNL     1      -8.862   8.379  65.051  1.00  0.00    -0.058 NA 
HETATM   14  C   UNL     1      -8.511   7.381  65.891  1.00  0.00    -0.150 A  
HETATM   15  C   UNL     1      -7.855   7.586  67.096  1.00  0.00    -0.117 A  
HETATM   16  C   UNL     1      -7.537   8.892  67.464  1.00  0.00    -0.093 A  
ENDBRANCH   9  11
ENDBRANCH   8   9
ENDBRANCH   7   8
ENDBRANCH   6   7
ENDBRANCH   5   6
ENDBRANCH   4   5
ENDBRANCH   3   4
ENDBRANCH   2   3
TORSDOF 8
ENDMDL
MODEL      249
REMARK 921   NORMALIZED FREE ENERGY PREDICTED BY IDOCK:   -2.72 KCAL/MOL
REMARK 922        TOTAL FREE ENERGY PREDICTED BY IDOCK:   -4.40 KCAL/MOL
REMARK 923 INTER-LIGAND FREE ENERGY PREDICTED BY IDOCK:   -4.02 KCAL/MOL
REMARK 924 INTRA-LIGAND FREE ENERGY PREDICTED BY IDOCK:   -0.39 KCAL/MOL
REMARK 927      BINDING AFFINITY PREDICTED BY RF-SCORE:    0.00 PKD
ROOT
HETATM    1  C   UNL     1      -5.804   6.763  66.072  1.00  0.00    -0.030 C  
HETATM    2  C   UNL     1      -6.801   6.807  64.927  1.00  0.00    -0.050 C  
ENDROOT
BRANCH   2   3
HETATM    3  C   UNL     1      -8.240   6.876  65.430  1.00  0.00    -0.134 C  
BRANCH   3   4
HETATM    4  C   UNL     1      -8.707   5.520  65.944  1.00  0.00    -0.145 C  
BRANCH   4   5
HETATM    5  O   UNL     1      -8.924   5.609  67.351  1.00  0.00    -0.110 OA 
BRANCH   5   6
HETATM    6  C   UNL     1     -10.265   5.248  67.685  1.00  0.00    -0.170 C  
BRANCH   6   7
HETATM    7  C   UNL     1     -11.012   6.463  68.223  1.00  0.00    -0.312 C  
BRANCH   7   8
HETATM    8  O   UNL     1     -10.404   6.945  69.432  1.00  0.00    -0.190 OA 
BRANCH   8   9
HETATM    9  C   UNL     1     -11.013   6.560  70.581  1.00  0.00    -0.287 C  
HETATM   10  O   UNL     1     -10.889   5.480  71.134  1.00  0.00    -0.239 OA 
BRANCH   9  11
HETATM   11  C   UNL     1     -11.906   7.629  71.076  1.00  0.00    -0.306 A  
HETATM   12  C   UNL     1     -11.403   8.920  71.167  1.00  0.00    -0.291 A  
HETATM   13  N   UNL     1     -12.120   9.981  71.616  1.00  0.00    -0.378 NA 
HETATM   14  C   UNL     1     -13.396   9.739  71.989  1.00  0.00    -0.451 A  
HETATM   15  C   UNL     1     -13.988   8.486  71.935  1.00  0.00    -0.498 A  
HETATM   16  C   UNL     1     -13.229   7.414  71.470  1.00  0.00    -0.426 A  
ENDBRANCH   9  11
ENDBRANCH   8   9
ENDBRANCH   7   8
ENDBRANCH   6   7
ENDBRANCH   5   6
ENDBRANCH   4   5
ENDBRANCH   3   4
ENDBRANCH   2   3
TORSDOF 8
ENDMDL
MODEL      250
REMARK 921   NORMALIZED FREE ENERGY PREDICTED BY IDOCK:   -2.72 KCAL/MOL
REMARK 922        TOTAL FREE ENERGY PREDICTED BY IDOCK:   -4.40 KCAL/MOL
REMARK 923 INTER-LIGAND FREE ENERGY PREDICTED BY IDOCK:   -4.11 KCAL/MOL
REMARK 924 INTRA-LIGAND FREE ENERGY PREDICTED BY IDOCK:   -0.29 KCAL/MOL
REMARK 927      BINDING AFFINITY PREDICTED BY RF-SCORE:    0.00 PKD
ROOT
HETATM    1  C   UNL     1     -10.492  11.315  63.715  1.00  0.00    -0.459 C  
HETATM    2  C   UNL     1     -10.258  11.214  65.213  1.00  0.00    -0.337 C  
ENDROOT
BRANCH   2   3
HETATM    3  C   UNL     1      -9.724   9.841  65.612  1.00  0.00    -0.357 C  
BRANCH   3   4
HETATM    4  C   UNL     1      -9.706   9.678  67.126  1.00  0.00    -0.174 C  
BRANCH   4   5
HETATM    5  O   UNL     1     -10.956  10.121  67.653  1.00  0.00    -0.289 OA 
BRANCH   5   6
HETATM    6  C   UNL     1     -10.796  10.652  68.968  1.00  0.00    -0.235 C  
BRANCH   6   7
HETATM    7  C   UNL     1     -11.474   9.739  69.984  1.00  0.00    -0.180 C  
BRANCH   7   8
HETATM    8  O   UNL     1     -10.637   8.616  70.303  1.00  0.00    -0.212 OA 
BRANCH   8   9
HETATM    9  C   UNL     1     -11.230   7.640  71.036  1.00  0.00    -0.267 C  
HETATM   10  O   UNL     1     -12.381   7.252  70.919  1.00  0.00    -0.314 OA 
BRANCH   9  11
HETATM   11  C   UNL     1     -10.294   7.116  72.053  1.00  0.00    -0.214 A  
HETATM   12  C   UNL     1     -10.652   7.210  73.391  1.00  0.00    -0.382 A  
HETATM   13  N   UNL     1      -9.873   6.776  74.414  1.00  0.00    -0.309 NA 
HETATM   14  C   UNL     1      -8.686   6.223  74.082  1.00  0.00    -0.127 A  
HETATM   15  C   UNL     1      -8.240   6.086  72.777  1.00  0.00    -0.118 A  
HETATM   16  C   UNL     1      -9.059   6.540  71.745  1.00  0.00    -0.142 A  
ENDBRANCH   9  11
ENDBRANCH   8   9
ENDBRANCH   7   8
ENDBRANCH   6   7
ENDBRANCH   5   6
ENDBRANCH   4   5
ENDBRANCH   3   4
ENDBRANCH   2   3
TORSDOF 8
ENDMDL
MODEL      251
REMARK 921   NORMALIZED FREE ENERGY PREDICTED BY IDOCK:   -2.71 KCAL/MOL
REMARK 922        TOTAL FREE ENERGY PREDICTED BY IDOCK:   -4.40 KCAL/MOL
REMARK 923 INTER-LIGAND FREE ENERGY PREDICTED BY IDOCK:   -3.87 KCAL/MOL
REMARK 924 INTRA-LIGAND FREE ENERGY PREDICTED BY IDOCK:   -0.53 KCAL/MOL
REMARK 927      BINDING AFFINITY PREDICTED BY RF-SCORE:    0.00 PKD
ROOT
HETATM    1  C   UNL     1     -10.506   8.509  66.711  1.00  0.00    -0.308 C  
HETATM    2  C   UNL     1      -9.662   9.232  65.676  1.00  0.00    -0.302 C  
ENDROOT
BRANCH   2   3
HETATM    3  C   UNL     1     -10.232  10.607  65.340  1.00  0.00    -0.341 C  
BRANCH   3   4
HETATM    4  C   UNL     1      -9.659  11.678  66.260  1.00  0.00    -0.221 C  
BRANCH   4   5
HETATM    5  O   UNL     1      -8.612  11.105  67.040  1.00  0.00    -0.139 OA 
BRANCH   5   6
HETATM    6  C   UNL     1      -8.678  11.556  68.393  1.00  0.00    -0.160 C  
BRANCH   6   7
HETATM    7  C   UNL     1      -7.630  10.835  69.233  1.00  0.00    -0.129 C  
BRANCH   7   8
HETATM    8  O   UNL     1      -8.251  10.036  70.253  1.00  0.00    -0.153 OA 
BRANCH   8   9
HETATM    9  C   UNL     1      -8.473   8.739  69.919  1.00  0.00    -0.131 C  
HETATM   10  O   UNL     1      -7.840   8.089  69.104  1.00  0.00    -0.104 OA 
BRANCH   9  11
HETATM   11  C   UNL     1      -9.637   8.207  70.657  1.00  0.00    -0.179 A  
HETATM   12  C   UNL     1     -10.319   7.122  70.123  1.00  0.00    -0.206 A  
HETATM   13  N   UNL     1     -11.407   6.554  70.701  1.00  0.00    -0.328 NA 
HETATM   14  C   UNL     1     -11.830   7.094  71.864  1.00  0.00    -0.300 A  
HETATM   15  C   UNL     1     -11.218   8.178  72.476  1.00  0.00    -0.459 A  
HETATM   16  C   UNL     1     -10.102   8.743  71.861  1.00  0.00    -0.409 A  
ENDBRANCH   9  11
ENDBRANCH   8   9
ENDBRANCH   7   8
ENDBRANCH   6   7
ENDBRANCH   5   6
ENDBRANCH   4   5
ENDBRANCH   3   4
ENDBRANCH   2   3
TORSDOF 8
ENDMDL
MODEL      252
REMARK 921   NORMALIZED FREE ENERGY PREDICTED BY IDOCK:   -2.71 KCAL/MOL
REMARK 922        TOTAL FREE ENERGY PREDICTED BY IDOCK:   -4.39 KCAL/MOL
REMARK 923 INTER-LIGAND FREE ENERGY PREDICTED BY IDOCK:   -3.63 KCAL/MOL
REMARK 924 INTRA-LIGAND FREE ENERGY PREDICTED BY IDOCK:   -0.76 KCAL/MOL
REMARK 927      BINDING AFFINITY PREDICTED BY RF-SCORE:    0.00 PKD
ROOT
HETATM    1  C   UNL     1     -12.430  13.916  64.588  1.00  0.00    -0.361 C  
HETATM    2  C   UNL     1     -11.780  14.894  65.552  1.00  0.00    -0.211 C  
ENDROOT
BRANCH   2   3
HETATM    3  C   UNL     1     -10.786  15.812  64.845  1.00  0.00    -0.433 C  
BRANCH   3   4
HETATM    4  C   UNL     1     -10.692  17.161  65.546  1.00  0.00    -0.117 C  
BRANCH   4   5
HETATM    5  O   UNL     1      -9.337  17.388  65.930  1.00  0.00    -0.508 OA 
BRANCH   5   6
HETATM    6  C   UNL     1      -9.139  17.077  67.310  1.00  0.00    -0.223 C  
BRANCH   6   7
HETATM    7  C   UNL     1      -8.194  15.889  67.445  1.00  0.00    -0.168 C  
BRANCH   7   8
HETATM    8  O   UNL     1      -8.497  15.124  68.624  1.00  0.00    -0.152 OA 
BRANCH   8   9
HETATM    9  C   UNL     1      -9.495  14.216  68.485  1.00  0.00    -0.202 C  
HETATM   10  O   UNL     1     -10.638  14.335  68.893  1.00  0.00    -0.242 OA 
BRANCH   9  11
HETATM   11  C   UNL     1      -9.001  13.008  67.791  1.00  0.00    -0.191 A  
HETATM   12  C   UNL     1      -7.831  12.415  68.248  1.00  0.00    -0.150 A  
HETATM   13  N   UNL     1      -7.273  11.312  67.687  1.00  0.00    -0.088 NA 
HETATM   14  C   UNL     1      -7.915  10.779  66.625  1.00  0.00    -0.139 A  
HETATM   15  C   UNL     1      -9.087  11.297  66.095  1.00  0.00    -0.216 A  
HETATM   16  C   UNL     1      -9.638  12.431  66.690  1.00  0.00    -0.230 A  
ENDBRANCH   9  11
ENDBRANCH   8   9
ENDBRANCH   7   8
ENDBRANCH   6   7
ENDBRANCH   5   6
ENDBRANCH   4   5
ENDBRANCH   3   4
ENDBRANCH   2   3
TORSDOF 8
ENDMDL
MODEL      253
REMARK 921   NORMALIZED FREE ENERGY PREDICTED BY IDOCK:   -2.70 KCAL/MOL
REMARK 922        TOTAL FREE ENERGY PREDICTED BY IDOCK:   -4.38 KCAL/MOL
REMARK 923 INTER-LIGAND FREE ENERGY PREDICTED BY IDOCK:   -4.01 KCAL/MOL
REMARK 924 INTRA-LIGAND FREE ENERGY PREDICTED BY IDOCK:   -0.37 KCAL/MOL
REMARK 927      BINDING AFFINITY PREDICTED BY RF-SCORE:    0.00 PKD
ROOT
HETATM    1  C   UNL     1      -5.822   7.034  66.646  1.00  0.00    -0.030 C  
HETATM    2  C   UNL     1      -6.891   6.137  67.245  1.00  0.00    -0.063 C  
ENDROOT
BRANCH   2   3
HETATM    3  C   UNL     1      -8.114   6.029  66.338  1.00  0.00    -0.110 C  
BRANCH   3   4
HETATM    4  C   UNL     1      -8.542   7.399  65.830  1.00  0.00    -0.136 C  
BRANCH   4   5
HETATM    5  O   UNL     1      -9.113   8.136  66.910  1.00  0.00    -0.142 OA 
BRANCH   5   6
HETATM    6  C   UNL     1     -10.029   9.119  66.429  1.00  0.00    -0.288 C  
BRANCH   6   7
HETATM    7  C   UNL     1      -9.435   9.837  65.223  1.00  0.00    -0.279 C  
BRANCH   7   8
HETATM    8  O   UNL     1     -10.449  10.564  64.509  1.00  0.00    -0.310 OA 
BRANCH   8   9
HETATM    9  C   UNL     1     -10.107  11.825  64.141  1.00  0.00    -0.310 C  
HETATM   10  O   UNL     1      -9.439  12.134  63.168  1.00  0.00    -0.283 OA 
BRANCH   9  11
HETATM   11  C   UNL     1     -10.626  12.806  65.117  1.00  0.00    -0.324 A  
HETATM   12  C   UNL     1      -9.716  13.565  65.840  1.00  0.00    -0.181 A  
HETATM   13  N   UNL     1     -10.070  14.487  66.769  1.00  0.00    -0.259 NA 
HETATM   14  C   UNL     1     -11.392  14.658  66.984  1.00  0.00    -0.355 A  
HETATM   15  C   UNL     1     -12.378  13.949  66.315  1.00  0.00    -0.489 A  
HETATM   16  C   UNL     1     -11.987  13.007  65.364  1.00  0.00    -0.457 A  
ENDBRANCH   9  11
ENDBRANCH   8   9
ENDBRANCH   7   8
ENDBRANCH   6   7
ENDBRANCH   5   6
ENDBRANCH   4   5
ENDBRANCH   3   4
ENDBRANCH   2   3
TORSDOF 8
ENDMDL
MODEL      254
REMARK 921   NORMALIZED FREE ENERGY PREDICTED BY IDOCK:   -2.70 KCAL/MOL
REMARK 922        TOTAL FREE ENERGY PREDICTED BY IDOCK:   -4.37 KCAL/MOL
REMARK 923 INTER-LIGAND FREE ENERGY PREDICTED BY IDOCK:   -3.90 KCAL/MOL
REMARK 924 INTRA-LIGAND FREE ENERGY PREDICTED BY IDOCK:   -0.47 KCAL/MOL
REMARK 927      BINDING AFFINITY PREDICTED BY RF-SCORE:    0.00 PKD
ROOT
HETATM    1  C   UNL     1      -7.750  10.020  67.329  1.00  0.00    -0.095 C  
HETATM    2  C   UNL     1      -6.483   9.284  67.732  1.00  0.00    -0.059 C  
ENDROOT
BRANCH   2   3
HETATM    3  C   UNL     1      -6.442   9.004  69.232  1.00  0.00    -0.045 C  
BRANCH   3   4
HETATM    4  C   UNL     1      -7.846   8.966  69.821  1.00  0.00    -0.090 C  
BRANCH   4   5
HETATM    5  O   UNL     1      -8.079   7.674  70.378  1.00  0.00    -0.109 OA 
BRANCH   5   6
HETATM    6  C   UNL     1      -9.170   7.025  69.723  1.00  0.00    -0.147 C  
BRANCH   6   7
HETATM    7  C   UNL     1      -9.556   5.761  70.483  1.00  0.00    -0.173 C  
BRANCH   7   8
HETATM    8  O   UNL     1     -10.963   5.745  70.772  1.00  0.00    -0.283 OA 
BRANCH   8   9
HETATM    9  C   UNL     1     -11.308   6.204  72.001  1.00  0.00    -0.297 C  
HETATM   10  O   UNL     1     -10.984   5.712  73.069  1.00  0.00    -0.248 OA 
BRANCH   9  11
HETATM   11  C   UNL     1     -12.186   7.387  71.883  1.00  0.00    -0.344 A  
HETATM   12  C   UNL     1     -11.615   8.648  71.994  1.00  0.00    -0.370 A  
HETATM   13  N   UNL     1     -12.317   9.806  71.915  1.00  0.00    -0.368 NA 
HETATM   14  C   UNL     1     -13.648   9.698  71.714  1.00  0.00    -0.343 A  
HETATM   15  C   UNL     1     -14.311   8.486  71.591  1.00  0.00    -0.497 A  
HETATM   16  C   UNL     1     -13.566   7.312  71.676  1.00  0.00    -0.435 A  
ENDBRANCH   9  11
ENDBRANCH   8   9
ENDBRANCH   7   8
ENDBRANCH   6   7
ENDBRANCH   5   6
ENDBRANCH   4   5
ENDBRANCH   3   4
ENDBRANCH   2   3
TORSDOF 8
ENDMDL
MODEL      255
REMARK 921   NORMALIZED FREE ENERGY PREDICTED BY IDOCK:   -2.70 KCAL/MOL
REMARK 922        TOTAL FREE ENERGY PREDICTED BY IDOCK:   -4.37 KCAL/MOL
REMARK 923 INTER-LIGAND FREE ENERGY PREDICTED BY IDOCK:   -4.14 KCAL/MOL
REMARK 924 INTRA-LIGAND FREE ENERGY PREDICTED BY IDOCK:   -0.23 KCAL/MOL
REMARK 927      BINDING AFFINITY PREDICTED BY RF-SCORE:    0.00 PKD
ROOT
HETATM    1  C   UNL     1     -13.988  13.932  72.264  1.00  0.00    -0.663 C  
HETATM    2  C   UNL     1     -13.211  12.636  72.102  1.00  0.00    -0.527 C  
ENDROOT
BRANCH   2   3
HETATM    3  C   UNL     1     -12.523  12.554  70.742  1.00  0.00    -0.357 C  
BRANCH   3   4
HETATM    4  C   UNL     1     -12.210  11.110  70.373  1.00  0.00    -0.369 C  
BRANCH   4   5
HETATM    5  O   UNL     1     -12.735  10.250  71.383  1.00  0.00    -0.367 OA 
BRANCH   5   6
HETATM    6  C   UNL     1     -11.792   9.237  71.731  1.00  0.00    -0.384 C  
BRANCH   6   7
HETATM    7  C   UNL     1     -11.391   8.451  70.488  1.00  0.00    -0.216 C  
BRANCH   7   8
HETATM    8  O   UNL     1     -10.028   8.727  70.124  1.00  0.00    -0.176 OA 
BRANCH   8   9
HETATM    9  C   UNL     1      -9.224   7.638  70.022  1.00  0.00    -0.151 C  
HETATM   10  O   UNL     1      -8.859   7.109  68.986  1.00  0.00    -0.132 OA 
BRANCH   9  11
HETATM   11  C   UNL     1      -8.865   7.134  71.365  1.00  0.00    -0.131 A  
HETATM   12  C   UNL     1      -9.300   5.867  71.733  1.00  0.00    -0.148 A  
HETATM   13  N   UNL     1      -9.044   5.302  72.939  1.00  0.00    -0.123 NA 
HETATM   14  C   UNL     1      -8.322   6.034  73.814  1.00  0.00    -0.114 A  
HETATM   15  C   UNL     1      -7.844   7.307  73.541  1.00  0.00    -0.123 A  
HETATM   16  C   UNL     1      -8.121   7.865  72.294  1.00  0.00    -0.161 A  
ENDBRANCH   9  11
ENDBRANCH   8   9
ENDBRANCH   7   8
ENDBRANCH   6   7
ENDBRANCH   5   6
ENDBRANCH   4   5
ENDBRANCH   3   4
ENDBRANCH   2   3
TORSDOF 8
ENDMDL
MODEL      256
REMARK 921   NORMALIZED FREE ENERGY PREDICTED BY IDOCK:   -2.69 KCAL/MOL
REMARK 922        TOTAL FREE ENERGY PREDICTED BY IDOCK:   -4.36 KCAL/MOL
REMARK 923 INTER-LIGAND FREE ENERGY PREDICTED BY IDOCK:   -3.90 KCAL/MOL
REMARK 924 INTRA-LIGAND FREE ENERGY PREDICTED BY IDOCK:   -0.46 KCAL/MOL
REMARK 927      BINDING AFFINITY PREDICTED BY RF-SCORE:    0.00 PKD
ROOT
HETATM    1  C   UNL     1     -14.411   8.607  72.011  1.00  0.00    -0.512 C  
HETATM    2  C   UNL     1     -13.023   8.194  71.552  1.00  0.00    -0.316 C  
ENDROOT
BRANCH   2   3
HETATM    3  C   UNL     1     -12.122   9.403  71.311  1.00  0.00    -0.424 C  
BRANCH   3   4
HETATM    4  C   UNL     1     -10.670   9.078  71.638  1.00  0.00    -0.371 C  
BRANCH   4   5
HETATM    5  O   UNL     1      -9.833   9.628  70.621  1.00  0.00    -0.265 OA 
BRANCH   5   6
HETATM    6  C   UNL     1      -8.564   8.975  70.596  1.00  0.00    -0.210 C  
BRANCH   6   7
HETATM    7  C   UNL     1      -8.750   7.492  70.295  1.00  0.00    -0.145 C  
BRANCH   7   8
HETATM    8  O   UNL     1      -9.197   7.295  68.943  1.00  0.00    -0.142 OA 
BRANCH   8   9
HETATM    9  C   UNL     1     -10.199   6.392  68.791  1.00  0.00    -0.177 C  
HETATM   10  O   UNL     1     -11.248   6.370  69.413  1.00  0.00    -0.359 OA 
BRANCH   9  11
HETATM   11  C   UNL     1      -9.836   5.384  67.772  1.00  0.00    -0.174 A  
HETATM   12  C   UNL     1      -9.589   4.083  68.189  1.00  0.00    -0.128 A  
HETATM   13  N   UNL     1      -9.237   3.075  67.352  1.00  0.00    -0.183 NA 
HETATM   14  C   UNL     1      -9.128   3.383  66.041  1.00  0.00    -0.153 A  
HETATM   15  C   UNL     1      -9.353   4.651  65.528  1.00  0.00    -0.159 A  
HETATM   16  C   UNL     1      -9.713   5.669  66.410  1.00  0.00    -0.180 A  
ENDBRANCH   9  11
ENDBRANCH   8   9
ENDBRANCH   7   8
ENDBRANCH   6   7
ENDBRANCH   5   6
ENDBRANCH   4   5
ENDBRANCH   3   4
ENDBRANCH   2   3
TORSDOF 8
ENDMDL
MODEL      257
REMARK 921   NORMALIZED FREE ENERGY PREDICTED BY IDOCK:   -2.69 KCAL/MOL
REMARK 922        TOTAL FREE ENERGY PREDICTED BY IDOCK:   -4.36 KCAL/MOL
REMARK 923 INTER-LIGAND FREE ENERGY PREDICTED BY IDOCK:   -4.18 KCAL/MOL
REMARK 924 INTRA-LIGAND FREE ENERGY PREDICTED BY IDOCK:   -0.18 KCAL/MOL
REMARK 927      BINDING AFFINITY PREDICTED BY RF-SCORE:    0.00 PKD
ROOT
HETATM    1  C   UNL     1     -12.478  11.843  63.444  1.00  0.00    -0.582 C  
HETATM    2  C   UNL     1     -11.939  13.217  63.806  1.00  0.00    -0.572 C  
ENDROOT
BRANCH   2   3
HETATM    3  C   UNL     1     -12.706  13.838  64.970  1.00  0.00    -0.379 C  
BRANCH   3   4
HETATM    4  C   UNL     1     -11.903  14.958  65.619  1.00  0.00    -0.131 C  
BRANCH   4   5
HETATM    5  O   UNL     1     -11.442  14.517  66.895  1.00  0.00    -0.340 OA 
BRANCH   5   6
HETATM    6  C   UNL     1     -12.114  13.323  67.295  1.00  0.00    -0.289 C  
BRANCH   6   7
HETATM    7  C   UNL     1     -11.103  12.305  67.812  1.00  0.00    -0.255 C  
BRANCH   7   8
HETATM    8  O   UNL     1     -10.026  12.958  68.505  1.00  0.00    -0.223 OA 
BRANCH   8   9
HETATM    9  C   UNL     1      -8.863  13.051  67.812  1.00  0.00    -0.188 C  
HETATM   10  O   UNL     1      -8.407  12.209  67.057  1.00  0.00    -0.173 OA 
BRANCH   9  11
HETATM   11  C   UNL     1      -8.175  14.321  68.126  1.00  0.00    -0.146 A  
HETATM   12  C   UNL     1      -8.851  15.271  68.881  1.00  0.00    -0.209 A  
HETATM   13  N   UNL     1      -8.330  16.475  69.222  1.00  0.00    -0.149 NA 
HETATM   14  C   UNL     1      -7.078  16.741  68.791  1.00  0.00    -0.202 A  
HETATM   15  C   UNL     1      -6.323  15.860  68.033  1.00  0.00    -0.144 A  
HETATM   16  C   UNL     1      -6.881  14.629  67.695  1.00  0.00    -0.204 A  
ENDBRANCH   9  11
ENDBRANCH   8   9
ENDBRANCH   7   8
ENDBRANCH   6   7
ENDBRANCH   5   6
ENDBRANCH   4   5
ENDBRANCH   3   4
ENDBRANCH   2   3
TORSDOF 8
ENDMDL
MODEL      258
REMARK 921   NORMALIZED FREE ENERGY PREDICTED BY IDOCK:   -2.69 KCAL/MOL
REMARK 922        TOTAL FREE ENERGY PREDICTED BY IDOCK:   -4.36 KCAL/MOL
REMARK 923 INTER-LIGAND FREE ENERGY PREDICTED BY IDOCK:   -4.19 KCAL/MOL
REMARK 924 INTRA-LIGAND FREE ENERGY PREDICTED BY IDOCK:   -0.17 KCAL/MOL
REMARK 927      BINDING AFFINITY PREDICTED BY RF-SCORE:    0.00 PKD
ROOT
HETATM    1  C   UNL     1     -10.652   5.604  66.747  1.00  0.00    -0.372 C  
HETATM    2  C   UNL     1      -9.879   6.902  66.901  1.00  0.00    -0.240 C  
ENDROOT
BRANCH   2   3
HETATM    3  C   UNL     1     -10.461   7.783  68.003  1.00  0.00    -0.244 C  
BRANCH   3   4
HETATM    4  C   UNL     1      -9.375   8.245  68.966  1.00  0.00    -0.147 C  
BRANCH   4   5
HETATM    5  O   UNL     1      -9.620   9.605  69.321  1.00  0.00    -0.167 OA 
BRANCH   5   6
HETATM    6  C   UNL     1     -11.019   9.851  69.461  1.00  0.00    -0.242 C  
BRANCH   6   7
HETATM    7  C   UNL     1     -11.328  11.305  69.121  1.00  0.00    -0.282 C  
BRANCH   7   8
HETATM    8  O   UNL     1     -12.218  11.391  67.996  1.00  0.00    -0.607 OA 
BRANCH   8   9
HETATM    9  C   UNL     1     -11.749  12.101  66.939  1.00  0.00    -0.301 C  
HETATM   10  O   UNL     1     -12.403  12.837  66.220  1.00  0.00    -0.521 OA 
BRANCH   9  11
HETATM   11  C   UNL     1     -10.309  11.834  66.735  1.00  0.00    -0.251 A  
HETATM   12  C   UNL     1      -9.943  10.741  65.960  1.00  0.00    -0.242 A  
HETATM   13  N   UNL     1      -8.657  10.388  65.712  1.00  0.00    -0.158 NA 
HETATM   14  C   UNL     1      -7.696  11.162  66.261  1.00  0.00    -0.097 A  
HETATM   15  C   UNL     1      -7.960  12.273  67.048  1.00  0.00    -0.123 A  
HETATM   16  C   UNL     1      -9.290  12.614  67.288  1.00  0.00    -0.195 A  
ENDBRANCH   9  11
ENDBRANCH   8   9
ENDBRANCH   7   8
ENDBRANCH   6   7
ENDBRANCH   5   6
ENDBRANCH   4   5
ENDBRANCH   3   4
ENDBRANCH   2   3
TORSDOF 8
ENDMDL
MODEL      259
REMARK 921   NORMALIZED FREE ENERGY PREDICTED BY IDOCK:   -2.68 KCAL/MOL
REMARK 922        TOTAL FREE ENERGY PREDICTED BY IDOCK:   -4.35 KCAL/MOL
REMARK 923 INTER-LIGAND FREE ENERGY PREDICTED BY IDOCK:   -3.86 KCAL/MOL
REMARK 924 INTRA-LIGAND FREE ENERGY PREDICTED BY IDOCK:   -0.49 KCAL/MOL
REMARK 927      BINDING AFFINITY PREDICTED BY RF-SCORE:    0.00 PKD
ROOT
HETATM    1  C   UNL     1      -9.840  11.073  63.108  1.00  0.00    -0.398 C  
HETATM    2  C   UNL     1      -8.871  10.478  64.115  1.00  0.00    -0.205 C  
ENDROOT
BRANCH   2   3
HETATM    3  C   UNL     1      -9.592   9.962  65.358  1.00  0.00    -0.350 C  
BRANCH   3   4
HETATM    4  C   UNL     1      -9.091  10.663  66.613  1.00  0.00    -0.160 C  
BRANCH   4   5
HETATM    5  O   UNL     1      -9.156  12.074  66.411  1.00  0.00    -0.211 OA 
BRANCH   5   6
HETATM    6  C   UNL     1     -10.475  12.564  66.651  1.00  0.00    -0.233 C  
BRANCH   6   7
HETATM    7  C   UNL     1     -10.627  12.953  68.117  1.00  0.00    -0.237 C  
BRANCH   7   8
HETATM    8  O   UNL     1      -9.821  14.100  68.430  1.00  0.00    -0.221 OA 
BRANCH   8   9
HETATM    9  C   UNL     1     -10.340  15.295  68.049  1.00  0.00    -0.244 C  
HETATM   10  O   UNL     1     -11.519  15.606  68.070  1.00  0.00    -0.345 OA 
BRANCH   9  11
HETATM   11  C   UNL     1      -9.272  16.188  67.554  1.00  0.00    -0.210 A  
HETATM   12  C   UNL     1      -8.702  17.093  68.440  1.00  0.00    -0.246 A  
HETATM   13  N   UNL     1      -7.725  17.970  68.101  1.00  0.00    -0.263 NA 
HETATM   14  C   UNL     1      -7.297  17.939  66.820  1.00  0.00    -0.202 A  
HETATM   15  C   UNL     1      -7.803  17.074  65.861  1.00  0.00     0.037 A  
HETATM   16  C   UNL     1      -8.807  16.184  66.236  1.00  0.00    -0.371 A  
ENDBRANCH   9  11
ENDBRANCH   8   9
ENDBRANCH   7   8
ENDBRANCH   6   7
ENDBRANCH   5   6
ENDBRANCH   4   5
ENDBRANCH   3   4
ENDBRANCH   2   3
TORSDOF 8
ENDMDL
MODEL      260
REMARK 921   NORMALIZED FREE ENERGY PREDICTED BY IDOCK:   -2.67 KCAL/MOL
REMARK 922        TOTAL FREE ENERGY PREDICTED BY IDOCK:   -4.33 KCAL/MOL
REMARK 923 INTER-LIGAND FREE ENERGY PREDICTED BY IDOCK:   -3.75 KCAL/MOL
REMARK 924 INTRA-LIGAND FREE ENERGY PREDICTED BY IDOCK:   -0.59 KCAL/MOL
REMARK 927      BINDING AFFINITY PREDICTED BY RF-SCORE:    0.00 PKD
ROOT
HETATM    1  C   UNL     1     -12.493  12.093  63.342  1.00  0.00    -0.625 C  
HETATM    2  C   UNL     1     -11.103  11.555  63.635  1.00  0.00    -0.469 C  
ENDROOT
BRANCH   2   3
HETATM    3  C   UNL     1     -10.178  12.641  64.180  1.00  0.00    -0.366 C  
BRANCH   3   4
HETATM    4  C   UNL     1     -10.967  13.878  64.589  1.00  0.00    -0.398 C  
BRANCH   4   5
HETATM    5  O   UNL     1     -10.052  14.918  64.930  1.00  0.00    -0.339 OA 
BRANCH   5   6
HETATM    6  C   UNL     1     -10.476  15.604  66.108  1.00  0.00    -0.317 C  
BRANCH   6   7
HETATM    7  C   UNL     1      -9.507  15.322  67.251  1.00  0.00    -0.208 C  
BRANCH   7   8
HETATM    8  O   UNL     1      -8.541  14.329  66.872  1.00  0.00    -0.209 OA 
BRANCH   8   9
HETATM    9  C   UNL     1      -8.651  13.138  67.512  1.00  0.00    -0.196 C  
HETATM   10  O   UNL     1      -9.571  12.793  68.235  1.00  0.00    -0.218 OA 
BRANCH   9  11
HETATM   11  C   UNL     1      -7.464  12.298  67.248  1.00  0.00    -0.147 A  
HETATM   12  C   UNL     1      -6.352  12.448  68.067  1.00  0.00    -0.082 A  
HETATM   13  N   UNL     1      -5.203  11.743  67.917  1.00  0.00    -0.048 NA 
HETATM   14  C   UNL     1      -5.164  10.850  66.905  1.00  0.00    -0.056 A  
HETATM   15  C   UNL     1      -6.220  10.628  66.034  1.00  0.00    -0.134 A  
HETATM   16  C   UNL     1      -7.390  11.365  66.210  1.00  0.00     0.063 A  
ENDBRANCH   9  11
ENDBRANCH   8   9
ENDBRANCH   7   8
ENDBRANCH   6   7
ENDBRANCH   5   6
ENDBRANCH   4   5
ENDBRANCH   3   4
ENDBRANCH   2   3
TORSDOF 8
ENDMDL
MODEL      261
REMARK 921   NORMALIZED FREE ENERGY PREDICTED BY IDOCK:   -2.66 KCAL/MOL
REMARK 922        TOTAL FREE ENERGY PREDICTED BY IDOCK:   -4.31 KCAL/MOL
REMARK 923 INTER-LIGAND FREE ENERGY PREDICTED BY IDOCK:   -3.82 KCAL/MOL
REMARK 924 INTRA-LIGAND FREE ENERGY PREDICTED BY IDOCK:   -0.49 KCAL/MOL
REMARK 927      BINDING AFFINITY PREDICTED BY RF-SCORE:    0.00 PKD
ROOT
HETATM    1  C   UNL     1     -14.411   8.736  72.546  1.00  0.00    -0.342 C  
HETATM    2  C   UNL     1     -13.512   7.804  71.752  1.00  0.00    -0.373 C  
ENDROOT
BRANCH   2   3
HETATM    3  C   UNL     1     -12.276   8.524  71.221  1.00  0.00    -0.310 C  
BRANCH   3   4
HETATM    4  C   UNL     1     -11.073   8.287  72.125  1.00  0.00    -0.328 C  
BRANCH   4   5
HETATM    5  O   UNL     1      -9.944   7.958  71.316  1.00  0.00    -0.174 OA 
BRANCH   5   6
HETATM    6  C   UNL     1      -9.113   6.997  71.968  1.00  0.00    -0.131 C  
BRANCH   6   7
HETATM    7  C   UNL     1      -9.919   5.743  72.288  1.00  0.00    -0.170 C  
BRANCH   7   8
HETATM    8  O   UNL     1     -10.388   5.114  71.084  1.00  0.00    -0.221 OA 
BRANCH   8   9
HETATM    9  C   UNL     1      -9.422   4.578  70.296  1.00  0.00    -0.171 C  
HETATM   10  O   UNL     1      -8.403   4.029  70.680  1.00  0.00    -0.068 OA 
BRANCH   9  11
HETATM   11  C   UNL     1      -9.747   4.782  68.868  1.00  0.00    -0.244 A  
HETATM   12  C   UNL     1     -10.434   5.933  68.505  1.00  0.00    -0.238 A  
HETATM   13  N   UNL     1     -10.798   6.226  67.232  1.00  0.00    -0.344 NA 
HETATM   14  C   UNL     1     -10.459   5.329  66.281  1.00  0.00    -0.255 A  
HETATM   15  C   UNL     1      -9.775   4.152  66.542  1.00  0.00    -0.228 A  
HETATM   16  C   UNL     1      -9.413   3.875  67.859  1.00  0.00    -0.227 A  
ENDBRANCH   9  11
ENDBRANCH   8   9
ENDBRANCH   7   8
ENDBRANCH   6   7
ENDBRANCH   5   6
ENDBRANCH   4   5
ENDBRANCH   3   4
ENDBRANCH   2   3
TORSDOF 8
ENDMDL
MODEL      262
REMARK 921   NORMALIZED FREE ENERGY PREDICTED BY IDOCK:   -2.65 KCAL/MOL
REMARK 922        TOTAL FREE ENERGY PREDICTED BY IDOCK:   -4.30 KCAL/MOL
REMARK 923 INTER-LIGAND FREE ENERGY PREDICTED BY IDOCK:   -3.97 KCAL/MOL
REMARK 924 INTRA-LIGAND FREE ENERGY PREDICTED BY IDOCK:   -0.33 KCAL/MOL
REMARK 927      BINDING AFFINITY PREDICTED BY RF-SCORE:    0.00 PKD
ROOT
HETATM    1  C   UNL     1     -10.086  10.197  65.256  1.00  0.00    -0.344 C  
HETATM    2  C   UNL     1     -10.834  11.504  65.055  1.00  0.00    -0.336 C  
ENDROOT
BRANCH   2   3
HETATM    3  C   UNL     1     -11.278  12.114  66.382  1.00  0.00    -0.380 C  
BRANCH   3   4
HETATM    4  C   UNL     1     -10.349  13.244  66.804  1.00  0.00    -0.257 C  
BRANCH   4   5
HETATM    5  O   UNL     1      -9.353  12.720  67.682  1.00  0.00    -0.178 OA 
BRANCH   5   6
HETATM    6  C   UNL     1      -8.170  13.518  67.644  1.00  0.00    -0.178 C  
BRANCH   6   7
HETATM    7  C   UNL     1      -8.475  14.872  67.012  1.00  0.00    -0.231 C  
BRANCH   7   8
HETATM    8  O   UNL     1      -8.236  15.939  67.945  1.00  0.00    -0.142 OA 
BRANCH   8   9
HETATM    9  C   UNL     1      -8.759  17.141  67.596  1.00  0.00    -0.213 C  
HETATM   10  O   UNL     1      -9.938  17.451  67.633  1.00  0.00    -0.280 OA 
BRANCH   9  11
HETATM   11  C   UNL     1      -7.694  18.046  67.112  1.00  0.00    -0.233 A  
HETATM   12  C   UNL     1      -7.390  18.044  65.757  1.00  0.00    -0.126 A  
HETATM   13  N   UNL     1      -6.428  18.820  65.198  1.00  0.00    -0.468 NA 
HETATM   14  C   UNL     1      -5.741  19.633  66.030  1.00  0.00    -0.162 A  
HETATM   15  C   UNL     1      -5.970  19.706  67.395  1.00  0.00    -0.197 A  
HETATM   16  C   UNL     1      -6.964  18.899  67.945  1.00  0.00    -0.247 A  
ENDBRANCH   9  11
ENDBRANCH   8   9
ENDBRANCH   7   8
ENDBRANCH   6   7
ENDBRANCH   5   6
ENDBRANCH   4   5
ENDBRANCH   3   4
ENDBRANCH   2   3
TORSDOF 8
ENDMDL
MODEL      263
REMARK 921   NORMALIZED FREE ENERGY PREDICTED BY IDOCK:   -2.65 KCAL/MOL
REMARK 922        TOTAL FREE ENERGY PREDICTED BY IDOCK:   -4.30 KCAL/MOL
REMARK 923 INTER-LIGAND FREE ENERGY PREDICTED BY IDOCK:   -4.16 KCAL/MOL
REMARK 924 INTRA-LIGAND FREE ENERGY PREDICTED BY IDOCK:   -0.14 KCAL/MOL
REMARK 927      BINDING AFFINITY PREDICTED BY RF-SCORE:    0.00 PKD
ROOT
HETATM    1  C   UNL     1     -10.026  14.629  66.154  1.00  0.00    -0.323 C  
HETATM    2  C   UNL     1     -11.357  14.462  66.867  1.00  0.00    -0.357 C  
ENDROOT
BRANCH   2   3
HETATM    3  C   UNL     1     -12.315  13.572  66.079  1.00  0.00    -0.486 C  
BRANCH   3   4
HETATM    4  C   UNL     1     -11.618  12.307  65.598  1.00  0.00    -0.380 C  
BRANCH   4   5
HETATM    5  O   UNL     1     -11.206  11.546  66.732  1.00  0.00    -0.301 OA 
BRANCH   5   6
HETATM    6  C   UNL     1      -9.894  11.016  66.542  1.00  0.00    -0.203 C  
BRANCH   6   7
HETATM    7  C   UNL     1      -9.657   9.856  67.503  1.00  0.00    -0.157 C  
BRANCH   7   8
HETATM    8  O   UNL     1      -9.418  10.335  68.836  1.00  0.00    -0.168 OA 
BRANCH   8   9
HETATM    9  C   UNL     1     -10.447  10.169  69.705  1.00  0.00    -0.263 C  
HETATM   10  O   UNL     1     -11.415  10.901  69.821  1.00  0.00    -0.260 OA 
BRANCH   9  11
HETATM   11  C   UNL     1     -10.223   8.976  70.548  1.00  0.00    -0.268 A  
HETATM   12  C   UNL     1      -8.959   8.399  70.557  1.00  0.00    -0.150 A  
HETATM   13  N   UNL     1      -8.635   7.298  71.279  1.00  0.00    -0.119 NA 
HETATM   14  C   UNL     1      -9.617   6.750  72.027  1.00  0.00    -0.147 A  
HETATM   15  C   UNL     1     -10.909   7.250  72.085  1.00  0.00    -0.263 A  
HETATM   16  C   UNL     1     -11.216   8.383  71.333  1.00  0.00    -0.316 A  
ENDBRANCH   9  11
ENDBRANCH   8   9
ENDBRANCH   7   8
ENDBRANCH   6   7
ENDBRANCH   5   6
ENDBRANCH   4   5
ENDBRANCH   3   4
ENDBRANCH   2   3
TORSDOF 8
ENDMDL
MODEL      264
REMARK 921   NORMALIZED FREE ENERGY PREDICTED BY IDOCK:   -2.65 KCAL/MOL
REMARK 922        TOTAL FREE ENERGY PREDICTED BY IDOCK:   -4.29 KCAL/MOL
REMARK 923 INTER-LIGAND FREE ENERGY PREDICTED BY IDOCK:   -3.91 KCAL/MOL
REMARK 924 INTRA-LIGAND FREE ENERGY PREDICTED BY IDOCK:   -0.38 KCAL/MOL
REMARK 927      BINDING AFFINITY PREDICTED BY RF-SCORE:    0.00 PKD
ROOT
HETATM    1  C   UNL     1      -5.465   6.254  71.415  1.00  0.00    -0.026 C  
HETATM    2  C   UNL     1      -6.566   6.068  70.385  1.00  0.00    -0.044 C  
ENDROOT
BRANCH   2   3
HETATM    3  C   UNL     1      -7.877   6.706  70.835  1.00  0.00    -0.105 C  
BRANCH   3   4
HETATM    4  C   UNL     1      -8.577   7.398  69.673  1.00  0.00    -0.137 C  
BRANCH   4   5
HETATM    5  O   UNL     1      -9.689   6.603  69.263  1.00  0.00    -0.146 OA 
BRANCH   5   6
HETATM    6  C   UNL     1     -10.367   7.203  68.160  1.00  0.00    -0.196 C  
BRANCH   6   7
HETATM    7  C   UNL     1      -9.794   8.590  67.890  1.00  0.00    -0.170 C  
BRANCH   7   8
HETATM    8  O   UNL     1     -10.834   9.512  67.524  1.00  0.00    -0.280 OA 
BRANCH   8   9
HETATM    9  C   UNL     1     -11.099  10.479  68.438  1.00  0.00    -0.281 C  
HETATM   10  O   UNL     1     -11.118  10.338  69.649  1.00  0.00    -0.240 OA 
BRANCH   9  11
HETATM   11  C   UNL     1     -11.412  11.757  67.762  1.00  0.00    -0.381 A  
HETATM   12  C   UNL     1     -11.518  12.905  68.536  1.00  0.00    -0.310 A  
HETATM   13  N   UNL     1     -11.811  14.130  68.034  1.00  0.00    -0.360 NA 
HETATM   14  C   UNL     1     -12.006  14.210  66.700  1.00  0.00    -0.444 A  
HETATM   15  C   UNL     1     -11.923  13.123  65.844  1.00  0.00    -0.479 A  
HETATM   16  C   UNL     1     -11.620  11.875  66.386  1.00  0.00    -0.315 A  
ENDBRANCH   9  11
ENDBRANCH   8   9
ENDBRANCH   7   8
ENDBRANCH   6   7
ENDBRANCH   5   6
ENDBRANCH   4   5
ENDBRANCH   3   4
ENDBRANCH   2   3
TORSDOF 8
ENDMDL
MODEL      265
REMARK 921   NORMALIZED FREE ENERGY PREDICTED BY IDOCK:   -2.64 KCAL/MOL
REMARK 922        TOTAL FREE ENERGY PREDICTED BY IDOCK:   -4.29 KCAL/MOL
REMARK 923 INTER-LIGAND FREE ENERGY PREDICTED BY IDOCK:   -3.93 KCAL/MOL
REMARK 924 INTRA-LIGAND FREE ENERGY PREDICTED BY IDOCK:   -0.36 KCAL/MOL
REMARK 927      BINDING AFFINITY PREDICTED BY RF-SCORE:    0.00 PKD
ROOT
HETATM    1  C   UNL     1     -14.354   8.048  71.756  1.00  0.00    -0.583 C  
HETATM    2  C   UNL     1     -12.927   7.531  71.824  1.00  0.00    -0.364 C  
ENDROOT
BRANCH   2   3
HETATM    3  C   UNL     1     -11.944   8.629  72.220  1.00  0.00    -0.438 C  
BRANCH   3   4
HETATM    4  C   UNL     1     -10.629   8.037  72.710  1.00  0.00    -0.351 C  
BRANCH   4   5
HETATM    5  O   UNL     1      -9.558   8.884  72.298  1.00  0.00    -0.295 OA 
BRANCH   5   6
HETATM    6  C   UNL     1      -8.583   8.151  71.556  1.00  0.00    -0.139 C  
BRANCH   6   7
HETATM    7  C   UNL     1      -9.233   6.936  70.902  1.00  0.00    -0.157 C  
BRANCH   7   8
HETATM    8  O   UNL     1      -9.858   7.297  69.659  1.00  0.00    -0.162 OA 
BRANCH   8   9
HETATM    9  C   UNL     1      -9.038   7.868  68.742  1.00  0.00    -0.140 C  
HETATM   10  O   UNL     1      -7.986   7.406  68.331  1.00  0.00    -0.120 OA 
BRANCH   9  11
HETATM   11  C   UNL     1      -9.572   9.179  68.316  1.00  0.00    -0.161 A  
HETATM   12  C   UNL     1     -10.773   9.612  68.863  1.00  0.00    -0.206 A  
HETATM   13  N   UNL     1     -11.368  10.789  68.543  1.00  0.00    -0.279 NA 
HETATM   14  C   UNL     1     -10.733  11.565  67.639  1.00  0.00    -0.211 A  
HETATM   15  C   UNL     1      -9.532  11.221  67.037  1.00  0.00    -0.186 A  
HETATM   16  C   UNL     1      -8.942  10.007  67.383  1.00  0.00    -0.139 A  
ENDBRANCH   9  11
ENDBRANCH   8   9
ENDBRANCH   7   8
ENDBRANCH   6   7
ENDBRANCH   5   6
ENDBRANCH   4   5
ENDBRANCH   3   4
ENDBRANCH   2   3
TORSDOF 8
ENDMDL
MODEL      266
REMARK 921   NORMALIZED FREE ENERGY PREDICTED BY IDOCK:   -2.64 KCAL/MOL
REMARK 922        TOTAL FREE ENERGY PREDICTED BY IDOCK:   -4.29 KCAL/MOL
REMARK 923 INTER-LIGAND FREE ENERGY PREDICTED BY IDOCK:   -3.47 KCAL/MOL
REMARK 924 INTRA-LIGAND FREE ENERGY PREDICTED BY IDOCK:   -0.81 KCAL/MOL
REMARK 927      BINDING AFFINITY PREDICTED BY RF-SCORE:    0.00 PKD
ROOT
HETATM    1  C   UNL     1      -8.810   9.671  70.104  1.00  0.00    -0.266 C  
HETATM    2  C   UNL     1      -9.015   8.839  71.359  1.00  0.00    -0.307 C  
ENDROOT
BRANCH   2   3
HETATM    3  C   UNL     1     -10.466   8.874  71.831  1.00  0.00    -0.415 C  
BRANCH   3   4
HETATM    4  C   UNL     1     -11.282   7.768  71.176  1.00  0.00    -0.264 C  
BRANCH   4   5
HETATM    5  O   UNL     1     -10.618   6.521  71.377  1.00  0.00    -0.220 OA 
BRANCH   5   6
HETATM    6  C   UNL     1     -10.908   5.612  70.316  1.00  0.00    -0.266 C  
BRANCH   6   7
HETATM    7  C   UNL     1     -10.951   6.359  68.988  1.00  0.00    -0.348 C  
BRANCH   7   8
HETATM    8  O   UNL     1      -9.649   6.400  68.379  1.00  0.00    -0.126 OA 
BRANCH   8   9
HETATM    9  C   UNL     1      -9.643   6.591  67.036  1.00  0.00    -0.144 C  
HETATM   10  O   UNL     1     -10.000   5.785  66.193  1.00  0.00    -0.119 OA 
BRANCH   9  11
HETATM   11  C   UNL     1      -9.096   7.924  66.707  1.00  0.00    -0.189 A  
HETATM   12  C   UNL     1      -9.981   8.931  66.344  1.00  0.00    -0.284 A  
HETATM   13  N   UNL     1      -9.598  10.189  66.009  1.00  0.00    -0.195 NA 
HETATM   14  C   UNL     1      -8.274  10.451  66.041  1.00  0.00    -0.144 A  
HETATM   15  C   UNL     1      -7.313   9.514  66.389  1.00  0.00    -0.093 A  
HETATM   16  C   UNL     1      -7.732   8.229  66.728  1.00  0.00    -0.094 A  
ENDBRANCH   9  11
ENDBRANCH   8   9
ENDBRANCH   7   8
ENDBRANCH   6   7
ENDBRANCH   5   6
ENDBRANCH   4   5
ENDBRANCH   3   4
ENDBRANCH   2   3
TORSDOF 8
ENDMDL
MODEL      267
REMARK 921   NORMALIZED FREE ENERGY PREDICTED BY IDOCK:   -2.63 KCAL/MOL
REMARK 922        TOTAL FREE ENERGY PREDICTED BY IDOCK:   -4.27 KCAL/MOL
REMARK 923 INTER-LIGAND FREE ENERGY PREDICTED BY IDOCK:   -4.26 KCAL/MOL
REMARK 924 INTRA-LIGAND FREE ENERGY PREDICTED BY IDOCK:   -0.00 KCAL/MOL
REMARK 927      BINDING AFFINITY PREDICTED BY RF-SCORE:    0.00 PKD
ROOT
HETATM    1  C   UNL     1     -10.736   9.486  66.820  1.00  0.00    -0.136 C  
HETATM    2  C   UNL     1     -11.205  10.309  68.008  1.00  0.00    -0.303 C  
ENDROOT
BRANCH   2   3
HETATM    3  C   UNL     1     -11.728  11.677  67.579  1.00  0.00    -0.288 C  
BRANCH   3   4
HETATM    4  C   UNL     1     -11.485  11.916  66.094  1.00  0.00    -0.288 C  
BRANCH   4   5
HETATM    5  O   UNL     1     -10.677  13.082  65.940  1.00  0.00    -0.271 OA 
BRANCH   5   6
HETATM    6  C   UNL     1     -11.453  14.267  66.120  1.00  0.00    -0.355 C  
BRANCH   6   7
HETATM    7  C   UNL     1     -11.285  14.788  67.543  1.00  0.00    -0.332 C  
BRANCH   7   8
HETATM    8  O   UNL     1     -10.028  15.468  67.696  1.00  0.00    -0.230 OA 
BRANCH   8   9
HETATM    9  C   UNL     1     -10.088  16.821  67.611  1.00  0.00    -0.275 C  
HETATM   10  O   UNL     1     -11.047  17.518  67.896  1.00  0.00    -0.241 OA 
BRANCH   9  11
HETATM   11  C   UNL     1      -8.820  17.361  67.076  1.00  0.00    -0.248 A  
HETATM   12  C   UNL     1      -8.737  18.724  66.821  1.00  0.00    -0.300 A  
HETATM   13  N   UNL     1      -7.634  19.333  66.320  1.00  0.00    -0.265 NA 
HETATM   14  C   UNL     1      -6.567  18.546  66.064  1.00  0.00    -0.249 A  
HETATM   15  C   UNL     1      -6.551  17.177  66.285  1.00  0.00    -0.190 A  
HETATM   16  C   UNL     1      -7.698  16.576  66.800  1.00  0.00    -0.294 A  
ENDBRANCH   9  11
ENDBRANCH   8   9
ENDBRANCH   7   8
ENDBRANCH   6   7
ENDBRANCH   5   6
ENDBRANCH   4   5
ENDBRANCH   3   4
ENDBRANCH   2   3
TORSDOF 8
ENDMDL
MODEL      268
REMARK 921   NORMALIZED FREE ENERGY PREDICTED BY IDOCK:   -2.63 KCAL/MOL
REMARK 922        TOTAL FREE ENERGY PREDICTED BY IDOCK:   -4.27 KCAL/MOL
REMARK 923 INTER-LIGAND FREE ENERGY PREDICTED BY IDOCK:   -3.82 KCAL/MOL
REMARK 924 INTRA-LIGAND FREE ENERGY PREDICTED BY IDOCK:   -0.45 KCAL/MOL
REMARK 927      BINDING AFFINITY PREDICTED BY RF-SCORE:    0.00 PKD
ROOT
HETATM    1  C   UNL     1      -7.069  16.544  69.143  1.00  0.00    -0.227 C  
HETATM    2  C   UNL     1      -7.703  16.869  67.802  1.00  0.00    -0.184 C  
ENDROOT
BRANCH   2   3
HETATM    3  C   UNL     1      -8.813  17.909  67.936  1.00  0.00    -0.260 C  
BRANCH   3   4
HETATM    4  C   UNL     1      -9.410  18.251  66.577  1.00  0.00    -0.302 C  
BRANCH   4   5
HETATM    5  O   UNL     1     -10.626  17.523  66.410  1.00  0.00    -0.297 OA 
BRANCH   5   6
HETATM    6  C   UNL     1     -10.936  17.358  65.026  1.00  0.00     0.330 C  
BRANCH   6   7
HETATM    7  C   UNL     1     -11.361  15.919  64.757  1.00  0.00    -0.309 C  
BRANCH   7   8
HETATM    8  O   UNL     1     -10.242  15.024  64.865  1.00  0.00    -0.357 OA 
BRANCH   8   9
HETATM    9  C   UNL     1     -10.362  14.058  65.810  1.00  0.00    -0.319 C  
HETATM   10  O   UNL     1     -10.701  14.225  66.970  1.00  0.00    -0.284 OA 
BRANCH   9  11
HETATM   11  C   UNL     1      -9.980  12.742  65.255  1.00  0.00    -0.202 A  
HETATM   12  C   UNL     1     -10.106  12.540  63.887  1.00  0.00    -0.282 A  
HETATM   13  N   UNL     1      -9.800  11.375  63.264  1.00  0.00    -0.374 NA 
HETATM   14  C   UNL     1      -9.347  10.369  64.043  1.00  0.00    -0.277 A  
HETATM   15  C   UNL     1      -9.187  10.472  65.417  1.00  0.00    -0.229 A  
HETATM   16  C   UNL     1      -9.510  11.680  66.032  1.00  0.00    -0.246 A  
ENDBRANCH   9  11
ENDBRANCH   8   9
ENDBRANCH   7   8
ENDBRANCH   6   7
ENDBRANCH   5   6
ENDBRANCH   4   5
ENDBRANCH   3   4
ENDBRANCH   2   3
TORSDOF 8
ENDMDL
MODEL      269
REMARK 921   NORMALIZED FREE ENERGY PREDICTED BY IDOCK:   -2.61 KCAL/MOL
REMARK 922        TOTAL FREE ENERGY PREDICTED BY IDOCK:   -4.24 KCAL/MOL
REMARK 923 INTER-LIGAND FREE ENERGY PREDICTED BY IDOCK:   -3.79 KCAL/MOL
REMARK 924 INTRA-LIGAND FREE ENERGY PREDICTED BY IDOCK:   -0.45 KCAL/MOL
REMARK 927      BINDING AFFINITY PREDICTED BY RF-SCORE:    0.00 PKD
ROOT
HETATM    1  C   UNL     1     -10.632  10.708  67.333  1.00  0.00    -0.304 C  
HETATM    2  C   UNL     1     -10.730   9.196  67.440  1.00  0.00    -0.247 C  
ENDROOT
BRANCH   2   3
HETATM    3  C   UNL     1      -9.710   8.497  66.546  1.00  0.00    -0.330 C  
BRANCH   3   4
HETATM    4  C   UNL     1      -9.338   7.129  67.105  1.00  0.00    -0.140 C  
BRANCH   4   5
HETATM    5  O   UNL     1     -10.526   6.355  67.263  1.00  0.00    -0.191 OA 
BRANCH   5   6
HETATM    6  C   UNL     1     -10.425   5.491  68.395  1.00  0.00    -0.157 C  
BRANCH   6   7
HETATM    7  C   UNL     1      -9.974   6.285  69.616  1.00  0.00    -0.165 C  
BRANCH   7   8
HETATM    8  O   UNL     1     -11.093   6.620  70.452  1.00  0.00    -0.273 OA 
BRANCH   8   9
HETATM    9  C   UNL     1     -11.046   7.854  71.016  1.00  0.00    -0.250 C  
HETATM   10  O   UNL     1     -11.656   8.841  70.640  1.00  0.00    -0.270 OA 
BRANCH   9  11
HETATM   11  C   UNL     1     -10.104   7.864  72.155  1.00  0.00    -0.279 A  
HETATM   12  C   UNL     1     -10.480   7.227  73.331  1.00  0.00    -0.377 A  
HETATM   13  N   UNL     1      -9.708   7.178  74.445  1.00  0.00    -0.157 NA 
HETATM   14  C   UNL     1      -8.508   7.793  74.380  1.00  0.00    -0.201 A  
HETATM   15  C   UNL     1      -8.043   8.456  73.255  1.00  0.00    -0.168 A  
HETATM   16  C   UNL     1      -8.856   8.491  72.123  1.00  0.00    -0.286 A  
ENDBRANCH   9  11
ENDBRANCH   8   9
ENDBRANCH   7   8
ENDBRANCH   6   7
ENDBRANCH   5   6
ENDBRANCH   4   5
ENDBRANCH   3   4
ENDBRANCH   2   3
TORSDOF 8
ENDMDL
MODEL      270
REMARK 921   NORMALIZED FREE ENERGY PREDICTED BY IDOCK:   -2.60 KCAL/MOL
REMARK 922        TOTAL FREE ENERGY PREDICTED BY IDOCK:   -4.24 KCAL/MOL
REMARK 923 INTER-LIGAND FREE ENERGY PREDICTED BY IDOCK:   -4.04 KCAL/MOL
REMARK 924 INTRA-LIGAND FREE ENERGY PREDICTED BY IDOCK:   -0.20 KCAL/MOL
REMARK 927      BINDING AFFINITY PREDICTED BY RF-SCORE:    0.00 PKD
ROOT
HETATM    1  C   UNL     1      -9.360  15.798  69.398  1.00  0.00    -0.269 C  
HETATM    2  C   UNL     1      -7.974  15.225  69.158  1.00  0.00    -0.214 C  
ENDROOT
BRANCH   2   3
HETATM    3  C   UNL     1      -7.876  14.526  67.804  1.00  0.00    -0.171 C  
BRANCH   3   4
HETATM    4  C   UNL     1      -8.889  15.095  66.820  1.00  0.00    -0.271 C  
BRANCH   4   5
HETATM    5  O   UNL     1      -9.850  14.087  66.511  1.00  0.00    -0.272 OA 
BRANCH   5   6
HETATM    6  C   UNL     1      -9.266  12.786  66.583  1.00  0.00    -0.212 C  
BRANCH   6   7
HETATM    7  C   UNL     1      -9.747  11.935  65.413  1.00  0.00    -0.207 C  
BRANCH   7   8
HETATM    8  O   UNL     1     -10.401  10.744  65.880  1.00  0.00    -0.254 OA 
BRANCH   8   9
HETATM    9  C   UNL     1     -11.211  10.911  66.956  1.00  0.00    -0.137 C  
HETATM   10  O   UNL     1     -12.146  11.689  67.038  1.00  0.00    -0.547 OA 
BRANCH   9  11
HETATM   11  C   UNL     1     -10.783  10.033  68.065  1.00  0.00    -0.303 A  
HETATM   12  C   UNL     1     -10.762  10.556  69.352  1.00  0.00    -0.241 A  
HETATM   13  N   UNL     1     -10.378   9.854  70.447  1.00  0.00    -0.282 NA 
HETATM   14  C   UNL     1      -9.999   8.574  70.247  1.00  0.00    -0.183 A  
HETATM   15  C   UNL     1      -9.984   7.961  69.003  1.00  0.00    -0.188 A  
HETATM   16  C   UNL     1     -10.384   8.705  67.894  1.00  0.00    -0.286 A  
ENDBRANCH   9  11
ENDBRANCH   8   9
ENDBRANCH   7   8
ENDBRANCH   6   7
ENDBRANCH   5   6
ENDBRANCH   4   5
ENDBRANCH   3   4
ENDBRANCH   2   3
TORSDOF 8
ENDMDL
MODEL      271
REMARK 921   NORMALIZED FREE ENERGY PREDICTED BY IDOCK:   -2.60 KCAL/MOL
REMARK 922        TOTAL FREE ENERGY PREDICTED BY IDOCK:   -4.23 KCAL/MOL
REMARK 923 INTER-LIGAND FREE ENERGY PREDICTED BY IDOCK:   -3.63 KCAL/MOL
REMARK 924 INTRA-LIGAND FREE ENERGY PREDICTED BY IDOCK:   -0.60 KCAL/MOL
REMARK 927      BINDING AFFINITY PREDICTED BY RF-SCORE:    0.00 PKD
ROOT
HETATM    1  C   UNL     1     -14.370   8.562  72.660  1.00  0.00    -0.206 C  
HETATM    2  C   UNL     1     -13.806   8.227  71.290  1.00  0.00    -0.218 C  
ENDROOT
BRANCH   2   3
HETATM    3  C   UNL     1     -13.081   9.418  70.668  1.00  0.00     0.156 C  
BRANCH   3   4
HETATM    4  C   UNL     1     -12.281  10.180  71.717  1.00  0.00    -0.249 C  
BRANCH   4   5
HETATM    5  O   UNL     1     -10.977  10.445  71.201  1.00  0.00    -0.014 OA 
BRANCH   5   6
HETATM    6  C   UNL     1     -10.106   9.336  71.425  1.00  0.00    -0.278 C  
BRANCH   6   7
HETATM    7  C   UNL     1      -9.440   8.927  70.116  1.00  0.00    -0.180 C  
BRANCH   7   8
HETATM    8  O   UNL     1      -9.619   9.938  69.110  1.00  0.00    -0.177 OA 
BRANCH   8   9
HETATM    9  C   UNL     1     -10.389   9.574  68.054  1.00  0.00    -0.214 C  
HETATM   10  O   UNL     1     -10.627   8.433  67.697  1.00  0.00    -0.243 OA 
BRANCH   9  11
HETATM   11  C   UNL     1     -10.888  10.770  67.342  1.00  0.00    -0.345 A  
HETATM   12  C   UNL     1     -11.683  11.670  68.039  1.00  0.00    -0.281 A  
HETATM   13  N   UNL     1     -12.208  12.795  67.493  1.00  0.00    -0.316 NA 
HETATM   14  C   UNL     1     -11.924  13.030  66.193  1.00  0.00    -0.427 A  
HETATM   15  C   UNL     1     -11.141  12.193  65.413  1.00  0.00    -0.362 A  
HETATM   16  C   UNL     1     -10.614  11.043  65.999  1.00  0.00    -0.275 A  
ENDBRANCH   9  11
ENDBRANCH   8   9
ENDBRANCH   7   8
ENDBRANCH   6   7
ENDBRANCH   5   6
ENDBRANCH   4   5
ENDBRANCH   3   4
ENDBRANCH   2   3
TORSDOF 8
ENDMDL
MODEL      272
REMARK 921   NORMALIZED FREE ENERGY PREDICTED BY IDOCK:   -2.60 KCAL/MOL
REMARK 922        TOTAL FREE ENERGY PREDICTED BY IDOCK:   -4.23 KCAL/MOL
REMARK 923 INTER-LIGAND FREE ENERGY PREDICTED BY IDOCK:   -3.84 KCAL/MOL
REMARK 924 INTRA-LIGAND FREE ENERGY PREDICTED BY IDOCK:   -0.39 KCAL/MOL
REMARK 927      BINDING AFFINITY PREDICTED BY RF-SCORE:    0.00 PKD
ROOT
HETATM    1  C   UNL     1      -5.660   7.607  70.639  1.00  0.00    -0.026 C  
HETATM    2  C   UNL     1      -6.526   6.982  69.558  1.00  0.00    -0.043 C  
ENDROOT
BRANCH   2   3
HETATM    3  C   UNL     1      -7.241   8.041  68.723  1.00  0.00    -0.083 C  
BRANCH   3   4
HETATM    4  C   UNL     1      -8.713   8.138  69.104  1.00  0.00    -0.140 C  
BRANCH   4   5
HETATM    5  O   UNL     1      -8.868   9.154  70.094  1.00  0.00    -0.161 OA 
BRANCH   5   6
HETATM    6  C   UNL     1     -10.044   9.926  69.853  1.00  0.00    -0.257 C  
BRANCH   6   7
HETATM    7  C   UNL     1     -10.578   9.637  68.454  1.00  0.00    -0.225 C  
BRANCH   7   8
HETATM    8  O   UNL     1     -10.295  10.727  67.562  1.00  0.00    -0.187 OA 
BRANCH   8   9
HETATM    9  C   UNL     1     -10.215  10.395  66.248  1.00  0.00    -0.222 C  
HETATM   10  O   UNL     1      -9.706   9.385  65.791  1.00  0.00    -0.267 OA 
BRANCH   9  11
HETATM   11  C   UNL     1     -10.805  11.460  65.410  1.00  0.00    -0.292 A  
HETATM   12  C   UNL     1     -10.745  11.324  64.029  1.00  0.00    -0.377 A  
HETATM   13  N   UNL     1     -11.239  12.238  63.157  1.00  0.00    -0.296 NA 
HETATM   14  C   UNL     1     -11.820  13.335  63.690  1.00  0.00    -0.458 A  
HETATM   15  C   UNL     1     -11.928  13.562  65.054  1.00  0.00    -0.399 A  
HETATM   16  C   UNL     1     -11.412  12.607  65.927  1.00  0.00    -0.407 A  
ENDBRANCH   9  11
ENDBRANCH   8   9
ENDBRANCH   7   8
ENDBRANCH   6   7
ENDBRANCH   5   6
ENDBRANCH   4   5
ENDBRANCH   3   4
ENDBRANCH   2   3
TORSDOF 8
ENDMDL
MODEL      273
REMARK 921   NORMALIZED FREE ENERGY PREDICTED BY IDOCK:   -2.58 KCAL/MOL
REMARK 922        TOTAL FREE ENERGY PREDICTED BY IDOCK:   -4.20 KCAL/MOL
REMARK 923 INTER-LIGAND FREE ENERGY PREDICTED BY IDOCK:   -3.44 KCAL/MOL
REMARK 924 INTRA-LIGAND FREE ENERGY PREDICTED BY IDOCK:   -0.77 KCAL/MOL
REMARK 927      BINDING AFFINITY PREDICTED BY RF-SCORE:    0.00 PKD
ROOT
HETATM    1  C   UNL     1     -13.721   9.221  71.355  1.00  0.00    -0.325 C  
HETATM    2  C   UNL     1     -13.500   7.718  71.352  1.00  0.00    -0.317 C  
ENDROOT
BRANCH   2   3
HETATM    3  C   UNL     1     -12.015   7.363  71.323  1.00  0.00    -0.343 C  
BRANCH   3   4
HETATM    4  C   UNL     1     -11.576   6.737  72.640  1.00  0.00    -0.137 C  
BRANCH   4   5
HETATM    5  O   UNL     1     -10.159   6.577  72.626  1.00  0.00    -0.171 OA 
BRANCH   5   6
HETATM    6  C   UNL     1      -9.594   6.913  73.894  1.00  0.00    -0.248 C  
BRANCH   6   7
HETATM    7  C   UNL     1      -8.609   8.066  73.735  1.00  0.00    -0.266 C  
BRANCH   7   8
HETATM    8  O   UNL     1      -9.030   8.960  72.692  1.00  0.00    -0.337 OA 
BRANCH   8   9
HETATM    9  C   UNL     1      -8.217   9.009  71.607  1.00  0.00     0.078 C  
HETATM   10  O   UNL     1      -6.998   9.051  71.624  1.00  0.00    -0.215 OA 
BRANCH   9  11
HETATM   11  C   UNL     1      -9.015   9.047  70.364  1.00  0.00    -0.235 A  
HETATM   12  C   UNL     1      -8.950   7.960  69.503  1.00  0.00    -0.142 A  
HETATM   13  N   UNL     1      -9.626   7.883  68.330  1.00  0.00    -0.153 NA 
HETATM   14  C   UNL     1     -10.403   8.939  68.005  1.00  0.00    -0.219 A  
HETATM   15  C   UNL     1     -10.534  10.070  68.797  1.00  0.00    -0.229 A  
HETATM   16  C   UNL     1      -9.828  10.123  69.997  1.00  0.00    -0.179 A  
ENDBRANCH   9  11
ENDBRANCH   8   9
ENDBRANCH   7   8
ENDBRANCH   6   7
ENDBRANCH   5   6
ENDBRANCH   4   5
ENDBRANCH   3   4
ENDBRANCH   2   3
TORSDOF 8
ENDMDL
MODEL      274
REMARK 921   NORMALIZED FREE ENERGY PREDICTED BY IDOCK:   -2.58 KCAL/MOL
REMARK 922        TOTAL FREE ENERGY PREDICTED BY IDOCK:   -4.20 KCAL/MOL
REMARK 923 INTER-LIGAND FREE ENERGY PREDICTED BY IDOCK:   -3.85 KCAL/MOL
REMARK 924 INTRA-LIGAND FREE ENERGY PREDICTED BY IDOCK:   -0.36 KCAL/MOL
REMARK 927      BINDING AFFINITY PREDICTED BY RF-SCORE:    0.00 PKD
ROOT
HETATM    1  C   UNL     1     -12.735  14.023  65.070  1.00  0.00    -0.359 C  
HETATM    2  C   UNL     1     -12.057  13.064  66.033  1.00  0.00    -0.493 C  
ENDROOT
BRANCH   2   3
HETATM    3  C   UNL     1     -11.657  13.754  67.334  1.00  0.00    -0.393 C  
BRANCH   3   4
HETATM    4  C   UNL     1     -11.669  12.774  68.501  1.00  0.00    -0.333 C  
BRANCH   4   5
HETATM    5  O   UNL     1     -10.342  12.642  69.007  1.00  0.00    -0.095 OA 
BRANCH   5   6
HETATM    6  C   UNL     1      -9.797  11.363  68.683  1.00  0.00    -0.193 C  
BRANCH   6   7
HETATM    7  C   UNL     1     -10.832  10.275  68.946  1.00  0.00    -0.228 C  
BRANCH   7   8
HETATM    8  O   UNL     1     -10.572   9.114  68.140  1.00  0.00    -0.219 OA 
BRANCH   8   9
HETATM    9  C   UNL     1     -10.067   8.046  68.807  1.00  0.00    -0.195 C  
HETATM   10  O   UNL     1      -9.793   8.004  69.994  1.00  0.00    -0.183 OA 
BRANCH   9  11
HETATM   11  C   UNL     1      -9.846   6.916  67.880  1.00  0.00    -0.155 A  
HETATM   12  C   UNL     1     -10.924   6.445  67.142  1.00  0.00    -0.399 A  
HETATM   13  N   UNL     1     -10.848   5.409  66.270  1.00  0.00    -0.199 NA 
HETATM   14  C   UNL     1      -9.642   4.819  66.129  1.00  0.00    -0.180 A  
HETATM   15  C   UNL     1      -8.507   5.215  66.820  1.00  0.00    -0.106 A  
HETATM   16  C   UNL     1      -8.612   6.283  67.710  1.00  0.00    -0.115 A  
ENDBRANCH   9  11
ENDBRANCH   8   9
ENDBRANCH   7   8
ENDBRANCH   6   7
ENDBRANCH   5   6
ENDBRANCH   4   5
ENDBRANCH   3   4
ENDBRANCH   2   3
TORSDOF 8
ENDMDL
MODEL      275
REMARK 921   NORMALIZED FREE ENERGY PREDICTED BY IDOCK:   -2.57 KCAL/MOL
REMARK 922        TOTAL FREE ENERGY PREDICTED BY IDOCK:   -4.19 KCAL/MOL
REMARK 923 INTER-LIGAND FREE ENERGY PREDICTED BY IDOCK:   -3.95 KCAL/MOL
REMARK 924 INTRA-LIGAND FREE ENERGY PREDICTED BY IDOCK:   -0.24 KCAL/MOL
REMARK 927      BINDING AFFINITY PREDICTED BY RF-SCORE:    0.00 PKD
ROOT
HETATM    1  C   UNL     1     -14.151  14.100  72.058  1.00  0.00    -0.619 C  
HETATM    2  C   UNL     1     -13.432  12.768  72.190  1.00  0.00    -0.591 C  
ENDROOT
BRANCH   2   3
HETATM    3  C   UNL     1     -12.573  12.463  70.966  1.00  0.00    -0.349 C  
BRANCH   3   4
HETATM    4  C   UNL     1     -12.626  10.982  70.616  1.00  0.00    -0.338 C  
BRANCH   4   5
HETATM    5  O   UNL     1     -12.038  10.234  71.679  1.00  0.00    -0.353 OA 
BRANCH   5   6
HETATM    6  C   UNL     1     -10.919   9.478  71.213  1.00  0.00    -0.370 C  
BRANCH   6   7
HETATM    7  C   UNL     1     -11.373   8.086  70.789  1.00  0.00    -0.272 C  
BRANCH   7   8
HETATM    8  O   UNL     1     -10.345   7.417  70.040  1.00  0.00    -0.209 OA 
BRANCH   8   9
HETATM    9  C   UNL     1     -10.107   6.131  70.402  1.00  0.00    -0.189 C  
HETATM   10  O   UNL     1     -10.900   5.377  70.940  1.00  0.00    -0.218 OA 
BRANCH   9  11
HETATM   11  C   UNL     1      -8.711   5.757  70.091  1.00  0.00    -0.140 A  
HETATM   12  C   UNL     1      -8.087   4.809  70.891  1.00  0.00    -0.083 A  
HETATM   13  N   UNL     1      -6.808   4.394  70.713  1.00  0.00    -0.035 NA 
HETATM   14  C   UNL     1      -6.125   4.949  69.689  1.00  0.00    -0.022 A  
HETATM   15  C   UNL     1      -6.659   5.902  68.835  1.00  0.00    -0.055 A  
HETATM   16  C   UNL     1      -7.975   6.312  69.041  1.00  0.00    -0.110 A  
ENDBRANCH   9  11
ENDBRANCH   8   9
ENDBRANCH   7   8
ENDBRANCH   6   7
ENDBRANCH   5   6
ENDBRANCH   4   5
ENDBRANCH   3   4
ENDBRANCH   2   3
TORSDOF 8
ENDMDL
MODEL      276
REMARK 921   NORMALIZED FREE ENERGY PREDICTED BY IDOCK:   -2.56 KCAL/MOL
REMARK 922        TOTAL FREE ENERGY PREDICTED BY IDOCK:   -4.17 KCAL/MOL
REMARK 923 INTER-LIGAND FREE ENERGY PREDICTED BY IDOCK:   -3.94 KCAL/MOL
REMARK 924 INTRA-LIGAND FREE ENERGY PREDICTED BY IDOCK:   -0.23 KCAL/MOL
REMARK 927      BINDING AFFINITY PREDICTED BY RF-SCORE:    0.00 PKD
ROOT
HETATM    1  C   UNL     1     -12.632  13.886  65.477  1.00  0.00    -0.560 C  
HETATM    2  C   UNL     1     -11.481  14.383  66.335  1.00  0.00    -0.365 C  
ENDROOT
BRANCH   2   3
HETATM    3  C   UNL     1     -10.539  15.291  65.549  1.00  0.00    -0.390 C  
BRANCH   3   4
HETATM    4  C   UNL     1     -11.159  16.665  65.330  1.00  0.00     0.015 C  
BRANCH   4   5
HETATM    5  O   UNL     1     -10.149  17.660  65.495  1.00  0.00    -0.566 OA 
BRANCH   5   6
HETATM    6  C   UNL     1     -10.351  18.398  66.700  1.00  0.00    -0.396 C  
BRANCH   6   7
HETATM    7  C   UNL     1      -9.015  18.634  67.395  1.00  0.00    -0.272 C  
BRANCH   7   8
HETATM    8  O   UNL     1      -9.074  18.226  68.772  1.00  0.00    -0.300 OA 
BRANCH   8   9
HETATM    9  C   UNL     1      -9.108  16.886  68.978  1.00  0.00    -0.174 C  
HETATM   10  O   UNL     1     -10.096  16.225  69.251  1.00  0.00    -0.243 OA 
BRANCH   9  11
HETATM   11  C   UNL     1      -7.751  16.311  68.867  1.00  0.00    -0.219 A  
HETATM   12  C   UNL     1      -7.249  16.042  67.600  1.00  0.00    -0.152 A  
HETATM   13  N   UNL     1      -6.024  15.506  67.371  1.00  0.00    -0.330 NA 
HETATM   14  C   UNL     1      -5.269  15.227  68.455  1.00  0.00    -0.099 A  
HETATM   15  C   UNL     1      -5.681  15.458  69.759  1.00  0.00    -0.126 A  
HETATM   16  C   UNL     1      -6.944  16.010  69.967  1.00  0.00     0.237 A  
ENDBRANCH   9  11
ENDBRANCH   8   9
ENDBRANCH   7   8
ENDBRANCH   6   7
ENDBRANCH   5   6
ENDBRANCH   4   5
ENDBRANCH   3   4
ENDBRANCH   2   3
TORSDOF 8
ENDMDL
MODEL      277
REMARK 921   NORMALIZED FREE ENERGY PREDICTED BY IDOCK:   -2.56 KCAL/MOL
REMARK 922        TOTAL FREE ENERGY PREDICTED BY IDOCK:   -4.17 KCAL/MOL
REMARK 923 INTER-LIGAND FREE ENERGY PREDICTED BY IDOCK:   -3.88 KCAL/MOL
REMARK 924 INTRA-LIGAND FREE ENERGY PREDICTED BY IDOCK:   -0.29 KCAL/MOL
REMARK 927      BINDING AFFINITY PREDICTED BY RF-SCORE:    0.00 PKD
ROOT
HETATM    1  C   UNL     1      -7.146   6.171  65.679  1.00  0.00    -0.072 C  
HETATM    2  C   UNL     1      -7.822   4.834  65.426  1.00  0.00    -0.091 C  
ENDROOT
BRANCH   2   3
HETATM    3  C   UNL     1      -8.761   4.448  66.567  1.00  0.00    -0.112 C  
BRANCH   3   4
HETATM    4  C   UNL     1      -7.988   4.223  67.860  1.00  0.00    -0.087 C  
BRANCH   4   5
HETATM    5  O   UNL     1      -8.304   5.272  68.775  1.00  0.00    -0.092 OA 
BRANCH   5   6
HETATM    6  C   UNL     1      -8.788   4.743  70.010  1.00  0.00    -0.086 C  
BRANCH   6   7
HETATM    7  C   UNL     1     -10.173   5.305  70.308  1.00  0.00    -0.275 C  
BRANCH   7   8
HETATM    8  O   UNL     1     -10.163   6.077  71.520  1.00  0.00    -0.195 OA 
BRANCH   8   9
HETATM    9  C   UNL     1     -11.341   6.116  72.193  1.00  0.00    -0.299 C  
HETATM   10  O   UNL     1     -11.810   5.220  72.874  1.00  0.00    -0.271 OA 
BRANCH   9  11
HETATM   11  C   UNL     1     -12.027   7.405  71.959  1.00  0.00    -0.333 A  
HETATM   12  C   UNL     1     -13.408   7.402  71.813  1.00  0.00    -0.312 A  
HETATM   13  N   UNL     1     -14.146   8.516  71.583  1.00  0.00    -0.415 NA 
HETATM   14  C   UNL     1     -13.474   9.684  71.498  1.00  0.00    -0.352 A  
HETATM   15  C   UNL     1     -12.097   9.791  71.629  1.00  0.00    -0.475 A  
HETATM   16  C   UNL     1     -11.363   8.630  71.864  1.00  0.00    -0.417 A  
ENDBRANCH   9  11
ENDBRANCH   8   9
ENDBRANCH   7   8
ENDBRANCH   6   7
ENDBRANCH   5   6
ENDBRANCH   4   5
ENDBRANCH   3   4
ENDBRANCH   2   3
TORSDOF 8
ENDMDL
MODEL      278
REMARK 921   NORMALIZED FREE ENERGY PREDICTED BY IDOCK:   -2.55 KCAL/MOL
REMARK 922        TOTAL FREE ENERGY PREDICTED BY IDOCK:   -4.16 KCAL/MOL
REMARK 923 INTER-LIGAND FREE ENERGY PREDICTED BY IDOCK:   -3.78 KCAL/MOL
REMARK 924 INTRA-LIGAND FREE ENERGY PREDICTED BY IDOCK:   -0.37 KCAL/MOL
REMARK 927      BINDING AFFINITY PREDICTED BY RF-SCORE:    0.00 PKD
ROOT
HETATM    1  C   UNL     1     -10.558  12.025  63.700  1.00  0.00    -0.503 C  
HETATM    2  C   UNL     1     -10.286  10.976  64.765  1.00  0.00    -0.381 C  
ENDROOT
BRANCH   2   3
HETATM    3  C   UNL     1     -10.657  11.473  66.159  1.00  0.00    -0.314 C  
BRANCH   3   4
HETATM    4  C   UNL     1      -9.629  11.028  67.191  1.00  0.00    -0.169 C  
BRANCH   4   5
HETATM    5  O   UNL     1      -9.712   9.612  67.345  1.00  0.00    -0.147 OA 
BRANCH   5   6
HETATM    6  C   UNL     1      -8.423   9.009  67.229  1.00  0.00    -0.114 C  
BRANCH   6   7
HETATM    7  C   UNL     1      -7.943   8.540  68.597  1.00  0.00    -0.116 C  
BRANCH   7   8
HETATM    8  O   UNL     1      -9.052   8.156  69.427  1.00  0.00    -0.147 OA 
BRANCH   8   9
HETATM    9  C   UNL     1      -9.038   8.664  70.685  1.00  0.00    -0.171 C  
HETATM   10  O   UNL     1      -8.454   9.672  71.047  1.00  0.00    -0.234 OA 
BRANCH   9  11
HETATM   11  C   UNL     1      -9.810   7.797  71.600  1.00  0.00    -0.201 A  
HETATM   12  C   UNL     1     -10.814   7.000  71.067  1.00  0.00    -0.238 A  
HETATM   13  N   UNL     1     -11.596   6.174  71.805  1.00  0.00    -0.295 NA 
HETATM   14  C   UNL     1     -11.362   6.142  73.135  1.00  0.00    -0.026 A  
HETATM   15  C   UNL     1     -10.385   6.900  73.762  1.00  0.00    -0.409 A  
HETATM   16  C   UNL     1      -9.595   7.741  72.980  1.00  0.00    -0.320 A  
ENDBRANCH   9  11
ENDBRANCH   8   9
ENDBRANCH   7   8
ENDBRANCH   6   7
ENDBRANCH   5   6
ENDBRANCH   4   5
ENDBRANCH   3   4
ENDBRANCH   2   3
TORSDOF 8
ENDMDL
MODEL      279
REMARK 921   NORMALIZED FREE ENERGY PREDICTED BY IDOCK:   -2.55 KCAL/MOL
REMARK 922        TOTAL FREE ENERGY PREDICTED BY IDOCK:   -4.16 KCAL/MOL
REMARK 923 INTER-LIGAND FREE ENERGY PREDICTED BY IDOCK:   -3.82 KCAL/MOL
REMARK 924 INTRA-LIGAND FREE ENERGY PREDICTED BY IDOCK:   -0.34 KCAL/MOL
REMARK 927      BINDING AFFINITY PREDICTED BY RF-SCORE:    0.00 PKD
ROOT
HETATM    1  C   UNL     1      -7.251   6.820  67.395  1.00  0.00    -0.090 C  
HETATM    2  C   UNL     1      -6.930   7.997  68.300  1.00  0.00    -0.073 C  
ENDROOT
BRANCH   2   3
HETATM    3  C   UNL     1      -8.189   8.750  68.720  1.00  0.00    -0.116 C  
BRANCH   3   4
HETATM    4  C   UNL     1      -7.840  10.011  69.499  1.00  0.00    -0.154 C  
BRANCH   4   5
HETATM    5  O   UNL     1      -8.925  10.932  69.400  1.00  0.00    -0.049 OA 
BRANCH   5   6
HETATM    6  C   UNL     1     -10.163  10.243  69.222  1.00  0.00    -0.227 C  
BRANCH   6   7
HETATM    7  C   UNL     1     -11.274  10.966  69.976  1.00  0.00    -0.263 C  
BRANCH   7   8
HETATM    8  O   UNL     1     -12.207  11.567  69.064  1.00  0.00    -0.368 OA 
BRANCH   8   9
HETATM    9  C   UNL     1     -11.750  12.661  68.404  1.00  0.00    -0.333 C  
HETATM   10  O   UNL     1     -11.421  12.708  67.231  1.00  0.00    -0.301 OA 
BRANCH   9  11
HETATM   11  C   UNL     1     -11.660  13.817  69.322  1.00  0.00    -0.362 A  
HETATM   12  C   UNL     1     -12.759  14.118  70.115  1.00  0.00    -0.172 A  
HETATM   13  N   UNL     1     -12.801  15.158  70.985  1.00  0.00    -0.378 NA 
HETATM   14  C   UNL     1     -11.695  15.929  71.065  1.00  0.00    -0.432 A  
HETATM   15  C   UNL     1     -10.549  15.710  70.316  1.00  0.00    -0.329 A  
HETATM   16  C   UNL     1     -10.532  14.635  69.429  1.00  0.00    -0.175 A  
ENDBRANCH   9  11
ENDBRANCH   8   9
ENDBRANCH   7   8
ENDBRANCH   6   7
ENDBRANCH   5   6
ENDBRANCH   4   5
ENDBRANCH   3   4
ENDBRANCH   2   3
TORSDOF 8
ENDMDL
MODEL      280
REMARK 921   NORMALIZED FREE ENERGY PREDICTED BY IDOCK:   -2.55 KCAL/MOL
REMARK 922        TOTAL FREE ENERGY PREDICTED BY IDOCK:   -4.16 KCAL/MOL
REMARK 923 INTER-LIGAND FREE ENERGY PREDICTED BY IDOCK:   -3.84 KCAL/MOL
REMARK 924 INTRA-LIGAND FREE ENERGY PREDICTED BY IDOCK:   -0.31 KCAL/MOL
REMARK 927      BINDING AFFINITY PREDICTED BY RF-SCORE:    0.00 PKD
ROOT
HETATM    1  C   UNL     1      -8.031  10.381  66.237  1.00  0.00    -0.138 C  
HETATM    2  C   UNL     1      -7.837  10.293  67.741  1.00  0.00    -0.101 C  
ENDROOT
BRANCH   2   3
HETATM    3  C   UNL     1      -8.991  10.944  68.501  1.00  0.00    -0.157 C  
BRANCH   3   4
HETATM    4  C   UNL     1      -9.481  12.195  67.785  1.00  0.00    -0.192 C  
BRANCH   4   5
HETATM    5  O   UNL     1      -8.955  13.344  68.448  1.00  0.00    -0.184 OA 
BRANCH   5   6
HETATM    6  C   UNL     1      -8.397  14.264  67.510  1.00  0.00    -0.188 C  
BRANCH   6   7
HETATM    7  C   UNL     1      -9.510  15.060  66.837  1.00  0.00    -0.238 C  
BRANCH   7   8
HETATM    8  O   UNL     1      -9.584  16.391  67.372  1.00  0.00    -0.227 OA 
BRANCH   8   9
HETATM    9  C   UNL     1      -9.647  17.384  66.450  1.00  0.00    -0.276 C  
HETATM   10  O   UNL     1     -10.371  17.409  65.469  1.00  0.00    -0.621 OA 
BRANCH   9  11
HETATM   11  C   UNL     1      -8.670  18.447  66.768  1.00  0.00    -0.284 A  
HETATM   12  C   UNL     1      -8.734  19.052  68.017  1.00  0.00    -0.306 A  
HETATM   13  N   UNL     1      -7.902  20.044  68.419  1.00  0.00    -0.222 NA 
HETATM   14  C   UNL     1      -6.965  20.449  67.535  1.00  0.00    -0.302 A  
HETATM   15  C   UNL     1      -6.821  19.909  66.266  1.00  0.00    -0.242 A  
HETATM   16  C   UNL     1      -7.689  18.891  65.877  1.00  0.00    -0.165 A  
ENDBRANCH   9  11
ENDBRANCH   8   9
ENDBRANCH   7   8
ENDBRANCH   6   7
ENDBRANCH   5   6
ENDBRANCH   4   5
ENDBRANCH   3   4
ENDBRANCH   2   3
TORSDOF 8
ENDMDL
MODEL      281
REMARK 921   NORMALIZED FREE ENERGY PREDICTED BY IDOCK:   -2.55 KCAL/MOL
REMARK 922        TOTAL FREE ENERGY PREDICTED BY IDOCK:   -4.15 KCAL/MOL
REMARK 923 INTER-LIGAND FREE ENERGY PREDICTED BY IDOCK:   -3.69 KCAL/MOL
REMARK 924 INTRA-LIGAND FREE ENERGY PREDICTED BY IDOCK:   -0.45 KCAL/MOL
REMARK 927      BINDING AFFINITY PREDICTED BY RF-SCORE:    0.00 PKD
ROOT
HETATM    1  C   UNL     1      -7.102   7.671  68.643  1.00  0.00    -0.080 C  
HETATM    2  C   UNL     1      -6.722   8.110  67.239  1.00  0.00    -0.066 C  
ENDROOT
BRANCH   2   3
HETATM    3  C   UNL     1      -7.616   9.240  66.736  1.00  0.00    -0.090 C  
BRANCH   3   4
HETATM    4  C   UNL     1      -8.591   8.737  65.679  1.00  0.00    -0.172 C  
BRANCH   4   5
HETATM    5  O   UNL     1      -9.922   9.043  66.095  1.00  0.00    -0.284 OA 
BRANCH   5   6
HETATM    6  C   UNL     1     -10.471   7.979  66.872  1.00  0.00    -0.317 C  
BRANCH   6   7
HETATM    7  C   UNL     1     -10.602   8.413  68.328  1.00  0.00    -0.109 C  
BRANCH   7   8
HETATM    8  O   UNL     1     -11.526   9.506  68.456  1.00  0.00     0.138 OA 
BRANCH   8   9
HETATM    9  C   UNL     1     -11.095  10.543  69.218  1.00  0.00    -0.246 C  
HETATM   10  O   UNL     1     -10.595  10.461  70.327  1.00  0.00    -0.262 OA 
BRANCH   9  11
HETATM   11  C   UNL     1     -11.350  11.828  68.533  1.00  0.00    -0.328 A  
HETATM   12  C   UNL     1     -11.682  12.934  69.304  1.00  0.00    -0.321 A  
HETATM   13  N   UNL     1     -11.949  14.160  68.791  1.00  0.00    -0.343 NA 
HETATM   14  C   UNL     1     -11.879  14.287  67.448  1.00  0.00    -0.409 A  
HETATM   15  C   UNL     1     -11.557  13.243  66.593  1.00  0.00    -0.408 A  
HETATM   16  C   UNL     1     -11.288  11.993  67.146  1.00  0.00    -0.396 A  
ENDBRANCH   9  11
ENDBRANCH   8   9
ENDBRANCH   7   8
ENDBRANCH   6   7
ENDBRANCH   5   6
ENDBRANCH   4   5
ENDBRANCH   3   4
ENDBRANCH   2   3
TORSDOF 8
ENDMDL
MODEL      282
REMARK 921   NORMALIZED FREE ENERGY PREDICTED BY IDOCK:   -2.54 KCAL/MOL
REMARK 922        TOTAL FREE ENERGY PREDICTED BY IDOCK:   -4.15 KCAL/MOL
REMARK 923 INTER-LIGAND FREE ENERGY PREDICTED BY IDOCK:   -3.72 KCAL/MOL
REMARK 924 INTRA-LIGAND FREE ENERGY PREDICTED BY IDOCK:   -0.43 KCAL/MOL
REMARK 927      BINDING AFFINITY PREDICTED BY RF-SCORE:    0.00 PKD
ROOT
HETATM    1  C   UNL     1     -10.396  11.322  63.709  1.00  0.00    -0.453 C  
HETATM    2  C   UNL     1      -9.751  11.153  65.074  1.00  0.00    -0.298 C  
ENDROOT
BRANCH   2   3
HETATM    3  C   UNL     1      -9.728   9.692  65.514  1.00  0.00    -0.372 C  
BRANCH   3   4
HETATM    4  C   UNL     1      -8.659   9.455  66.573  1.00  0.00    -0.134 C  
BRANCH   4   5
HETATM    5  O   UNL     1      -8.560  10.615  67.397  1.00  0.00    -0.122 OA 
BRANCH   5   6
HETATM    6  C   UNL     1      -7.305  10.652  68.078  1.00  0.00    -0.088 C  
BRANCH   6   7
HETATM    7  C   UNL     1      -7.520  10.454  69.574  1.00  0.00    -0.148 C  
BRANCH   7   8
HETATM    8  O   UNL     1      -8.797   9.848  69.834  1.00  0.00    -0.203 OA 
BRANCH   8   9
HETATM    9  C   UNL     1      -8.798   8.882  70.786  1.00  0.00    -0.208 C  
HETATM   10  O   UNL     1      -8.338   8.981  71.911  1.00  0.00    -0.365 OA 
BRANCH   9  11
HETATM   11  C   UNL     1      -9.409   7.642  70.263  1.00  0.00    -0.157 A  
HETATM   12  C   UNL     1      -8.853   6.424  70.633  1.00  0.00    -0.144 A  
HETATM   13  N   UNL     1      -9.317   5.222  70.209  1.00  0.00    -0.152 NA 
HETATM   14  C   UNL     1     -10.384   5.239  69.381  1.00  0.00    -0.243 A  
HETATM   15  C   UNL     1     -11.007   6.401  68.954  1.00  0.00    -0.412 A  
HETATM   16  C   UNL     1     -10.511   7.623  69.404  1.00  0.00    -0.220 A  
ENDBRANCH   9  11
ENDBRANCH   8   9
ENDBRANCH   7   8
ENDBRANCH   6   7
ENDBRANCH   5   6
ENDBRANCH   4   5
ENDBRANCH   3   4
ENDBRANCH   2   3
TORSDOF 8
ENDMDL
MODEL      283
REMARK 921   NORMALIZED FREE ENERGY PREDICTED BY IDOCK:   -2.54 KCAL/MOL
REMARK 922        TOTAL FREE ENERGY PREDICTED BY IDOCK:   -4.14 KCAL/MOL
REMARK 923 INTER-LIGAND FREE ENERGY PREDICTED BY IDOCK:   -3.78 KCAL/MOL
REMARK 924 INTRA-LIGAND FREE ENERGY PREDICTED BY IDOCK:   -0.35 KCAL/MOL
REMARK 927      BINDING AFFINITY PREDICTED BY RF-SCORE:    0.00 PKD
ROOT
HETATM    1  C   UNL     1      -7.127  18.866  67.739  1.00  0.00    -0.245 C  
HETATM    2  C   UNL     1      -6.037  17.910  68.192  1.00  0.00    -0.174 C  
ENDROOT
BRANCH   2   3
HETATM    3  C   UNL     1      -5.626  16.950  67.079  1.00  0.00    -0.200 C  
BRANCH   3   4
HETATM    4  C   UNL     1      -6.152  15.545  67.345  1.00  0.00    -0.007 C  
BRANCH   4   5
HETATM    5  O   UNL     1      -6.626  15.476  68.689  1.00  0.00    -0.099 OA 
BRANCH   5   6
HETATM    6  C   UNL     1      -7.518  14.375  68.859  1.00  0.00    -0.132 C  
BRANCH   6   7
HETATM    7  C   UNL     1      -8.955  14.829  68.630  1.00  0.00    -0.185 C  
BRANCH   7   8
HETATM    8  O   UNL     1      -9.298  15.910  69.514  1.00  0.00    -0.257 OA 
BRANCH   8   9
HETATM    9  C   UNL     1     -10.537  16.435  69.335  1.00  0.00    -0.317 C  
HETATM   10  O   UNL     1     -11.519  16.209  70.020  1.00  0.00    -0.330 OA 
BRANCH   9  11
HETATM   11  C   UNL     1     -10.558  17.311  68.144  1.00  0.00    -0.386 A  
HETATM   12  C   UNL     1     -10.777  18.670  68.328  1.00  0.00    -0.035 A  
HETATM   13  N   UNL     1     -10.830  19.571  67.315  1.00  0.00    -0.491 NA 
HETATM   14  C   UNL     1     -10.656  19.091  66.065  1.00  0.00    -0.423 A  
HETATM   15  C   UNL     1     -10.433  17.753  65.778  1.00  0.00    -0.199 A  
HETATM   16  C   UNL     1     -10.383  16.848  66.837  1.00  0.00    -0.304 A  
ENDBRANCH   9  11
ENDBRANCH   8   9
ENDBRANCH   7   8
ENDBRANCH   6   7
ENDBRANCH   5   6
ENDBRANCH   4   5
ENDBRANCH   3   4
ENDBRANCH   2   3
TORSDOF 8
ENDMDL
MODEL      284
REMARK 921   NORMALIZED FREE ENERGY PREDICTED BY IDOCK:   -2.53 KCAL/MOL
REMARK 922        TOTAL FREE ENERGY PREDICTED BY IDOCK:   -4.12 KCAL/MOL
REMARK 923 INTER-LIGAND FREE ENERGY PREDICTED BY IDOCK:   -3.74 KCAL/MOL
REMARK 924 INTRA-LIGAND FREE ENERGY PREDICTED BY IDOCK:   -0.39 KCAL/MOL
REMARK 927      BINDING AFFINITY PREDICTED BY RF-SCORE:    0.00 PKD
ROOT
HETATM    1  C   UNL     1      -8.230   6.281  65.962  1.00  0.00    -0.125 C  
HETATM    2  C   UNL     1      -7.825   5.050  66.753  1.00  0.00    -0.100 C  
ENDROOT
BRANCH   2   3
HETATM    3  C   UNL     1      -8.344   5.100  68.187  1.00  0.00    -0.097 C  
BRANCH   3   4
HETATM    4  C   UNL     1      -9.862   4.977  68.225  1.00  0.00    -0.150 C  
BRANCH   4   5
HETATM    5  O   UNL     1     -10.302   5.097  69.577  1.00  0.00    -0.251 OA 
BRANCH   5   6
HETATM    6  C   UNL     1     -11.259   6.148  69.711  1.00  0.00    -0.423 C  
BRANCH   6   7
HETATM    7  C   UNL     1     -10.783   7.154  70.754  1.00  0.00    -0.231 C  
BRANCH   7   8
HETATM    8  O   UNL     1     -11.094   8.497  70.349  1.00  0.00    -0.244 OA 
BRANCH   8   9
HETATM    9  C   UNL     1     -10.164   9.096  69.563  1.00  0.00    -0.203 C  
HETATM   10  O   UNL     1      -9.016   8.721  69.394  1.00  0.00    -0.141 OA 
BRANCH   9  11
HETATM   11  C   UNL     1     -10.719  10.321  68.949  1.00  0.00    -0.256 A  
HETATM   12  C   UNL     1     -10.411  10.593  67.622  1.00  0.00    -0.227 A  
HETATM   13  N   UNL     1     -10.850  11.689  66.954  1.00  0.00    -0.263 NA 
HETATM   14  C   UNL     1     -11.631  12.549  67.642  1.00  0.00    -0.355 A  
HETATM   15  C   UNL     1     -11.993  12.366  68.968  1.00  0.00    -0.291 A  
HETATM   16  C   UNL     1     -11.529  11.232  69.632  1.00  0.00    -0.380 A  
ENDBRANCH   9  11
ENDBRANCH   8   9
ENDBRANCH   7   8
ENDBRANCH   6   7
ENDBRANCH   5   6
ENDBRANCH   4   5
ENDBRANCH   3   4
ENDBRANCH   2   3
TORSDOF 8
ENDMDL
MODEL      285
REMARK 921   NORMALIZED FREE ENERGY PREDICTED BY IDOCK:   -2.51 KCAL/MOL
REMARK 922        TOTAL FREE ENERGY PREDICTED BY IDOCK:   -4.10 KCAL/MOL
REMARK 923 INTER-LIGAND FREE ENERGY PREDICTED BY IDOCK:   -3.29 KCAL/MOL
REMARK 924 INTRA-LIGAND FREE ENERGY PREDICTED BY IDOCK:   -0.81 KCAL/MOL
REMARK 927      BINDING AFFINITY PREDICTED BY RF-SCORE:    0.00 PKD
ROOT
HETATM    1  C   UNL     1     -10.374  10.484  66.761  1.00  0.00    -0.301 C  
HETATM    2  C   UNL     1     -11.277  10.757  67.952  1.00  0.00    -0.386 C  
ENDROOT
BRANCH   2   3
HETATM    3  C   UNL     1     -11.040  12.147  68.538  1.00  0.00    -0.295 C  
BRANCH   3   4
HETATM    4  C   UNL     1      -9.982  12.902  67.744  1.00  0.00    -0.230 C  
BRANCH   4   5
HETATM    5  O   UNL     1      -8.828  13.079  68.564  1.00  0.00    -0.141 OA 
BRANCH   5   6
HETATM    6  C   UNL     1      -7.648  12.649  67.884  1.00  0.00    -0.132 C  
BRANCH   6   7
HETATM    7  C   UNL     1      -7.253  11.255  68.360  1.00  0.00    -0.085 C  
BRANCH   7   8
HETATM    8  O   UNL     1      -8.120  10.809  69.415  1.00  0.00    -0.131 OA 
BRANCH   8   9
HETATM    9  C   UNL     1      -7.810   9.600  69.948  1.00  0.00    -0.152 C  
HETATM   10  O   UNL     1      -6.687   9.166  70.141  1.00  0.00    -0.042 OA 
BRANCH   9  11
HETATM   11  C   UNL     1      -9.040   8.833  70.237  1.00  0.00    -0.185 A  
HETATM   12  C   UNL     1      -9.858   9.261  71.275  1.00  0.00    -0.248 A  
HETATM   13  N   UNL     1     -11.004   8.635  71.642  1.00  0.00    -0.283 NA 
HETATM   14  C   UNL     1     -11.347   7.533  70.940  1.00  0.00    -0.277 A  
HETATM   15  C   UNL     1     -10.597   7.026  69.890  1.00  0.00    -0.249 A  
HETATM   16  C   UNL     1      -9.424   7.688  69.533  1.00  0.00    -0.152 A  
ENDBRANCH   9  11
ENDBRANCH   8   9
ENDBRANCH   7   8
ENDBRANCH   6   7
ENDBRANCH   5   6
ENDBRANCH   4   5
ENDBRANCH   3   4
ENDBRANCH   2   3
TORSDOF 8
ENDMDL
MODEL      286
REMARK 921   NORMALIZED FREE ENERGY PREDICTED BY IDOCK:   -2.51 KCAL/MOL
REMARK 922        TOTAL FREE ENERGY PREDICTED BY IDOCK:   -4.10 KCAL/MOL
REMARK 923 INTER-LIGAND FREE ENERGY PREDICTED BY IDOCK:   -3.20 KCAL/MOL
REMARK 924 INTRA-LIGAND FREE ENERGY PREDICTED BY IDOCK:   -0.90 KCAL/MOL
REMARK 927      BINDING AFFINITY PREDICTED BY RF-SCORE:    0.00 PKD
ROOT
HETATM    1  C   UNL     1      -8.878   9.676  70.096  1.00  0.00    -0.266 C  
HETATM    2  C   UNL     1      -9.364   8.844  71.270  1.00  0.00    -0.336 C  
ENDROOT
BRANCH   2   3
HETATM    3  C   UNL     1     -10.818   9.150  71.620  1.00  0.00    -0.442 C  
BRANCH   3   4
HETATM    4  C   UNL     1     -11.538   7.902  72.112  1.00  0.00    -0.328 C  
BRANCH   4   5
HETATM    5  O   UNL     1     -10.843   7.385  73.246  1.00  0.00    -0.374 OA 
BRANCH   5   6
HETATM    6  C   UNL     1     -10.870   5.957  73.254  1.00  0.00    -0.261 C  
BRANCH   6   7
HETATM    7  C   UNL     1     -10.698   5.426  71.835  1.00  0.00    -0.211 C  
BRANCH   7   8
HETATM    8  O   UNL     1      -9.309   5.391  71.466  1.00  0.00    -0.145 OA 
BRANCH   8   9
HETATM    9  C   UNL     1      -9.033   4.729  70.314  1.00  0.00    -0.103 C  
HETATM   10  O   UNL     1      -9.079   3.522  70.150  1.00  0.00    -0.102 OA 
BRANCH   9  11
HETATM   11  C   UNL     1      -8.618   5.679  69.260  1.00  0.00    -0.106 A  
HETATM   12  C   UNL     1      -9.528   5.996  68.260  1.00  0.00    -0.115 A  
HETATM   13  N   UNL     1      -9.260   6.843  67.236  1.00  0.00    -0.125 NA 
HETATM   14  C   UNL     1      -8.029   7.398  67.211  1.00  0.00    -0.115 A  
HETATM   15  C   UNL     1      -7.051   7.144  68.161  1.00  0.00    -0.085 A  
HETATM   16  C   UNL     1      -7.353   6.270  69.204  1.00  0.00    -0.089 A  
ENDBRANCH   9  11
ENDBRANCH   8   9
ENDBRANCH   7   8
ENDBRANCH   6   7
ENDBRANCH   5   6
ENDBRANCH   4   5
ENDBRANCH   3   4
ENDBRANCH   2   3
TORSDOF 8
ENDMDL
MODEL      287
REMARK 921   NORMALIZED FREE ENERGY PREDICTED BY IDOCK:   -2.51 KCAL/MOL
REMARK 922        TOTAL FREE ENERGY PREDICTED BY IDOCK:   -4.10 KCAL/MOL
REMARK 923 INTER-LIGAND FREE ENERGY PREDICTED BY IDOCK:   -3.82 KCAL/MOL
REMARK 924 INTRA-LIGAND FREE ENERGY PREDICTED BY IDOCK:   -0.27 KCAL/MOL
REMARK 927      BINDING AFFINITY PREDICTED BY RF-SCORE:    0.00 PKD
ROOT
HETATM    1  C   UNL     1     -10.491  12.312  63.560  1.00  0.00    -0.459 C  
HETATM    2  C   UNL     1     -11.085  11.391  64.612  1.00  0.00    -0.277 C  
ENDROOT
BRANCH   2   3
HETATM    3  C   UNL     1     -10.173  11.257  65.829  1.00  0.00    -0.301 C  
BRANCH   3   4
HETATM    4  C   UNL     1      -9.797   9.801  66.073  1.00  0.00    -0.274 C  
BRANCH   4   5
HETATM    5  O   UNL     1     -10.691   9.248  67.037  1.00  0.00    -0.232 OA 
BRANCH   5   6
HETATM    6  C   UNL     1     -10.708   7.822  66.958  1.00  0.00    -0.246 C  
BRANCH   6   7
HETATM    7  C   UNL     1      -9.436   7.252  67.575  1.00  0.00    -0.129 C  
BRANCH   7   8
HETATM    8  O   UNL     1      -9.742   6.183  68.485  1.00  0.00    -0.124 OA 
BRANCH   8   9
HETATM    9  C   UNL     1      -9.039   6.192  69.646  1.00  0.00    -0.137 C  
HETATM   10  O   UNL     1      -7.836   6.358  69.757  1.00  0.00    -0.109 OA 
BRANCH   9  11
HETATM   11  C   UNL     1      -9.934   5.929  70.793  1.00  0.00    -0.241 A  
HETATM   12  C   UNL     1      -9.542   4.986  71.735  1.00  0.00    -0.154 A  
HETATM   13  N   UNL     1     -10.281   4.650  72.821  1.00  0.00    -0.173 NA 
HETATM   14  C   UNL     1     -11.463   5.286  72.973  1.00  0.00    -0.269 A  
HETATM   15  C   UNL     1     -11.942   6.241  72.089  1.00  0.00    -0.338 A  
HETATM   16  C   UNL     1     -11.163   6.567  70.980  1.00  0.00    -0.362 A  
ENDBRANCH   9  11
ENDBRANCH   8   9
ENDBRANCH   7   8
ENDBRANCH   6   7
ENDBRANCH   5   6
ENDBRANCH   4   5
ENDBRANCH   3   4
ENDBRANCH   2   3
TORSDOF 8
ENDMDL
MODEL      288
REMARK 921   NORMALIZED FREE ENERGY PREDICTED BY IDOCK:   -2.49 KCAL/MOL
REMARK 922        TOTAL FREE ENERGY PREDICTED BY IDOCK:   -4.07 KCAL/MOL
REMARK 923 INTER-LIGAND FREE ENERGY PREDICTED BY IDOCK:   -3.74 KCAL/MOL
REMARK 924 INTRA-LIGAND FREE ENERGY PREDICTED BY IDOCK:   -0.33 KCAL/MOL
REMARK 927      BINDING AFFINITY PREDICTED BY RF-SCORE:    0.00 PKD
ROOT
HETATM    1  C   UNL     1      -7.690   8.900  68.482  1.00  0.00    -0.098 C  
HETATM    2  C   UNL     1      -6.798   8.525  67.311  1.00  0.00    -0.067 C  
ENDROOT
BRANCH   2   3
HETATM    3  C   UNL     1      -6.866   9.560  66.192  1.00  0.00    -0.090 C  
BRANCH   3   4
HETATM    4  C   UNL     1      -8.267   9.633  65.598  1.00  0.00    -0.120 C  
BRANCH   4   5
HETATM    5  O   UNL     1      -8.868  10.869  65.982  1.00  0.00    -0.176 OA 
BRANCH   5   6
HETATM    6  C   UNL     1     -10.119  11.056  65.321  1.00  0.00    -0.275 C  
BRANCH   6   7
HETATM    7  C   UNL     1     -11.084  11.803  66.234  1.00  0.00    -0.311 C  
BRANCH   7   8
HETATM    8  O   UNL     1     -10.403  12.832  66.969  1.00  0.00    -0.232 OA 
BRANCH   8   9
HETATM    9  C   UNL     1     -10.979  14.060  66.918  1.00  0.00    -0.298 C  
HETATM   10  O   UNL     1     -12.176  14.291  66.900  1.00  0.00    -0.438 OA 
BRANCH   9  11
HETATM   11  C   UNL     1      -9.945  15.113  66.844  1.00  0.00    -0.243 A  
HETATM   12  C   UNL     1     -10.335  16.399  66.492  1.00  0.00    -0.303 A  
HETATM   13  N   UNL     1      -9.478  17.444  66.380  1.00  0.00    -0.315 NA 
HETATM   14  C   UNL     1      -8.176  17.193  66.632  1.00  0.00    -0.256 A  
HETATM   15  C   UNL     1      -7.688  15.946  66.990  1.00  0.00    -0.268 A  
HETATM   16  C   UNL     1      -8.589  14.888  67.098  1.00  0.00    -0.248 A  
ENDBRANCH   9  11
ENDBRANCH   8   9
ENDBRANCH   7   8
ENDBRANCH   6   7
ENDBRANCH   5   6
ENDBRANCH   4   5
ENDBRANCH   3   4
ENDBRANCH   2   3
TORSDOF 8
ENDMDL
MODEL      289
REMARK 921   NORMALIZED FREE ENERGY PREDICTED BY IDOCK:   -2.49 KCAL/MOL
REMARK 922        TOTAL FREE ENERGY PREDICTED BY IDOCK:   -4.07 KCAL/MOL
REMARK 923 INTER-LIGAND FREE ENERGY PREDICTED BY IDOCK:   -3.61 KCAL/MOL
REMARK 924 INTRA-LIGAND FREE ENERGY PREDICTED BY IDOCK:   -0.46 KCAL/MOL
REMARK 927      BINDING AFFINITY PREDICTED BY RF-SCORE:    0.00 PKD
ROOT
HETATM    1  C   UNL     1      -9.774   4.443  65.480  1.00  0.00    -0.206 C  
HETATM    2  C   UNL     1     -10.438   4.604  66.837  1.00  0.00    -0.048 C  
ENDROOT
BRANCH   2   3
HETATM    3  C   UNL     1     -11.027   6.000  67.019  1.00  0.00    -0.364 C  
BRANCH   3   4
HETATM    4  C   UNL     1     -10.325   6.748  68.145  1.00  0.00    -0.188 C  
BRANCH   4   5
HETATM    5  O   UNL     1      -8.917   6.556  68.020  1.00  0.00    -0.118 OA 
BRANCH   5   6
HETATM    6  C   UNL     1      -8.326   7.601  67.246  1.00  0.00    -0.115 C  
BRANCH   6   7
HETATM    7  C   UNL     1      -8.274   8.887  68.062  1.00  0.00    -0.110 C  
BRANCH   7   8
HETATM    8  O   UNL     1      -8.559  10.029  67.238  1.00  0.00    -0.125 OA 
BRANCH   8   9
HETATM    9  C   UNL     1      -9.648  10.751  67.604  1.00  0.00    -0.158 C  
HETATM   10  O   UNL     1     -10.059  10.906  68.742  1.00  0.00    -0.180 OA 
BRANCH   9  11
HETATM   11  C   UNL     1     -10.320  11.313  66.413  1.00  0.00    -0.291 A  
HETATM   12  C   UNL     1      -9.680  11.213  65.184  1.00  0.00    -0.250 A  
HETATM   13  N   UNL     1     -10.189  11.699  64.025  1.00  0.00    -0.312 NA 
HETATM   14  C   UNL     1     -11.391  12.311  64.098  1.00  0.00    -0.376 A  
HETATM   15  C   UNL     1     -12.107  12.461  65.275  1.00  0.00    -0.451 A  
HETATM   16  C   UNL     1     -11.561  11.953  66.452  1.00  0.00    -0.315 A  
ENDBRANCH   9  11
ENDBRANCH   8   9
ENDBRANCH   7   8
ENDBRANCH   6   7
ENDBRANCH   5   6
ENDBRANCH   4   5
ENDBRANCH   3   4
ENDBRANCH   2   3
TORSDOF 8
ENDMDL
MODEL      290
REMARK 921   NORMALIZED FREE ENERGY PREDICTED BY IDOCK:   -2.49 KCAL/MOL
REMARK 922        TOTAL FREE ENERGY PREDICTED BY IDOCK:   -4.06 KCAL/MOL
REMARK 923 INTER-LIGAND FREE ENERGY PREDICTED BY IDOCK:   -3.76 KCAL/MOL
REMARK 924 INTRA-LIGAND FREE ENERGY PREDICTED BY IDOCK:   -0.30 KCAL/MOL
REMARK 927      BINDING AFFINITY PREDICTED BY RF-SCORE:    0.00 PKD
ROOT
HETATM    1  C   UNL     1      -9.672  14.201  66.582  1.00  0.00    -0.297 C  
HETATM    2  C   UNL     1      -9.983  13.688  67.978  1.00  0.00    -0.247 C  
ENDROOT
BRANCH   2   3
HETATM    3  C   UNL     1     -11.236  12.818  67.997  1.00  0.00    -0.310 C  
BRANCH   3   4
HETATM    4  C   UNL     1     -11.065  11.592  67.109  1.00  0.00    -0.297 C  
BRANCH   4   5
HETATM    5  O   UNL     1     -10.885  10.444  67.936  1.00  0.00    -0.237 OA 
BRANCH   5   6
HETATM    6  C   UNL     1     -11.422  10.665  69.240  1.00  0.00    -0.281 C  
BRANCH   6   7
HETATM    7  C   UNL     1     -10.909   9.598  70.202  1.00  0.00    -0.280 C  
BRANCH   7   8
HETATM    8  O   UNL     1     -11.491   8.318  69.905  1.00  0.00    -0.025 OA 
BRANCH   8   9
HETATM    9  C   UNL     1     -10.604   7.331  69.619  1.00  0.00    -0.235 C  
HETATM   10  O   UNL     1      -9.855   7.294  68.657  1.00  0.00    -0.155 OA 
BRANCH   9  11
HETATM   11  C   UNL     1     -10.688   6.254  70.628  1.00  0.00    -0.321 A  
HETATM   12  C   UNL     1     -11.518   6.438  71.725  1.00  0.00    -0.300 A  
HETATM   13  N   UNL     1     -11.669   5.529  72.720  1.00  0.00    -0.254 NA 
HETATM   14  C   UNL     1     -10.960   4.385  72.612  1.00  0.00    -0.029 A  
HETATM   15  C   UNL     1     -10.104   4.108  71.557  1.00  0.00    -0.184 A  
HETATM   16  C   UNL     1      -9.967   5.059  70.548  1.00  0.00    -0.312 A  
ENDBRANCH   9  11
ENDBRANCH   8   9
ENDBRANCH   7   8
ENDBRANCH   6   7
ENDBRANCH   5   6
ENDBRANCH   4   5
ENDBRANCH   3   4
ENDBRANCH   2   3
TORSDOF 8
ENDMDL
MODEL      291
REMARK 921   NORMALIZED FREE ENERGY PREDICTED BY IDOCK:   -2.48 KCAL/MOL
REMARK 922        TOTAL FREE ENERGY PREDICTED BY IDOCK:   -4.05 KCAL/MOL
REMARK 923 INTER-LIGAND FREE ENERGY PREDICTED BY IDOCK:   -3.66 KCAL/MOL
REMARK 924 INTRA-LIGAND FREE ENERGY PREDICTED BY IDOCK:   -0.39 KCAL/MOL
REMARK 927      BINDING AFFINITY PREDICTED BY RF-SCORE:    0.00 PKD
ROOT
HETATM    1  C   UNL     1     -13.994   9.162  72.209  1.00  0.00    -0.489 C  
HETATM    2  C   UNL     1     -13.360  10.170  71.266  1.00  0.00    -0.394 C  
ENDROOT
BRANCH   2   3
HETATM    3  C   UNL     1     -11.840  10.031  71.225  1.00  0.00    -0.471 C  
BRANCH   3   4
HETATM    4  C   UNL     1     -11.386   9.364  69.933  1.00  0.00    -0.093 C  
BRANCH   4   5
HETATM    5  O   UNL     1     -10.075   8.836  70.122  1.00  0.00    -0.178 OA 
BRANCH   5   6
HETATM    6  C   UNL     1     -10.129   7.468  70.527  1.00  0.00    -0.188 C  
BRANCH   6   7
HETATM    7  C   UNL     1      -9.416   6.593  69.503  1.00  0.00    -0.147 C  
BRANCH   7   8
HETATM    8  O   UNL     1      -9.041   7.359  68.346  1.00  0.00    -0.134 OA 
BRANCH   8   9
HETATM    9  C   UNL     1      -9.616   6.969  67.181  1.00  0.00    -0.149 C  
HETATM   10  O   UNL     1     -10.319   5.986  67.020  1.00  0.00    -0.183 OA 
BRANCH   9  11
HETATM   11  C   UNL     1      -9.240   7.889  66.086  1.00  0.00    -0.208 A  
HETATM   12  C   UNL     1      -9.917   9.096  65.976  1.00  0.00    -0.223 A  
HETATM   13  N   UNL     1      -9.670  10.015  65.009  1.00  0.00    -0.309 NA 
HETATM   14  C   UNL     1      -8.705   9.713  64.115  1.00  0.00    -0.216 A  
HETATM   15  C   UNL     1      -7.974   8.535  64.140  1.00  0.00    -0.150 A  
HETATM   16  C   UNL     1      -8.247   7.608  65.144  1.00  0.00    -0.130 A  
ENDBRANCH   9  11
ENDBRANCH   8   9
ENDBRANCH   7   8
ENDBRANCH   6   7
ENDBRANCH   5   6
ENDBRANCH   4   5
ENDBRANCH   3   4
ENDBRANCH   2   3
TORSDOF 8
ENDMDL
MODEL      292
REMARK 921   NORMALIZED FREE ENERGY PREDICTED BY IDOCK:   -2.46 KCAL/MOL
REMARK 922        TOTAL FREE ENERGY PREDICTED BY IDOCK:   -4.02 KCAL/MOL
REMARK 923 INTER-LIGAND FREE ENERGY PREDICTED BY IDOCK:   -3.46 KCAL/MOL
REMARK 924 INTRA-LIGAND FREE ENERGY PREDICTED BY IDOCK:   -0.56 KCAL/MOL
REMARK 927      BINDING AFFINITY PREDICTED BY RF-SCORE:    0.00 PKD
ROOT
HETATM    1  C   UNL     1      -5.144  11.804  68.445  1.00  0.00    -0.042 C  
HETATM    2  C   UNL     1      -5.664  12.099  67.049  1.00  0.00    -0.086 C  
ENDROOT
BRANCH   2   3
HETATM    3  C   UNL     1      -7.109  12.592  67.074  1.00  0.00     0.031 C  
BRANCH   3   4
HETATM    4  C   UNL     1      -7.464  13.179  68.434  1.00  0.00    -0.124 C  
BRANCH   4   5
HETATM    5  O   UNL     1      -7.698  14.578  68.287  1.00  0.00    -0.111 OA 
BRANCH   5   6
HETATM    6  C   UNL     1      -8.894  14.969  68.962  1.00  0.00    -0.205 C  
BRANCH   6   7
HETATM    7  C   UNL     1      -9.981  15.300  67.946  1.00  0.00    -0.228 C  
BRANCH   7   8
HETATM    8  O   UNL     1      -9.963  14.367  66.854  1.00  0.00    -0.251 OA 
BRANCH   8   9
HETATM    9  C   UNL     1     -11.062  13.578  66.747  1.00  0.00    -0.299 C  
HETATM   10  O   UNL     1     -12.217  13.926  66.928  1.00  0.00    -0.424 OA 
BRANCH   9  11
HETATM   11  C   UNL     1     -10.672  12.192  66.413  1.00  0.00    -0.292 A  
HETATM   12  C   UNL     1     -10.551  11.844  65.074  1.00  0.00    -0.289 A  
HETATM   13  N   UNL     1     -10.212  10.603  64.644  1.00  0.00    -0.349 NA 
HETATM   14  C   UNL     1      -9.982   9.671  65.594  1.00  0.00    -0.251 A  
HETATM   15  C   UNL     1     -10.078   9.920  66.954  1.00  0.00    -0.285 A  
HETATM   16  C   UNL     1     -10.428  11.203  67.370  1.00  0.00    -0.255 A  
ENDBRANCH   9  11
ENDBRANCH   8   9
ENDBRANCH   7   8
ENDBRANCH   6   7
ENDBRANCH   5   6
ENDBRANCH   4   5
ENDBRANCH   3   4
ENDBRANCH   2   3
TORSDOF 8
ENDMDL
MODEL      293
REMARK 921   NORMALIZED FREE ENERGY PREDICTED BY IDOCK:   -2.45 KCAL/MOL
REMARK 922        TOTAL FREE ENERGY PREDICTED BY IDOCK:   -4.01 KCAL/MOL
REMARK 923 INTER-LIGAND FREE ENERGY PREDICTED BY IDOCK:   -3.69 KCAL/MOL
REMARK 924 INTRA-LIGAND FREE ENERGY PREDICTED BY IDOCK:   -0.32 KCAL/MOL
REMARK 927      BINDING AFFINITY PREDICTED BY RF-SCORE:    0.00 PKD
ROOT
HETATM    1  C   UNL     1      -8.080  18.507  67.727  1.00  0.00    -0.264 C  
HETATM    2  C   UNL     1      -6.714  18.262  68.344  1.00  0.00    -0.229 C  
ENDROOT
BRANCH   2   3
HETATM    3  C   UNL     1      -5.637  18.073  67.279  1.00  0.00    -0.148 C  
BRANCH   3   4
HETATM    4  C   UNL     1      -5.364  16.595  67.032  1.00  0.00    -0.088 C  
BRANCH   4   5
HETATM    5  O   UNL     1      -5.900  15.838  68.116  1.00  0.00    -0.108 OA 
BRANCH   5   6
HETATM    6  C   UNL     1      -6.599  14.689  67.639  1.00  0.00    -0.155 C  
BRANCH   6   7
HETATM    7  C   UNL     1      -8.102  14.942  67.677  1.00  0.00    -0.166 C  
BRANCH   7   8
HETATM    8  O   UNL     1      -8.747  14.374  66.525  1.00  0.00    -0.163 OA 
BRANCH   8   9
HETATM    9  C   UNL     1     -10.103  14.406  66.545  1.00  0.00    -0.276 C  
HETATM   10  O   UNL     1     -10.809  15.272  66.056  1.00  0.00    -0.322 OA 
BRANCH   9  11
HETATM   11  C   UNL     1     -10.636  13.246  67.290  1.00  0.00    -0.250 A  
HETATM   12  C   UNL     1     -10.635  12.004  66.669  1.00  0.00    -0.232 A  
HETATM   13  N   UNL     1     -11.107  10.871  67.245  1.00  0.00    -0.303 NA 
HETATM   14  C   UNL     1     -11.600  10.984  68.497  1.00  0.00    -0.310 A  
HETATM   15  C   UNL     1     -11.645  12.179  69.201  1.00  0.00    -0.374 A  
HETATM   16  C   UNL     1     -11.153  13.328  68.585  1.00  0.00    -0.301 A  
ENDBRANCH   9  11
ENDBRANCH   8   9
ENDBRANCH   7   8
ENDBRANCH   6   7
ENDBRANCH   5   6
ENDBRANCH   4   5
ENDBRANCH   3   4
ENDBRANCH   2   3
TORSDOF 8
ENDMDL
MODEL      294
REMARK 921   NORMALIZED FREE ENERGY PREDICTED BY IDOCK:   -2.44 KCAL/MOL
REMARK 922        TOTAL FREE ENERGY PREDICTED BY IDOCK:   -3.99 KCAL/MOL
REMARK 923 INTER-LIGAND FREE ENERGY PREDICTED BY IDOCK:   -3.71 KCAL/MOL
REMARK 924 INTRA-LIGAND FREE ENERGY PREDICTED BY IDOCK:   -0.28 KCAL/MOL
REMARK 927      BINDING AFFINITY PREDICTED BY RF-SCORE:    0.00 PKD
ROOT
HETATM    1  C   UNL     1      -8.480   3.703  67.332  1.00  0.00    -0.103 C  
HETATM    2  C   UNL     1      -9.644   4.393  66.641  1.00  0.00    -0.213 C  
ENDROOT
BRANCH   2   3
HETATM    3  C   UNL     1      -9.440   5.903  66.558  1.00  0.00    -0.171 C  
BRANCH   3   4
HETATM    4  C   UNL     1      -8.237   6.246  65.689  1.00  0.00    -0.143 C  
BRANCH   4   5
HETATM    5  O   UNL     1      -8.409   7.559  65.158  1.00  0.00    -0.137 OA 
BRANCH   5   6
HETATM    6  C   UNL     1      -8.957   8.439  66.141  1.00  0.00    -0.177 C  
BRANCH   6   7
HETATM    7  C   UNL     1      -9.961   9.384  65.491  1.00  0.00    -0.059 C  
BRANCH   7   8
HETATM    8  O   UNL     1      -9.762  10.733  65.943  1.00  0.00    -0.204 OA 
BRANCH   8   9
HETATM    9  C   UNL     1     -10.763  11.244  66.703  1.00  0.00    -0.272 C  
HETATM   10  O   UNL     1     -11.484  10.615  67.459  1.00  0.00    -0.460 OA 
BRANCH   9  11
HETATM   11  C   UNL     1     -10.902  12.696  66.465  1.00  0.00    -0.285 A  
HETATM   12  C   UNL     1     -11.746  13.122  65.447  1.00  0.00    -0.350 A  
HETATM   13  N   UNL     1     -11.947  14.424  65.127  1.00  0.00    -0.381 NA 
HETATM   14  C   UNL     1     -11.276  15.341  65.857  1.00  0.00    -0.237 A  
HETATM   15  C   UNL     1     -10.411  15.017  66.892  1.00  0.00    -0.279 A  
HETATM   16  C   UNL     1     -10.223  13.671  67.200  1.00  0.00    -0.244 A  
ENDBRANCH   9  11
ENDBRANCH   8   9
ENDBRANCH   7   8
ENDBRANCH   6   7
ENDBRANCH   5   6
ENDBRANCH   4   5
ENDBRANCH   3   4
ENDBRANCH   2   3
TORSDOF 8
ENDMDL
MODEL      295
REMARK 921   NORMALIZED FREE ENERGY PREDICTED BY IDOCK:   -2.41 KCAL/MOL
REMARK 922        TOTAL FREE ENERGY PREDICTED BY IDOCK:   -3.96 KCAL/MOL
REMARK 923 INTER-LIGAND FREE ENERGY PREDICTED BY IDOCK:   -3.62 KCAL/MOL
REMARK 924 INTRA-LIGAND FREE ENERGY PREDICTED BY IDOCK:   -0.34 KCAL/MOL
REMARK 927      BINDING AFFINITY PREDICTED BY RF-SCORE:    0.00 PKD
ROOT
HETATM    1  C   UNL     1      -5.958   5.399  72.108  1.00  0.00    -0.026 C  
HETATM    2  C   UNL     1      -5.978   6.719  71.356  1.00  0.00    -0.037 C  
ENDROOT
BRANCH   2   3
HETATM    3  C   UNL     1      -6.868   7.750  72.044  1.00  0.00    -0.062 C  
BRANCH   3   4
HETATM    4  C   UNL     1      -7.829   8.393  71.053  1.00  0.00    -0.100 C  
BRANCH   4   5
HETATM    5  O   UNL     1      -8.765   9.196  71.770  1.00  0.00    -0.342 OA 
BRANCH   5   6
HETATM    6  C   UNL     1     -10.047   9.168  71.143  1.00  0.00    -0.314 C  
BRANCH   6   7
HETATM    7  C   UNL     1      -9.917   8.641  69.718  1.00  0.00    -0.190 C  
BRANCH   7   8
HETATM    8  O   UNL     1     -11.031   9.061  68.913  1.00  0.00    -0.099 OA 
BRANCH   8   9
HETATM    9  C   UNL     1     -10.758   9.244  67.596  1.00  0.00    -0.209 C  
HETATM   10  O   UNL     1     -10.416   8.380  66.806  1.00  0.00    -0.314 OA 
BRANCH   9  11
HETATM   11  C   UNL     1     -10.892  10.671  67.235  1.00  0.00    -0.345 A  
HETATM   12  C   UNL     1     -10.271  11.121  66.077  1.00  0.00    -0.250 A  
HETATM   13  N   UNL     1     -10.312  12.407  65.649  1.00  0.00    -0.253 NA 
HETATM   14  C   UNL     1     -11.006  13.281  66.410  1.00  0.00    -0.289 A  
HETATM   15  C   UNL     1     -11.659  12.929  67.582  1.00  0.00    -0.406 A  
HETATM   16  C   UNL     1     -11.601  11.601  68.000  1.00  0.00    -0.383 A  
ENDBRANCH   9  11
ENDBRANCH   8   9
ENDBRANCH   7   8
ENDBRANCH   6   7
ENDBRANCH   5   6
ENDBRANCH   4   5
ENDBRANCH   3   4
ENDBRANCH   2   3
TORSDOF 8
ENDMDL
MODEL      296
REMARK 921   NORMALIZED FREE ENERGY PREDICTED BY IDOCK:   -2.41 KCAL/MOL
REMARK 922        TOTAL FREE ENERGY PREDICTED BY IDOCK:   -3.95 KCAL/MOL
REMARK 923 INTER-LIGAND FREE ENERGY PREDICTED BY IDOCK:   -3.29 KCAL/MOL
REMARK 924 INTRA-LIGAND FREE ENERGY PREDICTED BY IDOCK:   -0.66 KCAL/MOL
REMARK 927      BINDING AFFINITY PREDICTED BY RF-SCORE:    0.00 PKD
ROOT
HETATM    1  C   UNL     1     -10.386   5.361  66.692  1.00  0.00    -0.325 C  
HETATM    2  C   UNL     1     -10.897   6.267  67.798  1.00  0.00    -0.424 C  
ENDROOT
BRANCH   2   3
HETATM    3  C   UNL     1     -10.546   5.728  69.182  1.00  0.00    -0.365 C  
BRANCH   3   4
HETATM    4  C   UNL     1     -11.142   6.602  70.278  1.00  0.00    -0.326 C  
BRANCH   4   5
HETATM    5  O   UNL     1     -10.100   7.001  71.168  1.00  0.00    -0.188 OA 
BRANCH   5   6
HETATM    6  C   UNL     1     -10.461   8.186  71.877  1.00  0.00    -0.248 C  
BRANCH   6   7
HETATM    7  C   UNL     1      -9.483   9.308  71.547  1.00  0.00    -0.031 C  
BRANCH   7   8
HETATM    8  O   UNL     1      -9.783   9.891  70.268  1.00  0.00    -0.248 OA 
BRANCH   8   9
HETATM    9  C   UNL     1      -8.705  10.276  69.539  1.00  0.00    -0.139 C  
HETATM   10  O   UNL     1      -7.691  10.795  69.974  1.00  0.00     0.025 OA 
BRANCH   9  11
HETATM   11  C   UNL     1      -8.934  10.016  68.102  1.00  0.00    -0.122 A  
HETATM   12  C   UNL     1      -7.831   9.820  67.281  1.00  0.00    -0.098 A  
HETATM   13  N   UNL     1      -7.913   9.586  65.948  1.00  0.00    -0.109 NA 
HETATM   14  C   UNL     1      -9.152   9.545  65.412  1.00  0.00    -0.221 A  
HETATM   15  C   UNL     1     -10.314   9.728  66.147  1.00  0.00    -0.215 A  
HETATM   16  C   UNL     1     -10.201   9.968  67.515  1.00  0.00    -0.260 A  
ENDBRANCH   9  11
ENDBRANCH   8   9
ENDBRANCH   7   8
ENDBRANCH   6   7
ENDBRANCH   5   6
ENDBRANCH   4   5
ENDBRANCH   3   4
ENDBRANCH   2   3
TORSDOF 8
ENDMDL
MODEL      297
REMARK 921   NORMALIZED FREE ENERGY PREDICTED BY IDOCK:   -2.41 KCAL/MOL
REMARK 922        TOTAL FREE ENERGY PREDICTED BY IDOCK:   -3.95 KCAL/MOL
REMARK 923 INTER-LIGAND FREE ENERGY PREDICTED BY IDOCK:   -3.38 KCAL/MOL
REMARK 924 INTRA-LIGAND FREE ENERGY PREDICTED BY IDOCK:   -0.57 KCAL/MOL
REMARK 927      BINDING AFFINITY PREDICTED BY RF-SCORE:    0.00 PKD
ROOT
HETATM    1  C   UNL     1     -10.809  11.805  63.873  1.00  0.00    -0.468 C  
HETATM    2  C   UNL     1     -10.613  13.290  64.123  1.00  0.00    -0.331 C  
ENDROOT
BRANCH   2   3
HETATM    3  C   UNL     1     -10.919  13.668  65.570  1.00  0.00    -0.297 C  
BRANCH   3   4
HETATM    4  C   UNL     1     -12.207  13.008  66.047  1.00  0.00    -0.399 C  
BRANCH   4   5
HETATM    5  O   UNL     1     -12.082  12.701  67.435  1.00  0.00    -0.432 OA 
BRANCH   5   6
HETATM    6  C   UNL     1     -10.785  13.049  67.920  1.00  0.00    -0.235 C  
BRANCH   6   7
HETATM    7  C   UNL     1     -10.130  11.835  68.569  1.00  0.00    -0.207 C  
BRANCH   7   8
HETATM    8  O   UNL     1      -9.075  11.318  67.741  1.00  0.00    -0.146 OA 
BRANCH   8   9
HETATM    9  C   UNL     1      -9.375  10.181  67.063  1.00  0.00    -0.154 C  
HETATM   10  O   UNL     1     -10.442   9.920  66.534  1.00  0.00    -0.209 OA 
BRANCH   9  11
HETATM   11  C   UNL     1      -8.225   9.252  67.078  1.00  0.00    -0.116 A  
HETATM   12  C   UNL     1      -6.943   9.786  67.042  1.00  0.00    -0.085 A  
HETATM   13  N   UNL     1      -5.812   9.037  67.040  1.00  0.00    -0.045 NA 
HETATM   14  C   UNL     1      -5.970   7.697  67.076  1.00  0.00    -0.047 A  
HETATM   15  C   UNL     1      -7.206   7.069  67.113  1.00  0.00    -0.089 A  
HETATM   16  C   UNL     1      -8.352   7.861  67.114  1.00  0.00    -0.117 A  
ENDBRANCH   9  11
ENDBRANCH   8   9
ENDBRANCH   7   8
ENDBRANCH   6   7
ENDBRANCH   5   6
ENDBRANCH   4   5
ENDBRANCH   3   4
ENDBRANCH   2   3
TORSDOF 8
ENDMDL
MODEL      298
REMARK 921   NORMALIZED FREE ENERGY PREDICTED BY IDOCK:   -2.40 KCAL/MOL
REMARK 922        TOTAL FREE ENERGY PREDICTED BY IDOCK:   -3.94 KCAL/MOL
REMARK 923 INTER-LIGAND FREE ENERGY PREDICTED BY IDOCK:   -3.29 KCAL/MOL
REMARK 924 INTRA-LIGAND FREE ENERGY PREDICTED BY IDOCK:   -0.65 KCAL/MOL
REMARK 927      BINDING AFFINITY PREDICTED BY RF-SCORE:    0.00 PKD
ROOT
HETATM    1  C   UNL     1      -9.684  10.315  66.501  1.00  0.00    -0.243 C  
HETATM    2  C   UNL     1      -9.656  10.714  67.967  1.00  0.00    -0.167 C  
ENDROOT
BRANCH   2   3
HETATM    3  C   UNL     1      -9.642   9.495  68.886  1.00  0.00    -0.156 C  
BRANCH   3   4
HETATM    4  C   UNL     1      -8.365   9.448  69.714  1.00  0.00    -0.157 C  
BRANCH   4   5
HETATM    5  O   UNL     1      -7.860   8.114  69.710  1.00  0.00    -0.100 OA 
BRANCH   5   6
HETATM    6  C   UNL     1      -7.289   7.781  70.975  1.00  0.00    -0.072 C  
BRANCH   6   7
HETATM    7  C   UNL     1      -7.891   6.479  71.491  1.00  0.00    -0.100 C  
BRANCH   7   8
HETATM    8  O   UNL     1      -9.327   6.532  71.463  1.00  0.00    -0.148 OA 
BRANCH   8   9
HETATM    9  C   UNL     1      -9.941   5.395  71.049  1.00  0.00    -0.199 C  
HETATM   10  O   UNL     1     -10.266   4.455  71.756  1.00  0.00    -0.184 OA 
BRANCH   9  11
HETATM   11  C   UNL     1     -10.139   5.418  69.585  1.00  0.00    -0.319 A  
HETATM   12  C   UNL     1      -9.504   4.451  68.816  1.00  0.00    -0.162 A  
HETATM   13  N   UNL     1      -9.600   4.376  67.465  1.00  0.00    -0.169 NA 
HETATM   14  C   UNL     1     -10.363   5.309  66.857  1.00  0.00    -0.255 A  
HETATM   15  C   UNL     1     -11.036   6.315  67.535  1.00  0.00    -0.444 A  
HETATM   16  C   UNL     1     -10.921   6.369  68.923  1.00  0.00    -0.412 A  
ENDBRANCH   9  11
ENDBRANCH   8   9
ENDBRANCH   7   8
ENDBRANCH   6   7
ENDBRANCH   5   6
ENDBRANCH   4   5
ENDBRANCH   3   4
ENDBRANCH   2   3
TORSDOF 8
ENDMDL
MODEL      299
REMARK 921   NORMALIZED FREE ENERGY PREDICTED BY IDOCK:   -2.40 KCAL/MOL
REMARK 922        TOTAL FREE ENERGY PREDICTED BY IDOCK:   -3.94 KCAL/MOL
REMARK 923 INTER-LIGAND FREE ENERGY PREDICTED BY IDOCK:   -3.79 KCAL/MOL
REMARK 924 INTRA-LIGAND FREE ENERGY PREDICTED BY IDOCK:   -0.15 KCAL/MOL
REMARK 927      BINDING AFFINITY PREDICTED BY RF-SCORE:    0.00 PKD
ROOT
HETATM    1  C   UNL     1     -12.434  13.769  63.843  1.00  0.00    -0.260 C  
HETATM    2  C   UNL     1     -12.110  12.421  64.463  1.00  0.00    -0.492 C  
ENDROOT
BRANCH   2   3
HETATM    3  C   UNL     1     -12.024  12.502  65.985  1.00  0.00    -0.456 C  
BRANCH   3   4
HETATM    4  C   UNL     1     -10.753  11.838  66.498  1.00  0.00    -0.265 C  
BRANCH   4   5
HETATM    5  O   UNL     1     -10.558  10.610  65.798  1.00  0.00    -0.194 OA 
BRANCH   5   6
HETATM    6  C   UNL     1      -9.275  10.577  65.173  1.00  0.00    -0.205 C  
BRANCH   6   7
HETATM    7  C   UNL     1      -8.291   9.805  66.045  1.00  0.00    -0.120 C  
BRANCH   7   8
HETATM    8  O   UNL     1      -8.904   9.407  67.282  1.00  0.00    -0.127 OA 
BRANCH   8   9
HETATM    9  C   UNL     1      -8.302   9.875  68.404  1.00  0.00    -0.107 C  
HETATM   10  O   UNL     1      -7.215  10.424  68.461  1.00  0.00    -0.079 OA 
BRANCH   9  11
HETATM   11  C   UNL     1      -9.135   9.593  69.593  1.00  0.00    -0.224 A  
HETATM   12  C   UNL     1     -10.278  10.356  69.795  1.00  0.00    -0.184 A  
HETATM   13  N   UNL     1     -11.113  10.200  70.852  1.00  0.00    -0.321 NA 
HETATM   14  C   UNL     1     -10.793   9.239  71.744  1.00  0.00    -0.288 A  
HETATM   15  C   UNL     1      -9.675   8.426  71.631  1.00  0.00    -0.287 A  
HETATM   16  C   UNL     1      -8.832   8.607  70.535  1.00  0.00    -0.182 A  
ENDBRANCH   9  11
ENDBRANCH   8   9
ENDBRANCH   7   8
ENDBRANCH   6   7
ENDBRANCH   5   6
ENDBRANCH   4   5
ENDBRANCH   3   4
ENDBRANCH   2   3
TORSDOF 8
ENDMDL
MODEL      300
REMARK 921   NORMALIZED FREE ENERGY PREDICTED BY IDOCK:   -2.39 KCAL/MOL
REMARK 922        TOTAL FREE ENERGY PREDICTED BY IDOCK:   -3.92 KCAL/MOL
REMARK 923 INTER-LIGAND FREE ENERGY PREDICTED BY IDOCK:   -3.58 KCAL/MOL
REMARK 924 INTRA-LIGAND FREE ENERGY PREDICTED BY IDOCK:   -0.34 KCAL/MOL
REMARK 927      BINDING AFFINITY PREDICTED BY RF-SCORE:    0.00 PKD
ROOT
HETATM    1  C   UNL     1      -9.989   4.355  65.436  1.00  0.00    -0.231 C  
HETATM    2  C   UNL     1     -10.519   5.361  66.442  1.00  0.00    -0.324 C  
ENDROOT
BRANCH   2   3
HETATM    3  C   UNL     1     -10.033   5.059  67.857  1.00  0.00    -0.193 C  
BRANCH   3   4
HETATM    4  C   UNL     1     -10.794   5.885  68.886  1.00  0.00    -0.303 C  
BRANCH   4   5
HETATM    5  O   UNL     1     -10.152   7.151  69.028  1.00  0.00    -0.173 OA 
BRANCH   5   6
HETATM    6  C   UNL     1     -10.979   8.065  69.749  1.00  0.00    -0.137 C  
BRANCH   6   7
HETATM    7  C   UNL     1     -10.490   9.492  69.532  1.00  0.00    -0.220 C  
BRANCH   7   8
HETATM    8  O   UNL     1     -11.029  10.041  68.318  1.00  0.00    -0.248 OA 
BRANCH   8   9
HETATM    9  C   UNL     1     -10.373  11.123  67.829  1.00  0.00    -0.187 C  
HETATM   10  O   UNL     1     -10.395  12.249  68.298  1.00  0.00    -0.209 OA 
BRANCH   9  11
HETATM   11  C   UNL     1      -9.637  10.768  66.597  1.00  0.00    -0.208 A  
HETATM   12  C   UNL     1      -8.249  10.748  66.639  1.00  0.00    -0.140 A  
HETATM   13  N   UNL     1      -7.466  10.449  65.573  1.00  0.00    -0.149 NA 
HETATM   14  C   UNL     1      -8.098  10.157  64.416  1.00  0.00    -0.163 A  
HETATM   15  C   UNL     1      -9.477  10.151  64.273  1.00  0.00    -0.366 A  
HETATM   16  C   UNL     1     -10.259  10.461  65.384  1.00  0.00    -0.329 A  
ENDBRANCH   9  11
ENDBRANCH   8   9
ENDBRANCH   7   8
ENDBRANCH   6   7
ENDBRANCH   5   6
ENDBRANCH   4   5
ENDBRANCH   3   4
ENDBRANCH   2   3
TORSDOF 8
ENDMDL
MODEL      301
REMARK 921   NORMALIZED FREE ENERGY PREDICTED BY IDOCK:   -2.38 KCAL/MOL
REMARK 922        TOTAL FREE ENERGY PREDICTED BY IDOCK:   -3.91 KCAL/MOL
REMARK 923 INTER-LIGAND FREE ENERGY PREDICTED BY IDOCK:   -3.57 KCAL/MOL
REMARK 924 INTRA-LIGAND FREE ENERGY PREDICTED BY IDOCK:   -0.34 KCAL/MOL
REMARK 927      BINDING AFFINITY PREDICTED BY RF-SCORE:    0.00 PKD
ROOT
HETATM    1  C   UNL     1      -8.629   4.106  65.569  1.00  0.00    -0.118 C  
HETATM    2  C   UNL     1      -8.540   3.592  66.996  1.00  0.00    -0.113 C  
ENDROOT
BRANCH   2   3
HETATM    3  C   UNL     1      -9.728   4.048  67.838  1.00  0.00    -0.148 C  
BRANCH   3   4
HETATM    4  C   UNL     1      -9.928   5.554  67.735  1.00  0.00    -0.155 C  
BRANCH   4   5
HETATM    5  O   UNL     1     -11.108   5.914  68.451  1.00  0.00    -0.268 OA 
BRANCH   5   6
HETATM    6  C   UNL     1     -10.818   6.147  69.829  1.00  0.00    -0.353 C  
BRANCH   6   7
HETATM    7  C   UNL     1     -11.996   6.848  70.497  1.00  0.00    -0.305 C  
BRANCH   7   8
HETATM    8  O   UNL     1     -12.212   6.337  71.823  1.00  0.00    -0.312 OA 
BRANCH   8   9
HETATM    9  C   UNL     1     -11.233   6.621  72.719  1.00  0.00    -0.227 C  
HETATM   10  O   UNL     1     -10.813   7.731  72.998  1.00  0.00    -0.373 OA 
BRANCH   9  11
HETATM   11  C   UNL     1     -10.694   5.376  73.307  1.00  0.00    -0.320 A  
HETATM   12  C   UNL     1      -9.426   5.407  73.873  1.00  0.00    -0.138 A  
HETATM   13  N   UNL     1      -8.822   4.329  74.431  1.00  0.00    -0.098 NA 
HETATM   14  C   UNL     1      -9.515   3.170  74.424  1.00  0.00    -0.091 A  
HETATM   15  C   UNL     1     -10.785   3.037  73.883  1.00  0.00    -0.284 A  
HETATM   16  C   UNL     1     -11.384   4.161  73.315  1.00  0.00    -0.268 A  
ENDBRANCH   9  11
ENDBRANCH   8   9
ENDBRANCH   7   8
ENDBRANCH   6   7
ENDBRANCH   5   6
ENDBRANCH   4   5
ENDBRANCH   3   4
ENDBRANCH   2   3
TORSDOF 8
ENDMDL
MODEL      302
REMARK 921   NORMALIZED FREE ENERGY PREDICTED BY IDOCK:   -2.37 KCAL/MOL
REMARK 922        TOTAL FREE ENERGY PREDICTED BY IDOCK:   -3.89 KCAL/MOL
REMARK 923 INTER-LIGAND FREE ENERGY PREDICTED BY IDOCK:   -3.05 KCAL/MOL
REMARK 924 INTRA-LIGAND FREE ENERGY PREDICTED BY IDOCK:   -0.84 KCAL/MOL
REMARK 927      BINDING AFFINITY PREDICTED BY RF-SCORE:    0.00 PKD
ROOT
HETATM    1  C   UNL     1     -11.460  12.037  69.470  1.00  0.00    -0.351 C  
HETATM    2  C   UNL     1     -11.957  11.546  68.122  1.00  0.00    -0.206 C  
ENDROOT
BRANCH   2   3
HETATM    3  C   UNL     1     -11.339  12.332  66.969  1.00  0.00    -0.395 C  
BRANCH   3   4
HETATM    4  C   UNL     1     -10.153  13.162  67.445  1.00  0.00    -0.229 C  
BRANCH   4   5
HETATM    5  O   UNL     1      -8.984  12.743  66.742  1.00  0.00    -0.218 OA 
BRANCH   5   6
HETATM    6  C   UNL     1      -8.116  11.997  67.594  1.00  0.00    -0.155 C  
BRANCH   6   7
HETATM    7  C   UNL     1      -7.225  11.084  66.759  1.00  0.00    -0.139 C  
BRANCH   7   8
HETATM    8  O   UNL     1      -7.303   9.727  67.224  1.00  0.00    -0.086 OA 
BRANCH   8   9
HETATM    9  C   UNL     1      -8.121   8.915  66.509  1.00  0.00    -0.107 C  
HETATM   10  O   UNL     1      -8.060   8.709  65.308  1.00  0.00    -0.119 OA 
BRANCH   9  11
HETATM   11  C   UNL     1      -9.155   8.322  67.384  1.00  0.00    -0.155 A  
HETATM   12  C   UNL     1      -9.978   7.334  66.860  1.00  0.00    -0.232 A  
HETATM   13  N   UNL     1     -10.967   6.725  67.560  1.00  0.00    -0.308 NA 
HETATM   14  C   UNL     1     -11.139   7.120  68.840  1.00  0.00     0.012 A  
HETATM   15  C   UNL     1     -10.370   8.098  69.453  1.00  0.00    -0.219 A  
HETATM   16  C   UNL     1      -9.361   8.708  68.711  1.00  0.00    -0.142 A  
ENDBRANCH   9  11
ENDBRANCH   8   9
ENDBRANCH   7   8
ENDBRANCH   6   7
ENDBRANCH   5   6
ENDBRANCH   4   5
ENDBRANCH   3   4
ENDBRANCH   2   3
TORSDOF 8
ENDMDL
MODEL      303
REMARK 921   NORMALIZED FREE ENERGY PREDICTED BY IDOCK:   -2.35 KCAL/MOL
REMARK 922        TOTAL FREE ENERGY PREDICTED BY IDOCK:   -3.86 KCAL/MOL
REMARK 923 INTER-LIGAND FREE ENERGY PREDICTED BY IDOCK:   -4.03 KCAL/MOL
REMARK 924 INTRA-LIGAND FREE ENERGY PREDICTED BY IDOCK:    0.17 KCAL/MOL
REMARK 927      BINDING AFFINITY PREDICTED BY RF-SCORE:    0.00 PKD
ROOT
HETATM    1  C   UNL     1      -5.829  11.291  68.693  1.00  0.00    -0.042 C  
HETATM    2  C   UNL     1      -6.502  10.683  67.474  1.00  0.00    -0.058 C  
ENDROOT
BRANCH   2   3
HETATM    3  C   UNL     1      -7.973  11.079  67.381  1.00  0.00    -0.119 C  
BRANCH   3   4
HETATM    4  C   UNL     1      -8.429  11.794  68.646  1.00  0.00    -0.068 C  
BRANCH   4   5
HETATM    5  O   UNL     1      -8.162  13.189  68.512  1.00  0.00    -0.145 OA 
BRANCH   5   6
HETATM    6  C   UNL     1      -8.932  13.756  67.452  1.00  0.00    -0.224 C  
BRANCH   6   7
HETATM    7  C   UNL     1     -10.409  13.760  67.827  1.00  0.00    -0.241 C  
BRANCH   7   8
HETATM    8  O   UNL     1     -11.081  14.893  67.252  1.00  0.00    -0.317 OA 
BRANCH   8   9
HETATM    9  C   UNL     1     -10.816  15.120  65.941  1.00  0.00    -0.339 C  
HETATM   10  O   UNL     1     -10.252  16.099  65.481  1.00  0.00    -0.414 OA 
BRANCH   9  11
HETATM   11  C   UNL     1     -11.346  14.020  65.109  1.00  0.00    -0.328 A  
HETATM   12  C   UNL     1     -10.511  13.447  64.159  1.00  0.00    -0.181 A  
HETATM   13  N   UNL     1     -10.886  12.442  63.330  1.00  0.00    -0.433 NA 
HETATM   14  C   UNL     1     -12.152  11.988  63.458  1.00  0.00    -0.526 A  
HETATM   15  C   UNL     1     -13.061  12.494  64.374  1.00  0.00    -0.076 A  
HETATM   16  C   UNL     1     -12.650  13.527  65.214  1.00  0.00    -0.517 A  
ENDBRANCH   9  11
ENDBRANCH   8   9
ENDBRANCH   7   8
ENDBRANCH   6   7
ENDBRANCH   5   6
ENDBRANCH   4   5
ENDBRANCH   3   4
ENDBRANCH   2   3
TORSDOF 8
ENDMDL
MODEL      304
REMARK 921   NORMALIZED FREE ENERGY PREDICTED BY IDOCK:   -2.31 KCAL/MOL
REMARK 922        TOTAL FREE ENERGY PREDICTED BY IDOCK:   -3.81 KCAL/MOL
REMARK 923 INTER-LIGAND FREE ENERGY PREDICTED BY IDOCK:   -3.36 KCAL/MOL
REMARK 924 INTRA-LIGAND FREE ENERGY PREDICTED BY IDOCK:   -0.45 KCAL/MOL
REMARK 927      BINDING AFFINITY PREDICTED BY RF-SCORE:    0.00 PKD
ROOT
HETATM    1  C   UNL     1     -13.018   6.792  71.597  1.00  0.00    -0.292 C  
HETATM    2  C   UNL     1     -11.770   7.593  71.270  1.00  0.00    -0.308 C  
ENDROOT
BRANCH   2   3
HETATM    3  C   UNL     1     -12.097   9.052  70.963  1.00  0.00    -0.304 C  
BRANCH   3   4
HETATM    4  C   UNL     1     -10.850   9.923  71.048  1.00  0.00    -0.230 C  
BRANCH   4   5
HETATM    5  O   UNL     1     -10.983  11.011  70.134  1.00  0.00    -0.190 OA 
BRANCH   5   6
HETATM    6  C   UNL     1     -11.997  10.743  69.166  1.00  0.00    -0.230 C  
BRANCH   6   7
HETATM    7  C   UNL     1     -11.578  11.293  67.807  1.00  0.00    -0.230 C  
BRANCH   7   8
HETATM    8  O   UNL     1     -10.506  10.517  67.248  1.00  0.00    -0.220 OA 
BRANCH   8   9
HETATM    9  C   UNL     1      -9.369  11.208  66.980  1.00  0.00    -0.170 C  
HETATM   10  O   UNL     1      -8.953  12.175  67.596  1.00  0.00    -0.165 OA 
BRANCH   9  11
HETATM   11  C   UNL     1      -8.695  10.651  65.788  1.00  0.00    -0.192 A  
HETATM   12  C   UNL     1      -9.474  10.040  64.813  1.00  0.00    -0.304 A  
HETATM   13  N   UNL     1      -8.971   9.484  63.683  1.00  0.00    -0.215 NA 
HETATM   14  C   UNL     1      -7.632   9.541  63.520  1.00  0.00    -0.118 A  
HETATM   15  C   UNL     1      -6.770  10.128  64.435  1.00  0.00    -0.110 A  
HETATM   16  C   UNL     1      -7.313  10.693  65.588  1.00  0.00    -0.087 A  
ENDBRANCH   9  11
ENDBRANCH   8   9
ENDBRANCH   7   8
ENDBRANCH   6   7
ENDBRANCH   5   6
ENDBRANCH   4   5
ENDBRANCH   3   4
ENDBRANCH   2   3
TORSDOF 8
ENDMDL
MODEL      305
REMARK 921   NORMALIZED FREE ENERGY PREDICTED BY IDOCK:   -2.30 KCAL/MOL
REMARK 922        TOTAL FREE ENERGY PREDICTED BY IDOCK:   -3.79 KCAL/MOL
REMARK 923 INTER-LIGAND FREE ENERGY PREDICTED BY IDOCK:   -4.15 KCAL/MOL
REMARK 924 INTRA-LIGAND FREE ENERGY PREDICTED BY IDOCK:    0.36 KCAL/MOL
REMARK 927      BINDING AFFINITY PREDICTED BY RF-SCORE:    0.00 PKD
ROOT
HETATM    1  C   UNL     1      -7.127  18.866  67.739  1.00  0.00    -0.245 C  
HETATM    2  C   UNL     1      -6.037  17.910  68.192  1.00  0.00    -0.174 C  
ENDROOT
BRANCH   2   3
HETATM    3  C   UNL     1      -5.626  16.950  67.079  1.00  0.00    -0.200 C  
BRANCH   3   4
HETATM    4  C   UNL     1      -6.152  15.545  67.345  1.00  0.00    -0.007 C  
BRANCH   4   5
HETATM    5  O   UNL     1      -6.626  15.476  68.689  1.00  0.00    -0.099 OA 
BRANCH   5   6
HETATM    6  C   UNL     1      -7.518  14.375  68.859  1.00  0.00    -0.132 C  
BRANCH   6   7
HETATM    7  C   UNL     1      -8.955  14.829  68.630  1.00  0.00    -0.185 C  
BRANCH   7   8
HETATM    8  O   UNL     1      -9.051  15.657  67.459  1.00  0.00    -0.189 OA 
BRANCH   8   9
HETATM    9  C   UNL     1     -10.307  16.051  67.129  1.00  0.00    -0.295 C  
HETATM   10  O   UNL     1     -10.798  17.146  67.347  1.00  0.00    -0.284 OA 
BRANCH   9  11
HETATM   11  C   UNL     1     -11.045  14.941  66.489  1.00  0.00    -0.341 A  
HETATM   12  C   UNL     1     -11.411  15.073  65.156  1.00  0.00    -0.372 A  
HETATM   13  N   UNL     1     -12.098  14.130  64.464  1.00  0.00    -0.453 NA 
HETATM   14  C   UNL     1     -12.434  13.007  65.135  1.00  0.00    -0.496 A  
HETATM   15  C   UNL     1     -12.116  12.782  66.466  1.00  0.00    -0.338 A  
HETATM   16  C   UNL     1     -11.409  13.767  67.154  1.00  0.00    -0.344 A  
ENDBRANCH   9  11
ENDBRANCH   8   9
ENDBRANCH   7   8
ENDBRANCH   6   7
ENDBRANCH   5   6
ENDBRANCH   4   5
ENDBRANCH   3   4
ENDBRANCH   2   3
TORSDOF 8
ENDMDL
MODEL      306
REMARK 921   NORMALIZED FREE ENERGY PREDICTED BY IDOCK:   -2.29 KCAL/MOL
REMARK 922        TOTAL FREE ENERGY PREDICTED BY IDOCK:   -3.78 KCAL/MOL
REMARK 923 INTER-LIGAND FREE ENERGY PREDICTED BY IDOCK:   -3.42 KCAL/MOL
REMARK 924 INTRA-LIGAND FREE ENERGY PREDICTED BY IDOCK:   -0.36 KCAL/MOL
REMARK 927      BINDING AFFINITY PREDICTED BY RF-SCORE:    0.00 PKD
ROOT
HETATM    1  C   UNL     1      -8.933  16.923  68.518  1.00  0.00    -0.254 C  
HETATM    2  C   UNL     1      -7.957  15.996  67.814  1.00  0.00    -0.152 C  
ENDROOT
BRANCH   2   3
HETATM    3  C   UNL     1      -8.660  14.775  67.226  1.00  0.00    -0.230 C  
BRANCH   3   4
HETATM    4  C   UNL     1     -10.174  14.934  67.282  1.00  0.00    -0.241 C  
BRANCH   4   5
HETATM    5  O   UNL     1     -10.722  13.870  68.059  1.00  0.00    -0.239 OA 
BRANCH   5   6
HETATM    6  C   UNL     1      -9.776  12.812  68.213  1.00  0.00    -0.216 C  
BRANCH   6   7
HETATM    7  C   UNL     1     -10.502  11.502  68.497  1.00  0.00    -0.208 C  
BRANCH   7   8
HETATM    8  O   UNL     1     -10.469  11.190  69.899  1.00  0.00     0.025 OA 
BRANCH   8   9
HETATM    9  C   UNL     1      -9.714  10.114  70.236  1.00  0.00     0.080 C  
HETATM   10  O   UNL     1      -8.629   9.820  69.762  1.00  0.00    -0.169 OA 
BRANCH   9  11
HETATM   11  C   UNL     1     -10.406   9.295  71.253  1.00  0.00    -0.397 A  
HETATM   12  C   UNL     1     -11.795   9.270  71.248  1.00  0.00    -0.343 A  
HETATM   13  N   UNL     1     -12.541   8.566  72.136  1.00  0.00    -0.358 NA 
HETATM   14  C   UNL     1     -11.869   7.856  73.068  1.00  0.00     0.078 A  
HETATM   15  C   UNL     1     -10.486   7.817  73.156  1.00  0.00    -0.413 A  
HETATM   16  C   UNL     1      -9.743   8.549  72.231  1.00  0.00    -0.380 A  
ENDBRANCH   9  11
ENDBRANCH   8   9
ENDBRANCH   7   8
ENDBRANCH   6   7
ENDBRANCH   5   6
ENDBRANCH   4   5
ENDBRANCH   3   4
ENDBRANCH   2   3
TORSDOF 8
ENDMDL
MODEL      307
REMARK 921   NORMALIZED FREE ENERGY PREDICTED BY IDOCK:   -2.29 KCAL/MOL
REMARK 922        TOTAL FREE ENERGY PREDICTED BY IDOCK:   -3.78 KCAL/MOL
REMARK 923 INTER-LIGAND FREE ENERGY PREDICTED BY IDOCK:   -3.25 KCAL/MOL
REMARK 924 INTRA-LIGAND FREE ENERGY PREDICTED BY IDOCK:   -0.53 KCAL/MOL
REMARK 927      BINDING AFFINITY PREDICTED BY RF-SCORE:    0.00 PKD
ROOT
HETATM    1  C   UNL     1      -7.072   6.790  68.699  1.00  0.00    -0.082 C  
HETATM    2  C   UNL     1      -7.310   8.032  67.859  1.00  0.00    -0.093 C  
ENDROOT
BRANCH   2   3
HETATM    3  C   UNL     1      -7.862   7.686  66.478  1.00  0.00    -0.105 C  
BRANCH   3   4
HETATM    4  C   UNL     1      -7.017   6.614  65.803  1.00  0.00    -0.057 C  
BRANCH   4   5
HETATM    5  O   UNL     1      -7.632   5.343  66.007  1.00  0.00    -0.085 OA 
BRANCH   5   6
HETATM    6  C   UNL     1      -8.941   5.313  65.436  1.00  0.00    -0.144 C  
BRANCH   6   7
HETATM    7  C   UNL     1      -9.865   4.463  66.301  1.00  0.00    -0.231 C  
BRANCH   7   8
HETATM    8  O   UNL     1      -9.882   4.940  67.656  1.00  0.00    -0.158 OA 
BRANCH   8   9
HETATM    9  C   UNL     1     -10.662   6.028  67.878  1.00  0.00    -0.284 C  
HETATM   10  O   UNL     1     -11.233   6.690  67.027  1.00  0.00    -0.404 OA 
BRANCH   9  11
HETATM   11  C   UNL     1     -10.703   6.348  69.321  1.00  0.00    -0.349 A  
HETATM   12  C   UNL     1     -10.665   7.683  69.704  1.00  0.00    -0.228 A  
HETATM   13  N   UNL     1     -10.686   8.099  70.994  1.00  0.00    -0.214 NA 
HETATM   14  C   UNL     1     -10.749   7.140  71.943  1.00  0.00    -0.216 A  
HETATM   15  C   UNL     1     -10.790   5.783  71.662  1.00  0.00    -0.316 A  
HETATM   16  C   UNL     1     -10.767   5.381  70.328  1.00  0.00    -0.286 A  
ENDBRANCH   9  11
ENDBRANCH   8   9
ENDBRANCH   7   8
ENDBRANCH   6   7
ENDBRANCH   5   6
ENDBRANCH   4   5
ENDBRANCH   3   4
ENDBRANCH   2   3
TORSDOF 8
ENDMDL
MODEL      308
REMARK 921   NORMALIZED FREE ENERGY PREDICTED BY IDOCK:   -2.29 KCAL/MOL
REMARK 922        TOTAL FREE ENERGY PREDICTED BY IDOCK:   -3.77 KCAL/MOL
REMARK 923 INTER-LIGAND FREE ENERGY PREDICTED BY IDOCK:   -3.19 KCAL/MOL
REMARK 924 INTRA-LIGAND FREE ENERGY PREDICTED BY IDOCK:   -0.58 KCAL/MOL
REMARK 927      BINDING AFFINITY PREDICTED BY RF-SCORE:    0.00 PKD
ROOT
HETATM    1  C   UNL     1     -11.259  15.453  64.070  1.00  0.00     0.382 C  
HETATM    2  C   UNL     1     -11.981  15.036  65.340  1.00  0.00    -0.039 C  
ENDROOT
BRANCH   2   3
HETATM    3  C   UNL     1     -12.511  13.608  65.250  1.00  0.00    -0.517 C  
BRANCH   3   4
HETATM    4  C   UNL     1     -11.385  12.624  64.959  1.00  0.00    -0.309 C  
BRANCH   4   5
HETATM    5  O   UNL     1     -11.480  11.531  65.872  1.00  0.00    -0.237 OA 
BRANCH   5   6
HETATM    6  C   UNL     1     -10.186  11.015  66.185  1.00  0.00    -0.247 C  
BRANCH   6   7
HETATM    7  C   UNL     1     -10.147  10.554  67.638  1.00  0.00    -0.179 C  
BRANCH   7   8
HETATM    8  O   UNL     1     -10.133  11.679  68.532  1.00  0.00    -0.200 OA 
BRANCH   8   9
HETATM    9  C   UNL     1     -11.285  11.890  69.217  1.00  0.00    -0.242 C  
HETATM   10  O   UNL     1     -12.126  11.049  69.486  1.00  0.00    -0.324 OA 
BRANCH   9  11
HETATM   11  C   UNL     1     -11.419  13.318  69.573  1.00  0.00    -0.299 A  
HETATM   12  C   UNL     1     -11.579  13.654  70.911  1.00  0.00     0.407 A  
HETATM   13  N   UNL     1     -11.723  14.926  71.360  1.00  0.00    -0.337 NA 
HETATM   14  C   UNL     1     -11.707  15.904  70.429  1.00  0.00    -0.354 A  
HETATM   15  C   UNL     1     -11.554  15.672  69.071  1.00  0.00    -0.396 A  
HETATM   16  C   UNL     1     -11.407  14.356  68.637  1.00  0.00    -0.298 A  
ENDBRANCH   9  11
ENDBRANCH   8   9
ENDBRANCH   7   8
ENDBRANCH   6   7
ENDBRANCH   5   6
ENDBRANCH   4   5
ENDBRANCH   3   4
ENDBRANCH   2   3
TORSDOF 8
ENDMDL
MODEL      309
REMARK 921   NORMALIZED FREE ENERGY PREDICTED BY IDOCK:   -2.26 KCAL/MOL
REMARK 922        TOTAL FREE ENERGY PREDICTED BY IDOCK:   -3.72 KCAL/MOL
REMARK 923 INTER-LIGAND FREE ENERGY PREDICTED BY IDOCK:   -3.22 KCAL/MOL
REMARK 924 INTRA-LIGAND FREE ENERGY PREDICTED BY IDOCK:   -0.50 KCAL/MOL
REMARK 927      BINDING AFFINITY PREDICTED BY RF-SCORE:    0.00 PKD
ROOT
HETATM    1  C   UNL     1     -10.072   5.632  66.809  1.00  0.00    -0.235 C  
HETATM    2  C   UNL     1     -11.028   6.467  67.644  1.00  0.00    -0.441 C  
ENDROOT
BRANCH   2   3
HETATM    3  C   UNL     1     -10.925   6.132  69.129  1.00  0.00    -0.450 C  
BRANCH   3   4
HETATM    4  C   UNL     1     -11.605   7.197  69.980  1.00  0.00    -0.110 C  
BRANCH   4   5
HETATM    5  O   UNL     1     -12.343   6.556  71.020  1.00  0.00    -0.295 OA 
BRANCH   5   6
HETATM    6  C   UNL     1     -11.658   6.658  72.268  1.00  0.00    -0.278 C  
BRANCH   6   7
HETATM    7  C   UNL     1     -11.400   5.266  72.835  1.00  0.00    -0.301 C  
BRANCH   7   8
HETATM    8  O   UNL     1     -10.115   5.203  73.474  1.00  0.00    -0.162 OA 
BRANCH   8   9
HETATM    9  C   UNL     1      -9.048   5.259  72.637  1.00  0.00    -0.135 C  
HETATM   10  O   UNL     1      -8.931   4.662  71.580  1.00  0.00    -0.127 OA 
BRANCH   9  11
HETATM   11  C   UNL     1      -7.995   6.130  73.201  1.00  0.00    -0.107 A  
HETATM   12  C   UNL     1      -6.693   5.649  73.245  1.00  0.00    -0.078 A  
HETATM   13  N   UNL     1      -5.646   6.349  73.749  1.00  0.00    -0.049 NA 
HETATM   14  C   UNL     1      -5.912   7.583  74.227  1.00  0.00    -0.073 A  
HETATM   15  C   UNL     1      -7.177   8.151  74.227  1.00  0.00    -0.215 A  
HETATM   16  C   UNL     1      -8.236   7.411  73.704  1.00  0.00    -0.166 A  
ENDBRANCH   9  11
ENDBRANCH   8   9
ENDBRANCH   7   8
ENDBRANCH   6   7
ENDBRANCH   5   6
ENDBRANCH   4   5
ENDBRANCH   3   4
ENDBRANCH   2   3
TORSDOF 8
ENDMDL
MODEL      310
REMARK 921   NORMALIZED FREE ENERGY PREDICTED BY IDOCK:   -2.25 KCAL/MOL
REMARK 922        TOTAL FREE ENERGY PREDICTED BY IDOCK:   -3.71 KCAL/MOL
REMARK 923 INTER-LIGAND FREE ENERGY PREDICTED BY IDOCK:   -3.09 KCAL/MOL
REMARK 924 INTRA-LIGAND FREE ENERGY PREDICTED BY IDOCK:   -0.62 KCAL/MOL
REMARK 927      BINDING AFFINITY PREDICTED BY RF-SCORE:    0.00 PKD
ROOT
HETATM    1  C   UNL     1      -8.621   9.608  70.148  1.00  0.00    -0.243 C  
HETATM    2  C   UNL     1      -9.022   8.522  71.132  1.00  0.00    -0.232 C  
ENDROOT
BRANCH   2   3
HETATM    3  C   UNL     1     -10.502   8.167  71.013  1.00  0.00    -0.233 C  
BRANCH   3   4
HETATM    4  C   UNL     1     -10.889   7.912  69.562  1.00  0.00    -0.136 C  
BRANCH   4   5
HETATM    5  O   UNL     1     -10.082   6.853  69.048  1.00  0.00    -0.161 OA 
BRANCH   5   6
HETATM    6  C   UNL     1     -10.166   6.793  67.624  1.00  0.00    -0.179 C  
BRANCH   6   7
HETATM    7  C   UNL     1     -10.363   8.194  67.055  1.00  0.00    -0.333 C  
BRANCH   7   8
HETATM    8  O   UNL     1      -9.113   8.747  66.612  1.00  0.00    -0.142 OA 
BRANCH   8   9
HETATM    9  C   UNL     1      -9.214   9.818  65.785  1.00  0.00    -0.191 C  
HETATM   10  O   UNL     1      -9.525   9.789  64.606  1.00  0.00    -0.280 OA 
BRANCH   9  11
HETATM   11  C   UNL     1      -8.852  11.060  66.501  1.00  0.00    -0.173 A  
HETATM   12  C   UNL     1      -9.874  11.859  66.998  1.00  0.00    -0.192 A  
HETATM   13  N   UNL     1      -9.668  13.024  67.660  1.00  0.00    -0.207 NA 
HETATM   14  C   UNL     1      -8.384  13.407  67.834  1.00  0.00    -0.166 A  
HETATM   15  C   UNL     1      -7.296  12.679  67.375  1.00  0.00    -0.140 A  
HETATM   16  C   UNL     1      -7.536  11.485  66.697  1.00  0.00    -0.078 A  
ENDBRANCH   9  11
ENDBRANCH   8   9
ENDBRANCH   7   8
ENDBRANCH   6   7
ENDBRANCH   5   6
ENDBRANCH   4   5
ENDBRANCH   3   4
ENDBRANCH   2   3
TORSDOF 8
ENDMDL
MODEL      311
REMARK 921   NORMALIZED FREE ENERGY PREDICTED BY IDOCK:   -2.24 KCAL/MOL
REMARK 922        TOTAL FREE ENERGY PREDICTED BY IDOCK:   -3.71 KCAL/MOL
REMARK 923 INTER-LIGAND FREE ENERGY PREDICTED BY IDOCK:   -3.10 KCAL/MOL
REMARK 924 INTRA-LIGAND FREE ENERGY PREDICTED BY IDOCK:   -0.61 KCAL/MOL
REMARK 927      BINDING AFFINITY PREDICTED BY RF-SCORE:    0.00 PKD
ROOT
HETATM    1  C   UNL     1      -9.848   9.964  66.629  1.00  0.00    -0.265 C  
HETATM    2  C   UNL     1     -10.329  11.199  67.371  1.00  0.00    -0.231 C  
ENDROOT
BRANCH   2   3
HETATM    3  C   UNL     1     -11.820  11.125  67.688  1.00  0.00    -0.025 C  
BRANCH   3   4
HETATM    4  C   UNL     1     -12.143  11.864  68.980  1.00  0.00    -0.186 C  
BRANCH   4   5
HETATM    5  O   UNL     1     -11.452  11.234  70.058  1.00  0.00    -0.293 OA 
BRANCH   5   6
HETATM    6  C   UNL     1     -12.312  10.337  70.761  1.00  0.00    -0.350 C  
BRANCH   6   7
HETATM    7  C   UNL     1     -11.546   9.078  71.150  1.00  0.00    -0.306 C  
BRANCH   7   8
HETATM    8  O   UNL     1     -10.128   9.289  71.048  1.00  0.00    -0.270 OA 
BRANCH   8   9
HETATM    9  C   UNL     1      -9.358   8.380  71.698  1.00  0.00    -0.214 C  
HETATM   10  O   UNL     1      -9.108   8.373  72.892  1.00  0.00    -0.254 OA 
BRANCH   9  11
HETATM   11  C   UNL     1      -8.811   7.391  70.746  1.00  0.00    -0.149 A  
HETATM   12  C   UNL     1      -8.473   6.131  71.223  1.00  0.00    -0.125 A  
HETATM   13  N   UNL     1      -7.953   5.145  70.451  1.00  0.00    -0.084 NA 
HETATM   14  C   UNL     1      -7.764   5.431  69.145  1.00  0.00    -0.089 A  
HETATM   15  C   UNL     1      -8.068   6.657  68.574  1.00  0.00    -0.119 A  
HETATM   16  C   UNL     1      -8.601   7.653  69.390  1.00  0.00    -0.136 A  
ENDBRANCH   9  11
ENDBRANCH   8   9
ENDBRANCH   7   8
ENDBRANCH   6   7
ENDBRANCH   5   6
ENDBRANCH   4   5
ENDBRANCH   3   4
ENDBRANCH   2   3
TORSDOF 8
ENDMDL
MODEL      312
REMARK 921   NORMALIZED FREE ENERGY PREDICTED BY IDOCK:   -2.24 KCAL/MOL
REMARK 922        TOTAL FREE ENERGY PREDICTED BY IDOCK:   -3.70 KCAL/MOL
REMARK 923 INTER-LIGAND FREE ENERGY PREDICTED BY IDOCK:   -3.35 KCAL/MOL
REMARK 924 INTRA-LIGAND FREE ENERGY PREDICTED BY IDOCK:   -0.35 KCAL/MOL
REMARK 927      BINDING AFFINITY PREDICTED BY RF-SCORE:    0.00 PKD
ROOT
HETATM    1  C   UNL     1      -6.351   7.318  65.823  1.00  0.00    -0.041 C  
HETATM    2  C   UNL     1      -5.923   8.683  66.333  1.00  0.00    -0.052 C  
ENDROOT
BRANCH   2   3
HETATM    3  C   UNL     1      -7.123   9.580  66.627  1.00  0.00    -0.086 C  
BRANCH   3   4
HETATM    4  C   UNL     1      -6.679  11.005  66.935  1.00  0.00    -0.120 C  
BRANCH   4   5
HETATM    5  O   UNL     1      -7.824  11.856  66.931  1.00  0.00    -0.160 OA 
BRANCH   5   6
HETATM    6  C   UNL     1      -8.824  11.363  66.039  1.00  0.00    -0.174 C  
BRANCH   6   7
HETATM    7  C   UNL     1     -10.211  11.623  66.617  1.00  0.00    -0.216 C  
BRANCH   7   8
HETATM    8  O   UNL     1     -10.885  12.660  65.885  1.00  0.00    -0.263 OA 
BRANCH   8   9
HETATM    9  C   UNL     1     -10.386  13.910  66.058  1.00  0.00    -0.305 C  
HETATM   10  O   UNL     1      -9.814  14.579  65.215  1.00  0.00    -0.325 OA 
BRANCH   9  11
HETATM   11  C   UNL     1     -10.593  14.360  67.451  1.00  0.00    -0.270 A  
HETATM   12  C   UNL     1      -9.485  14.749  68.192  1.00  0.00    -0.208 A  
HETATM   13  N   UNL     1      -9.547  15.169  69.480  1.00  0.00    -0.191 NA 
HETATM   14  C   UNL     1     -10.770  15.202  70.052  1.00  0.00    -0.238 A  
HETATM   15  C   UNL     1     -11.935  14.833  69.396  1.00  0.00    -0.339 A  
HETATM   16  C   UNL     1     -11.844  14.405  68.073  1.00  0.00    -0.361 A  
ENDBRANCH   9  11
ENDBRANCH   8   9
ENDBRANCH   7   8
ENDBRANCH   6   7
ENDBRANCH   5   6
ENDBRANCH   4   5
ENDBRANCH   3   4
ENDBRANCH   2   3
TORSDOF 8
ENDMDL
MODEL      313
REMARK 921   NORMALIZED FREE ENERGY PREDICTED BY IDOCK:   -2.22 KCAL/MOL
REMARK 922        TOTAL FREE ENERGY PREDICTED BY IDOCK:   -3.67 KCAL/MOL
REMARK 923 INTER-LIGAND FREE ENERGY PREDICTED BY IDOCK:   -3.10 KCAL/MOL
REMARK 924 INTRA-LIGAND FREE ENERGY PREDICTED BY IDOCK:   -0.57 KCAL/MOL
REMARK 927      BINDING AFFINITY PREDICTED BY RF-SCORE:    0.00 PKD
ROOT
HETATM    1  C   UNL     1      -9.968   6.532  66.226  1.00  0.00     0.006 C  
HETATM    2  C   UNL     1     -10.562   5.663  67.321  1.00  0.00    -0.328 C  
ENDROOT
BRANCH   2   3
HETATM    3  C   UNL     1     -10.758   6.440  68.620  1.00  0.00    -0.341 C  
BRANCH   3   4
HETATM    4  C   UNL     1      -9.590   7.385  68.874  1.00  0.00    -0.148 C  
BRANCH   4   5
HETATM    5  O   UNL     1     -10.092   8.606  69.415  1.00  0.00    -0.193 OA 
BRANCH   5   6
HETATM    6  C   UNL     1     -11.200   8.362  70.282  1.00  0.00    -0.173 C  
BRANCH   6   7
HETATM    7  C   UNL     1     -10.961   9.028  71.632  1.00  0.00    -0.365 C  
BRANCH   7   8
HETATM    8  O   UNL     1     -10.455   8.083  72.588  1.00  0.00    -0.289 OA 
BRANCH   8   9
HETATM    9  C   UNL     1      -9.102   8.014  72.674  1.00  0.00    -0.227 C  
HETATM   10  O   UNL     1      -8.314   8.865  72.299  1.00  0.00    -0.384 OA 
BRANCH   9  11
HETATM   11  C   UNL     1      -8.687   6.722  73.262  1.00  0.00    -0.138 A  
HETATM   12  C   UNL     1      -9.567   5.650  73.190  1.00  0.00    -0.150 A  
HETATM   13  N   UNL     1      -9.305   4.422  73.701  1.00  0.00    -0.113 NA 
HETATM   14  C   UNL     1      -8.110   4.258  74.310  1.00  0.00    -0.092 A  
HETATM   15  C   UNL     1      -7.166   5.266  74.433  1.00  0.00    -0.082 A  
HETATM   16  C   UNL     1      -7.460   6.519  73.899  1.00  0.00    -0.084 A  
ENDBRANCH   9  11
ENDBRANCH   8   9
ENDBRANCH   7   8
ENDBRANCH   6   7
ENDBRANCH   5   6
ENDBRANCH   4   5
ENDBRANCH   3   4
ENDBRANCH   2   3
TORSDOF 8
ENDMDL
MODEL      314
REMARK 921   NORMALIZED FREE ENERGY PREDICTED BY IDOCK:   -2.21 KCAL/MOL
REMARK 922        TOTAL FREE ENERGY PREDICTED BY IDOCK:   -3.66 KCAL/MOL
REMARK 923 INTER-LIGAND FREE ENERGY PREDICTED BY IDOCK:   -3.38 KCAL/MOL
REMARK 924 INTRA-LIGAND FREE ENERGY PREDICTED BY IDOCK:   -0.28 KCAL/MOL
REMARK 927      BINDING AFFINITY PREDICTED BY RF-SCORE:    0.00 PKD
ROOT
HETATM    1  C   UNL     1      -9.687   9.101  71.575  1.00  0.00    -0.313 C  
HETATM    2  C   UNL     1     -10.064   8.032  72.586  1.00  0.00    -0.370 C  
ENDROOT
BRANCH   2   3
HETATM    3  C   UNL     1     -11.571   7.791  72.621  1.00  0.00    -0.398 C  
BRANCH   3   4
HETATM    4  C   UNL     1     -12.079   7.300  71.272  1.00  0.00    -0.338 C  
BRANCH   4   5
HETATM    5  O   UNL     1     -11.315   6.162  70.876  1.00  0.00    -0.313 OA 
BRANCH   5   6
HETATM    6  C   UNL     1     -10.886   6.282  69.520  1.00  0.00    -0.340 C  
BRANCH   6   7
HETATM    7  C   UNL     1      -9.411   5.913  69.406  1.00  0.00    -0.130 C  
BRANCH   7   8
HETATM    8  O   UNL     1      -8.946   6.069  68.056  1.00  0.00    -0.114 OA 
BRANCH   8   9
HETATM    9  C   UNL     1      -9.186   5.016  67.235  1.00  0.00    -0.121 C  
HETATM   10  O   UNL     1      -9.660   3.941  67.564  1.00  0.00    -0.190 OA 
BRANCH   9  11
HETATM   11  C   UNL     1      -8.754   5.327  65.856  1.00  0.00    -0.138 A  
HETATM   12  C   UNL     1      -9.112   4.453  64.837  1.00  0.00    -0.151 A  
HETATM   13  N   UNL     1      -8.765   4.624  63.537  1.00  0.00    -0.135 NA 
HETATM   14  C   UNL     1      -8.029   5.718  63.243  1.00  0.00    -0.105 A  
HETATM   15  C   UNL     1      -7.622   6.648  64.188  1.00  0.00    -0.104 A  
HETATM   16  C   UNL     1      -7.992   6.448  65.517  1.00  0.00    -0.116 A  
ENDBRANCH   9  11
ENDBRANCH   8   9
ENDBRANCH   7   8
ENDBRANCH   6   7
ENDBRANCH   5   6
ENDBRANCH   4   5
ENDBRANCH   3   4
ENDBRANCH   2   3
TORSDOF 8
ENDMDL
MODEL      315
REMARK 921   NORMALIZED FREE ENERGY PREDICTED BY IDOCK:   -2.20 KCAL/MOL
REMARK 922        TOTAL FREE ENERGY PREDICTED BY IDOCK:   -3.65 KCAL/MOL
REMARK 923 INTER-LIGAND FREE ENERGY PREDICTED BY IDOCK:   -3.00 KCAL/MOL
REMARK 924 INTRA-LIGAND FREE ENERGY PREDICTED BY IDOCK:   -0.65 KCAL/MOL
REMARK 927      BINDING AFFINITY PREDICTED BY RF-SCORE:    0.00 PKD
ROOT
HETATM    1  C   UNL     1     -13.710   9.270  71.246  1.00  0.00    -0.250 C  
HETATM    2  C   UNL     1     -13.358   7.797  71.125  1.00  0.00    -0.141 C  
ENDROOT
BRANCH   2   3
HETATM    3  C   UNL     1     -11.848   7.572  71.122  1.00  0.00    -0.324 C  
BRANCH   3   4
HETATM    4  C   UNL     1     -11.423   6.697  72.294  1.00  0.00    -0.283 C  
BRANCH   4   5
HETATM    5  O   UNL     1     -10.720   5.561  71.792  1.00  0.00    -0.231 OA 
BRANCH   5   6
HETATM    6  C   UNL     1      -9.723   5.128  72.717  1.00  0.00    -0.153 C  
BRANCH   6   7
HETATM    7  C   UNL     1      -8.337   5.286  72.100  1.00  0.00    -0.125 C  
BRANCH   7   8
HETATM    8  O   UNL     1      -8.312   6.383  71.171  1.00  0.00    -0.121 OA 
BRANCH   8   9
HETATM    9  C   UNL     1      -8.045   6.046  69.884  1.00  0.00    -0.117 C  
HETATM   10  O   UNL     1      -7.183   5.269  69.508  1.00  0.00    -0.058 OA 
BRANCH   9  11
HETATM   11  C   UNL     1      -8.929   6.789  68.961  1.00  0.00    -0.131 A  
HETATM   12  C   UNL     1      -9.843   6.072  68.200  1.00  0.00    -0.131 A  
HETATM   13  N   UNL     1     -10.697   6.640  67.313  1.00  0.00    -0.311 NA 
HETATM   14  C   UNL     1     -10.635   7.983  67.182  1.00  0.00    -0.297 A  
HETATM   15  C   UNL     1      -9.757   8.785  67.895  1.00  0.00    -0.188 A  
HETATM   16  C   UNL     1      -8.890   8.177  68.801  1.00  0.00    -0.138 A  
ENDBRANCH   9  11
ENDBRANCH   8   9
ENDBRANCH   7   8
ENDBRANCH   6   7
ENDBRANCH   5   6
ENDBRANCH   4   5
ENDBRANCH   3   4
ENDBRANCH   2   3
TORSDOF 8
ENDMDL
MODEL      316
REMARK 921   NORMALIZED FREE ENERGY PREDICTED BY IDOCK:   -2.20 KCAL/MOL
REMARK 922        TOTAL FREE ENERGY PREDICTED BY IDOCK:   -3.64 KCAL/MOL
REMARK 923 INTER-LIGAND FREE ENERGY PREDICTED BY IDOCK:   -3.53 KCAL/MOL
REMARK 924 INTRA-LIGAND FREE ENERGY PREDICTED BY IDOCK:   -0.11 KCAL/MOL
REMARK 927      BINDING AFFINITY PREDICTED BY RF-SCORE:    0.00 PKD
ROOT
HETATM    1  C   UNL     1      -8.710   4.538  67.477  1.00  0.00    -0.109 C  
HETATM    2  C   UNL     1     -10.039   5.268  67.572  1.00  0.00    -0.222 C  
ENDROOT
BRANCH   2   3
HETATM    3  C   UNL     1      -9.874   6.677  68.135  1.00  0.00    -0.135 C  
BRANCH   3   4
HETATM    4  C   UNL     1      -8.510   7.254  67.777  1.00  0.00    -0.121 C  
BRANCH   4   5
HETATM    5  O   UNL     1      -8.633   8.028  66.585  1.00  0.00    -0.126 OA 
BRANCH   5   6
HETATM    6  C   UNL     1      -9.350   9.237  66.835  1.00  0.00    -0.151 C  
BRANCH   6   7
HETATM    7  C   UNL     1      -9.805   9.853  65.517  1.00  0.00    -0.311 C  
BRANCH   7   8
HETATM    8  O   UNL     1     -10.361  11.162  65.727  1.00  0.00    -0.247 OA 
BRANCH   8   9
HETATM    9  C   UNL     1      -9.666  11.957  66.579  1.00  0.00    -0.210 C  
HETATM   10  O   UNL     1      -8.459  12.134  66.575  1.00  0.00    -0.139 OA 
BRANCH   9  11
HETATM   11  C   UNL     1     -10.575  12.571  67.570  1.00  0.00    -0.238 A  
HETATM   12  C   UNL     1     -11.136  13.807  67.276  1.00  0.00    -0.304 A  
HETATM   13  N   UNL     1     -11.973  14.474  68.108  1.00  0.00    -0.298 NA 
HETATM   14  C   UNL     1     -12.263  13.879  69.286  1.00  0.00    -0.277 A  
HETATM   15  C   UNL     1     -11.753  12.648  69.671  1.00  0.00    -0.373 A  
HETATM   16  C   UNL     1     -10.895  11.984  68.797  1.00  0.00    -0.267 A  
ENDBRANCH   9  11
ENDBRANCH   8   9
ENDBRANCH   7   8
ENDBRANCH   6   7
ENDBRANCH   5   6
ENDBRANCH   4   5
ENDBRANCH   3   4
ENDBRANCH   2   3
TORSDOF 8
ENDMDL
MODEL      317
REMARK 921   NORMALIZED FREE ENERGY PREDICTED BY IDOCK:   -2.19 KCAL/MOL
REMARK 922        TOTAL FREE ENERGY PREDICTED BY IDOCK:   -3.63 KCAL/MOL
REMARK 923 INTER-LIGAND FREE ENERGY PREDICTED BY IDOCK:   -3.22 KCAL/MOL
REMARK 924 INTRA-LIGAND FREE ENERGY PREDICTED BY IDOCK:   -0.41 KCAL/MOL
REMARK 927      BINDING AFFINITY PREDICTED BY RF-SCORE:    0.00 PKD
ROOT
HETATM    1  C   UNL     1     -11.977   9.219  71.684  1.00  0.00    -0.448 C  
HETATM    2  C   UNL     1     -11.312   9.623  70.380  1.00  0.00    -0.337 C  
ENDROOT
BRANCH   2   3
HETATM    3  C   UNL     1     -10.655   8.432  69.686  1.00  0.00    -0.219 C  
BRANCH   3   4
HETATM    4  C   UNL     1     -11.048   7.122  70.356  1.00  0.00    -0.280 C  
BRANCH   4   5
HETATM    5  O   UNL     1     -11.507   6.212  69.359  1.00  0.00    -0.423 OA 
BRANCH   5   6
HETATM    6  C   UNL     1     -11.079   6.620  68.059  1.00  0.00    -0.205 C  
BRANCH   6   7
HETATM    7  C   UNL     1     -10.265   5.508  67.407  1.00  0.00    -0.209 C  
BRANCH   7   8
HETATM    8  O   UNL     1      -9.934   4.487  68.362  1.00  0.00    -0.123 OA 
BRANCH   8   9
HETATM    9  C   UNL     1      -8.784   4.690  69.053  1.00  0.00    -0.085 C  
HETATM   10  O   UNL     1      -7.807   5.304  68.659  1.00  0.00    -0.085 OA 
BRANCH   9  11
HETATM   11  C   UNL     1      -8.847   4.019  70.369  1.00  0.00    -0.137 A  
HETATM   12  C   UNL     1      -8.481   4.741  71.497  1.00  0.00    -0.116 A  
HETATM   13  N   UNL     1      -8.486   4.233  72.755  1.00  0.00    -0.100 NA 
HETATM   14  C   UNL     1      -8.876   2.947  72.889  1.00  0.00    -0.083 A  
HETATM   15  C   UNL     1      -9.259   2.144  71.825  1.00  0.00    -0.160 A  
HETATM   16  C   UNL     1      -9.244   2.691  70.544  1.00  0.00    -0.206 A  
ENDBRANCH   9  11
ENDBRANCH   8   9
ENDBRANCH   7   8
ENDBRANCH   6   7
ENDBRANCH   5   6
ENDBRANCH   4   5
ENDBRANCH   3   4
ENDBRANCH   2   3
TORSDOF 8
ENDMDL
MODEL      318
REMARK 921   NORMALIZED FREE ENERGY PREDICTED BY IDOCK:   -2.18 KCAL/MOL
REMARK 922        TOTAL FREE ENERGY PREDICTED BY IDOCK:   -3.61 KCAL/MOL
REMARK 923 INTER-LIGAND FREE ENERGY PREDICTED BY IDOCK:   -2.83 KCAL/MOL
REMARK 924 INTRA-LIGAND FREE ENERGY PREDICTED BY IDOCK:   -0.78 KCAL/MOL
REMARK 927      BINDING AFFINITY PREDICTED BY RF-SCORE:    0.00 PKD
ROOT
HETATM    1  C   UNL     1     -11.977   9.219  71.684  1.00  0.00    -0.448 C  
HETATM    2  C   UNL     1     -11.312   9.623  70.380  1.00  0.00    -0.337 C  
ENDROOT
BRANCH   2   3
HETATM    3  C   UNL     1     -10.655   8.432  69.686  1.00  0.00    -0.219 C  
BRANCH   3   4
HETATM    4  C   UNL     1     -11.048   7.122  70.356  1.00  0.00    -0.280 C  
BRANCH   4   5
HETATM    5  O   UNL     1     -11.507   6.212  69.359  1.00  0.00    -0.423 OA 
BRANCH   5   6
HETATM    6  C   UNL     1     -11.079   6.620  68.059  1.00  0.00    -0.205 C  
BRANCH   6   7
HETATM    7  C   UNL     1     -10.265   5.508  67.407  1.00  0.00    -0.209 C  
BRANCH   7   8
HETATM    8  O   UNL     1      -9.191   5.088  68.265  1.00  0.00    -0.112 OA 
BRANCH   8   9
HETATM    9  C   UNL     1      -8.033   5.782  68.127  1.00  0.00    -0.104 C  
HETATM   10  O   UNL     1      -7.423   5.964  67.088  1.00  0.00    -0.082 OA 
BRANCH   9  11
HETATM   11  C   UNL     1      -7.568   6.275  69.441  1.00  0.00    -0.098 A  
HETATM   12  C   UNL     1      -7.190   7.607  69.552  1.00  0.00    -0.080 A  
HETATM   13  N   UNL     1      -6.736   8.171  70.699  1.00  0.00    -0.037 NA 
HETATM   14  C   UNL     1      -6.658   7.368  71.782  1.00  0.00    -0.043 A  
HETATM   15  C   UNL     1      -7.011   6.027  71.773  1.00  0.00    -0.073 A  
HETATM   16  C   UNL     1      -7.474   5.472  70.581  1.00  0.00    -0.084 A  
ENDBRANCH   9  11
ENDBRANCH   8   9
ENDBRANCH   7   8
ENDBRANCH   6   7
ENDBRANCH   5   6
ENDBRANCH   4   5
ENDBRANCH   3   4
ENDBRANCH   2   3
TORSDOF 8
ENDMDL
MODEL      319
REMARK 921   NORMALIZED FREE ENERGY PREDICTED BY IDOCK:   -2.15 KCAL/MOL
REMARK 922        TOTAL FREE ENERGY PREDICTED BY IDOCK:   -3.57 KCAL/MOL
REMARK 923 INTER-LIGAND FREE ENERGY PREDICTED BY IDOCK:   -3.06 KCAL/MOL
REMARK 924 INTRA-LIGAND FREE ENERGY PREDICTED BY IDOCK:   -0.51 KCAL/MOL
REMARK 927      BINDING AFFINITY PREDICTED BY RF-SCORE:    0.00 PKD
ROOT
HETATM    1  C   UNL     1      -9.620   5.655  66.060  1.00  0.00    -0.104 C  
HETATM    2  C   UNL     1     -10.270   5.163  67.341  1.00  0.00    -0.224 C  
ENDROOT
BRANCH   2   3
HETATM    3  C   UNL     1     -10.697   6.320  68.241  1.00  0.00    -0.356 C  
BRANCH   3   4
HETATM    4  C   UNL     1     -10.016   6.236  69.601  1.00  0.00    -0.165 C  
BRANCH   4   5
HETATM    5  O   UNL     1     -10.641   7.162  70.489  1.00  0.00    -0.217 OA 
BRANCH   5   6
HETATM    6  C   UNL     1     -12.038   6.892  70.607  1.00  0.00    -0.311 C  
BRANCH   6   7
HETATM    7  C   UNL     1     -12.412   6.724  72.075  1.00  0.00    -0.244 C  
BRANCH   7   8
HETATM    8  O   UNL     1     -11.918   5.477  72.591  1.00  0.00    -0.245 OA 
BRANCH   8   9
HETATM    9  C   UNL     1     -10.870   5.578  73.447  1.00  0.00    -0.288 C  
HETATM   10  O   UNL     1     -10.660   6.497  74.221  1.00  0.00    -0.269 OA 
BRANCH   9  11
HETATM   11  C   UNL     1      -9.965   4.420  73.294  1.00  0.00    -0.183 A  
HETATM   12  C   UNL     1     -10.278   3.456  72.344  1.00  0.00    -0.129 A  
HETATM   13  N   UNL     1      -9.533   2.346  72.119  1.00  0.00    -0.098 NA 
HETATM   14  C   UNL     1      -8.425   2.193  72.877  1.00  0.00    -0.062 A  
HETATM   15  C   UNL     1      -8.029   3.097  73.851  1.00  0.00    -0.069 A  
HETATM   16  C   UNL     1      -8.813   4.230  74.061  1.00  0.00    -0.095 A  
ENDBRANCH   9  11
ENDBRANCH   8   9
ENDBRANCH   7   8
ENDBRANCH   6   7
ENDBRANCH   5   6
ENDBRANCH   4   5
ENDBRANCH   3   4
ENDBRANCH   2   3
TORSDOF 8
ENDMDL
MODEL      320
REMARK 921   NORMALIZED FREE ENERGY PREDICTED BY IDOCK:   -2.15 KCAL/MOL
REMARK 922        TOTAL FREE ENERGY PREDICTED BY IDOCK:   -3.57 KCAL/MOL
REMARK 923 INTER-LIGAND FREE ENERGY PREDICTED BY IDOCK:   -3.24 KCAL/MOL
REMARK 924 INTRA-LIGAND FREE ENERGY PREDICTED BY IDOCK:   -0.33 KCAL/MOL
REMARK 927      BINDING AFFINITY PREDICTED BY RF-SCORE:    0.00 PKD
ROOT
HETATM    1  C   UNL     1      -8.350   9.107  62.920  1.00  0.00    -0.199 C  
HETATM    2  C   UNL     1      -8.423   8.956  64.430  1.00  0.00    -0.170 C  
ENDROOT
BRANCH   2   3
HETATM    3  C   UNL     1      -7.434   9.876  65.140  1.00  0.00    -0.133 C  
BRANCH   3   4
HETATM    4  C   UNL     1      -7.959  10.293  66.508  1.00  0.00    -0.118 C  
BRANCH   4   5
HETATM    5  O   UNL     1      -8.852  11.394  66.345  1.00  0.00    -0.184 OA 
BRANCH   5   6
HETATM    6  C   UNL     1      -9.368  11.823  67.605  1.00  0.00    -0.180 C  
BRANCH   6   7
HETATM    7  C   UNL     1      -9.956  10.635  68.358  1.00  0.00    -0.163 C  
BRANCH   7   8
HETATM    8  O   UNL     1      -9.824  10.813  69.778  1.00  0.00    -0.032 OA 
BRANCH   8   9
HETATM    9  C   UNL     1     -10.905  10.442  70.511  1.00  0.00    -0.116 C  
HETATM   10  O   UNL     1     -12.025  10.918  70.433  1.00  0.00    -0.300 OA 
BRANCH   9  11
HETATM   11  C   UNL     1     -10.536   9.383  71.474  1.00  0.00    -0.331 A  
HETATM   12  C   UNL     1      -9.189   9.135  71.702  1.00  0.00    -0.017 A  
HETATM   13  N   UNL     1      -8.728   8.184  72.552  1.00  0.00    -0.184 NA 
HETATM   14  C   UNL     1      -9.655   7.449  73.203  1.00  0.00    -0.210 A  
HETATM   15  C   UNL     1     -11.022   7.619  73.044  1.00  0.00    -0.457 A  
HETATM   16  C   UNL     1     -11.469   8.604  72.164  1.00  0.00    -0.443 A  
ENDBRANCH   9  11
ENDBRANCH   8   9
ENDBRANCH   7   8
ENDBRANCH   6   7
ENDBRANCH   5   6
ENDBRANCH   4   5
ENDBRANCH   3   4
ENDBRANCH   2   3
TORSDOF 8
ENDMDL
MODEL      321
REMARK 921   NORMALIZED FREE ENERGY PREDICTED BY IDOCK:   -2.13 KCAL/MOL
REMARK 922        TOTAL FREE ENERGY PREDICTED BY IDOCK:   -3.54 KCAL/MOL
REMARK 923 INTER-LIGAND FREE ENERGY PREDICTED BY IDOCK:   -3.02 KCAL/MOL
REMARK 924 INTRA-LIGAND FREE ENERGY PREDICTED BY IDOCK:   -0.52 KCAL/MOL
REMARK 927      BINDING AFFINITY PREDICTED BY RF-SCORE:    0.00 PKD
ROOT
HETATM    1  C   UNL     1      -8.992   8.640  70.984  1.00  0.00    -0.242 C  
HETATM    2  C   UNL     1      -8.316   7.412  71.570  1.00  0.00    -0.109 C  
ENDROOT
BRANCH   2   3
HETATM    3  C   UNL     1      -9.332   6.378  72.046  1.00  0.00    -0.151 C  
BRANCH   3   4
HETATM    4  C   UNL     1      -9.115   5.038  71.356  1.00  0.00    -0.143 C  
BRANCH   4   5
HETATM    5  O   UNL     1      -9.071   5.247  69.945  1.00  0.00    -0.125 OA 
BRANCH   5   6
HETATM    6  C   UNL     1     -10.344   4.990  69.351  1.00  0.00    -0.144 C  
BRANCH   6   7
HETATM    7  C   UNL     1     -10.968   6.297  68.873  1.00  0.00    -0.368 C  
BRANCH   7   8
HETATM    8  O   UNL     1     -11.003   6.353  67.438  1.00  0.00    -0.326 OA 
BRANCH   8   9
HETATM    9  C   UNL     1      -9.862   6.786  66.846  1.00  0.00    -0.175 C  
HETATM   10  O   UNL     1      -9.133   6.128  66.122  1.00  0.00    -0.154 OA 
BRANCH   9  11
HETATM   11  C   UNL     1      -9.579   8.185  67.231  1.00  0.00    -0.211 A  
HETATM   12  C   UNL     1      -8.269   8.538  67.527  1.00  0.00    -0.117 A  
HETATM   13  N   UNL     1      -7.889   9.784  67.903  1.00  0.00    -0.090 NA 
HETATM   14  C   UNL     1      -8.860  10.719  67.984  1.00  0.00    -0.132 A  
HETATM   15  C   UNL     1     -10.196  10.465  67.709  1.00  0.00    -0.229 A  
HETATM   16  C   UNL     1     -10.560   9.176  67.325  1.00  0.00    -0.303 A  
ENDBRANCH   9  11
ENDBRANCH   8   9
ENDBRANCH   7   8
ENDBRANCH   6   7
ENDBRANCH   5   6
ENDBRANCH   4   5
ENDBRANCH   3   4
ENDBRANCH   2   3
TORSDOF 8
ENDMDL
MODEL      322
REMARK 921   NORMALIZED FREE ENERGY PREDICTED BY IDOCK:   -2.13 KCAL/MOL
REMARK 922        TOTAL FREE ENERGY PREDICTED BY IDOCK:   -3.54 KCAL/MOL
REMARK 923 INTER-LIGAND FREE ENERGY PREDICTED BY IDOCK:   -4.06 KCAL/MOL
REMARK 924 INTRA-LIGAND FREE ENERGY PREDICTED BY IDOCK:    0.52 KCAL/MOL
REMARK 927      BINDING AFFINITY PREDICTED BY RF-SCORE:    0.00 PKD
ROOT
HETATM    1  C   UNL     1      -9.102  16.347  68.274  1.00  0.00    -0.207 C  
HETATM    2  C   UNL     1      -7.965  15.890  69.172  1.00  0.00    -0.233 C  
ENDROOT
BRANCH   2   3
HETATM    3  C   UNL     1      -7.018  14.937  68.448  1.00  0.00    -0.110 C  
BRANCH   3   4
HETATM    4  C   UNL     1      -6.465  13.885  69.401  1.00  0.00    -0.119 C  
BRANCH   4   5
HETATM    5  O   UNL     1      -7.037  12.619  69.075  1.00  0.00    -0.094 OA 
BRANCH   5   6
HETATM    6  C   UNL     1      -7.662  12.657  67.792  1.00  0.00    -0.145 C  
BRANCH   6   7
HETATM    7  C   UNL     1      -9.175  12.550  67.947  1.00  0.00    -0.200 C  
BRANCH   7   8
HETATM    8  O   UNL     1      -9.693  11.449  67.183  1.00  0.00    -0.180 OA 
BRANCH   8   9
HETATM    9  C   UNL     1      -9.407  11.478  65.857  1.00  0.00    -0.226 C  
HETATM   10  O   UNL     1      -8.464  10.930  65.312  1.00  0.00    -0.151 OA 
BRANCH   9  11
HETATM   11  C   UNL     1     -10.389  12.316  65.136  1.00  0.00    -0.316 A  
HETATM   12  C   UNL     1     -10.480  13.661  65.467  1.00  0.00    -0.306 A  
HETATM   13  N   UNL     1     -11.348  14.526  64.885  1.00  0.00    -0.375 NA 
HETATM   14  C   UNL     1     -12.160  14.023  63.930  1.00  0.00    -0.311 A  
HETATM   15  C   UNL     1     -12.146  12.695  63.530  1.00  0.00    -0.648 A  
HETATM   16  C   UNL     1     -11.244  11.828  64.144  1.00  0.00    -0.437 A  
ENDBRANCH   9  11
ENDBRANCH   8   9
ENDBRANCH   7   8
ENDBRANCH   6   7
ENDBRANCH   5   6
ENDBRANCH   4   5
ENDBRANCH   3   4
ENDBRANCH   2   3
TORSDOF 8
ENDMDL
MODEL      323
REMARK 921   NORMALIZED FREE ENERGY PREDICTED BY IDOCK:   -2.13 KCAL/MOL
REMARK 922        TOTAL FREE ENERGY PREDICTED BY IDOCK:   -3.53 KCAL/MOL
REMARK 923 INTER-LIGAND FREE ENERGY PREDICTED BY IDOCK:   -3.16 KCAL/MOL
REMARK 924 INTRA-LIGAND FREE ENERGY PREDICTED BY IDOCK:   -0.37 KCAL/MOL
REMARK 927      BINDING AFFINITY PREDICTED BY RF-SCORE:    0.00 PKD
ROOT
HETATM    1  C   UNL     1     -12.611   9.560  71.845  1.00  0.00    -0.479 C  
HETATM    2  C   UNL     1     -11.950  10.437  70.795  1.00  0.00    -0.462 C  
ENDROOT
BRANCH   2   3
HETATM    3  C   UNL     1     -10.577   9.906  70.395  1.00  0.00    -0.364 C  
BRANCH   3   4
HETATM    4  C   UNL     1     -10.688   8.909  69.248  1.00  0.00    -0.162 C  
BRANCH   4   5
HETATM    5  O   UNL     1     -10.144   9.499  68.068  1.00  0.00    -0.170 OA 
BRANCH   5   6
HETATM    6  C   UNL     1      -8.971  10.256  68.370  1.00  0.00    -0.132 C  
BRANCH   6   7
HETATM    7  C   UNL     1      -7.854   9.894  67.398  1.00  0.00    -0.098 C  
BRANCH   7   8
HETATM    8  O   UNL     1      -8.235   8.783  66.570  1.00  0.00    -0.108 OA 
BRANCH   8   9
HETATM    9  C   UNL     1      -7.900   7.559  67.051  1.00  0.00    -0.116 C  
HETATM   10  O   UNL     1      -7.058   7.327  67.903  1.00  0.00    -0.080 OA 
BRANCH   9  11
HETATM   11  C   UNL     1      -8.679   6.505  66.368  1.00  0.00    -0.142 A  
HETATM   12  C   UNL     1      -9.866   6.077  66.949  1.00  0.00    -0.158 A  
HETATM   13  N   UNL     1     -10.659   5.111  66.423  1.00  0.00    -0.308 NA 
HETATM   14  C   UNL     1     -10.248   4.548  65.267  1.00  0.00    -0.163 A  
HETATM   15  C   UNL     1      -9.080   4.905  64.611  1.00  0.00    -0.077 A  
HETATM   16  C   UNL     1      -8.282   5.901  65.172  1.00  0.00    -0.141 A  
ENDBRANCH   9  11
ENDBRANCH   8   9
ENDBRANCH   7   8
ENDBRANCH   6   7
ENDBRANCH   5   6
ENDBRANCH   4   5
ENDBRANCH   3   4
ENDBRANCH   2   3
TORSDOF 8
ENDMDL
MODEL      324
REMARK 921   NORMALIZED FREE ENERGY PREDICTED BY IDOCK:   -2.12 KCAL/MOL
REMARK 922        TOTAL FREE ENERGY PREDICTED BY IDOCK:   -3.52 KCAL/MOL
REMARK 923 INTER-LIGAND FREE ENERGY PREDICTED BY IDOCK:   -2.96 KCAL/MOL
REMARK 924 INTRA-LIGAND FREE ENERGY PREDICTED BY IDOCK:   -0.56 KCAL/MOL
REMARK 927      BINDING AFFINITY PREDICTED BY RF-SCORE:    0.00 PKD
ROOT
HETATM    1  C   UNL     1     -12.590   9.569  71.877  1.00  0.00    -0.479 C  
HETATM    2  C   UNL     1     -11.861  10.397  70.833  1.00  0.00    -0.475 C  
ENDROOT
BRANCH   2   3
HETATM    3  C   UNL     1     -10.535   9.760  70.428  1.00  0.00    -0.358 C  
BRANCH   3   4
HETATM    4  C   UNL     1     -10.730   8.762  69.293  1.00  0.00    -0.151 C  
BRANCH   4   5
HETATM    5  O   UNL     1     -10.104   9.272  68.117  1.00  0.00    -0.171 OA 
BRANCH   5   6
HETATM    6  C   UNL     1      -8.800   9.773  68.410  1.00  0.00    -0.120 C  
BRANCH   6   7
HETATM    7  C   UNL     1      -7.782   9.167  67.450  1.00  0.00    -0.092 C  
BRANCH   7   8
HETATM    8  O   UNL     1      -7.928   7.739  67.382  1.00  0.00    -0.115 OA 
BRANCH   8   9
HETATM    9  C   UNL     1      -7.361   7.050  68.404  1.00  0.00    -0.100 C  
HETATM   10  O   UNL     1      -6.366   7.378  69.029  1.00  0.00    -0.037 OA 
BRANCH   9  11
HETATM   11  C   UNL     1      -8.097   5.792  68.650  1.00  0.00    -0.101 A  
HETATM   12  C   UNL     1      -8.004   4.776  67.708  1.00  0.00    -0.093 A  
HETATM   13  N   UNL     1      -8.641   3.584  67.816  1.00  0.00    -0.095 NA 
HETATM   14  C   UNL     1      -9.404   3.399  68.915  1.00  0.00    -0.168 A  
HETATM   15  C   UNL     1      -9.561   4.351  69.911  1.00  0.00    -0.275 A  
HETATM   16  C   UNL     1      -8.896   5.568  69.775  1.00  0.00    -0.129 A  
ENDBRANCH   9  11
ENDBRANCH   8   9
ENDBRANCH   7   8
ENDBRANCH   6   7
ENDBRANCH   5   6
ENDBRANCH   4   5
ENDBRANCH   3   4
ENDBRANCH   2   3
TORSDOF 8
ENDMDL
MODEL      325
REMARK 921   NORMALIZED FREE ENERGY PREDICTED BY IDOCK:   -2.11 KCAL/MOL
REMARK 922        TOTAL FREE ENERGY PREDICTED BY IDOCK:   -3.51 KCAL/MOL
REMARK 923 INTER-LIGAND FREE ENERGY PREDICTED BY IDOCK:   -3.18 KCAL/MOL
REMARK 924 INTRA-LIGAND FREE ENERGY PREDICTED BY IDOCK:   -0.33 KCAL/MOL
REMARK 927      BINDING AFFINITY PREDICTED BY RF-SCORE:    0.00 PKD
ROOT
HETATM    1  C   UNL     1     -11.392  13.703  66.238  1.00  0.00    -0.325 C  
HETATM    2  C   UNL     1     -10.314  14.693  66.646  1.00  0.00    -0.273 C  
ENDROOT
BRANCH   2   3
HETATM    3  C   UNL     1     -10.910  16.010  67.137  1.00  0.00    -0.239 C  
BRANCH   3   4
HETATM    4  C   UNL     1      -9.832  16.914  67.722  1.00  0.00    -0.252 C  
BRANCH   4   5
HETATM    5  O   UNL     1      -8.946  17.312  66.677  1.00  0.00    -0.236 OA 
BRANCH   5   6
HETATM    6  C   UNL     1      -8.683  18.714  66.738  1.00  0.00    -0.292 C  
BRANCH   6   7
HETATM    7  C   UNL     1      -7.365  18.965  67.463  1.00  0.00    -0.226 C  
BRANCH   7   8
HETATM    8  O   UNL     1      -7.409  18.443  68.801  1.00  0.00    -0.283 OA 
BRANCH   8   9
HETATM    9  C   UNL     1      -6.263  17.856  69.231  1.00  0.00    -0.242 C  
HETATM   10  O   UNL     1      -5.316  18.423  69.749  1.00  0.00    -0.186 OA 
BRANCH   9  11
HETATM   11  C   UNL     1      -6.289  16.405  68.951  1.00  0.00    -0.150 A  
HETATM   12  C   UNL     1      -7.065  15.588  69.764  1.00  0.00    -0.119 A  
HETATM   13  N   UNL     1      -7.160  14.244  69.613  1.00  0.00    -0.063 NA 
HETATM   14  C   UNL     1      -6.449  13.693  68.606  1.00  0.00    -0.094 A  
HETATM   15  C   UNL     1      -5.647  14.422  67.742  1.00  0.00    -0.049 A  
HETATM   16  C   UNL     1      -5.566  15.802  67.918  1.00  0.00    -0.156 A  
ENDBRANCH   9  11
ENDBRANCH   8   9
ENDBRANCH   7   8
ENDBRANCH   6   7
ENDBRANCH   5   6
ENDBRANCH   4   5
ENDBRANCH   3   4
ENDBRANCH   2   3
TORSDOF 8
ENDMDL
MODEL      326
REMARK 921   NORMALIZED FREE ENERGY PREDICTED BY IDOCK:   -2.11 KCAL/MOL
REMARK 922        TOTAL FREE ENERGY PREDICTED BY IDOCK:   -3.51 KCAL/MOL
REMARK 923 INTER-LIGAND FREE ENERGY PREDICTED BY IDOCK:   -3.25 KCAL/MOL
REMARK 924 INTRA-LIGAND FREE ENERGY PREDICTED BY IDOCK:   -0.26 KCAL/MOL
REMARK 927      BINDING AFFINITY PREDICTED BY RF-SCORE:    0.00 PKD
ROOT
HETATM    1  C   UNL     1      -8.663  19.856  66.364  1.00  0.00    -0.397 C  
HETATM    2  C   UNL     1      -7.323  20.055  65.677  1.00  0.00    -0.311 C  
ENDROOT
BRANCH   2   3
HETATM    3  C   UNL     1      -6.632  18.726  65.387  1.00  0.00    -0.282 C  
BRANCH   3   4
HETATM    4  C   UNL     1      -6.444  17.916  66.663  1.00  0.00    -0.192 C  
BRANCH   4   5
HETATM    5  O   UNL     1      -6.977  16.607  66.463  1.00  0.00    -0.223 OA 
BRANCH   5   6
HETATM    6  C   UNL     1      -6.782  15.794  67.620  1.00  0.00    -0.172 C  
BRANCH   6   7
HETATM    7  C   UNL     1      -7.955  14.834  67.785  1.00  0.00    -0.157 C  
BRANCH   7   8
HETATM    8  O   UNL     1      -7.585  13.708  68.597  1.00  0.00    -0.125 OA 
BRANCH   8   9
HETATM    9  C   UNL     1      -7.476  12.528  67.937  1.00  0.00    -0.120 C  
HETATM   10  O   UNL     1      -6.440  12.005  67.563  1.00  0.00    -0.094 OA 
BRANCH   9  11
HETATM   11  C   UNL     1      -8.815  11.954  67.682  1.00  0.00    -0.169 A  
HETATM   12  C   UNL     1      -9.066  11.389  66.438  1.00  0.00    -0.193 A  
HETATM   13  N   UNL     1     -10.256  10.843  66.083  1.00  0.00    -0.242 NA 
HETATM   14  C   UNL     1     -11.236  10.861  67.012  1.00  0.00    -0.137 A  
HETATM   15  C   UNL     1     -11.083  11.402  68.280  1.00  0.00    -0.300 A  
HETATM   16  C   UNL     1      -9.851  11.957  68.620  1.00  0.00    -0.139 A  
ENDBRANCH   9  11
ENDBRANCH   8   9
ENDBRANCH   7   8
ENDBRANCH   6   7
ENDBRANCH   5   6
ENDBRANCH   4   5
ENDBRANCH   3   4
ENDBRANCH   2   3
TORSDOF 8
ENDMDL
MODEL      327
REMARK 921   NORMALIZED FREE ENERGY PREDICTED BY IDOCK:   -2.09 KCAL/MOL
REMARK 922        TOTAL FREE ENERGY PREDICTED BY IDOCK:   -3.48 KCAL/MOL
REMARK 923 INTER-LIGAND FREE ENERGY PREDICTED BY IDOCK:   -3.16 KCAL/MOL
REMARK 924 INTRA-LIGAND FREE ENERGY PREDICTED BY IDOCK:   -0.32 KCAL/MOL
REMARK 927      BINDING AFFINITY PREDICTED BY RF-SCORE:    0.00 PKD
ROOT
HETATM    1  C   UNL     1      -8.653   4.188  65.332  1.00  0.00    -0.118 C  
HETATM    2  C   UNL     1      -8.738   3.803  66.799  1.00  0.00    -0.120 C  
ENDROOT
BRANCH   2   3
HETATM    3  C   UNL     1      -9.814   4.598  67.533  1.00  0.00    -0.200 C  
BRANCH   3   4
HETATM    4  C   UNL     1      -9.578   6.097  67.395  1.00  0.00    -0.115 C  
BRANCH   4   5
HETATM    5  O   UNL     1     -10.759   6.790  67.795  1.00  0.00    -0.220 OA 
BRANCH   5   6
HETATM    6  C   UNL     1     -10.635   7.281  69.130  1.00  0.00    -0.208 C  
BRANCH   6   7
HETATM    7  C   UNL     1     -11.347   6.342  70.097  1.00  0.00    -0.420 C  
BRANCH   7   8
HETATM    8  O   UNL     1     -10.514   6.043  71.229  1.00  0.00    -0.214 OA 
BRANCH   8   9
HETATM    9  C   UNL     1     -10.498   6.987  72.203  1.00  0.00    -0.209 C  
HETATM   10  O   UNL     1     -11.463   7.600  72.625  1.00  0.00    -0.340 OA 
BRANCH   9  11
HETATM   11  C   UNL     1      -9.117   7.216  72.678  1.00  0.00    -0.157 A  
HETATM   12  C   UNL     1      -8.885   8.266  73.557  1.00  0.00    -0.185 A  
HETATM   13  N   UNL     1      -7.663   8.582  74.052  1.00  0.00    -0.400 NA 
HETATM   14  C   UNL     1      -6.627   7.813  73.652  1.00  0.00    -0.089 A  
HETATM   15  C   UNL     1      -6.756   6.743  72.778  1.00  0.00    -0.067 A  
HETATM   16  C   UNL     1      -8.023   6.441  72.284  1.00  0.00    -0.103 A  
ENDBRANCH   9  11
ENDBRANCH   8   9
ENDBRANCH   7   8
ENDBRANCH   6   7
ENDBRANCH   5   6
ENDBRANCH   4   5
ENDBRANCH   3   4
ENDBRANCH   2   3
TORSDOF 8
ENDMDL
MODEL      328
REMARK 921   NORMALIZED FREE ENERGY PREDICTED BY IDOCK:   -2.09 KCAL/MOL
REMARK 922        TOTAL FREE ENERGY PREDICTED BY IDOCK:   -3.48 KCAL/MOL
REMARK 923 INTER-LIGAND FREE ENERGY PREDICTED BY IDOCK:   -3.07 KCAL/MOL
REMARK 924 INTRA-LIGAND FREE ENERGY PREDICTED BY IDOCK:   -0.41 KCAL/MOL
REMARK 927      BINDING AFFINITY PREDICTED BY RF-SCORE:    0.00 PKD
ROOT
HETATM    1  C   UNL     1      -6.114  12.956  68.940  1.00  0.00    -0.083 C  
HETATM    2  C   UNL     1      -5.521  12.684  67.568  1.00  0.00    -0.110 C  
ENDROOT
BRANCH   2   3
HETATM    3  C   UNL     1      -6.279  11.584  66.830  1.00  0.00    -0.143 C  
BRANCH   3   4
HETATM    4  C   UNL     1      -7.654  11.358  67.445  1.00  0.00    -0.124 C  
BRANCH   4   5
HETATM    5  O   UNL     1      -8.292  10.276  66.768  1.00  0.00    -0.122 OA 
BRANCH   5   6
HETATM    6  C   UNL     1      -9.525  10.696  66.183  1.00  0.00    -0.179 C  
BRANCH   6   7
HETATM    7  C   UNL     1     -10.627  10.694  67.236  1.00  0.00    -0.263 C  
BRANCH   7   8
HETATM    8  O   UNL     1     -10.727   9.409  67.872  1.00  0.00    -0.249 OA 
BRANCH   8   9
HETATM    9  C   UNL     1     -10.451   9.398  69.201  1.00  0.00    -0.217 C  
HETATM   10  O   UNL     1     -10.243  10.375  69.901  1.00  0.00    -0.230 OA 
BRANCH   9  11
HETATM   11  C   UNL     1     -10.394   8.009  69.704  1.00  0.00    -0.220 A  
HETATM   12  C   UNL     1     -10.775   7.765  71.017  1.00  0.00    -0.228 A  
HETATM   13  N   UNL     1     -10.754   6.538  71.595  1.00  0.00    -0.225 NA 
HETATM   14  C   UNL     1     -10.337   5.510  70.825  1.00  0.00    -0.251 A  
HETATM   15  C   UNL     1      -9.936   5.651  69.505  1.00  0.00    -0.263 A  
HETATM   16  C   UNL     1      -9.966   6.923  68.936  1.00  0.00    -0.158 A  
ENDBRANCH   9  11
ENDBRANCH   8   9
ENDBRANCH   7   8
ENDBRANCH   6   7
ENDBRANCH   5   6
ENDBRANCH   4   5
ENDBRANCH   3   4
ENDBRANCH   2   3
TORSDOF 8
ENDMDL
MODEL      329
REMARK 921   NORMALIZED FREE ENERGY PREDICTED BY IDOCK:   -2.08 KCAL/MOL
REMARK 922        TOTAL FREE ENERGY PREDICTED BY IDOCK:   -3.47 KCAL/MOL
REMARK 923 INTER-LIGAND FREE ENERGY PREDICTED BY IDOCK:   -3.07 KCAL/MOL
REMARK 924 INTRA-LIGAND FREE ENERGY PREDICTED BY IDOCK:   -0.40 KCAL/MOL
REMARK 927      BINDING AFFINITY PREDICTED BY RF-SCORE:    0.00 PKD
ROOT
HETATM    1  C   UNL     1     -13.859   9.464  71.893  1.00  0.00    -0.380 C  
HETATM    2  C   UNL     1     -13.895   7.947  71.822  1.00  0.00    -0.449 C  
ENDROOT
BRANCH   2   3
HETATM    3  C   UNL     1     -12.493   7.344  71.841  1.00  0.00    -0.334 C  
BRANCH   3   4
HETATM    4  C   UNL     1     -11.516   8.252  72.576  1.00  0.00    -0.384 C  
BRANCH   4   5
HETATM    5  O   UNL     1     -10.312   7.530  72.826  1.00  0.00    -0.226 OA 
BRANCH   5   6
HETATM    6  C   UNL     1      -9.901   6.806  71.666  1.00  0.00    -0.165 C  
BRANCH   6   7
HETATM    7  C   UNL     1      -8.975   7.668  70.816  1.00  0.00    -0.149 C  
BRANCH   7   8
HETATM    8  O   UNL     1      -8.029   6.855  70.102  1.00  0.00    -0.111 OA 
BRANCH   8   9
HETATM    9  C   UNL     1      -8.386   6.527  68.835  1.00  0.00    -0.122 C  
HETATM   10  O   UNL     1      -8.662   7.309  67.941  1.00  0.00    -0.123 OA 
BRANCH   9  11
HETATM   11  C   UNL     1      -8.440   5.058  68.677  1.00  0.00    -0.087 A  
HETATM   12  C   UNL     1      -9.335   4.524  67.760  1.00  0.00    -0.147 A  
HETATM   13  N   UNL     1      -9.483   3.194  67.535  1.00  0.00    -0.193 NA 
HETATM   14  C   UNL     1      -8.702   2.364  68.258  1.00  0.00    -0.094 A  
HETATM   15  C   UNL     1      -7.779   2.799  69.197  1.00  0.00    -0.048 A  
HETATM   16  C   UNL     1      -7.646   4.170  69.409  1.00  0.00    -0.054 A  
ENDBRANCH   9  11
ENDBRANCH   8   9
ENDBRANCH   7   8
ENDBRANCH   6   7
ENDBRANCH   5   6
ENDBRANCH   4   5
ENDBRANCH   3   4
ENDBRANCH   2   3
TORSDOF 8
ENDMDL
MODEL      330
REMARK 921   NORMALIZED FREE ENERGY PREDICTED BY IDOCK:   -2.02 KCAL/MOL
REMARK 922        TOTAL FREE ENERGY PREDICTED BY IDOCK:   -3.37 KCAL/MOL
REMARK 923 INTER-LIGAND FREE ENERGY PREDICTED BY IDOCK:   -3.16 KCAL/MOL
REMARK 924 INTRA-LIGAND FREE ENERGY PREDICTED BY IDOCK:   -0.22 KCAL/MOL
REMARK 927      BINDING AFFINITY PREDICTED BY RF-SCORE:    0.00 PKD
ROOT
HETATM    1  C   UNL     1     -12.467  13.810  63.782  1.00  0.00    -0.219 C  
HETATM    2  C   UNL     1     -12.045  12.357  63.656  1.00  0.00    -0.648 C  
ENDROOT
BRANCH   2   3
HETATM    3  C   UNL     1     -11.602  11.777  64.997  1.00  0.00    -0.214 C  
BRANCH   3   4
HETATM    4  C   UNL     1     -10.263  11.061  64.868  1.00  0.00    -0.311 C  
BRANCH   4   5
HETATM    5  O   UNL     1     -10.137  10.552  63.542  1.00  0.00    -0.286 OA 
BRANCH   5   6
HETATM    6  C   UNL     1      -8.966  11.066  62.907  1.00  0.00    -0.274 C  
BRANCH   6   7
HETATM    7  C   UNL     1      -7.875  10.001  62.889  1.00  0.00    -0.140 C  
BRANCH   7   8
HETATM    8  O   UNL     1      -8.369   8.751  63.395  1.00  0.00    -0.185 OA 
BRANCH   8   9
HETATM    9  C   UNL     1      -7.777   8.312  64.534  1.00  0.00    -0.123 C  
HETATM   10  O   UNL     1      -6.797   8.801  65.070  1.00  0.00    -0.071 OA 
BRANCH   9  11
HETATM   11  C   UNL     1      -8.465   7.105  65.042  1.00  0.00     0.018 A  
HETATM   12  C   UNL     1      -8.304   5.912  64.350  1.00  0.00    -0.048 A  
HETATM   13  N   UNL     1      -8.892   4.744  64.710  1.00  0.00    -0.152 NA 
HETATM   14  C   UNL     1      -9.674   4.771  65.811  1.00  0.00    -0.188 A  
HETATM   15  C   UNL     1      -9.897   5.911  66.568  1.00  0.00    -0.189 A  
HETATM   16  C   UNL     1      -9.281   7.098  66.176  1.00  0.00    -0.126 A  
ENDBRANCH   9  11
ENDBRANCH   8   9
ENDBRANCH   7   8
ENDBRANCH   6   7
ENDBRANCH   5   6
ENDBRANCH   4   5
ENDBRANCH   3   4
ENDBRANCH   2   3
TORSDOF 8
ENDMDL
MODEL      331
REMARK 921   NORMALIZED FREE ENERGY PREDICTED BY IDOCK:   -1.99 KCAL/MOL
REMARK 922        TOTAL FREE ENERGY PREDICTED BY IDOCK:   -3.33 KCAL/MOL
REMARK 923 INTER-LIGAND FREE ENERGY PREDICTED BY IDOCK:   -3.15 KCAL/MOL
REMARK 924 INTRA-LIGAND FREE ENERGY PREDICTED BY IDOCK:   -0.18 KCAL/MOL
REMARK 927      BINDING AFFINITY PREDICTED BY RF-SCORE:    0.00 PKD
ROOT
HETATM    1  C   UNL     1      -9.655   8.735  71.810  1.00  0.00    -0.371 C  
HETATM    2  C   UNL     1      -8.880   7.453  72.059  1.00  0.00    -0.141 C  
ENDROOT
BRANCH   2   3
HETATM    3  C   UNL     1      -9.808   6.264  72.287  1.00  0.00    -0.175 C  
BRANCH   3   4
HETATM    4  C   UNL     1      -9.545   5.160  71.272  1.00  0.00    -0.162 C  
BRANCH   4   5
HETATM    5  O   UNL     1      -9.249   5.754  70.009  1.00  0.00    -0.142 OA 
BRANCH   5   6
HETATM    6  C   UNL     1     -10.331   5.574  69.095  1.00  0.00    -0.248 C  
BRANCH   6   7
HETATM    7  C   UNL     1     -11.037   6.904  68.856  1.00  0.00    -0.114 C  
BRANCH   7   8
HETATM    8  O   UNL     1     -10.558   7.531  67.655  1.00  0.00    -0.239 OA 
BRANCH   8   9
HETATM    9  C   UNL     1      -9.740   8.597  67.843  1.00  0.00    -0.161 C  
HETATM   10  O   UNL     1      -9.291   8.979  68.911  1.00  0.00    -0.142 OA 
BRANCH   9  11
HETATM   11  C   UNL     1      -9.484   9.285  66.560  1.00  0.00    -0.259 A  
HETATM   12  C   UNL     1     -10.405  10.226  66.119  1.00  0.00    -0.183 A  
HETATM   13  N   UNL     1     -10.286  10.912  64.955  1.00  0.00    -0.289 NA 
HETATM   14  C   UNL     1      -9.197  10.647  64.201  1.00  0.00    -0.236 A  
HETATM   15  C   UNL     1      -8.223   9.726  64.554  1.00  0.00    -0.156 A  
HETATM   16  C   UNL     1      -8.370   9.034  65.755  1.00  0.00    -0.133 A  
ENDBRANCH   9  11
ENDBRANCH   8   9
ENDBRANCH   7   8
ENDBRANCH   6   7
ENDBRANCH   5   6
ENDBRANCH   4   5
ENDBRANCH   3   4
ENDBRANCH   2   3
TORSDOF 8
ENDMDL
MODEL      332
REMARK 921   NORMALIZED FREE ENERGY PREDICTED BY IDOCK:   -1.94 KCAL/MOL
REMARK 922        TOTAL FREE ENERGY PREDICTED BY IDOCK:   -3.26 KCAL/MOL
REMARK 923 INTER-LIGAND FREE ENERGY PREDICTED BY IDOCK:   -2.82 KCAL/MOL
REMARK 924 INTRA-LIGAND FREE ENERGY PREDICTED BY IDOCK:   -0.44 KCAL/MOL
REMARK 927      BINDING AFFINITY PREDICTED BY RF-SCORE:    0.00 PKD
ROOT
HETATM    1  C   UNL     1      -6.028  12.997  68.908  1.00  0.00    -0.079 C  
HETATM    2  C   UNL     1      -5.621  12.541  67.517  1.00  0.00    -0.131 C  
ENDROOT
BRANCH   2   3
HETATM    3  C   UNL     1      -6.425  11.328  67.059  1.00  0.00    -0.114 C  
BRANCH   3   4
HETATM    4  C   UNL     1      -7.631  11.098  67.961  1.00  0.00    -0.100 C  
BRANCH   4   5
HETATM    5  O   UNL     1      -8.374   9.985  67.465  1.00  0.00    -0.117 OA 
BRANCH   5   6
HETATM    6  C   UNL     1      -9.687  10.383  67.070  1.00  0.00    -0.178 C  
BRANCH   6   7
HETATM    7  C   UNL     1     -10.572  10.548  68.301  1.00  0.00    -0.206 C  
BRANCH   7   8
HETATM    8  O   UNL     1     -10.380  11.840  68.900  1.00  0.00    -0.200 OA 
BRANCH   8   9
HETATM    9  C   UNL     1     -11.286  12.785  68.543  1.00  0.00    -0.291 C  
HETATM   10  O   UNL     1     -12.496  12.637  68.489  1.00  0.00     0.126 OA 
BRANCH   9  11
HETATM   11  C   UNL     1     -10.603  14.043  68.177  1.00  0.00    -0.252 A  
HETATM   12  C   UNL     1     -11.173  15.245  68.575  1.00  0.00    -0.303 A  
HETATM   13  N   UNL     1     -10.647  16.462  68.290  1.00  0.00    -0.302 NA 
HETATM   14  C   UNL     1      -9.500  16.478  67.577  1.00  0.00    -0.224 A  
HETATM   15  C   UNL     1      -8.855  15.333  67.133  1.00  0.00    -0.232 A  
HETATM   16  C   UNL     1      -9.417  14.095  67.440  1.00  0.00    -0.220 A  
ENDBRANCH   9  11
ENDBRANCH   8   9
ENDBRANCH   7   8
ENDBRANCH   6   7
ENDBRANCH   5   6
ENDBRANCH   4   5
ENDBRANCH   3   4
ENDBRANCH   2   3
TORSDOF 8
ENDMDL
MODEL      333
REMARK 921   NORMALIZED FREE ENERGY PREDICTED BY IDOCK:   -1.94 KCAL/MOL
REMARK 922        TOTAL FREE ENERGY PREDICTED BY IDOCK:   -3.26 KCAL/MOL
REMARK 923 INTER-LIGAND FREE ENERGY PREDICTED BY IDOCK:   -2.94 KCAL/MOL
REMARK 924 INTRA-LIGAND FREE ENERGY PREDICTED BY IDOCK:   -0.32 KCAL/MOL
REMARK 927      BINDING AFFINITY PREDICTED BY RF-SCORE:    0.00 PKD
ROOT
HETATM    1  C   UNL     1      -5.668   6.646  67.426  1.00  0.00    -0.013 C  
HETATM    2  C   UNL     1      -6.925   6.369  66.618  1.00  0.00    -0.067 C  
ENDROOT
BRANCH   2   3
HETATM    3  C   UNL     1      -7.897   7.546  66.661  1.00  0.00    -0.106 C  
BRANCH   3   4
HETATM    4  C   UNL     1      -9.307   7.079  66.997  1.00  0.00    -0.146 C  
BRANCH   4   5
HETATM    5  O   UNL     1      -9.501   7.173  68.407  1.00  0.00    -0.138 OA 
BRANCH   5   6
HETATM    6  C   UNL     1     -10.495   8.149  68.722  1.00  0.00    -0.174 C  
BRANCH   6   7
HETATM    7  C   UNL     1      -9.831   9.488  69.023  1.00  0.00    -0.176 C  
BRANCH   7   8
HETATM    8  O   UNL     1      -9.906  10.365  67.888  1.00  0.00    -0.151 OA 
BRANCH   8   9
HETATM    9  C   UNL     1      -9.262  11.551  68.028  1.00  0.00    -0.175 C  
HETATM   10  O   UNL     1      -8.323  11.776  68.772  1.00  0.00    -0.113 OA 
BRANCH   9  11
HETATM   11  C   UNL     1      -9.885  12.581  67.169  1.00  0.00    -0.210 A  
HETATM   12  C   UNL     1      -9.780  12.445  65.791  1.00  0.00    -0.200 A  
HETATM   13  N   UNL     1     -10.299  13.329  64.903  1.00  0.00    -0.353 NA 
HETATM   14  C   UNL     1     -10.952  14.394  65.415  1.00  0.00    -0.339 A  
HETATM   15  C   UNL     1     -11.110  14.619  66.774  1.00  0.00    -0.335 A  
HETATM   16  C   UNL     1     -10.567  13.696  67.666  1.00  0.00    -0.245 A  
ENDBRANCH   9  11
ENDBRANCH   8   9
ENDBRANCH   7   8
ENDBRANCH   6   7
ENDBRANCH   5   6
ENDBRANCH   4   5
ENDBRANCH   3   4
ENDBRANCH   2   3
TORSDOF 8
ENDMDL
MODEL      334
REMARK 921   NORMALIZED FREE ENERGY PREDICTED BY IDOCK:   -1.91 KCAL/MOL
REMARK 922        TOTAL FREE ENERGY PREDICTED BY IDOCK:   -3.22 KCAL/MOL
REMARK 923 INTER-LIGAND FREE ENERGY PREDICTED BY IDOCK:   -2.90 KCAL/MOL
REMARK 924 INTRA-LIGAND FREE ENERGY PREDICTED BY IDOCK:   -0.31 KCAL/MOL
REMARK 927      BINDING AFFINITY PREDICTED BY RF-SCORE:    0.00 PKD
ROOT
HETATM    1  C   UNL     1     -11.020  12.227  63.488  1.00  0.00    -0.521 C  
HETATM    2  C   UNL     1     -11.181  11.600  64.863  1.00  0.00    -0.287 C  
ENDROOT
BRANCH   2   3
HETATM    3  C   UNL     1     -10.222  12.211  65.881  1.00  0.00    -0.272 C  
BRANCH   3   4
HETATM    4  C   UNL     1      -9.185  11.192  66.336  1.00  0.00    -0.183 C  
BRANCH   4   5
HETATM    5  O   UNL     1      -9.679   9.880  66.071  1.00  0.00    -0.209 OA 
BRANCH   5   6
HETATM    6  C   UNL     1      -8.696   8.892  66.382  1.00  0.00    -0.129 C  
BRANCH   6   7
HETATM    7  C   UNL     1      -8.955   8.319  67.770  1.00  0.00    -0.136 C  
BRANCH   7   8
HETATM    8  O   UNL     1      -8.515   6.953  67.852  1.00  0.00    -0.119 OA 
BRANCH   8   9
HETATM    9  C   UNL     1      -9.486   6.047  68.128  1.00  0.00    -0.114 C  
HETATM   10  O   UNL     1     -10.449   6.224  68.855  1.00  0.00    -0.185 OA 
BRANCH   9  11
HETATM   11  C   UNL     1      -9.203   4.764  67.451  1.00  0.00    -0.142 A  
HETATM   12  C   UNL     1      -8.723   3.706  68.212  1.00  0.00    -0.104 A  
HETATM   13  N   UNL     1      -8.417   2.487  67.702  1.00  0.00    -0.083 NA 
HETATM   14  C   UNL     1      -8.599   2.318  66.375  1.00  0.00    -0.111 A  
HETATM   15  C   UNL     1      -9.072   3.312  65.531  1.00  0.00    -0.150 A  
HETATM   16  C   UNL     1      -9.379   4.556  66.080  1.00  0.00    -0.156 A  
ENDBRANCH   9  11
ENDBRANCH   8   9
ENDBRANCH   7   8
ENDBRANCH   6   7
ENDBRANCH   5   6
ENDBRANCH   4   5
ENDBRANCH   3   4
ENDBRANCH   2   3
TORSDOF 8
ENDMDL
MODEL      335
REMARK 921   NORMALIZED FREE ENERGY PREDICTED BY IDOCK:   -1.90 KCAL/MOL
REMARK 922        TOTAL FREE ENERGY PREDICTED BY IDOCK:   -3.20 KCAL/MOL
REMARK 923 INTER-LIGAND FREE ENERGY PREDICTED BY IDOCK:   -2.83 KCAL/MOL
REMARK 924 INTRA-LIGAND FREE ENERGY PREDICTED BY IDOCK:   -0.37 KCAL/MOL
REMARK 927      BINDING AFFINITY PREDICTED BY RF-SCORE:    0.00 PKD
ROOT
HETATM    1  C   UNL     1     -11.027  11.656  64.015  1.00  0.00    -0.456 C  
HETATM    2  C   UNL     1     -11.155  11.526  65.524  1.00  0.00    -0.254 C  
ENDROOT
BRANCH   2   3
HETATM    3  C   UNL     1     -10.287  12.546  66.256  1.00  0.00    -0.269 C  
BRANCH   3   4
HETATM    4  C   UNL     1      -9.245  11.855  67.125  1.00  0.00    -0.183 C  
BRANCH   4   5
HETATM    5  O   UNL     1      -9.634  10.496  67.321  1.00  0.00    -0.160 OA 
BRANCH   5   6
HETATM    6  C   UNL     1      -8.725   9.827  68.195  1.00  0.00    -0.119 C  
BRANCH   6   7
HETATM    7  C   UNL     1      -9.323   9.733  69.595  1.00  0.00    -0.219 C  
BRANCH   7   8
HETATM    8  O   UNL     1      -8.799   8.597  70.301  1.00  0.00    -0.138 OA 
BRANCH   8   9
HETATM    9  C   UNL     1      -9.687   7.596  70.528  1.00  0.00    -0.182 C  
HETATM   10  O   UNL     1     -10.771   7.706  71.076  1.00  0.00    -0.224 OA 
BRANCH   9  11
HETATM   11  C   UNL     1      -9.145   6.306  70.049  1.00  0.00    -0.150 A  
HETATM   12  C   UNL     1      -8.796   5.346  70.989  1.00  0.00    -0.139 A  
HETATM   13  N   UNL     1      -8.279   4.132  70.673  1.00  0.00    -0.065 NA 
HETATM   14  C   UNL     1      -8.105   3.868  69.361  1.00  0.00    -0.054 A  
HETATM   15  C   UNL     1      -8.422   4.760  68.348  1.00  0.00    -0.096 A  
HETATM   16  C   UNL     1      -8.951   6.000  68.699  1.00  0.00    -0.118 A  
ENDBRANCH   9  11
ENDBRANCH   8   9
ENDBRANCH   7   8
ENDBRANCH   6   7
ENDBRANCH   5   6
ENDBRANCH   4   5
ENDBRANCH   3   4
ENDBRANCH   2   3
TORSDOF 8
ENDMDL
MODEL      336
REMARK 921   NORMALIZED FREE ENERGY PREDICTED BY IDOCK:   -1.89 KCAL/MOL
REMARK 922        TOTAL FREE ENERGY PREDICTED BY IDOCK:   -3.19 KCAL/MOL
REMARK 923 INTER-LIGAND FREE ENERGY PREDICTED BY IDOCK:   -2.62 KCAL/MOL
REMARK 924 INTRA-LIGAND FREE ENERGY PREDICTED BY IDOCK:   -0.57 KCAL/MOL
REMARK 927      BINDING AFFINITY PREDICTED BY RF-SCORE:    0.00 PKD
ROOT
HETATM    1  C   UNL     1      -9.789  10.678  66.516  1.00  0.00    -0.250 C  
HETATM    2  C   UNL     1     -10.207  11.727  67.532  1.00  0.00    -0.214 C  
ENDROOT
BRANCH   2   3
HETATM    3  C   UNL     1     -11.593  11.444  68.103  1.00  0.00    -0.364 C  
BRANCH   3   4
HETATM    4  C   UNL     1     -11.528  11.208  69.607  1.00  0.00    -0.310 C  
BRANCH   4   5
HETATM    5  O   UNL     1     -10.561  10.194  69.874  1.00  0.00    -0.251 OA 
BRANCH   5   6
HETATM    6  C   UNL     1     -11.159   9.081  70.539  1.00  0.00    -0.254 C  
BRANCH   6   7
HETATM    7  C   UNL     1     -10.654   7.779  69.929  1.00  0.00    -0.239 C  
BRANCH   7   8
HETATM    8  O   UNL     1      -9.689   8.036  68.896  1.00  0.00    -0.155 OA 
BRANCH   8   9
HETATM    9  C   UNL     1      -8.767   7.059  68.707  1.00  0.00    -0.127 C  
HETATM   10  O   UNL     1      -8.836   6.153  67.894  1.00  0.00    -0.113 OA 
BRANCH   9  11
HETATM   11  C   UNL     1      -7.652   7.209  69.666  1.00  0.00    -0.104 A  
HETATM   12  C   UNL     1      -7.330   6.130  70.479  1.00  0.00    -0.085 A  
HETATM   13  N   UNL     1      -6.338   6.151  71.404  1.00  0.00    -0.047 NA 
HETATM   14  C   UNL     1      -5.636   7.299  71.519  1.00  0.00    -0.036 A  
HETATM   15  C   UNL     1      -5.882   8.430  70.754  1.00  0.00    -0.032 A  
HETATM   16  C   UNL     1      -6.907   8.382  69.812  1.00  0.00    -0.043 A  
ENDBRANCH   9  11
ENDBRANCH   8   9
ENDBRANCH   7   8
ENDBRANCH   6   7
ENDBRANCH   5   6
ENDBRANCH   4   5
ENDBRANCH   3   4
ENDBRANCH   2   3
TORSDOF 8
ENDMDL
MODEL      337
REMARK 921   NORMALIZED FREE ENERGY PREDICTED BY IDOCK:   -1.89 KCAL/MOL
REMARK 922        TOTAL FREE ENERGY PREDICTED BY IDOCK:   -3.19 KCAL/MOL
REMARK 923 INTER-LIGAND FREE ENERGY PREDICTED BY IDOCK:   -2.79 KCAL/MOL
REMARK 924 INTRA-LIGAND FREE ENERGY PREDICTED BY IDOCK:   -0.40 KCAL/MOL
REMARK 927      BINDING AFFINITY PREDICTED BY RF-SCORE:    0.00 PKD
ROOT
HETATM    1  C   UNL     1     -13.701   9.186  71.332  1.00  0.00    -0.326 C  
HETATM    2  C   UNL     1     -13.770   7.669  71.336  1.00  0.00    -0.392 C  
ENDROOT
BRANCH   2   3
HETATM    3  C   UNL     1     -12.414   7.038  71.031  1.00  0.00    -0.373 C  
BRANCH   3   4
HETATM    4  C   UNL     1     -11.783   6.460  72.292  1.00  0.00    -0.290 C  
BRANCH   4   5
HETATM    5  O   UNL     1     -10.591   5.763  71.935  1.00  0.00    -0.217 OA 
BRANCH   5   6
HETATM    6  C   UNL     1      -9.498   6.164  72.761  1.00  0.00    -0.151 C  
BRANCH   6   7
HETATM    7  C   UNL     1      -8.304   6.548  71.895  1.00  0.00    -0.115 C  
BRANCH   7   8
HETATM    8  O   UNL     1      -8.735   7.016  70.606  1.00  0.00    -0.146 OA 
BRANCH   8   9
HETATM    9  C   UNL     1      -8.121   8.142  70.163  1.00  0.00    -0.113 C  
HETATM   10  O   UNL     1      -7.879   9.138  70.825  1.00  0.00    -0.125 OA 
BRANCH   9  11
HETATM   11  C   UNL     1      -7.805   8.026  68.724  1.00  0.00    -0.114 A  
HETATM   12  C   UNL     1      -6.471   7.973  68.341  1.00  0.00    -0.058 A  
HETATM   13  N   UNL     1      -6.057   7.878  67.053  1.00  0.00    -0.051 NA 
HETATM   14  C   UNL     1      -7.019   7.834  66.107  1.00  0.00    -0.062 A  
HETATM   15  C   UNL     1      -8.376   7.881  66.387  1.00  0.00    -0.129 A  
HETATM   16  C   UNL     1      -8.775   7.978  67.719  1.00  0.00    -0.127 A  
ENDBRANCH   9  11
ENDBRANCH   8   9
ENDBRANCH   7   8
ENDBRANCH   6   7
ENDBRANCH   5   6
ENDBRANCH   4   5
ENDBRANCH   3   4
ENDBRANCH   2   3
TORSDOF 8
ENDMDL
MODEL      338
REMARK 921   NORMALIZED FREE ENERGY PREDICTED BY IDOCK:   -1.88 KCAL/MOL
REMARK 922        TOTAL FREE ENERGY PREDICTED BY IDOCK:   -3.18 KCAL/MOL
REMARK 923 INTER-LIGAND FREE ENERGY PREDICTED BY IDOCK:   -2.75 KCAL/MOL
REMARK 924 INTRA-LIGAND FREE ENERGY PREDICTED BY IDOCK:   -0.42 KCAL/MOL
REMARK 927      BINDING AFFINITY PREDICTED BY RF-SCORE:    0.00 PKD
ROOT
HETATM    1  C   UNL     1     -12.514   6.751  71.822  1.00  0.00    -0.394 C  
HETATM    2  C   UNL     1     -11.129   6.734  71.199  1.00  0.00    -0.313 C  
ENDROOT
BRANCH   2   3
HETATM    3  C   UNL     1     -10.830   8.027  70.445  1.00  0.00    -0.247 C  
BRANCH   3   4
HETATM    4  C   UNL     1      -9.345   8.146  70.129  1.00  0.00    -0.159 C  
BRANCH   4   5
HETATM    5  O   UNL     1      -9.189   8.444  68.742  1.00  0.00    -0.143 OA 
BRANCH   5   6
HETATM    6  C   UNL     1     -10.449   8.416  68.071  1.00  0.00    -0.184 C  
BRANCH   6   7
HETATM    7  C   UNL     1     -10.343   7.576  66.803  1.00  0.00    -0.262 C  
BRANCH   7   8
HETATM    8  O   UNL     1      -9.184   6.728  66.844  1.00  0.00    -0.133 OA 
BRANCH   8   9
HETATM    9  C   UNL     1      -8.510   6.609  65.673  1.00  0.00    -0.144 C  
HETATM   10  O   UNL     1      -8.456   5.612  64.972  1.00  0.00    -0.144 OA 
BRANCH   9  11
HETATM   11  C   UNL     1      -7.793   7.864  65.360  1.00  0.00    -0.112 A  
HETATM   12  C   UNL     1      -8.143   8.555  64.207  1.00  0.00    -0.155 A  
HETATM   13  N   UNL     1      -7.551   9.708  63.809  1.00  0.00    -0.120 NA 
HETATM   14  C   UNL     1      -6.568  10.192  64.598  1.00  0.00    -0.125 A  
HETATM   15  C   UNL     1      -6.147   9.576  65.767  1.00  0.00    -0.060 A  
HETATM   16  C   UNL     1      -6.772   8.392  66.154  1.00  0.00    -0.061 A  
ENDBRANCH   9  11
ENDBRANCH   8   9
ENDBRANCH   7   8
ENDBRANCH   6   7
ENDBRANCH   5   6
ENDBRANCH   4   5
ENDBRANCH   3   4
ENDBRANCH   2   3
TORSDOF 8
ENDMDL
MODEL      339
REMARK 921   NORMALIZED FREE ENERGY PREDICTED BY IDOCK:   -1.86 KCAL/MOL
REMARK 922        TOTAL FREE ENERGY PREDICTED BY IDOCK:   -3.14 KCAL/MOL
REMARK 923 INTER-LIGAND FREE ENERGY PREDICTED BY IDOCK:   -2.74 KCAL/MOL
REMARK 924 INTRA-LIGAND FREE ENERGY PREDICTED BY IDOCK:   -0.40 KCAL/MOL
REMARK 927      BINDING AFFINITY PREDICTED BY RF-SCORE:    0.00 PKD
ROOT
HETATM    1  C   UNL     1      -7.370   6.420  68.552  1.00  0.00    -0.087 C  
HETATM    2  C   UNL     1      -7.119   7.548  69.537  1.00  0.00    -0.069 C  
ENDROOT
BRANCH   2   3
HETATM    3  C   UNL     1      -6.763   8.852  68.828  1.00  0.00    -0.054 C  
BRANCH   3   4
HETATM    4  C   UNL     1      -8.017   9.603  68.400  1.00  0.00    -0.096 C  
BRANCH   4   5
HETATM    5  O   UNL     1      -8.131  10.793  69.180  1.00  0.00    -0.152 OA 
BRANCH   5   6
HETATM    6  C   UNL     1      -6.847  11.362  69.434  1.00  0.00    -0.112 C  
BRANCH   6   7
HETATM    7  C   UNL     1      -6.674  12.641  68.623  1.00  0.00    -0.088 C  
BRANCH   7   8
HETATM    8  O   UNL     1      -7.920  13.046  68.032  1.00  0.00    -0.131 OA 
BRANCH   8   9
HETATM    9  C   UNL     1      -8.107  14.386  67.936  1.00  0.00    -0.151 C  
HETATM   10  O   UNL     1      -7.265  15.209  67.616  1.00  0.00    -0.150 OA 
BRANCH   9  11
HETATM   11  C   UNL     1      -9.490  14.743  68.317  1.00  0.00    -0.207 A  
HETATM   12  C   UNL     1      -9.824  16.087  68.411  1.00  0.00    -0.213 A  
HETATM   13  N   UNL     1     -11.055  16.538  68.762  1.00  0.00    -0.330 NA 
HETATM   14  C   UNL     1     -11.992  15.602  69.029  1.00  0.00    -0.304 A  
HETATM   15  C   UNL     1     -11.756  14.237  68.963  1.00  0.00    -0.352 A  
HETATM   16  C   UNL     1     -10.483  13.801  68.600  1.00  0.00    -0.245 A  
ENDBRANCH   9  11
ENDBRANCH   8   9
ENDBRANCH   7   8
ENDBRANCH   6   7
ENDBRANCH   5   6
ENDBRANCH   4   5
ENDBRANCH   3   4
ENDBRANCH   2   3
TORSDOF 8
ENDMDL
MODEL      340
REMARK 921   NORMALIZED FREE ENERGY PREDICTED BY IDOCK:   -1.84 KCAL/MOL
REMARK 922        TOTAL FREE ENERGY PREDICTED BY IDOCK:   -3.12 KCAL/MOL
REMARK 923 INTER-LIGAND FREE ENERGY PREDICTED BY IDOCK:   -3.70 KCAL/MOL
REMARK 924 INTRA-LIGAND FREE ENERGY PREDICTED BY IDOCK:    0.58 KCAL/MOL
REMARK 927      BINDING AFFINITY PREDICTED BY RF-SCORE:    0.00 PKD
ROOT
HETATM    1  C   UNL     1      -9.014  15.381  69.266  1.00  0.00    -0.261 C  
HETATM    2  C   UNL     1      -7.507  15.477  69.434  1.00  0.00    -0.219 C  
ENDROOT
BRANCH   2   3
HETATM    3  C   UNL     1      -6.772  15.203  68.125  1.00  0.00    -0.139 C  
BRANCH   3   4
HETATM    4  C   UNL     1      -5.298  15.572  68.237  1.00  0.00    -0.110 C  
BRANCH   4   5
HETATM    5  O   UNL     1      -5.170  16.991  68.169  1.00  0.00    -0.115 OA 
BRANCH   5   6
HETATM    6  C   UNL     1      -6.306  17.575  67.530  1.00  0.00    -0.150 C  
BRANCH   6   7
HETATM    7  C   UNL     1      -5.872  18.301  66.261  1.00  0.00    -0.170 C  
BRANCH   7   8
HETATM    8  O   UNL     1      -6.390  19.641  66.235  1.00  0.00    -0.174 OA 
BRANCH   8   9
HETATM    9  C   UNL     1      -6.905  20.087  67.409  1.00  0.00    -0.226 C  
HETATM   10  O   UNL     1      -6.268  20.501  68.362  1.00  0.00    -0.290 OA 
BRANCH   9  11
HETATM   11  C   UNL     1      -8.379  19.968  67.404  1.00  0.00    -0.382 A  
HETATM   12  C   UNL     1      -9.012  19.546  68.566  1.00  0.00    -0.345 A  
HETATM   13  N   UNL     1     -10.354  19.388  68.681  1.00  0.00    -0.342 NA 
HETATM   14  C   UNL     1     -11.095  19.666  67.586  1.00  0.00    -0.001 A  
HETATM   15  C   UNL     1     -10.557  20.092  66.381  1.00  0.00    -0.460 A  
HETATM   16  C   UNL     1      -9.175  20.246  66.290  1.00  0.00    -0.316 A  
ENDBRANCH   9  11
ENDBRANCH   8   9
ENDBRANCH   7   8
ENDBRANCH   6   7
ENDBRANCH   5   6
ENDBRANCH   4   5
ENDBRANCH   3   4
ENDBRANCH   2   3
TORSDOF 8
ENDMDL
MODEL      341
REMARK 921   NORMALIZED FREE ENERGY PREDICTED BY IDOCK:   -1.84 KCAL/MOL
REMARK 922        TOTAL FREE ENERGY PREDICTED BY IDOCK:   -3.12 KCAL/MOL
REMARK 923 INTER-LIGAND FREE ENERGY PREDICTED BY IDOCK:   -2.75 KCAL/MOL
REMARK 924 INTRA-LIGAND FREE ENERGY PREDICTED BY IDOCK:   -0.37 KCAL/MOL
REMARK 927      BINDING AFFINITY PREDICTED BY RF-SCORE:    0.00 PKD
ROOT
HETATM    1  C   UNL     1     -12.516   6.746  71.822  1.00  0.00    -0.394 C  
HETATM    2  C   UNL     1     -11.127   6.690  71.210  1.00  0.00    -0.312 C  
ENDROOT
BRANCH   2   3
HETATM    3  C   UNL     1     -10.799   7.959  70.428  1.00  0.00    -0.244 C  
BRANCH   3   4
HETATM    4  C   UNL     1      -9.309   8.045  70.122  1.00  0.00    -0.156 C  
BRANCH   4   5
HETATM    5  O   UNL     1      -9.137   8.275  68.725  1.00  0.00    -0.144 OA 
BRANCH   5   6
HETATM    6  C   UNL     1     -10.390   8.234  68.042  1.00  0.00    -0.213 C  
BRANCH   6   7
HETATM    7  C   UNL     1     -10.294   7.309  66.834  1.00  0.00    -0.288 C  
BRANCH   7   8
HETATM    8  O   UNL     1      -9.160   6.433  66.948  1.00  0.00    -0.126 OA 
BRANCH   8   9
HETATM    9  C   UNL     1      -8.485   6.207  65.793  1.00  0.00    -0.147 C  
HETATM   10  O   UNL     1      -7.971   7.054  65.082  1.00  0.00    -0.117 OA 
BRANCH   9  11
HETATM   11  C   UNL     1      -8.483   4.764  65.470  1.00  0.00    -0.127 A  
HETATM   12  C   UNL     1      -7.265   4.100  65.414  1.00  0.00    -0.071 A  
HETATM   13  N   UNL     1      -7.134   2.783  65.118  1.00  0.00    -0.053 NA 
HETATM   14  C   UNL     1      -8.272   2.100  64.868  1.00  0.00    -0.080 A  
HETATM   15  C   UNL     1      -9.535   2.672  64.898  1.00  0.00    -0.094 A  
HETATM   16  C   UNL     1      -9.641   4.027  65.205  1.00  0.00    -0.185 A  
ENDBRANCH   9  11
ENDBRANCH   8   9
ENDBRANCH   7   8
ENDBRANCH   6   7
ENDBRANCH   5   6
ENDBRANCH   4   5
ENDBRANCH   3   4
ENDBRANCH   2   3
TORSDOF 8
ENDMDL
MODEL      342
REMARK 921   NORMALIZED FREE ENERGY PREDICTED BY IDOCK:   -1.83 KCAL/MOL
REMARK 922        TOTAL FREE ENERGY PREDICTED BY IDOCK:   -3.10 KCAL/MOL
REMARK 923 INTER-LIGAND FREE ENERGY PREDICTED BY IDOCK:   -2.76 KCAL/MOL
REMARK 924 INTRA-LIGAND FREE ENERGY PREDICTED BY IDOCK:   -0.34 KCAL/MOL
REMARK 927      BINDING AFFINITY PREDICTED BY RF-SCORE:    0.00 PKD
ROOT
HETATM    1  C   UNL     1      -5.153  10.927  69.121  1.00  0.00    -0.041 C  
HETATM    2  C   UNL     1      -5.260  10.846  67.608  1.00  0.00    -0.040 C  
ENDROOT
BRANCH   2   3
HETATM    3  C   UNL     1      -6.711  10.910  67.137  1.00  0.00    -0.088 C  
BRANCH   3   4
HETATM    4  C   UNL     1      -7.085   9.662  66.347  1.00  0.00    -0.093 C  
BRANCH   4   5
HETATM    5  O   UNL     1      -6.929   8.519  67.186  1.00  0.00    -0.072 OA 
BRANCH   5   6
HETATM    6  C   UNL     1      -7.891   8.525  68.241  1.00  0.00    -0.106 C  
BRANCH   6   7
HETATM    7  C   UNL     1      -9.294   8.682  67.664  1.00  0.00    -0.137 C  
BRANCH   7   8
HETATM    8  O   UNL     1     -10.272   8.068  68.520  1.00  0.00    -0.198 OA 
BRANCH   8   9
HETATM    9  C   UNL     1     -10.699   8.835  69.555  1.00  0.00    -0.188 C  
HETATM   10  O   UNL     1     -11.084   9.990  69.483  1.00  0.00    -0.233 OA 
BRANCH   9  11
HETATM   11  C   UNL     1     -10.599   8.088  70.826  1.00  0.00    -0.228 A  
HETATM   12  C   UNL     1     -10.508   6.703  70.774  1.00  0.00    -0.216 A  
HETATM   13  N   UNL     1     -10.423   5.909  71.871  1.00  0.00    -0.213 NA 
HETATM   14  C   UNL     1     -10.429   6.527  73.071  1.00  0.00    -0.234 A  
HETATM   15  C   UNL     1     -10.517   7.902  73.228  1.00  0.00    -0.259 A  
HETATM   16  C   UNL     1     -10.603   8.695  72.085  1.00  0.00    -0.411 A  
ENDBRANCH   9  11
ENDBRANCH   8   9
ENDBRANCH   7   8
ENDBRANCH   6   7
ENDBRANCH   5   6
ENDBRANCH   4   5
ENDBRANCH   3   4
ENDBRANCH   2   3
TORSDOF 8
ENDMDL
MODEL      343
REMARK 921   NORMALIZED FREE ENERGY PREDICTED BY IDOCK:   -1.79 KCAL/MOL
REMARK 922        TOTAL FREE ENERGY PREDICTED BY IDOCK:   -3.04 KCAL/MOL
REMARK 923 INTER-LIGAND FREE ENERGY PREDICTED BY IDOCK:   -2.77 KCAL/MOL
REMARK 924 INTRA-LIGAND FREE ENERGY PREDICTED BY IDOCK:   -0.27 KCAL/MOL
REMARK 927      BINDING AFFINITY PREDICTED BY RF-SCORE:    0.00 PKD
ROOT
HETATM    1  C   UNL     1     -10.897   7.221  73.275  1.00  0.00    -0.404 C  
HETATM    2  C   UNL     1     -10.607   5.959  72.480  1.00  0.00    -0.256 C  
ENDROOT
BRANCH   2   3
HETATM    3  C   UNL     1      -9.231   6.007  71.822  1.00  0.00    -0.151 C  
BRANCH   3   4
HETATM    4  C   UNL     1      -9.207   5.183  70.541  1.00  0.00    -0.146 C  
BRANCH   4   5
HETATM    5  O   UNL     1      -8.332   5.810  69.605  1.00  0.00    -0.109 OA 
BRANCH   5   6
HETATM    6  C   UNL     1      -8.687   7.179  69.411  1.00  0.00    -0.134 C  
BRANCH   6   7
HETATM    7  C   UNL     1      -8.018   7.717  68.151  1.00  0.00    -0.123 C  
BRANCH   7   8
HETATM    8  O   UNL     1      -8.999   8.142  67.191  1.00  0.00    -0.134 OA 
BRANCH   8   9
HETATM    9  C   UNL     1      -9.899   7.195  66.823  1.00  0.00    -0.205 C  
HETATM   10  O   UNL     1     -11.095   7.208  67.061  1.00  0.00    -0.345 OA 
BRANCH   9  11
HETATM   11  C   UNL     1      -9.223   6.091  66.110  1.00  0.00    -0.154 A  
HETATM   12  C   UNL     1      -9.533   4.785  66.468  1.00  0.00    -0.156 A  
HETATM   13  N   UNL     1      -8.971   3.691  65.895  1.00  0.00    -0.135 NA 
HETATM   14  C   UNL     1      -8.061   3.913  64.922  1.00  0.00    -0.093 A  
HETATM   15  C   UNL     1      -7.685   5.177  64.495  1.00  0.00    -0.087 A  
HETATM   16  C   UNL     1      -8.277   6.284  65.100  1.00  0.00    -0.138 A  
ENDBRANCH   9  11
ENDBRANCH   8   9
ENDBRANCH   7   8
ENDBRANCH   6   7
ENDBRANCH   5   6
ENDBRANCH   4   5
ENDBRANCH   3   4
ENDBRANCH   2   3
TORSDOF 8
ENDMDL
MODEL      344
REMARK 921   NORMALIZED FREE ENERGY PREDICTED BY IDOCK:   -1.75 KCAL/MOL
REMARK 922        TOTAL FREE ENERGY PREDICTED BY IDOCK:   -2.97 KCAL/MOL
REMARK 923 INTER-LIGAND FREE ENERGY PREDICTED BY IDOCK:   -2.78 KCAL/MOL
REMARK 924 INTRA-LIGAND FREE ENERGY PREDICTED BY IDOCK:   -0.19 KCAL/MOL
REMARK 927      BINDING AFFINITY PREDICTED BY RF-SCORE:    0.00 PKD
ROOT
HETATM    1  C   UNL     1      -5.144   7.888  69.790  1.00  0.00    -0.023 C  
HETATM    2  C   UNL     1      -5.137   6.752  68.782  1.00  0.00    -0.012 C  
ENDROOT
BRANCH   2   3
HETATM    3  C   UNL     1      -5.989   7.076  67.557  1.00  0.00    -0.025 C  
BRANCH   3   4
HETATM    4  C   UNL     1      -7.449   6.711  67.794  1.00  0.00    -0.098 C  
BRANCH   4   5
HETATM    5  O   UNL     1      -8.075   7.762  68.529  1.00  0.00    -0.120 OA 
BRANCH   5   6
HETATM    6  C   UNL     1      -9.441   7.912  68.142  1.00  0.00    -0.147 C  
BRANCH   6   7
HETATM    7  C   UNL     1     -10.333   7.925  69.378  1.00  0.00    -0.220 C  
BRANCH   7   8
HETATM    8  O   UNL     1     -11.240   6.810  69.369  1.00  0.00    -0.268 OA 
BRANCH   8   9
HETATM    9  C   UNL     1     -11.792   6.501  70.569  1.00  0.00    -0.328 C  
HETATM   10  O   UNL     1     -12.756   7.047  71.079  1.00  0.00    -0.367 OA 
BRANCH   9  11
HETATM   11  C   UNL     1     -11.032   5.414  71.222  1.00  0.00    -0.135 A  
HETATM   12  C   UNL     1     -11.198   5.218  72.587  1.00  0.00    -0.248 A  
HETATM   13  N   UNL     1     -10.549   4.263  73.298  1.00  0.00    -0.187 NA 
HETATM   14  C   UNL     1      -9.697   3.469  72.614  1.00  0.00    -0.142 A  
HETATM   15  C   UNL     1      -9.463   3.585  71.252  1.00  0.00    -0.229 A  
HETATM   16  C   UNL     1     -10.143   4.575  70.545  1.00  0.00    -0.233 A  
ENDBRANCH   9  11
ENDBRANCH   8   9
ENDBRANCH   7   8
ENDBRANCH   6   7
ENDBRANCH   5   6
ENDBRANCH   4   5
ENDBRANCH   3   4
ENDBRANCH   2   3
TORSDOF 8
ENDMDL
MODEL      345
REMARK 921   NORMALIZED FREE ENERGY PREDICTED BY IDOCK:   -1.69 KCAL/MOL
REMARK 922        TOTAL FREE ENERGY PREDICTED BY IDOCK:   -2.90 KCAL/MOL
REMARK 923 INTER-LIGAND FREE ENERGY PREDICTED BY IDOCK:   -2.47 KCAL/MOL
REMARK 924 INTRA-LIGAND FREE ENERGY PREDICTED BY IDOCK:   -0.43 KCAL/MOL
REMARK 927      BINDING AFFINITY PREDICTED BY RF-SCORE:    0.00 PKD
ROOT
HETATM    1  C   UNL     1      -9.220  15.789  69.001  1.00  0.00    -0.243 C  
HETATM    2  C   UNL     1      -7.812  15.375  69.394  1.00  0.00    -0.232 C  
ENDROOT
BRANCH   2   3
HETATM    3  C   UNL     1      -7.347  14.142  68.623  1.00  0.00    -0.126 C  
BRANCH   3   4
HETATM    4  C   UNL     1      -8.269  13.852  67.446  1.00  0.00    -0.187 C  
BRANCH   4   5
HETATM    5  O   UNL     1      -8.841  12.556  67.615  1.00  0.00    -0.161 OA 
BRANCH   5   6
HETATM    6  C   UNL     1      -7.963  11.703  68.350  1.00  0.00    -0.140 C  
BRANCH   6   7
HETATM    7  C   UNL     1      -7.194  10.799  67.393  1.00  0.00    -0.093 C  
BRANCH   7   8
HETATM    8  O   UNL     1      -7.214   9.436  67.848  1.00  0.00    -0.081 OA 
BRANCH   8   9
HETATM    9  C   UNL     1      -8.413   8.809  67.748  1.00  0.00    -0.125 C  
HETATM   10  O   UNL     1      -9.103   8.732  66.745  1.00  0.00    -0.134 OA 
BRANCH   9  11
HETATM   11  C   UNL     1      -8.812   8.247  69.056  1.00  0.00    -0.143 A  
HETATM   12  C   UNL     1      -9.934   8.770  69.685  1.00  0.00    -0.191 A  
HETATM   13  N   UNL     1     -10.391   8.346  70.890  1.00  0.00    -0.191 NA 
HETATM   14  C   UNL     1      -9.697   7.355  71.490  1.00  0.00    -0.159 A  
HETATM   15  C   UNL     1      -8.565   6.769  70.944  1.00  0.00    -0.137 A  
HETATM   16  C   UNL     1      -8.116   7.224  69.705  1.00  0.00    -0.129 A  
ENDBRANCH   9  11
ENDBRANCH   8   9
ENDBRANCH   7   8
ENDBRANCH   6   7
ENDBRANCH   5   6
ENDBRANCH   4   5
ENDBRANCH   3   4
ENDBRANCH   2   3
TORSDOF 8
ENDMDL
MODEL      346
REMARK 921   NORMALIZED FREE ENERGY PREDICTED BY IDOCK:   -1.65 KCAL/MOL
REMARK 922        TOTAL FREE ENERGY PREDICTED BY IDOCK:   -2.83 KCAL/MOL
REMARK 923 INTER-LIGAND FREE ENERGY PREDICTED BY IDOCK:   -2.42 KCAL/MOL
REMARK 924 INTRA-LIGAND FREE ENERGY PREDICTED BY IDOCK:   -0.41 KCAL/MOL
REMARK 927      BINDING AFFINITY PREDICTED BY RF-SCORE:    0.00 PKD
ROOT
HETATM    1  C   UNL     1      -8.452   8.366  71.293  1.00  0.00    -0.183 C  
HETATM    2  C   UNL     1      -7.582   8.344  72.538  1.00  0.00    -0.134 C  
ENDROOT
BRANCH   2   3
HETATM    3  C   UNL     1      -8.398   8.055  73.795  1.00  0.00    -0.311 C  
BRANCH   3   4
HETATM    4  C   UNL     1      -7.964   6.745  74.440  1.00  0.00    -0.122 C  
BRANCH   4   5
HETATM    5  O   UNL     1      -8.113   5.690  73.490  1.00  0.00    -0.112 OA 
BRANCH   5   6
HETATM    6  C   UNL     1      -9.429   5.140  73.541  1.00  0.00    -0.133 C  
BRANCH   6   7
HETATM    7  C   UNL     1     -10.148   5.388  72.219  1.00  0.00    -0.186 C  
BRANCH   7   8
HETATM    8  O   UNL     1     -10.531   4.148  71.603  1.00  0.00    -0.045 OA 
BRANCH   8   9
HETATM    9  C   UNL     1      -9.649   3.651  70.700  1.00  0.00    -0.183 C  
HETATM   10  O   UNL     1      -9.173   2.529  70.702  1.00  0.00    -0.108 OA 
BRANCH   9  11
HETATM   11  C   UNL     1      -9.293   4.684  69.704  1.00  0.00    -0.212 A  
HETATM   12  C   UNL     1      -7.948   4.938  69.466  1.00  0.00    -0.070 A  
HETATM   13  N   UNL     1      -7.499   5.868  68.587  1.00  0.00    -0.084 NA 
HETATM   14  C   UNL     1      -8.435   6.573  67.915  1.00  0.00    -0.118 A  
HETATM   15  C   UNL     1      -9.800   6.394  68.083  1.00  0.00    -0.127 A  
HETATM   16  C   UNL     1     -10.235   5.433  68.993  1.00  0.00    -0.291 A  
ENDBRANCH   9  11
ENDBRANCH   8   9
ENDBRANCH   7   8
ENDBRANCH   6   7
ENDBRANCH   5   6
ENDBRANCH   4   5
ENDBRANCH   3   4
ENDBRANCH   2   3
TORSDOF 8
ENDMDL
MODEL      347
REMARK 921   NORMALIZED FREE ENERGY PREDICTED BY IDOCK:   -1.64 KCAL/MOL
REMARK 922        TOTAL FREE ENERGY PREDICTED BY IDOCK:   -2.82 KCAL/MOL
REMARK 923 INTER-LIGAND FREE ENERGY PREDICTED BY IDOCK:   -2.88 KCAL/MOL
REMARK 924 INTRA-LIGAND FREE ENERGY PREDICTED BY IDOCK:    0.06 KCAL/MOL
REMARK 927      BINDING AFFINITY PREDICTED BY RF-SCORE:    0.00 PKD
ROOT
HETATM    1  C   UNL     1     -10.563  12.018  63.694  1.00  0.00    -0.503 C  
HETATM    2  C   UNL     1     -10.370  10.871  64.671  1.00  0.00    -0.407 C  
ENDROOT
BRANCH   2   3
HETATM    3  C   UNL     1     -10.757  11.266  66.094  1.00  0.00    -0.307 C  
BRANCH   3   4
HETATM    4  C   UNL     1      -9.836  10.610  67.114  1.00  0.00    -0.175 C  
BRANCH   4   5
HETATM    5  O   UNL     1     -10.061   9.201  67.103  1.00  0.00    -0.199 OA 
BRANCH   5   6
HETATM    6  C   UNL     1      -8.830   8.489  66.984  1.00  0.00    -0.133 C  
BRANCH   6   7
HETATM    7  C   UNL     1      -8.522   7.763  68.289  1.00  0.00    -0.124 C  
BRANCH   7   8
HETATM    8  O   UNL     1      -8.694   6.344  68.139  1.00  0.00    -0.117 OA 
BRANCH   8   9
HETATM    9  C   UNL     1      -9.375   5.734  69.142  1.00  0.00    -0.123 C  
HETATM   10  O   UNL     1     -10.521   5.323  69.087  1.00  0.00    -0.219 OA 
BRANCH   9  11
HETATM   11  C   UNL     1      -8.542   5.662  70.362  1.00  0.00    -0.132 A  
HETATM   12  C   UNL     1      -7.160   5.654  70.219  1.00  0.00    -0.063 A  
HETATM   13  N   UNL     1      -6.294   5.579  71.260  1.00  0.00    -0.034 NA 
HETATM   14  C   UNL     1      -6.832   5.511  72.497  1.00  0.00    -0.077 A  
HETATM   15  C   UNL     1      -8.197   5.512  72.742  1.00  0.00    -0.109 A  
HETATM   16  C   UNL     1      -9.066   5.589  71.655  1.00  0.00    -0.155 A  
ENDBRANCH   9  11
ENDBRANCH   8   9
ENDBRANCH   7   8
ENDBRANCH   6   7
ENDBRANCH   5   6
ENDBRANCH   4   5
ENDBRANCH   3   4
ENDBRANCH   2   3
TORSDOF 8
ENDMDL
MODEL      348
REMARK 921   NORMALIZED FREE ENERGY PREDICTED BY IDOCK:   -1.56 KCAL/MOL
REMARK 922        TOTAL FREE ENERGY PREDICTED BY IDOCK:   -2.70 KCAL/MOL
REMARK 923 INTER-LIGAND FREE ENERGY PREDICTED BY IDOCK:   -2.20 KCAL/MOL
REMARK 924 INTRA-LIGAND FREE ENERGY PREDICTED BY IDOCK:   -0.49 KCAL/MOL
REMARK 927      BINDING AFFINITY PREDICTED BY RF-SCORE:    0.00 PKD
ROOT
HETATM    1  C   UNL     1      -7.081   6.785  68.780  1.00  0.00    -0.086 C  
HETATM    2  C   UNL     1      -7.553   7.804  67.757  1.00  0.00    -0.113 C  
ENDROOT
BRANCH   2   3
HETATM    3  C   UNL     1      -7.988   7.140  66.454  1.00  0.00    -0.112 C  
BRANCH   3   4
HETATM    4  C   UNL     1      -6.932   6.160  65.959  1.00  0.00    -0.062 C  
BRANCH   4   5
HETATM    5  O   UNL     1      -7.522   4.866  65.840  1.00  0.00    -0.080 OA 
BRANCH   5   6
HETATM    6  C   UNL     1      -8.552   4.864  64.852  1.00  0.00    -0.148 C  
BRANCH   6   7
HETATM    7  C   UNL     1      -9.426   3.626  65.014  1.00  0.00    -0.161 C  
BRANCH   7   8
HETATM    8  O   UNL     1      -9.899   3.506  66.366  1.00  0.00    -0.091 OA 
BRANCH   8   9
HETATM    9  C   UNL     1      -9.111   2.773  67.193  1.00  0.00    -0.165 C  
HETATM   10  O   UNL     1      -8.362   1.871  66.859  1.00  0.00    -0.078 OA 
BRANCH   9  11
HETATM   11  C   UNL     1      -9.308   3.190  68.597  1.00  0.00    -0.236 A  
HETATM   12  C   UNL     1      -8.993   2.288  69.605  1.00  0.00    -0.098 A  
HETATM   13  N   UNL     1      -9.141   2.550  70.927  1.00  0.00    -0.100 NA 
HETATM   14  C   UNL     1      -9.625   3.767  71.256  1.00  0.00    -0.173 A  
HETATM   15  C   UNL     1      -9.969   4.735  70.324  1.00  0.00    -0.320 A  
HETATM   16  C   UNL     1      -9.807   4.440  68.972  1.00  0.00    -0.182 A  
ENDBRANCH   9  11
ENDBRANCH   8   9
ENDBRANCH   7   8
ENDBRANCH   6   7
ENDBRANCH   5   6
ENDBRANCH   4   5
ENDBRANCH   3   4
ENDBRANCH   2   3
TORSDOF 8
ENDMDL
MODEL      349
REMARK 921   NORMALIZED FREE ENERGY PREDICTED BY IDOCK:   -1.47 KCAL/MOL
REMARK 922        TOTAL FREE ENERGY PREDICTED BY IDOCK:   -2.58 KCAL/MOL
REMARK 923 INTER-LIGAND FREE ENERGY PREDICTED BY IDOCK:   -2.75 KCAL/MOL
REMARK 924 INTRA-LIGAND FREE ENERGY PREDICTED BY IDOCK:    0.17 KCAL/MOL
REMARK 927      BINDING AFFINITY PREDICTED BY RF-SCORE:    0.00 PKD
ROOT
HETATM    1  C   UNL     1      -9.316  15.805  69.563  1.00  0.00    -0.238 C  
HETATM    2  C   UNL     1      -7.949  15.176  69.353  1.00  0.00    -0.205 C  
ENDROOT
BRANCH   2   3
HETATM    3  C   UNL     1      -7.909  14.313  68.095  1.00  0.00    -0.139 C  
BRANCH   3   4
HETATM    4  C   UNL     1      -9.071  14.643  67.167  1.00  0.00    -0.223 C  
BRANCH   4   5
HETATM    5  O   UNL     1      -9.925  13.504  67.074  1.00  0.00    -0.238 OA 
BRANCH   5   6
HETATM    6  C   UNL     1      -9.164  12.298  67.021  1.00  0.00    -0.205 C  
BRANCH   6   7
HETATM    7  C   UNL     1      -9.770  11.345  65.996  1.00  0.00    -0.223 C  
BRANCH   7   8
HETATM    8  O   UNL     1      -9.984  10.045  66.568  1.00  0.00    -0.203 OA 
BRANCH   8   9
HETATM    9  C   UNL     1     -10.081  10.016  67.922  1.00  0.00    -0.169 C  
HETATM   10  O   UNL     1     -10.795  10.728  68.607  1.00  0.00    -0.189 OA 
BRANCH   9  11
HETATM   11  C   UNL     1      -9.154   9.011  68.484  1.00  0.00    -0.133 A  
HETATM   12  C   UNL     1      -8.135   8.525  67.675  1.00  0.00    -0.107 A  
HETATM   13  N   UNL     1      -7.232   7.595  68.073  1.00  0.00    -0.094 NA 
HETATM   14  C   UNL     1      -7.353   7.131  69.336  1.00  0.00    -0.090 A  
HETATM   15  C   UNL     1      -8.335   7.553  70.220  1.00  0.00    -0.133 A  
HETATM   16  C   UNL     1      -9.251   8.509  69.785  1.00  0.00    -0.157 A  
ENDBRANCH   9  11
ENDBRANCH   8   9
ENDBRANCH   7   8
ENDBRANCH   6   7
ENDBRANCH   5   6
ENDBRANCH   4   5
ENDBRANCH   3   4
ENDBRANCH   2   3
TORSDOF 8
ENDMDL
MODEL      350
REMARK 921   NORMALIZED FREE ENERGY PREDICTED BY IDOCK:   -1.45 KCAL/MOL
REMARK 922        TOTAL FREE ENERGY PREDICTED BY IDOCK:   -2.53 KCAL/MOL
REMARK 923 INTER-LIGAND FREE ENERGY PREDICTED BY IDOCK:   -2.82 KCAL/MOL
REMARK 924 INTRA-LIGAND FREE ENERGY PREDICTED BY IDOCK:    0.28 KCAL/MOL
REMARK 927      BINDING AFFINITY PREDICTED BY RF-SCORE:    0.00 PKD
ROOT
HETATM    1  C   UNL     1      -7.103   8.202  65.205  1.00  0.00    -0.063 C  
HETATM    2  C   UNL     1      -8.251   7.425  65.826  1.00  0.00    -0.135 C  
ENDROOT
BRANCH   2   3
HETATM    3  C   UNL     1      -7.777   6.118  66.456  1.00  0.00    -0.103 C  
BRANCH   3   4
HETATM    4  C   UNL     1      -6.726   6.377  67.528  1.00  0.00    -0.070 C  
BRANCH   4   5
HETATM    5  O   UNL     1      -7.238   5.950  68.790  1.00  0.00    -0.078 OA 
BRANCH   5   6
HETATM    6  C   UNL     1      -7.726   4.610  68.716  1.00  0.00    -0.072 C  
BRANCH   6   7
HETATM    7  C   UNL     1      -8.640   4.323  69.902  1.00  0.00    -0.068 C  
BRANCH   7   8
HETATM    8  O   UNL     1     -10.019   4.333  69.501  1.00  0.00    -0.200 OA 
BRANCH   8   9
HETATM    9  C   UNL     1     -10.528   5.556  69.204  1.00  0.00    -0.244 C  
HETATM   10  O   UNL     1     -10.605   6.052  68.092  1.00  0.00    -0.211 OA 
BRANCH   9  11
HETATM   11  C   UNL     1     -10.953   6.252  70.436  1.00  0.00    -0.385 A  
HETATM   12  C   UNL     1     -10.439   5.818  71.652  1.00  0.00    -0.231 A  
HETATM   13  N   UNL     1     -10.763   6.368  72.848  1.00  0.00    -0.237 NA 
HETATM   14  C   UNL     1     -11.636   7.398  72.829  1.00  0.00    -0.209 A  
HETATM   15  C   UNL     1     -12.204   7.902  71.669  1.00  0.00    -0.339 A  
HETATM   16  C   UNL     1     -11.855   7.319  70.452  1.00  0.00    -0.174 A  
ENDBRANCH   9  11
ENDBRANCH   8   9
ENDBRANCH   7   8
ENDBRANCH   6   7
ENDBRANCH   5   6
ENDBRANCH   4   5
ENDBRANCH   3   4
ENDBRANCH   2   3
TORSDOF 8
ENDMDL
MODEL      351
REMARK 921   NORMALIZED FREE ENERGY PREDICTED BY IDOCK:   -1.38 KCAL/MOL
REMARK 922        TOTAL FREE ENERGY PREDICTED BY IDOCK:   -2.44 KCAL/MOL
REMARK 923 INTER-LIGAND FREE ENERGY PREDICTED BY IDOCK:   -2.32 KCAL/MOL
REMARK 924 INTRA-LIGAND FREE ENERGY PREDICTED BY IDOCK:   -0.12 KCAL/MOL
REMARK 927      BINDING AFFINITY PREDICTED BY RF-SCORE:    0.00 PKD
ROOT
HETATM    1  C   UNL     1      -9.034  14.143  66.423  1.00  0.00    -0.069 C  
HETATM    2  C   UNL     1      -9.165  13.547  67.814  1.00  0.00    -0.213 C  
ENDROOT
BRANCH   2   3
HETATM    3  C   UNL     1     -10.100  12.341  67.828  1.00  0.00    -0.202 C  
BRANCH   3   4
HETATM    4  C   UNL     1     -10.017  11.567  66.519  1.00  0.00    -0.210 C  
BRANCH   4   5
HETATM    5  O   UNL     1      -9.453  10.282  66.776  1.00  0.00    -0.157 OA 
BRANCH   5   6
HETATM    6  C   UNL     1      -9.271  10.076  68.177  1.00  0.00    -0.128 C  
BRANCH   6   7
HETATM    7  C   UNL     1      -8.805   8.648  68.436  1.00  0.00    -0.142 C  
BRANCH   7   8
HETATM    8  O   UNL     1      -9.729   7.697  67.882  1.00  0.00    -0.142 OA 
BRANCH   8   9
HETATM    9  C   UNL     1      -9.189   6.795  67.024  1.00  0.00    -0.137 C  
HETATM   10  O   UNL     1      -8.832   7.016  65.879  1.00  0.00    -0.154 OA 
BRANCH   9  11
HETATM   11  C   UNL     1      -9.119   5.460  67.655  1.00  0.00    -0.109 A  
HETATM   12  C   UNL     1      -9.108   5.384  69.042  1.00  0.00    -0.115 A  
HETATM   13  N   UNL     1      -9.036   4.220  69.734  1.00  0.00    -0.085 NA 
HETATM   14  C   UNL     1      -8.973   3.083  69.008  1.00  0.00    -0.124 A  
HETATM   15  C   UNL     1      -8.977   3.055  67.621  1.00  0.00    -0.192 A  
HETATM   16  C   UNL     1      -9.052   4.265  66.934  1.00  0.00    -0.144 A  
ENDBRANCH   9  11
ENDBRANCH   8   9
ENDBRANCH   7   8
ENDBRANCH   6   7
ENDBRANCH   5   6
ENDBRANCH   4   5
ENDBRANCH   3   4
ENDBRANCH   2   3
TORSDOF 8
ENDMDL
MODEL      352
REMARK 921   NORMALIZED FREE ENERGY PREDICTED BY IDOCK:   -1.36 KCAL/MOL
REMARK 922        TOTAL FREE ENERGY PREDICTED BY IDOCK:   -2.41 KCAL/MOL
REMARK 923 INTER-LIGAND FREE ENERGY PREDICTED BY IDOCK:   -3.09 KCAL/MOL
REMARK 924 INTRA-LIGAND FREE ENERGY PREDICTED BY IDOCK:    0.68 KCAL/MOL
REMARK 927      BINDING AFFINITY PREDICTED BY RF-SCORE:    0.00 PKD
ROOT
HETATM    1  C   UNL     1      -8.203   8.063  71.140  1.00  0.00    -0.111 C  
HETATM    2  C   UNL     1      -7.167   8.526  72.149  1.00  0.00    -0.102 C  
ENDROOT
BRANCH   2   3
HETATM    3  C   UNL     1      -7.601   8.234  73.583  1.00  0.00    -0.193 C  
BRANCH   3   4
HETATM    4  C   UNL     1      -6.689   7.201  74.232  1.00  0.00    -0.081 C  
BRANCH   4   5
HETATM    5  O   UNL     1      -6.741   5.995  73.470  1.00  0.00    -0.073 OA 
BRANCH   5   6
HETATM    6  C   UNL     1      -7.791   5.145  73.932  1.00  0.00    -0.098 C  
BRANCH   6   7
HETATM    7  C   UNL     1      -9.126   5.878  73.856  1.00  0.00    -0.127 C  
BRANCH   7   8
HETATM    8  O   UNL     1     -10.176   5.095  74.447  1.00  0.00    -0.226 OA 
BRANCH   8   9
HETATM    9  C   UNL     1     -10.997   4.469  73.567  1.00  0.00    -0.306 C  
HETATM   10  O   UNL     1     -11.468   3.351  73.692  1.00  0.00    -0.199 OA 
BRANCH   9  11
HETATM   11  C   UNL     1     -11.227   5.320  72.380  1.00  0.00    -0.229 A  
HETATM   12  C   UNL     1     -10.533   5.029  71.213  1.00  0.00    -0.143 A  
HETATM   13  N   UNL     1     -10.651   5.743  70.066  1.00  0.00    -0.283 NA 
HETATM   14  C   UNL     1     -11.500   6.792  70.086  1.00  0.00    -0.349 A  
HETATM   15  C   UNL     1     -12.237   7.164  71.201  1.00  0.00    -0.405 A  
HETATM   16  C   UNL     1     -12.097   6.413  72.367  1.00  0.00    -0.168 A  
ENDBRANCH   9  11
ENDBRANCH   8   9
ENDBRANCH   7   8
ENDBRANCH   6   7
ENDBRANCH   5   6
ENDBRANCH   4   5
ENDBRANCH   3   4
ENDBRANCH   2   3
TORSDOF 8
ENDMDL
MODEL      353
REMARK 921   NORMALIZED FREE ENERGY PREDICTED BY IDOCK:   -1.33 KCAL/MOL
REMARK 922        TOTAL FREE ENERGY PREDICTED BY IDOCK:   -2.37 KCAL/MOL
REMARK 923 INTER-LIGAND FREE ENERGY PREDICTED BY IDOCK:   -1.98 KCAL/MOL
REMARK 924 INTRA-LIGAND FREE ENERGY PREDICTED BY IDOCK:   -0.39 KCAL/MOL
REMARK 927      BINDING AFFINITY PREDICTED BY RF-SCORE:    0.00 PKD
ROOT
HETATM    1  C   UNL     1      -8.331  13.536  67.212  1.00  0.00    -0.188 C  
HETATM    2  C   UNL     1      -8.685  12.455  68.219  1.00  0.00    -0.175 C  
ENDROOT
BRANCH   2   3
HETATM    3  C   UNL     1      -9.462  11.311  67.573  1.00  0.00    -0.177 C  
BRANCH   3   4
HETATM    4  C   UNL     1      -9.062  11.131  66.115  1.00  0.00    -0.201 C  
BRANCH   4   5
HETATM    5  O   UNL     1      -8.513   9.824  65.944  1.00  0.00    -0.124 OA 
BRANCH   5   6
HETATM    6  C   UNL     1      -8.739   9.021  67.103  1.00  0.00    -0.116 C  
BRANCH   6   7
HETATM    7  C   UNL     1      -8.323   7.581  66.826  1.00  0.00    -0.126 C  
BRANCH   7   8
HETATM    8  O   UNL     1      -8.931   7.094  65.618  1.00  0.00    -0.081 OA 
BRANCH   8   9
HETATM    9  C   UNL     1      -8.081   6.515  64.733  1.00  0.00    -0.112 C  
HETATM   10  O   UNL     1      -7.316   7.099  63.984  1.00  0.00    -0.068 OA 
BRANCH   9  11
HETATM   11  C   UNL     1      -8.228   5.045  64.762  1.00  0.00    -0.130 A  
HETATM   12  C   UNL     1      -7.095   4.271  64.979  1.00  0.00    -0.062 A  
HETATM   13  N   UNL     1      -7.102   2.915  65.015  1.00  0.00    -0.053 NA 
HETATM   14  C   UNL     1      -8.293   2.307  64.827  1.00  0.00    -0.088 A  
HETATM   15  C   UNL     1      -9.478   2.991  64.604  1.00  0.00    -0.150 A  
HETATM   16  C   UNL     1      -9.444   4.384  64.571  1.00  0.00    -0.131 A  
ENDBRANCH   9  11
ENDBRANCH   8   9
ENDBRANCH   7   8
ENDBRANCH   6   7
ENDBRANCH   5   6
ENDBRANCH   4   5
ENDBRANCH   3   4
ENDBRANCH   2   3
TORSDOF 8
ENDMDL
MODEL      354
REMARK 921   NORMALIZED FREE ENERGY PREDICTED BY IDOCK:   -1.27 KCAL/MOL
REMARK 922        TOTAL FREE ENERGY PREDICTED BY IDOCK:   -2.28 KCAL/MOL
REMARK 923 INTER-LIGAND FREE ENERGY PREDICTED BY IDOCK:   -2.17 KCAL/MOL
REMARK 924 INTRA-LIGAND FREE ENERGY PREDICTED BY IDOCK:   -0.11 KCAL/MOL
REMARK 927      BINDING AFFINITY PREDICTED BY RF-SCORE:    0.00 PKD
ROOT
HETATM    1  C   UNL     1      -8.667   8.609  62.330  1.00  0.00    -0.112 C  
HETATM    2  C   UNL     1      -8.076   8.345  63.705  1.00  0.00    -0.142 C  
ENDROOT
BRANCH   2   3
HETATM    3  C   UNL     1      -6.596   8.713  63.767  1.00  0.00    -0.084 C  
BRANCH   3   4
HETATM    4  C   UNL     1      -6.256   9.394  65.086  1.00  0.00    -0.070 C  
BRANCH   4   5
HETATM    5  O   UNL     1      -7.450   9.935  65.648  1.00  0.00    -0.105 OA 
BRANCH   5   6
HETATM    6  C   UNL     1      -7.814   9.239  66.840  1.00  0.00    -0.098 C  
BRANCH   6   7
HETATM    7  C   UNL     1      -6.700   8.279  67.242  1.00  0.00    -0.063 C  
BRANCH   7   8
HETATM    8  O   UNL     1      -7.132   7.404  68.297  1.00  0.00    -0.079 OA 
BRANCH   8   9
HETATM    9  C   UNL     1      -7.108   7.944  69.542  1.00  0.00    -0.059 C  
HETATM   10  O   UNL     1      -6.116   8.317  70.146  1.00  0.00    -0.031 OA 
BRANCH   9  11
HETATM   11  C   UNL     1      -8.471   7.988  70.112  1.00  0.00    -0.128 A  
HETATM   12  C   UNL     1      -8.915   9.178  70.674  1.00  0.00    -0.244 A  
HETATM   13  N   UNL     1     -10.138   9.339  71.237  1.00  0.00    -0.307 NA 
HETATM   14  C   UNL     1     -10.954   8.263  71.235  1.00  0.00    -0.243 A  
HETATM   15  C   UNL     1     -10.604   7.033  70.700  1.00  0.00    -0.246 A  
HETATM   16  C   UNL     1      -9.341   6.895  70.128  1.00  0.00    -0.159 A  
ENDBRANCH   9  11
ENDBRANCH   8   9
ENDBRANCH   7   8
ENDBRANCH   6   7
ENDBRANCH   5   6
ENDBRANCH   4   5
ENDBRANCH   3   4
ENDBRANCH   2   3
TORSDOF 8
ENDMDL
MODEL      355
REMARK 921   NORMALIZED FREE ENERGY PREDICTED BY IDOCK:   -1.24 KCAL/MOL
REMARK 922        TOTAL FREE ENERGY PREDICTED BY IDOCK:   -2.23 KCAL/MOL
REMARK 923 INTER-LIGAND FREE ENERGY PREDICTED BY IDOCK:   -2.67 KCAL/MOL
REMARK 924 INTRA-LIGAND FREE ENERGY PREDICTED BY IDOCK:    0.44 KCAL/MOL
REMARK 927      BINDING AFFINITY PREDICTED BY RF-SCORE:    0.00 PKD
ROOT
HETATM    1  C   UNL     1      -8.642   8.617  62.350  1.00  0.00    -0.162 C  
HETATM    2  C   UNL     1      -7.646   8.296  63.451  1.00  0.00    -0.131 C  
ENDROOT
BRANCH   2   3
HETATM    3  C   UNL     1      -6.278   8.916  63.178  1.00  0.00    -0.090 C  
BRANCH   3   4
HETATM    4  C   UNL     1      -5.545   9.222  64.478  1.00  0.00    -0.063 C  
BRANCH   4   5
HETATM    5  O   UNL     1      -5.837  10.563  64.868  1.00  0.00    -0.132 OA 
BRANCH   5   6
HETATM    6  C   UNL     1      -6.143  10.634  66.261  1.00  0.00    -0.111 C  
BRANCH   6   7
HETATM    7  C   UNL     1      -7.059   9.480  66.651  1.00  0.00    -0.086 C  
BRANCH   7   8
HETATM    8  O   UNL     1      -7.366   9.520  68.054  1.00  0.00    -0.081 OA 
BRANCH   8   9
HETATM    9  C   UNL     1      -7.741  10.734  68.530  1.00  0.00    -0.118 C  
HETATM   10  O   UNL     1      -7.072  11.754  68.510  1.00  0.00    -0.078 OA 
BRANCH   9  11
HETATM   11  C   UNL     1      -9.089  10.658  69.133  1.00  0.00    -0.152 A  
HETATM   12  C   UNL     1     -10.057  11.557  68.702  1.00  0.00    -0.207 A  
HETATM   13  N   UNL     1     -11.323  11.593  69.187  1.00  0.00    -0.259 NA 
HETATM   14  C   UNL     1     -11.635  10.691  70.142  1.00  0.00    -0.330 A  
HETATM   15  C   UNL     1     -10.740   9.754  70.638  1.00  0.00    -0.394 A  
HETATM   16  C   UNL     1      -9.445   9.739  70.123  1.00  0.00    -0.277 A  
ENDBRANCH   9  11
ENDBRANCH   8   9
ENDBRANCH   7   8
ENDBRANCH   6   7
ENDBRANCH   5   6
ENDBRANCH   4   5
ENDBRANCH   3   4
ENDBRANCH   2   3
TORSDOF 8
ENDMDL
MODEL      356
REMARK 921   NORMALIZED FREE ENERGY PREDICTED BY IDOCK:   -0.15 KCAL/MOL
REMARK 922        TOTAL FREE ENERGY PREDICTED BY IDOCK:   -0.63 KCAL/MOL
REMARK 923 INTER-LIGAND FREE ENERGY PREDICTED BY IDOCK:   -1.97 KCAL/MOL
REMARK 924 INTRA-LIGAND FREE ENERGY PREDICTED BY IDOCK:    1.34 KCAL/MOL
REMARK 927      BINDING AFFINITY PREDICTED BY RF-SCORE:    0.00 PKD
ROOT
HETATM    1  C   UNL     1      -7.925  17.621  67.579  1.00  0.00    -0.210 C  
HETATM    2  C   UNL     1      -6.804  17.412  68.583  1.00  0.00    -0.217 C  
ENDROOT
BRANCH   2   3
HETATM    3  C   UNL     1      -5.560  16.817  67.928  1.00  0.00    -0.129 C  
BRANCH   3   4
HETATM    4  C   UNL     1      -5.906  15.565  67.131  1.00  0.00     0.374 C  
BRANCH   4   5
HETATM    5  O   UNL     1      -7.316  15.529  66.917  1.00  0.00    -0.175 OA 
BRANCH   5   6
HETATM    6  C   UNL     1      -7.871  14.297  67.378  1.00  0.00    -0.187 C  
BRANCH   6   7
HETATM    7  C   UNL     1      -6.806  13.492  68.115  1.00  0.00    -0.119 C  
BRANCH   7   8
HETATM    8  O   UNL     1      -7.409  12.510  68.974  1.00  0.00    -0.065 OA 
BRANCH   8   9
HETATM    9  C   UNL     1      -7.165  11.218  68.639  1.00  0.00    -0.098 C  
HETATM   10  O   UNL     1      -6.158  10.584  68.907  1.00  0.00    -0.041 OA 
BRANCH   9  11
HETATM   11  C   UNL     1      -8.288  10.668  67.850  1.00  0.00    -0.120 A  
HETATM   12  C   UNL     1      -8.017   9.674  66.918  1.00  0.00    -0.105 A  
HETATM   13  N   UNL     1      -8.959   9.101  66.129  1.00  0.00    -0.162 NA 
HETATM   14  C   UNL     1     -10.227   9.541  66.278  1.00  0.00    -0.220 A  
HETATM   15  C   UNL     1     -10.598  10.529  67.178  1.00  0.00    -0.319 A  
HETATM   16  C   UNL     1      -9.610  11.101  67.977  1.00  0.00    -0.181 A  
ENDBRANCH   9  11
ENDBRANCH   8   9
ENDBRANCH   7   8
ENDBRANCH   6   7
ENDBRANCH   5   6
ENDBRANCH   4   5
ENDBRANCH   3   4
ENDBRANCH   2   3
TORSDOF 8
ENDMDL
MODEL      357
REMARK 921   NORMALIZED FREE ENERGY PREDICTED BY IDOCK:    2.32 KCAL/MOL
REMARK 922        TOTAL FREE ENERGY PREDICTED BY IDOCK:    2.99 KCAL/MOL
REMARK 923 INTER-LIGAND FREE ENERGY PREDICTED BY IDOCK:    0.77 KCAL/MOL
REMARK 924 INTRA-LIGAND FREE ENERGY PREDICTED BY IDOCK:    2.22 KCAL/MOL
REMARK 927      BINDING AFFINITY PREDICTED BY RF-SCORE:    0.00 PKD
ROOT
HETATM    1  C   UNL     1      -7.687   9.784  67.023  1.00  0.00    -0.095 C  
HETATM    2  C   UNL     1      -7.387   9.410  68.464  1.00  0.00    -0.079 C  
ENDROOT
BRANCH   2   3
HETATM    3  C   UNL     1      -8.393  10.026  69.432  1.00  0.00    -0.169 C  
BRANCH   3   4
HETATM    4  C   UNL     1      -9.240  11.086  68.740  1.00  0.00    -0.162 C  
BRANCH   4   5
HETATM    5  O   UNL     1      -8.396  12.166  68.344  1.00  0.00    -0.160 OA 
BRANCH   5   6
HETATM    6  C   UNL     1      -8.497  12.403  66.939  1.00  0.00    -0.147 C  
BRANCH   6   7
HETATM    7  C   UNL     1      -9.937  12.199  66.480  1.00  0.00    -0.213 C  
BRANCH   7   8
HETATM    8  O   UNL     1     -10.809  13.170  67.080  1.00  0.00    -0.253 OA 
BRANCH   8   9
HETATM    9  C   UNL     1     -10.363  14.451  67.045  1.00  0.00    -0.263 C  
HETATM   10  O   UNL     1     -10.380  15.192  66.076  1.00  0.00    -0.279 OA 
BRANCH   9  11
HETATM   11  C   UNL     1      -9.799  14.837  68.355  1.00  0.00    -0.220 A  
HETATM   12  C   UNL     1      -8.576  15.496  68.381  1.00  0.00    -0.168 A  
HETATM   13  N   UNL     1      -7.954  15.890  69.520  1.00  0.00    -0.179 NA 
HETATM   14  C   UNL     1      -8.581  15.614  70.683  1.00  0.00     2.068 A  
HETATM   15  C   UNL     1      -9.802  14.961  70.762  1.00  0.00     1.174 A  
HETATM   16  C   UNL     1     -10.421  14.567  69.577  1.00  0.00    -0.080 A  
ENDBRANCH   9  11
ENDBRANCH   8   9
ENDBRANCH   7   8
ENDBRANCH   6   7
ENDBRANCH   5   6
ENDBRANCH   4   5
ENDBRANCH   3   4
ENDBRANCH   2   3
TORSDOF 8
ENDMDL
MODEL      358
REMARK 921   NORMALIZED FREE ENERGY PREDICTED BY IDOCK:    5.01 KCAL/MOL
REMARK 922        TOTAL FREE ENERGY PREDICTED BY IDOCK:    6.95 KCAL/MOL
REMARK 923 INTER-LIGAND FREE ENERGY PREDICTED BY IDOCK:   -0.57 KCAL/MOL
REMARK 924 INTRA-LIGAND FREE ENERGY PREDICTED BY IDOCK:    7.52 KCAL/MOL
REMARK 927      BINDING AFFINITY PREDICTED BY RF-SCORE:    0.00 PKD
ROOT
HETATM    1  C   UNL     1      -7.726  17.448  67.422  1.00  0.00    -0.209 C  
HETATM    2  C   UNL     1      -6.471  17.744  68.225  1.00  0.00    -0.191 C  
ENDROOT
BRANCH   2   3
HETATM    3  C   UNL     1      -5.212  17.644  67.368  1.00  0.00    -0.145 C  
BRANCH   3   4
HETATM    4  C   UNL     1      -5.339  16.530  66.336  1.00  0.00     0.628 C  
BRANCH   4   5
HETATM    5  O   UNL     1      -6.718  16.199  66.181  1.00  0.00     0.290 OA 
BRANCH   5   6
HETATM    6  C   UNL     1      -7.113  15.204  67.125  1.00  0.00    -0.008 C  
BRANCH   6   7
HETATM    7  C   UNL     1      -6.221  15.274  68.359  1.00  0.00    -0.106 C  
BRANCH   7   8
HETATM    8  O   UNL     1      -6.857  14.654  69.489  1.00  0.00    -0.145 OA 
BRANCH   8   9
HETATM    9  C   UNL     1      -6.109  13.727  70.139  1.00  0.00    -0.139 C  
HETATM   10  O   UNL     1      -5.401  13.928  71.112  1.00  0.00    -0.135 OA 
BRANCH   9  11
HETATM   11  C   UNL     1      -6.231  12.410  69.479  1.00  0.00    -0.126 A  
HETATM   12  C   UNL     1      -7.454  12.061  68.921  1.00  0.00    -0.043 A  
HETATM   13  N   UNL     1      -7.691  10.878  68.301  1.00  0.00    -0.105 NA 
HETATM   14  C   UNL     1      -6.660  10.008  68.235  1.00  0.00    -0.055 A  
HETATM   15  C   UNL     1      -5.403  10.264  68.762  1.00  0.00    -0.038 A  
HETATM   16  C   UNL     1      -5.186  11.486  69.394  1.00  0.00    -0.048 A  
ENDBRANCH   9  11
ENDBRANCH   8   9
ENDBRANCH   7   8
ENDBRANCH   6   7
ENDBRANCH   5   6
ENDBRANCH   4   5
ENDBRANCH   3   4
ENDBRANCH   2   3
TORSDOF 8
ENDMDL
