MODEL        1
REMARK 921   NORMALIZED FREE ENERGY PREDICTED BY IDOCK:   -4.44 KCAL/MOL
REMARK 922        TOTAL FREE ENERGY PREDICTED BY IDOCK:   -4.73 KCAL/MOL
REMARK 923 INTER-LIGAND FREE ENERGY PREDICTED BY IDOCK:   -4.70 KCAL/MOL
REMARK 924 INTRA-LIGAND FREE ENERGY PREDICTED BY IDOCK:   -0.03 KCAL/MOL
REMARK 927      BINDING AFFINITY PREDICTED BY RF-SCORE:    0.00 PKD
ROOT
HETATM    1  N   UNL     1     -11.640  15.723  64.170  1.00  0.00    -0.878 N  
HETATM    2  C   UNL     1     -12.112  14.447  64.312  1.00  0.00    -0.436 C  
HETATM    3  H1  UNL     1     -11.183  16.203  64.945  1.00  0.00     0.000 HD 
HETATM    4  H2  UNL     1     -11.746  16.202  63.275  1.00  0.00     0.000 HD 
HETATM    5  O   UNL     1     -12.659  13.872  63.382  1.00  0.00    -0.853 OA 
ENDROOT
BRANCH   2   6
HETATM    6  C   UNL     1     -11.967  13.812  65.638  1.00  0.00    -0.410 A  
HETATM    7  C   UNL     1     -11.881  14.536  66.829  1.00  0.00    -0.390 A  
HETATM    8  C   UNL     1     -11.742  13.851  68.036  1.00  0.00    -0.387 A  
HETATM    9  C   UNL     1     -11.691  12.465  68.006  1.00  0.00    -0.356 A  
HETATM   10  N   UNL     1     -11.763  11.736  66.873  1.00  0.00    -0.584 NA 
HETATM   11  C   UNL     1     -11.889  12.426  65.710  1.00  0.00    -0.406 A  
ENDBRANCH   2   6
TORSDOF 1
ENDMDL
MODEL        2
REMARK 921   NORMALIZED FREE ENERGY PREDICTED BY IDOCK:   -4.42 KCAL/MOL
REMARK 922        TOTAL FREE ENERGY PREDICTED BY IDOCK:   -4.71 KCAL/MOL
REMARK 923 INTER-LIGAND FREE ENERGY PREDICTED BY IDOCK:   -4.68 KCAL/MOL
REMARK 924 INTRA-LIGAND FREE ENERGY PREDICTED BY IDOCK:   -0.03 KCAL/MOL
REMARK 927      BINDING AFFINITY PREDICTED BY RF-SCORE:    0.00 PKD
ROOT
HETATM    1  N   UNL     1     -12.496  13.849  63.168  1.00  0.00    -1.079 N  
HETATM    2  C   UNL     1     -12.227  14.686  64.216  1.00  0.00    -0.408 C  
HETATM    3  H1  UNL     1     -12.597  12.845  63.311  1.00  0.00     0.000 HD 
HETATM    4  H2  UNL     1     -12.596  14.236  62.229  1.00  0.00     0.000 HD 
HETATM    5  O   UNL     1     -12.106  15.891  64.044  1.00  0.00    -0.685 OA 
ENDROOT
BRANCH   2   6
HETATM    6  C   UNL     1     -12.053  14.073  65.549  1.00  0.00    -0.423 A  
HETATM    7  C   UNL     1     -11.818  14.814  66.709  1.00  0.00    -0.272 A  
HETATM    8  C   UNL     1     -11.662  14.148  67.924  1.00  0.00    -0.402 A  
HETATM    9  C   UNL     1     -11.744  12.763  67.934  1.00  0.00    -0.357 A  
HETATM   10  N   UNL     1     -11.962  12.017  66.831  1.00  0.00    -0.609 NA 
HETATM   11  C   UNL     1     -12.102  12.688  65.659  1.00  0.00    -0.443 A  
ENDBRANCH   2   6
TORSDOF 1
ENDMDL
MODEL        3
REMARK 921   NORMALIZED FREE ENERGY PREDICTED BY IDOCK:   -4.41 KCAL/MOL
REMARK 922        TOTAL FREE ENERGY PREDICTED BY IDOCK:   -4.69 KCAL/MOL
REMARK 923 INTER-LIGAND FREE ENERGY PREDICTED BY IDOCK:   -4.66 KCAL/MOL
REMARK 924 INTRA-LIGAND FREE ENERGY PREDICTED BY IDOCK:   -0.03 KCAL/MOL
REMARK 927      BINDING AFFINITY PREDICTED BY RF-SCORE:    0.00 PKD
ROOT
HETATM    1  N   UNL     1     -12.330  13.753  63.120  1.00  0.00    -1.106 N  
HETATM    2  C   UNL     1     -12.406  13.524  64.467  1.00  0.00    -0.355 C  
HETATM    3  H1  UNL     1     -11.772  14.522  62.749  1.00  0.00     0.000 HD 
HETATM    4  H2  UNL     1     -12.839  13.145  62.478  1.00  0.00     0.000 HD 
HETATM    5  O   UNL     1     -13.075  12.602  64.912  1.00  0.00    -0.850 OA 
ENDROOT
BRANCH   2   6
HETATM    6  C   UNL     1     -11.682  14.455  65.357  1.00  0.00    -0.362 A  
HETATM    7  C   UNL     1     -11.599  14.284  66.741  1.00  0.00    -0.407 A  
HETATM    8  C   UNL     1     -10.896  15.217  67.503  1.00  0.00    -0.304 A  
HETATM    9  C   UNL     1     -10.304  16.289  66.852  1.00  0.00    -0.299 A  
HETATM   10  N   UNL     1     -10.371  16.487  65.519  1.00  0.00    -0.572 NA 
HETATM   11  C   UNL     1     -11.068  15.570  64.800  1.00  0.00    -0.407 A  
ENDBRANCH   2   6
TORSDOF 1
ENDMDL
MODEL        4
REMARK 921   NORMALIZED FREE ENERGY PREDICTED BY IDOCK:   -4.36 KCAL/MOL
REMARK 922        TOTAL FREE ENERGY PREDICTED BY IDOCK:   -4.64 KCAL/MOL
REMARK 923 INTER-LIGAND FREE ENERGY PREDICTED BY IDOCK:   -4.61 KCAL/MOL
REMARK 924 INTRA-LIGAND FREE ENERGY PREDICTED BY IDOCK:   -0.03 KCAL/MOL
REMARK 927      BINDING AFFINITY PREDICTED BY RF-SCORE:    0.00 PKD
ROOT
HETATM    1  N   UNL     1     -12.307  14.287  63.452  1.00  0.00    -1.126 N  
HETATM    2  C   UNL     1     -12.411  13.066  64.060  1.00  0.00    -0.363 C  
HETATM    3  H1  UNL     1     -11.967  15.101  63.964  1.00  0.00     0.000 HD 
HETATM    4  H2  UNL     1     -12.575  14.385  62.473  1.00  0.00     0.000 HD 
HETATM    5  O   UNL     1     -12.819  12.090  63.447  1.00  0.00    -0.760 OA 
ENDROOT
BRANCH   2   6
HETATM    6  C   UNL     1     -12.048  12.985  65.491  1.00  0.00    -0.501 A  
HETATM    7  C   UNL     1     -11.492  11.845  66.077  1.00  0.00    -0.344 A  
HETATM    8  C   UNL     1     -11.185  11.859  67.437  1.00  0.00    -0.366 A  
HETATM    9  C   UNL     1     -11.446  13.013  68.162  1.00  0.00    -0.319 A  
HETATM   10  N   UNL     1     -11.988  14.128  67.628  1.00  0.00    -0.386 NA 
HETATM   11  C   UNL     1     -12.287  14.086  66.304  1.00  0.00    -0.448 A  
ENDBRANCH   2   6
TORSDOF 1
ENDMDL
MODEL        5
REMARK 921   NORMALIZED FREE ENERGY PREDICTED BY IDOCK:   -4.33 KCAL/MOL
REMARK 922        TOTAL FREE ENERGY PREDICTED BY IDOCK:   -4.61 KCAL/MOL
REMARK 923 INTER-LIGAND FREE ENERGY PREDICTED BY IDOCK:   -4.59 KCAL/MOL
REMARK 924 INTRA-LIGAND FREE ENERGY PREDICTED BY IDOCK:   -0.03 KCAL/MOL
REMARK 927      BINDING AFFINITY PREDICTED BY RF-SCORE:    0.00 PKD
ROOT
HETATM    1  N   UNL     1     -12.293  13.748  63.087  1.00  0.00    -1.106 N  
HETATM    2  C   UNL     1     -12.382  13.449  64.419  1.00  0.00    -0.341 C  
HETATM    3  H1  UNL     1     -11.746  14.547  62.765  1.00  0.00     0.000 HD 
HETATM    4  H2  UNL     1     -12.779  13.164  62.407  1.00  0.00     0.000 HD 
HETATM    5  O   UNL     1     -13.038  12.491  64.806  1.00  0.00    -0.853 OA 
ENDROOT
BRANCH   2   6
HETATM    6  C   UNL     1     -11.691  14.347  65.366  1.00  0.00    -0.362 A  
HETATM    7  C   UNL     1     -10.731  15.283  64.973  1.00  0.00    -0.461 A  
HETATM    8  C   UNL     1     -10.127  16.087  65.939  1.00  0.00    -0.378 A  
HETATM    9  C   UNL     1     -10.503  15.925  67.264  1.00  0.00    -0.310 A  
HETATM   10  N   UNL     1     -11.422  15.026  67.678  1.00  0.00    -0.339 NA 
HETATM   11  C   UNL     1     -11.988  14.249  66.720  1.00  0.00    -0.436 A  
ENDBRANCH   2   6
TORSDOF 1
ENDMDL
MODEL        6
REMARK 921   NORMALIZED FREE ENERGY PREDICTED BY IDOCK:   -4.26 KCAL/MOL
REMARK 922        TOTAL FREE ENERGY PREDICTED BY IDOCK:   -4.54 KCAL/MOL
REMARK 923 INTER-LIGAND FREE ENERGY PREDICTED BY IDOCK:   -4.51 KCAL/MOL
REMARK 924 INTRA-LIGAND FREE ENERGY PREDICTED BY IDOCK:   -0.03 KCAL/MOL
REMARK 927      BINDING AFFINITY PREDICTED BY RF-SCORE:    0.00 PKD
ROOT
HETATM    1  N   UNL     1     -12.393  13.950  63.307  1.00  0.00    -1.148 N  
HETATM    2  C   UNL     1     -12.073  14.924  64.213  1.00  0.00    -0.353 C  
HETATM    3  H1  UNL     1     -12.397  12.966  63.574  1.00  0.00     0.000 HD 
HETATM    4  H2  UNL     1     -12.631  14.212  62.350  1.00  0.00     0.000 HD 
HETATM    5  O   UNL     1     -12.068  16.104  63.892  1.00  0.00    -0.956 OA 
ENDROOT
BRANCH   2   6
HETATM    6  C   UNL     1     -11.698  14.489  65.574  1.00  0.00    -0.343 A  
HETATM    7  C   UNL     1     -12.148  13.298  66.150  1.00  0.00    -0.477 A  
HETATM    8  C   UNL     1     -11.745  12.971  67.444  1.00  0.00    -0.427 A  
HETATM    9  C   UNL     1     -10.908  13.850  68.117  1.00  0.00    -0.249 A  
HETATM   10  N   UNL     1     -10.462  15.011  67.593  1.00  0.00    -0.244 NA 
HETATM   11  C   UNL     1     -10.876  15.311  66.335  1.00  0.00    -0.317 A  
ENDBRANCH   2   6
TORSDOF 1
ENDMDL
MODEL        7
REMARK 921   NORMALIZED FREE ENERGY PREDICTED BY IDOCK:   -4.21 KCAL/MOL
REMARK 922        TOTAL FREE ENERGY PREDICTED BY IDOCK:   -4.48 KCAL/MOL
REMARK 923 INTER-LIGAND FREE ENERGY PREDICTED BY IDOCK:   -4.46 KCAL/MOL
REMARK 924 INTRA-LIGAND FREE ENERGY PREDICTED BY IDOCK:   -0.02 KCAL/MOL
REMARK 927      BINDING AFFINITY PREDICTED BY RF-SCORE:    0.00 PKD
ROOT
HETATM    1  N   UNL     1     -10.936  11.251  63.181  1.00  0.00    -0.838 N  
HETATM    2  C   UNL     1     -11.937  12.033  63.687  1.00  0.00    -0.515 C  
HETATM    3  H1  UNL     1      -9.992  11.293  63.565  1.00  0.00     0.000 HD 
HETATM    4  H2  UNL     1     -11.136  10.615  62.409  1.00  0.00     0.000 HD 
HETATM    5  O   UNL     1     -13.069  11.982  63.227  1.00  0.00    -0.701 OA 
ENDROOT
BRANCH   2   6
HETATM    6  C   UNL     1     -11.587  12.965  64.779  1.00  0.00    -0.373 A  
HETATM    7  C   UNL     1     -12.346  13.101  65.944  1.00  0.00    -0.462 A  
HETATM    8  C   UNL     1     -11.939  14.010  66.920  1.00  0.00    -0.479 A  
HETATM    9  C   UNL     1     -10.789  14.752  66.694  1.00  0.00    -0.319 A  
HETATM   10  N   UNL     1     -10.038  14.650  65.578  1.00  0.00    -0.358 NA 
HETATM   11  C   UNL     1     -10.459  13.765  64.638  1.00  0.00    -0.412 A  
ENDBRANCH   2   6
TORSDOF 1
ENDMDL
MODEL        8
REMARK 921   NORMALIZED FREE ENERGY PREDICTED BY IDOCK:   -4.21 KCAL/MOL
REMARK 922        TOTAL FREE ENERGY PREDICTED BY IDOCK:   -4.48 KCAL/MOL
REMARK 923 INTER-LIGAND FREE ENERGY PREDICTED BY IDOCK:   -4.46 KCAL/MOL
REMARK 924 INTRA-LIGAND FREE ENERGY PREDICTED BY IDOCK:   -0.02 KCAL/MOL
REMARK 927      BINDING AFFINITY PREDICTED BY RF-SCORE:    0.00 PKD
ROOT
HETATM    1  N   UNL     1     -10.158  16.597  66.056  1.00  0.00    -0.338 N  
HETATM    2  C   UNL     1     -10.935  16.202  65.001  1.00  0.00    -0.344 C  
HETATM    3  H1  UNL     1      -9.785  15.916  66.717  1.00  0.00     0.000 HD 
HETATM    4  H2  UNL     1      -9.948  17.587  66.182  1.00  0.00     0.000 HD 
HETATM    5  O   UNL     1     -11.382  17.019  64.209  1.00  0.00    -1.191 OA 
ENDROOT
BRANCH   2   6
HETATM    6  C   UNL     1     -11.242  14.761  64.884  1.00  0.00    -0.411 A  
HETATM    7  C   UNL     1     -10.298  13.806  64.499  1.00  0.00    -0.311 A  
HETATM    8  C   UNL     1     -10.680  12.467  64.412  1.00  0.00    -0.379 A  
HETATM    9  C   UNL     1     -11.992  12.133  64.712  1.00  0.00    -0.307 A  
HETATM   10  N   UNL     1     -12.929  13.032  65.081  1.00  0.00    -0.764 NA 
HETATM   11  C   UNL     1     -12.536  14.330  65.149  1.00  0.00    -0.416 A  
ENDBRANCH   2   6
TORSDOF 1
ENDMDL
MODEL        9
REMARK 921   NORMALIZED FREE ENERGY PREDICTED BY IDOCK:   -4.20 KCAL/MOL
REMARK 922        TOTAL FREE ENERGY PREDICTED BY IDOCK:   -4.47 KCAL/MOL
REMARK 923 INTER-LIGAND FREE ENERGY PREDICTED BY IDOCK:   -4.44 KCAL/MOL
REMARK 924 INTRA-LIGAND FREE ENERGY PREDICTED BY IDOCK:   -0.03 KCAL/MOL
REMARK 927      BINDING AFFINITY PREDICTED BY RF-SCORE:    0.00 PKD
ROOT
HETATM    1  N   UNL     1     -11.642  11.587  63.115  1.00  0.00    -0.882 N  
HETATM    2  C   UNL     1     -12.054  12.750  63.705  1.00  0.00    -0.543 C  
HETATM    3  H1  UNL     1     -11.306  10.804  63.676  1.00  0.00     0.000 HD 
HETATM    4  H2  UNL     1     -11.672  11.500  62.099  1.00  0.00     0.000 HD 
HETATM    5  O   UNL     1     -12.457  13.688  63.032  1.00  0.00    -0.719 OA 
ENDROOT
BRANCH   2   6
HETATM    6  C   UNL     1     -11.955  12.838  65.177  1.00  0.00    -0.466 A  
HETATM    7  C   UNL     1     -12.273  13.992  65.898  1.00  0.00    -0.481 A  
HETATM    8  C   UNL     1     -12.146  13.984  67.287  1.00  0.00    -0.405 A  
HETATM    9  C   UNL     1     -11.702  12.823  67.903  1.00  0.00    -0.357 A  
HETATM   10  N   UNL     1     -11.380  11.695  67.235  1.00  0.00    -0.377 NA 
HETATM   11  C   UNL     1     -11.504  11.731  65.884  1.00  0.00    -0.207 A  
ENDBRANCH   2   6
TORSDOF 1
ENDMDL
MODEL       10
REMARK 921   NORMALIZED FREE ENERGY PREDICTED BY IDOCK:   -4.13 KCAL/MOL
REMARK 922        TOTAL FREE ENERGY PREDICTED BY IDOCK:   -4.40 KCAL/MOL
REMARK 923 INTER-LIGAND FREE ENERGY PREDICTED BY IDOCK:   -4.37 KCAL/MOL
REMARK 924 INTRA-LIGAND FREE ENERGY PREDICTED BY IDOCK:   -0.03 KCAL/MOL
REMARK 927      BINDING AFFINITY PREDICTED BY RF-SCORE:    0.00 PKD
ROOT
HETATM    1  N   UNL     1     -10.228  10.828  62.582  1.00  0.00    -0.774 N  
HETATM    2  C   UNL     1     -10.396  10.969  63.933  1.00  0.00    -0.372 C  
HETATM    3  H1  UNL     1     -10.629  11.502  61.930  1.00  0.00     0.000 HD 
HETATM    4  H2  UNL     1      -9.693  10.037  62.222  1.00  0.00     0.000 HD 
HETATM    5  O   UNL     1      -9.915  10.161  64.714  1.00  0.00    -0.331 OA 
ENDROOT
BRANCH   2   6
HETATM    6  C   UNL     1     -11.211  12.109  64.401  1.00  0.00    -0.400 A  
HETATM    7  C   UNL     1     -11.358  12.443  65.750  1.00  0.00    -0.393 A  
HETATM    8  C   UNL     1     -12.151  13.535  66.099  1.00  0.00    -0.482 A  
HETATM    9  C   UNL     1     -12.770  14.254  65.087  1.00  0.00    -0.316 A  
HETATM   10  N   UNL     1     -12.653  13.954  63.776  1.00  0.00    -0.763 NA 
HETATM   11  C   UNL     1     -11.884  12.880  63.462  1.00  0.00    -0.536 A  
ENDBRANCH   2   6
TORSDOF 1
ENDMDL
MODEL       11
REMARK 921   NORMALIZED FREE ENERGY PREDICTED BY IDOCK:   -4.11 KCAL/MOL
REMARK 922        TOTAL FREE ENERGY PREDICTED BY IDOCK:   -4.38 KCAL/MOL
REMARK 923 INTER-LIGAND FREE ENERGY PREDICTED BY IDOCK:   -4.35 KCAL/MOL
REMARK 924 INTRA-LIGAND FREE ENERGY PREDICTED BY IDOCK:   -0.03 KCAL/MOL
REMARK 927      BINDING AFFINITY PREDICTED BY RF-SCORE:    0.00 PKD
ROOT
HETATM    1  N   UNL     1     -10.017  15.519  65.417  1.00  0.00    -0.330 N  
HETATM    2  C   UNL     1     -10.683  16.701  65.240  1.00  0.00    -0.204 C  
HETATM    3  H1  UNL     1      -9.443  15.359  66.245  1.00  0.00     0.000 HD 
HETATM    4  H2  UNL     1     -10.095  14.787  64.711  1.00  0.00     0.000 HD 
HETATM    5  O   UNL     1     -11.371  16.893  64.247  1.00  0.00    -1.202 OA 
ENDROOT
BRANCH   2   6
HETATM    6  C   UNL     1     -10.506  17.743  66.273  1.00  0.00    -0.307 A  
HETATM    7  C   UNL     1     -10.456  19.109  65.983  1.00  0.00    -0.546 A  
HETATM    8  C   UNL     1     -10.282  20.021  67.023  1.00  0.00    -0.587 A  
HETATM    9  C   UNL     1     -10.162  19.533  68.316  1.00  0.00    -0.443 A  
HETATM   10  N   UNL     1     -10.199  18.220  68.629  1.00  0.00    -0.380 NA 
HETATM   11  C   UNL     1     -10.360  17.352  67.598  1.00  0.00    -0.355 A  
ENDBRANCH   2   6
TORSDOF 1
ENDMDL
MODEL       12
REMARK 921   NORMALIZED FREE ENERGY PREDICTED BY IDOCK:   -4.10 KCAL/MOL
REMARK 922        TOTAL FREE ENERGY PREDICTED BY IDOCK:   -4.36 KCAL/MOL
REMARK 923 INTER-LIGAND FREE ENERGY PREDICTED BY IDOCK:   -4.34 KCAL/MOL
REMARK 924 INTRA-LIGAND FREE ENERGY PREDICTED BY IDOCK:   -0.03 KCAL/MOL
REMARK 927      BINDING AFFINITY PREDICTED BY RF-SCORE:    0.00 PKD
ROOT
HETATM    1  N   UNL     1     -12.331  14.323  63.213  1.00  0.00    -1.092 N  
HETATM    2  C   UNL     1     -12.390  13.598  64.372  1.00  0.00    -0.338 C  
HETATM    3  H1  UNL     1     -11.689  14.063  62.464  1.00  0.00     0.000 HD 
HETATM    4  H2  UNL     1     -12.937  15.135  63.097  1.00  0.00     0.000 HD 
HETATM    5  O   UNL     1     -13.160  13.908  65.270  1.00  0.00    -0.777 OA 
ENDROOT
BRANCH   2   6
HETATM    6  C   UNL     1     -11.464  12.454  64.506  1.00  0.00    -0.394 A  
HETATM    7  C   UNL     1     -11.081  11.919  65.739  1.00  0.00    -0.367 A  
HETATM    8  C   UNL     1     -10.198  10.840  65.769  1.00  0.00    -0.319 A  
HETATM    9  C   UNL     1      -9.729  10.336  64.565  1.00  0.00    -0.329 A  
HETATM   10  N   UNL     1     -10.074  10.833  63.358  1.00  0.00    -0.325 NA 
HETATM   11  C   UNL     1     -10.928  11.890  63.356  1.00  0.00    -0.395 A  
ENDBRANCH   2   6
TORSDOF 1
ENDMDL
MODEL       13
REMARK 921   NORMALIZED FREE ENERGY PREDICTED BY IDOCK:   -4.06 KCAL/MOL
REMARK 922        TOTAL FREE ENERGY PREDICTED BY IDOCK:   -4.33 KCAL/MOL
REMARK 923 INTER-LIGAND FREE ENERGY PREDICTED BY IDOCK:   -4.30 KCAL/MOL
REMARK 924 INTRA-LIGAND FREE ENERGY PREDICTED BY IDOCK:   -0.02 KCAL/MOL
REMARK 927      BINDING AFFINITY PREDICTED BY RF-SCORE:    0.00 PKD
ROOT
HETATM    1  N   UNL     1     -12.137  15.306  68.506  1.00  0.00    -0.572 N  
HETATM    2  C   UNL     1     -11.973  14.349  69.470  1.00  0.00    -0.330 C  
HETATM    3  H1  UNL     1     -12.441  16.249  68.748  1.00  0.00     0.000 HD 
HETATM    4  H2  UNL     1     -11.952  15.073  67.530  1.00  0.00     0.000 HD 
HETATM    5  O   UNL     1     -11.609  13.219  69.179  1.00  0.00    -0.279 OA 
ENDROOT
BRANCH   2   6
HETATM    6  C   UNL     1     -12.291  14.726  70.863  1.00  0.00    -0.388 A  
HETATM    7  C   UNL     1     -11.728  15.832  71.504  1.00  0.00    -0.523 A  
HETATM    8  C   UNL     1     -12.084  16.109  72.824  1.00  0.00    -0.653 A  
HETATM    9  C   UNL     1     -12.989  15.268  73.455  1.00  0.00    -0.531 A  
HETATM   10  N   UNL     1     -13.545  14.188  72.866  1.00  0.00    -0.657 NA 
HETATM   11  C   UNL     1     -13.175  13.934  71.584  1.00  0.00    -0.370 A  
ENDBRANCH   2   6
TORSDOF 1
ENDMDL
MODEL       14
REMARK 921   NORMALIZED FREE ENERGY PREDICTED BY IDOCK:   -3.98 KCAL/MOL
REMARK 922        TOTAL FREE ENERGY PREDICTED BY IDOCK:   -4.24 KCAL/MOL
REMARK 923 INTER-LIGAND FREE ENERGY PREDICTED BY IDOCK:   -4.21 KCAL/MOL
REMARK 924 INTRA-LIGAND FREE ENERGY PREDICTED BY IDOCK:   -0.03 KCAL/MOL
REMARK 927      BINDING AFFINITY PREDICTED BY RF-SCORE:    0.00 PKD
ROOT
HETATM    1  N   UNL     1     -12.406  14.371  68.263  1.00  0.00    -0.597 N  
HETATM    2  C   UNL     1     -11.752  13.286  67.748  1.00  0.00    -0.358 C  
HETATM    3  H1  UNL     1     -12.952  14.989  67.662  1.00  0.00     0.000 HD 
HETATM    4  H2  UNL     1     -12.348  14.565  69.262  1.00  0.00     0.000 HD 
HETATM    5  O   UNL     1     -11.097  12.546  68.468  1.00  0.00    -0.232 OA 
ENDROOT
BRANCH   2   6
HETATM    6  C   UNL     1     -11.836  13.071  66.288  1.00  0.00    -0.466 A  
HETATM    7  C   UNL     1     -11.257  11.977  65.640  1.00  0.00    -0.377 A  
HETATM    8  C   UNL     1     -11.385  11.857  64.257  1.00  0.00    -0.425 A  
HETATM    9  C   UNL     1     -12.085  12.839  63.571  1.00  0.00    -0.559 A  
HETATM   10  N   UNL     1     -12.650  13.911  64.165  1.00  0.00    -0.684 NA 
HETATM   11  C   UNL     1     -12.504  14.009  65.512  1.00  0.00    -0.509 A  
ENDBRANCH   2   6
TORSDOF 1
ENDMDL
MODEL       15
REMARK 921   NORMALIZED FREE ENERGY PREDICTED BY IDOCK:   -3.95 KCAL/MOL
REMARK 922        TOTAL FREE ENERGY PREDICTED BY IDOCK:   -4.21 KCAL/MOL
REMARK 923 INTER-LIGAND FREE ENERGY PREDICTED BY IDOCK:   -4.19 KCAL/MOL
REMARK 924 INTRA-LIGAND FREE ENERGY PREDICTED BY IDOCK:   -0.02 KCAL/MOL
REMARK 927      BINDING AFFINITY PREDICTED BY RF-SCORE:    0.00 PKD
ROOT
HETATM    1  N   UNL     1     -12.404  14.364  68.233  1.00  0.00    -0.597 N  
HETATM    2  C   UNL     1     -11.690  14.761  67.135  1.00  0.00    -0.334 C  
HETATM    3  H1  UNL     1     -12.971  13.517  68.212  1.00  0.00     0.000 HD 
HETATM    4  H2  UNL     1     -12.368  14.924  69.085  1.00  0.00     0.000 HD 
HETATM    5  O   UNL     1     -11.010  15.777  67.160  1.00  0.00    -0.314 OA 
ENDROOT
BRANCH   2   6
HETATM    6  C   UNL     1     -11.806  13.936  65.914  1.00  0.00    -0.399 A  
HETATM    7  C   UNL     1     -11.455  12.585  65.866  1.00  0.00    -0.417 A  
HETATM    8  C   UNL     1     -11.595  11.886  64.667  1.00  0.00    -0.320 A  
HETATM    9  C   UNL     1     -12.078  12.566  63.559  1.00  0.00    -0.562 A  
HETATM   10  N   UNL     1     -12.419  13.872  63.570  1.00  0.00    -0.812 NA 
HETATM   11  C   UNL     1     -12.265  14.532  64.746  1.00  0.00    -0.431 A  
ENDBRANCH   2   6
TORSDOF 1
ENDMDL
MODEL       16
REMARK 921   NORMALIZED FREE ENERGY PREDICTED BY IDOCK:   -3.93 KCAL/MOL
REMARK 922        TOTAL FREE ENERGY PREDICTED BY IDOCK:   -4.19 KCAL/MOL
REMARK 923 INTER-LIGAND FREE ENERGY PREDICTED BY IDOCK:   -4.16 KCAL/MOL
REMARK 924 INTRA-LIGAND FREE ENERGY PREDICTED BY IDOCK:   -0.03 KCAL/MOL
REMARK 927      BINDING AFFINITY PREDICTED BY RF-SCORE:    0.00 PKD
ROOT
HETATM    1  N   UNL     1     -12.346  14.381  68.440  1.00  0.00    -0.599 N  
HETATM    2  C   UNL     1     -11.682  15.113  69.386  1.00  0.00    -0.332 C  
HETATM    3  H1  UNL     1     -13.298  14.052  68.605  1.00  0.00     0.000 HD 
HETATM    4  H2  UNL     1     -11.883  14.160  67.559  1.00  0.00     0.000 HD 
HETATM    5  O   UNL     1     -10.541  15.508  69.189  1.00  0.00    -0.212 OA 
ENDROOT
BRANCH   2   6
HETATM    6  C   UNL     1     -12.382  15.373  70.661  1.00  0.00    -0.451 A  
HETATM    7  C   UNL     1     -13.736  15.094  70.862  1.00  0.00    -0.352 A  
HETATM    8  C   UNL     1     -14.314  15.377  72.100  1.00  0.00    -0.642 A  
HETATM    9  C   UNL     1     -13.516  15.931  73.090  1.00  0.00    -0.563 A  
HETATM   10  N   UNL     1     -12.208  16.219  72.926  1.00  0.00    -0.521 NA 
HETATM   11  C   UNL     1     -11.671  15.943  71.709  1.00  0.00    -0.491 A  
ENDBRANCH   2   6
TORSDOF 1
ENDMDL
MODEL       17
REMARK 921   NORMALIZED FREE ENERGY PREDICTED BY IDOCK:   -3.92 KCAL/MOL
REMARK 922        TOTAL FREE ENERGY PREDICTED BY IDOCK:   -4.18 KCAL/MOL
REMARK 923 INTER-LIGAND FREE ENERGY PREDICTED BY IDOCK:   -4.15 KCAL/MOL
REMARK 924 INTRA-LIGAND FREE ENERGY PREDICTED BY IDOCK:   -0.03 KCAL/MOL
REMARK 927      BINDING AFFINITY PREDICTED BY RF-SCORE:    0.00 PKD
ROOT
HETATM    1  N   UNL     1     -11.023  11.782  69.808  1.00  0.00    -0.462 N  
HETATM    2  C   UNL     1     -12.162  11.726  70.565  1.00  0.00    -0.347 C  
HETATM    3  H1  UNL     1     -10.567  12.673  69.611  1.00  0.00     0.000 HD 
HETATM    4  H2  UNL     1     -10.625  10.920  69.436  1.00  0.00     0.000 HD 
HETATM    5  O   UNL     1     -12.708  10.658  70.801  1.00  0.00    -0.349 OA 
ENDROOT
BRANCH   2   6
HETATM    6  C   UNL     1     -12.720  13.006  71.048  1.00  0.00    -0.347 A  
HETATM    7  C   UNL     1     -12.424  14.240  70.465  1.00  0.00    -0.428 A  
HETATM    8  C   UNL     1     -12.996  15.398  70.992  1.00  0.00    -0.556 A  
HETATM    9  C   UNL     1     -13.841  15.279  72.085  1.00  0.00    -0.522 A  
HETATM   10  N   UNL     1     -14.142  14.103  72.676  1.00  0.00    -0.614 NA 
HETATM   11  C   UNL     1     -13.566  12.992  72.151  1.00  0.00    -0.526 A  
ENDBRANCH   2   6
TORSDOF 1
ENDMDL
MODEL       18
REMARK 921   NORMALIZED FREE ENERGY PREDICTED BY IDOCK:   -3.92 KCAL/MOL
REMARK 922        TOTAL FREE ENERGY PREDICTED BY IDOCK:   -4.18 KCAL/MOL
REMARK 923 INTER-LIGAND FREE ENERGY PREDICTED BY IDOCK:   -4.15 KCAL/MOL
REMARK 924 INTRA-LIGAND FREE ENERGY PREDICTED BY IDOCK:   -0.03 KCAL/MOL
REMARK 927      BINDING AFFINITY PREDICTED BY RF-SCORE:    0.00 PKD
ROOT
HETATM    1  N   UNL     1     -12.407  16.150  71.294  1.00  0.00    -0.563 N  
HETATM    2  C   UNL     1     -13.316  15.216  71.707  1.00  0.00    -0.413 C  
HETATM    3  H1  UNL     1     -11.561  15.874  70.794  1.00  0.00     0.000 HD 
HETATM    4  H2  UNL     1     -12.577  17.137  71.487  1.00  0.00     0.000 HD 
HETATM    5  O   UNL     1     -14.330  15.546  72.305  1.00  0.00    -0.562 OA 
ENDROOT
BRANCH   2   6
HETATM    6  C   UNL     1     -13.005  13.797  71.436  1.00  0.00    -0.433 A  
HETATM    7  C   UNL     1     -13.412  12.750  72.268  1.00  0.00    -0.591 A  
HETATM    8  C   UNL     1     -13.068  11.441  71.933  1.00  0.00    -0.505 A  
HETATM    9  C   UNL     1     -12.327  11.226  70.781  1.00  0.00    -0.398 A  
HETATM   10  N   UNL     1     -11.912  12.214  69.960  1.00  0.00    -0.338 NA 
HETATM   11  C   UNL     1     -12.252  13.481  70.312  1.00  0.00    -0.347 A  
ENDBRANCH   2   6
TORSDOF 1
ENDMDL
MODEL       19
REMARK 921   NORMALIZED FREE ENERGY PREDICTED BY IDOCK:   -3.91 KCAL/MOL
REMARK 922        TOTAL FREE ENERGY PREDICTED BY IDOCK:   -4.17 KCAL/MOL
REMARK 923 INTER-LIGAND FREE ENERGY PREDICTED BY IDOCK:   -4.15 KCAL/MOL
REMARK 924 INTRA-LIGAND FREE ENERGY PREDICTED BY IDOCK:   -0.02 KCAL/MOL
REMARK 927      BINDING AFFINITY PREDICTED BY RF-SCORE:    0.00 PKD
ROOT
HETATM    1  N   UNL     1     -14.395  15.537  70.882  1.00  0.00    -0.817 N  
HETATM    2  C   UNL     1     -13.199  15.069  71.354  1.00  0.00    -0.421 C  
HETATM    3  H1  UNL     1     -15.048  14.918  70.401  1.00  0.00     0.000 HD 
HETATM    4  H2  UNL     1     -14.637  16.519  71.012  1.00  0.00     0.000 HD 
HETATM    5  O   UNL     1     -12.417  15.811  71.930  1.00  0.00    -0.395 OA 
ENDROOT
BRANCH   2   6
HETATM    6  C   UNL     1     -12.879  13.648  71.106  1.00  0.00    -0.399 A  
HETATM    7  C   UNL     1     -12.101  13.215  70.030  1.00  0.00    -0.375 A  
HETATM    8  C   UNL     1     -11.853  11.851  69.873  1.00  0.00    -0.418 A  
HETATM    9  C   UNL     1     -12.397  10.970  70.797  1.00  0.00    -0.398 A  
HETATM   10  N   UNL     1     -13.158  11.355  71.842  1.00  0.00    -0.473 NA 
HETATM   11  C   UNL     1     -13.392  12.687  71.968  1.00  0.00    -0.454 A  
ENDBRANCH   2   6
TORSDOF 1
ENDMDL
MODEL       20
REMARK 921   NORMALIZED FREE ENERGY PREDICTED BY IDOCK:   -3.90 KCAL/MOL
REMARK 922        TOTAL FREE ENERGY PREDICTED BY IDOCK:   -4.16 KCAL/MOL
REMARK 923 INTER-LIGAND FREE ENERGY PREDICTED BY IDOCK:   -4.13 KCAL/MOL
REMARK 924 INTRA-LIGAND FREE ENERGY PREDICTED BY IDOCK:   -0.03 KCAL/MOL
REMARK 927      BINDING AFFINITY PREDICTED BY RF-SCORE:    0.00 PKD
ROOT
HETATM    1  N   UNL     1     -13.240  10.570  72.328  1.00  0.00    -0.577 N  
HETATM    2  C   UNL     1     -12.689  11.337  71.338  1.00  0.00    -0.396 C  
HETATM    3  H1  UNL     1     -13.825  10.989  73.052  1.00  0.00     0.000 HD 
HETATM    4  H2  UNL     1     -13.064   9.566  72.343  1.00  0.00     0.000 HD 
HETATM    5  O   UNL     1     -11.988  10.835  70.471  1.00  0.00    -0.301 OA 
ENDROOT
BRANCH   2   6
HETATM    6  C   UNL     1     -12.943  12.792  71.383  1.00  0.00    -0.359 A  
HETATM    7  C   UNL     1     -13.777  13.395  72.327  1.00  0.00    -0.705 A  
HETATM    8  C   UNL     1     -13.961  14.777  72.291  1.00  0.00    -0.598 A  
HETATM    9  C   UNL     1     -13.305  15.505  71.309  1.00  0.00    -0.511 A  
HETATM   10  N   UNL     1     -12.499  14.952  70.378  1.00  0.00    -0.340 NA 
HETATM   11  C   UNL     1     -12.343  13.604  70.429  1.00  0.00    -0.345 A  
ENDBRANCH   2   6
TORSDOF 1
ENDMDL
MODEL       21
REMARK 921   NORMALIZED FREE ENERGY PREDICTED BY IDOCK:   -3.89 KCAL/MOL
REMARK 922        TOTAL FREE ENERGY PREDICTED BY IDOCK:   -4.14 KCAL/MOL
REMARK 923 INTER-LIGAND FREE ENERGY PREDICTED BY IDOCK:   -4.12 KCAL/MOL
REMARK 924 INTRA-LIGAND FREE ENERGY PREDICTED BY IDOCK:   -0.02 KCAL/MOL
REMARK 927      BINDING AFFINITY PREDICTED BY RF-SCORE:    0.00 PKD
ROOT
HETATM    1  N   UNL     1     -12.322  13.949  63.345  1.00  0.00    -1.139 N  
HETATM    2  C   UNL     1     -12.389  12.627  63.690  1.00  0.00    -0.492 C  
HETATM    3  H1  UNL     1     -11.470  14.489  63.496  1.00  0.00     0.000 HD 
HETATM    4  H2  UNL     1     -13.137  14.402  62.931  1.00  0.00     0.000 HD 
HETATM    5  O   UNL     1     -13.411  11.980  63.510  1.00  0.00    -0.649 OA 
ENDROOT
BRANCH   2   6
HETATM    6  C   UNL     1     -11.194  12.028  64.322  1.00  0.00    -0.421 A  
HETATM    7  C   UNL     1     -10.276  11.238  63.627  1.00  0.00    -0.446 A  
HETATM    8  C   UNL     1      -9.178  10.711  64.308  1.00  0.00    -0.265 A  
HETATM    9  C   UNL     1      -9.041  10.992  65.659  1.00  0.00    -0.206 A  
HETATM   10  N   UNL     1      -9.914  11.746  66.361  1.00  0.00    -0.206 NA 
HETATM   11  C   UNL     1     -10.979  12.239  65.678  1.00  0.00    -0.299 A  
ENDBRANCH   2   6
TORSDOF 1
ENDMDL
MODEL       22
REMARK 921   NORMALIZED FREE ENERGY PREDICTED BY IDOCK:   -3.88 KCAL/MOL
REMARK 922        TOTAL FREE ENERGY PREDICTED BY IDOCK:   -4.13 KCAL/MOL
REMARK 923 INTER-LIGAND FREE ENERGY PREDICTED BY IDOCK:   -4.10 KCAL/MOL
REMARK 924 INTRA-LIGAND FREE ENERGY PREDICTED BY IDOCK:   -0.03 KCAL/MOL
REMARK 927      BINDING AFFINITY PREDICTED BY RF-SCORE:    0.00 PKD
ROOT
HETATM    1  N   UNL     1     -13.239  15.467  73.651  1.00  0.00    -0.634 N  
HETATM    2  C   UNL     1     -13.394  14.584  72.618  1.00  0.00    -0.495 C  
HETATM    3  H1  UNL     1     -12.552  16.220  73.600  1.00  0.00     0.000 HD 
HETATM    4  H2  UNL     1     -13.819  15.372  74.485  1.00  0.00     0.000 HD 
HETATM    5  O   UNL     1     -14.217  13.681  72.680  1.00  0.00    -0.735 OA 
ENDROOT
BRANCH   2   6
HETATM    6  C   UNL     1     -12.504  14.741  71.449  1.00  0.00    -0.401 A  
HETATM    7  C   UNL     1     -12.272  13.724  70.520  1.00  0.00    -0.440 A  
HETATM    8  C   UNL     1     -11.412  13.962  69.449  1.00  0.00    -0.334 A  
HETATM    9  C   UNL     1     -10.813  15.209  69.347  1.00  0.00    -0.262 A  
HETATM   10  N   UNL     1     -11.011  16.211  70.230  1.00  0.00    -0.353 NA 
HETATM   11  C   UNL     1     -11.845  15.951  71.270  1.00  0.00    -0.449 A  
ENDBRANCH   2   6
TORSDOF 1
ENDMDL
MODEL       23
REMARK 921   NORMALIZED FREE ENERGY PREDICTED BY IDOCK:   -3.76 KCAL/MOL
REMARK 922        TOTAL FREE ENERGY PREDICTED BY IDOCK:   -4.00 KCAL/MOL
REMARK 923 INTER-LIGAND FREE ENERGY PREDICTED BY IDOCK:   -3.97 KCAL/MOL
REMARK 924 INTRA-LIGAND FREE ENERGY PREDICTED BY IDOCK:   -0.03 KCAL/MOL
REMARK 927      BINDING AFFINITY PREDICTED BY RF-SCORE:    0.00 PKD
ROOT
HETATM    1  N   UNL     1      -9.588  14.413  67.187  1.00  0.00    -0.243 N  
HETATM    2  C   UNL     1     -10.913  14.408  66.849  1.00  0.00    -0.308 C  
HETATM    3  H1  UNL     1      -8.903  13.897  66.634  1.00  0.00     0.000 HD 
HETATM    4  H2  UNL     1      -9.279  14.941  68.003  1.00  0.00     0.000 HD 
HETATM    5  O   UNL     1     -11.734  15.026  67.511  1.00  0.00    -0.343 OA 
ENDROOT
BRANCH   2   6
HETATM    6  C   UNL     1     -11.314  13.597  65.680  1.00  0.00    -0.309 A  
HETATM    7  C   UNL     1     -10.414  13.167  64.701  1.00  0.00    -0.411 A  
HETATM    8  C   UNL     1     -10.884  12.408  63.629  1.00  0.00    -0.509 A  
HETATM    9  C   UNL     1     -12.237  12.109  63.575  1.00  0.00    -0.567 A  
HETATM   10  N   UNL     1     -13.133  12.514  64.500  1.00  0.00    -0.839 NA 
HETATM   11  C   UNL     1     -12.653  13.259  65.528  1.00  0.00    -0.446 A  
ENDBRANCH   2   6
TORSDOF 1
ENDMDL
MODEL       24
REMARK 921   NORMALIZED FREE ENERGY PREDICTED BY IDOCK:   -3.71 KCAL/MOL
REMARK 922        TOTAL FREE ENERGY PREDICTED BY IDOCK:   -3.96 KCAL/MOL
REMARK 923 INTER-LIGAND FREE ENERGY PREDICTED BY IDOCK:   -3.93 KCAL/MOL
REMARK 924 INTRA-LIGAND FREE ENERGY PREDICTED BY IDOCK:   -0.03 KCAL/MOL
REMARK 927      BINDING AFFINITY PREDICTED BY RF-SCORE:    0.00 PKD
ROOT
HETATM    1  N   UNL     1     -13.971   9.138  72.850  1.00  0.00    -0.876 N  
HETATM    2  C   UNL     1     -13.052   9.414  71.874  1.00  0.00    -0.424 C  
HETATM    3  H1  UNL     1     -14.504   9.886  73.295  1.00  0.00     0.000 HD 
HETATM    4  H2  UNL     1     -14.126   8.172  73.136  1.00  0.00     0.000 HD 
HETATM    5  O   UNL     1     -12.414   8.518  71.340  1.00  0.00    -0.308 OA 
ENDROOT
BRANCH   2   6
HETATM    6  C   UNL     1     -12.838  10.833  71.523  1.00  0.00    -0.567 A  
HETATM    7  C   UNL     1     -13.370  11.894  72.261  1.00  0.00    -0.212 A  
HETATM    8  C   UNL     1     -13.118  13.203  71.851  1.00  0.00    -0.482 A  
HETATM    9  C   UNL     1     -12.344  13.403  70.718  1.00  0.00    -0.354 A  
HETATM   10  N   UNL     1     -11.821  12.401  69.980  1.00  0.00    -0.320 NA 
HETATM   11  C   UNL     1     -12.089  11.136  70.393  1.00  0.00    -0.385 A  
ENDBRANCH   2   6
TORSDOF 1
ENDMDL
MODEL       25
REMARK 921   NORMALIZED FREE ENERGY PREDICTED BY IDOCK:   -3.68 KCAL/MOL
REMARK 922        TOTAL FREE ENERGY PREDICTED BY IDOCK:   -3.92 KCAL/MOL
REMARK 923 INTER-LIGAND FREE ENERGY PREDICTED BY IDOCK:   -3.90 KCAL/MOL
REMARK 924 INTRA-LIGAND FREE ENERGY PREDICTED BY IDOCK:   -0.02 KCAL/MOL
REMARK 927      BINDING AFFINITY PREDICTED BY RF-SCORE:    0.00 PKD
ROOT
HETATM    1  N   UNL     1     -10.897  14.788  64.619  1.00  0.00    -0.608 N  
HETATM    2  C   UNL     1     -10.796  16.108  64.964  1.00  0.00    -0.363 C  
HETATM    3  H1  UNL     1     -10.443  14.064  65.176  1.00  0.00     0.000 HD 
HETATM    4  H2  UNL     1     -11.435  14.523  63.794  1.00  0.00     0.000 HD 
HETATM    5  O   UNL     1     -11.340  16.976  64.297  1.00  0.00    -1.191 OA 
ENDROOT
BRANCH   2   6
HETATM    6  C   UNL     1      -9.974  16.441  66.146  1.00  0.00    -0.360 A  
HETATM    7  C   UNL     1      -8.796  15.767  66.475  1.00  0.00    -0.345 A  
HETATM    8  C   UNL     1      -8.087  16.149  67.614  1.00  0.00    -0.163 A  
HETATM    9  C   UNL     1      -8.585  17.189  68.384  1.00  0.00    -0.246 A  
HETATM   10  N   UNL     1      -9.723  17.856  68.098  1.00  0.00    -0.304 NA 
HETATM   11  C   UNL     1     -10.400  17.460  66.990  1.00  0.00    -0.318 A  
ENDBRANCH   2   6
TORSDOF 1
ENDMDL
MODEL       26
REMARK 921   NORMALIZED FREE ENERGY PREDICTED BY IDOCK:   -3.66 KCAL/MOL
REMARK 922        TOTAL FREE ENERGY PREDICTED BY IDOCK:   -3.90 KCAL/MOL
REMARK 923 INTER-LIGAND FREE ENERGY PREDICTED BY IDOCK:   -3.88 KCAL/MOL
REMARK 924 INTRA-LIGAND FREE ENERGY PREDICTED BY IDOCK:   -0.02 KCAL/MOL
REMARK 927      BINDING AFFINITY PREDICTED BY RF-SCORE:    0.00 PKD
ROOT
HETATM    1  N   UNL     1     -11.230  12.581  69.781  1.00  0.00    -0.487 N  
HETATM    2  C   UNL     1     -11.779  11.380  69.422  1.00  0.00    -0.338 C  
HETATM    3  H1  UNL     1     -10.940  12.759  70.743  1.00  0.00     0.000 HD 
HETATM    4  H2  UNL     1     -11.110  13.309  69.077  1.00  0.00     0.000 HD 
HETATM    5  O   UNL     1     -12.127  11.167  68.270  1.00  0.00    -0.620 OA 
ENDROOT
BRANCH   2   6
HETATM    6  C   UNL     1     -11.968  10.373  70.487  1.00  0.00    -0.427 A  
HETATM    7  C   UNL     1     -13.149  10.247  71.222  1.00  0.00    -0.492 A  
HETATM    8  C   UNL     1     -13.235   9.268  72.212  1.00  0.00    -0.535 A  
HETATM    9  C   UNL     1     -12.135   8.453  72.433  1.00  0.00    -0.378 A  
HETATM   10  N   UNL     1     -10.977   8.553  71.746  1.00  0.00    -0.282 NA 
HETATM   11  C   UNL     1     -10.915   9.520  70.794  1.00  0.00    -0.321 A  
ENDBRANCH   2   6
TORSDOF 1
ENDMDL
MODEL       27
REMARK 921   NORMALIZED FREE ENERGY PREDICTED BY IDOCK:   -3.65 KCAL/MOL
REMARK 922        TOTAL FREE ENERGY PREDICTED BY IDOCK:   -3.89 KCAL/MOL
REMARK 923 INTER-LIGAND FREE ENERGY PREDICTED BY IDOCK:   -3.87 KCAL/MOL
REMARK 924 INTRA-LIGAND FREE ENERGY PREDICTED BY IDOCK:   -0.02 KCAL/MOL
REMARK 927      BINDING AFFINITY PREDICTED BY RF-SCORE:    0.00 PKD
ROOT
HETATM    1  N   UNL     1     -13.615   9.560  70.761  1.00  0.00    -0.568 N  
HETATM    2  C   UNL     1     -12.539  10.335  71.097  1.00  0.00    -0.400 C  
HETATM    3  H1  UNL     1     -14.529   9.978  70.585  1.00  0.00     0.000 HD 
HETATM    4  H2  UNL     1     -13.502   8.549  70.683  1.00  0.00     0.000 HD 
HETATM    5  O   UNL     1     -11.444   9.833  71.307  1.00  0.00    -0.353 OA 
ENDROOT
BRANCH   2   6
HETATM    6  C   UNL     1     -12.764  11.789  71.233  1.00  0.00    -0.420 A  
HETATM    7  C   UNL     1     -12.105  12.742  70.453  1.00  0.00    -0.382 A  
HETATM    8  C   UNL     1     -12.378  14.095  70.655  1.00  0.00    -0.435 A  
HETATM    9  C   UNL     1     -13.299  14.445  71.631  1.00  0.00    -0.363 A  
HETATM   10  N   UNL     1     -13.947  13.549  72.406  1.00  0.00    -0.703 NA 
HETATM   11  C   UNL     1     -13.657  12.240  72.197  1.00  0.00    -0.247 A  
ENDBRANCH   2   6
TORSDOF 1
ENDMDL
MODEL       28
REMARK 921   NORMALIZED FREE ENERGY PREDICTED BY IDOCK:   -3.62 KCAL/MOL
REMARK 922        TOTAL FREE ENERGY PREDICTED BY IDOCK:   -3.85 KCAL/MOL
REMARK 923 INTER-LIGAND FREE ENERGY PREDICTED BY IDOCK:   -3.83 KCAL/MOL
REMARK 924 INTRA-LIGAND FREE ENERGY PREDICTED BY IDOCK:   -0.02 KCAL/MOL
REMARK 927      BINDING AFFINITY PREDICTED BY RF-SCORE:    0.00 PKD
ROOT
HETATM    1  N   UNL     1     -12.357  14.356  63.670  1.00  0.00    -1.106 N  
HETATM    2  C   UNL     1     -12.251  13.048  64.055  1.00  0.00    -0.417 C  
HETATM    3  H1  UNL     1     -11.635  15.035  63.913  1.00  0.00     0.000 HD 
HETATM    4  H2  UNL     1     -13.169  14.657  63.131  1.00  0.00     0.000 HD 
HETATM    5  O   UNL     1     -13.116  12.234  63.764  1.00  0.00    -0.780 OA 
ENDROOT
BRANCH   2   6
HETATM    6  C   UNL     1     -11.075  12.671  64.867  1.00  0.00    -0.331 A  
HETATM    7  C   UNL     1     -10.587  13.451  65.918  1.00  0.00    -0.286 A  
HETATM    8  C   UNL     1      -9.468  13.017  66.627  1.00  0.00    -0.256 A  
HETATM    9  C   UNL     1      -8.875  11.818  66.257  1.00  0.00    -0.142 A  
HETATM   10  N   UNL     1      -9.317  11.045  65.243  1.00  0.00    -0.211 NA 
HETATM   11  C   UNL     1     -10.403  11.494  64.562  1.00  0.00    -0.302 A  
ENDBRANCH   2   6
TORSDOF 1
ENDMDL
MODEL       29
REMARK 921   NORMALIZED FREE ENERGY PREDICTED BY IDOCK:   -3.60 KCAL/MOL
REMARK 922        TOTAL FREE ENERGY PREDICTED BY IDOCK:   -3.84 KCAL/MOL
REMARK 923 INTER-LIGAND FREE ENERGY PREDICTED BY IDOCK:   -3.81 KCAL/MOL
REMARK 924 INTRA-LIGAND FREE ENERGY PREDICTED BY IDOCK:   -0.03 KCAL/MOL
REMARK 927      BINDING AFFINITY PREDICTED BY RF-SCORE:    0.00 PKD
ROOT
HETATM    1  N   UNL     1     -10.654  13.044  68.806  1.00  0.00    -0.355 N  
HETATM    2  C   UNL     1     -11.496  12.686  67.789  1.00  0.00    -0.322 C  
HETATM    3  H1  UNL     1     -10.131  13.920  68.770  1.00  0.00     0.000 HD 
HETATM    4  H2  UNL     1     -10.548  12.428  69.611  1.00  0.00     0.000 HD 
HETATM    5  O   UNL     1     -12.122  11.636  67.831  1.00  0.00    -0.613 OA 
ENDROOT
BRANCH   2   6
HETATM    6  C   UNL     1     -11.585  13.595  66.627  1.00  0.00    -0.391 A  
HETATM    7  C   UNL     1     -10.735  14.689  66.443  1.00  0.00    -0.309 A  
HETATM    8  C   UNL     1     -10.896  15.495  65.317  1.00  0.00    -0.425 A  
HETATM    9  C   UNL     1     -11.903  15.179  64.416  1.00  0.00    -0.305 A  
HETATM   10  N   UNL     1     -12.744  14.135  64.568  1.00  0.00    -0.654 NA 
HETATM   11  C   UNL     1     -12.574  13.370  65.677  1.00  0.00    -0.438 A  
ENDBRANCH   2   6
TORSDOF 1
ENDMDL
MODEL       30
REMARK 921   NORMALIZED FREE ENERGY PREDICTED BY IDOCK:   -3.60 KCAL/MOL
REMARK 922        TOTAL FREE ENERGY PREDICTED BY IDOCK:   -3.83 KCAL/MOL
REMARK 923 INTER-LIGAND FREE ENERGY PREDICTED BY IDOCK:   -3.81 KCAL/MOL
REMARK 924 INTRA-LIGAND FREE ENERGY PREDICTED BY IDOCK:   -0.03 KCAL/MOL
REMARK 927      BINDING AFFINITY PREDICTED BY RF-SCORE:    0.00 PKD
ROOT
HETATM    1  N   UNL     1     -10.587  12.728  68.964  1.00  0.00    -0.431 N  
HETATM    2  C   UNL     1     -11.501  12.248  68.066  1.00  0.00    -0.321 C  
HETATM    3  H1  UNL     1     -10.043  13.566  68.762  1.00  0.00     0.000 HD 
HETATM    4  H2  UNL     1     -10.448  12.240  69.849  1.00  0.00     0.000 HD 
HETATM    5  O   UNL     1     -12.153  11.242  68.308  1.00  0.00    -0.619 OA 
ENDROOT
BRANCH   2   6
HETATM    6  C   UNL     1     -11.637  12.968  66.783  1.00  0.00    -0.420 A  
HETATM    7  C   UNL     1     -12.021  12.347  65.592  1.00  0.00    -0.449 A  
HETATM    8  C   UNL     1     -12.119  13.107  64.427  1.00  0.00    -0.471 A  
HETATM    9  C   UNL     1     -11.827  14.462  64.496  1.00  0.00    -0.449 A  
HETATM   10  N   UNL     1     -11.447  15.091  65.628  1.00  0.00    -0.298 NA 
HETATM   11  C   UNL     1     -11.350  14.327  66.746  1.00  0.00    -0.348 A  
ENDBRANCH   2   6
TORSDOF 1
ENDMDL
MODEL       31
REMARK 921   NORMALIZED FREE ENERGY PREDICTED BY IDOCK:   -3.58 KCAL/MOL
REMARK 922        TOTAL FREE ENERGY PREDICTED BY IDOCK:   -3.82 KCAL/MOL
REMARK 923 INTER-LIGAND FREE ENERGY PREDICTED BY IDOCK:   -3.79 KCAL/MOL
REMARK 924 INTRA-LIGAND FREE ENERGY PREDICTED BY IDOCK:   -0.03 KCAL/MOL
REMARK 927      BINDING AFFINITY PREDICTED BY RF-SCORE:    0.00 PKD
ROOT
HETATM    1  N   UNL     1     -12.939  15.098  73.829  1.00  0.00    -0.525 N  
HETATM    2  C   UNL     1     -13.203  14.350  72.714  1.00  0.00    -0.520 C  
HETATM    3  H1  UNL     1     -12.229  15.829  73.815  1.00  0.00     0.000 HD 
HETATM    4  H2  UNL     1     -13.461  14.921  74.687  1.00  0.00     0.000 HD 
HETATM    5  O   UNL     1     -14.055  13.473  72.731  1.00  0.00    -0.719 OA 
ENDROOT
BRANCH   2   6
HETATM    6  C   UNL     1     -12.393  14.620  71.507  1.00  0.00    -0.415 A  
HETATM    7  C   UNL     1     -11.290  15.477  71.501  1.00  0.00    -0.466 A  
HETATM    8  C   UNL     1     -10.587  15.674  70.313  1.00  0.00    -0.329 A  
HETATM    9  C   UNL     1     -11.014  15.008  69.174  1.00  0.00    -0.261 A  
HETATM   10  N   UNL     1     -12.079  14.179  69.145  1.00  0.00    -0.344 NA 
HETATM   11  C   UNL     1     -12.753  14.011  70.311  1.00  0.00    -0.210 A  
ENDBRANCH   2   6
TORSDOF 1
ENDMDL
MODEL       32
REMARK 921   NORMALIZED FREE ENERGY PREDICTED BY IDOCK:   -3.56 KCAL/MOL
REMARK 922        TOTAL FREE ENERGY PREDICTED BY IDOCK:   -3.79 KCAL/MOL
REMARK 923 INTER-LIGAND FREE ENERGY PREDICTED BY IDOCK:   -3.77 KCAL/MOL
REMARK 924 INTRA-LIGAND FREE ENERGY PREDICTED BY IDOCK:   -0.02 KCAL/MOL
REMARK 927      BINDING AFFINITY PREDICTED BY RF-SCORE:    0.00 PKD
ROOT
HETATM    1  N   UNL     1     -13.264  15.013  70.413  1.00  0.00    -0.655 N  
HETATM    2  C   UNL     1     -12.019  14.778  69.897  1.00  0.00    -0.328 C  
HETATM    3  H1  UNL     1     -14.096  14.606  69.985  1.00  0.00     0.000 HD 
HETATM    4  H2  UNL     1     -13.363  15.604  71.239  1.00  0.00     0.000 HD 
HETATM    5  O   UNL     1     -11.023  15.266  70.411  1.00  0.00    -0.281 OA 
ENDROOT
BRANCH   2   6
HETATM    6  C   UNL     1     -11.934  13.947  68.678  1.00  0.00    -0.401 A  
HETATM    7  C   UNL     1     -11.897  14.481  67.388  1.00  0.00    -0.416 A  
HETATM    8  C   UNL     1     -11.820  13.618  66.295  1.00  0.00    -0.426 A  
HETATM    9  C   UNL     1     -11.786  12.252  66.533  1.00  0.00    -0.352 A  
HETATM   10  N   UNL     1     -11.827  11.704  67.766  1.00  0.00    -0.611 NA 
HETATM   11  C   UNL     1     -11.911  12.564  68.813  1.00  0.00    -0.303 A  
ENDBRANCH   2   6
TORSDOF 1
ENDMDL
MODEL       33
REMARK 921   NORMALIZED FREE ENERGY PREDICTED BY IDOCK:   -3.54 KCAL/MOL
REMARK 922        TOTAL FREE ENERGY PREDICTED BY IDOCK:   -3.77 KCAL/MOL
REMARK 923 INTER-LIGAND FREE ENERGY PREDICTED BY IDOCK:   -3.75 KCAL/MOL
REMARK 924 INTRA-LIGAND FREE ENERGY PREDICTED BY IDOCK:   -0.02 KCAL/MOL
REMARK 927      BINDING AFFINITY PREDICTED BY RF-SCORE:    0.00 PKD
ROOT
HETATM    1  N   UNL     1     -11.998  12.371  70.521  1.00  0.00    -0.520 N  
HETATM    2  C   UNL     1     -12.713  11.662  71.447  1.00  0.00    -0.339 C  
HETATM    3  H1  UNL     1     -11.389  11.898  69.853  1.00  0.00     0.000 HD 
HETATM    4  H2  UNL     1     -12.075  13.388  70.497  1.00  0.00     0.000 HD 
HETATM    5  O   UNL     1     -13.443  12.229  72.247  1.00  0.00    -0.520 OA 
ENDROOT
BRANCH   2   6
HETATM    6  C   UNL     1     -12.538  10.195  71.464  1.00  0.00    -0.537 A  
HETATM    7  C   UNL     1     -11.323   9.565  71.179  1.00  0.00    -0.440 A  
HETATM    8  C   UNL     1     -11.252   8.173  71.215  1.00  0.00    -0.297 A  
HETATM    9  C   UNL     1     -12.399   7.461  71.534  1.00  0.00    -0.353 A  
HETATM   10  N   UNL     1     -13.588   8.038  71.808  1.00  0.00    -0.350 NA 
HETATM   11  C   UNL     1     -13.634   9.394  71.756  1.00  0.00    -0.388 A  
ENDBRANCH   2   6
TORSDOF 1
ENDMDL
MODEL       34
REMARK 921   NORMALIZED FREE ENERGY PREDICTED BY IDOCK:   -3.50 KCAL/MOL
REMARK 922        TOTAL FREE ENERGY PREDICTED BY IDOCK:   -3.73 KCAL/MOL
REMARK 923 INTER-LIGAND FREE ENERGY PREDICTED BY IDOCK:   -3.70 KCAL/MOL
REMARK 924 INTRA-LIGAND FREE ENERGY PREDICTED BY IDOCK:   -0.03 KCAL/MOL
REMARK 927      BINDING AFFINITY PREDICTED BY RF-SCORE:    0.00 PKD
ROOT
HETATM    1  N   UNL     1     -14.033   8.961  72.882  1.00  0.00    -0.890 N  
HETATM    2  C   UNL     1     -13.041   9.573  72.165  1.00  0.00    -0.436 C  
HETATM    3  H1  UNL     1     -14.024   7.953  73.035  1.00  0.00     0.000 HD 
HETATM    4  H2  UNL     1     -14.792   9.522  73.268  1.00  0.00     0.000 HD 
HETATM    5  O   UNL     1     -13.052  10.782  71.981  1.00  0.00    -0.483 OA 
ENDROOT
BRANCH   2   6
HETATM    6  C   UNL     1     -11.984   8.712  71.594  1.00  0.00    -0.388 A  
HETATM    7  C   UNL     1     -10.671   9.144  71.390  1.00  0.00    -0.414 A  
HETATM    8  C   UNL     1      -9.741   8.261  70.841  1.00  0.00    -0.204 A  
HETATM    9  C   UNL     1     -10.159   6.980  70.513  1.00  0.00    -0.191 A  
HETATM   10  N   UNL     1     -11.421   6.534  70.691  1.00  0.00    -0.352 NA 
HETATM   11  C   UNL     1     -12.310   7.415  71.218  1.00  0.00    -0.346 A  
ENDBRANCH   2   6
TORSDOF 1
ENDMDL
MODEL       35
REMARK 921   NORMALIZED FREE ENERGY PREDICTED BY IDOCK:   -3.49 KCAL/MOL
REMARK 922        TOTAL FREE ENERGY PREDICTED BY IDOCK:   -3.72 KCAL/MOL
REMARK 923 INTER-LIGAND FREE ENERGY PREDICTED BY IDOCK:   -3.70 KCAL/MOL
REMARK 924 INTRA-LIGAND FREE ENERGY PREDICTED BY IDOCK:   -0.02 KCAL/MOL
REMARK 927      BINDING AFFINITY PREDICTED BY RF-SCORE:    0.00 PKD
ROOT
HETATM    1  N   UNL     1     -10.612  17.977  65.978  1.00  0.00    -0.339 N  
HETATM    2  C   UNL     1     -10.021  16.751  65.834  1.00  0.00    -0.276 C  
HETATM    3  H1  UNL     1     -11.626  18.066  66.048  1.00  0.00     0.000 HD 
HETATM    4  H2  UNL     1     -10.030  18.814  66.017  1.00  0.00     0.000 HD 
HETATM    5  O   UNL     1      -8.805  16.645  65.750  1.00  0.00    -0.493 OA 
ENDROOT
BRANCH   2   6
HETATM    6  C   UNL     1     -10.909  15.574  65.744  1.00  0.00    -0.337 A  
HETATM    7  C   UNL     1     -11.168  14.726  66.824  1.00  0.00    -0.344 A  
HETATM    8  C   UNL     1     -12.018  13.635  66.645  1.00  0.00    -0.458 A  
HETATM    9  C   UNL     1     -12.577  13.431  65.391  1.00  0.00    -0.475 A  
HETATM   10  N   UNL     1     -12.342  14.227  64.327  1.00  0.00    -0.667 NA 
HETATM   11  C   UNL     1     -11.504  15.277  64.524  1.00  0.00    -0.315 A  
ENDBRANCH   2   6
TORSDOF 1
ENDMDL
MODEL       36
REMARK 921   NORMALIZED FREE ENERGY PREDICTED BY IDOCK:   -3.49 KCAL/MOL
REMARK 922        TOTAL FREE ENERGY PREDICTED BY IDOCK:   -3.72 KCAL/MOL
REMARK 923 INTER-LIGAND FREE ENERGY PREDICTED BY IDOCK:   -3.69 KCAL/MOL
REMARK 924 INTRA-LIGAND FREE ENERGY PREDICTED BY IDOCK:   -0.03 KCAL/MOL
REMARK 927      BINDING AFFINITY PREDICTED BY RF-SCORE:    0.00 PKD
ROOT
HETATM    1  N   UNL     1     -14.101   9.079  73.036  1.00  0.00    -0.830 N  
HETATM    2  C   UNL     1     -13.171   9.627  72.195  1.00  0.00    -0.444 C  
HETATM    3  H1  UNL     1     -14.133   8.072  73.198  1.00  0.00     0.000 HD 
HETATM    4  H2  UNL     1     -14.772   9.686  73.507  1.00  0.00     0.000 HD 
HETATM    5  O   UNL     1     -13.132  10.834  72.001  1.00  0.00    -0.483 OA 
ENDROOT
BRANCH   2   6
HETATM    6  C   UNL     1     -12.247   8.702  71.507  1.00  0.00    -0.368 A  
HETATM    7  C   UNL     1     -12.498   7.335  71.362  1.00  0.00    -0.418 A  
HETATM    8  C   UNL     1     -11.566   6.537  70.700  1.00  0.00    -0.442 A  
HETATM    9  C   UNL     1     -10.414   7.135  70.209  1.00  0.00    -0.217 A  
HETATM   10  N   UNL     1     -10.138   8.450  70.339  1.00  0.00    -0.185 NA 
HETATM   11  C   UNL     1     -11.057   9.204  70.995  1.00  0.00    -0.305 A  
ENDBRANCH   2   6
TORSDOF 1
ENDMDL
MODEL       37
REMARK 921   NORMALIZED FREE ENERGY PREDICTED BY IDOCK:   -3.48 KCAL/MOL
REMARK 922        TOTAL FREE ENERGY PREDICTED BY IDOCK:   -3.71 KCAL/MOL
REMARK 923 INTER-LIGAND FREE ENERGY PREDICTED BY IDOCK:   -3.68 KCAL/MOL
REMARK 924 INTRA-LIGAND FREE ENERGY PREDICTED BY IDOCK:   -0.03 KCAL/MOL
REMARK 927      BINDING AFFINITY PREDICTED BY RF-SCORE:    0.00 PKD
ROOT
HETATM    1  N   UNL     1      -6.669  21.322  66.531  1.00  0.00    -0.528 N  
HETATM    2  C   UNL     1      -7.025  20.565  67.613  1.00  0.00    -0.322 C  
HETATM    3  H1  UNL     1      -7.284  21.403  65.722  1.00  0.00     0.000 HD 
HETATM    4  H2  UNL     1      -5.774  21.813  66.534  1.00  0.00     0.000 HD 
HETATM    5  O   UNL     1      -6.288  20.468  68.584  1.00  0.00    -0.311 OA 
ENDROOT
BRANCH   2   6
HETATM    6  C   UNL     1      -8.313  19.843  67.544  1.00  0.00    -0.366 A  
HETATM    7  C   UNL     1      -9.223  19.999  66.495  1.00  0.00    -0.471 A  
HETATM    8  C   UNL     1     -10.417  19.278  66.516  1.00  0.00    -0.552 A  
HETATM    9  C   UNL     1     -10.658  18.429  67.586  1.00  0.00    -0.408 A  
HETATM   10  N   UNL     1      -9.803  18.261  68.617  1.00  0.00    -0.368 NA 
HETATM   11  C   UNL     1      -8.652  18.980  68.579  1.00  0.00    -0.358 A  
ENDBRANCH   2   6
TORSDOF 1
ENDMDL
MODEL       38
REMARK 921   NORMALIZED FREE ENERGY PREDICTED BY IDOCK:   -3.45 KCAL/MOL
REMARK 922        TOTAL FREE ENERGY PREDICTED BY IDOCK:   -3.68 KCAL/MOL
REMARK 923 INTER-LIGAND FREE ENERGY PREDICTED BY IDOCK:   -3.66 KCAL/MOL
REMARK 924 INTRA-LIGAND FREE ENERGY PREDICTED BY IDOCK:   -0.02 KCAL/MOL
REMARK 927      BINDING AFFINITY PREDICTED BY RF-SCORE:    0.00 PKD
ROOT
HETATM    1  N   UNL     1      -6.589  21.031  65.198  1.00  0.00    -0.503 N  
HETATM    2  C   UNL     1      -7.029  19.786  65.553  1.00  0.00    -0.304 C  
HETATM    3  H1  UNL     1      -6.992  21.870  65.616  1.00  0.00     0.000 HD 
HETATM    4  H2  UNL     1      -5.845  21.123  64.506  1.00  0.00     0.000 HD 
HETATM    5  O   UNL     1      -6.545  18.781  65.052  1.00  0.00    -0.496 OA 
ENDROOT
BRANCH   2   6
HETATM    6  C   UNL     1      -8.134  19.708  66.532  1.00  0.00    -0.338 A  
HETATM    7  C   UNL     1      -7.937  19.442  67.889  1.00  0.00    -0.335 A  
HETATM    8  C   UNL     1      -9.042  19.384  68.739  1.00  0.00    -0.411 A  
HETATM    9  C   UNL     1     -10.303  19.592  68.200  1.00  0.00    -0.433 A  
HETATM   10  N   UNL     1     -10.527  19.844  66.893  1.00  0.00    -0.462 NA 
HETATM   11  C   UNL     1      -9.437  19.886  66.084  1.00  0.00    -0.377 A  
ENDBRANCH   2   6
TORSDOF 1
ENDMDL
MODEL       39
REMARK 921   NORMALIZED FREE ENERGY PREDICTED BY IDOCK:   -3.45 KCAL/MOL
REMARK 922        TOTAL FREE ENERGY PREDICTED BY IDOCK:   -3.67 KCAL/MOL
REMARK 923 INTER-LIGAND FREE ENERGY PREDICTED BY IDOCK:   -3.66 KCAL/MOL
REMARK 924 INTRA-LIGAND FREE ENERGY PREDICTED BY IDOCK:   -0.02 KCAL/MOL
REMARK 927      BINDING AFFINITY PREDICTED BY RF-SCORE:    0.00 PKD
ROOT
HETATM    1  N   UNL     1     -10.288  13.895  64.353  1.00  0.00    -0.646 N  
HETATM    2  C   UNL     1     -11.021  12.740  64.355  1.00  0.00    -0.361 C  
HETATM    3  H1  UNL     1      -9.775  14.192  65.183  1.00  0.00     0.000 HD 
HETATM    4  H2  UNL     1     -10.255  14.467  63.510  1.00  0.00     0.000 HD 
HETATM    5  O   UNL     1     -11.637  12.383  63.361  1.00  0.00    -0.464 OA 
ENDROOT
BRANCH   2   6
HETATM    6  C   UNL     1     -11.069  11.967  65.614  1.00  0.00    -0.362 A  
HETATM    7  C   UNL     1     -10.361  10.779  65.811  1.00  0.00    -0.295 A  
HETATM    8  C   UNL     1     -10.470  10.115  67.033  1.00  0.00    -0.302 A  
HETATM    9  C   UNL     1     -11.286  10.662  68.012  1.00  0.00    -0.307 A  
HETATM   10  N   UNL     1     -11.988  11.803  67.851  1.00  0.00    -0.597 NA 
HETATM   11  C   UNL     1     -11.873  12.426  66.650  1.00  0.00    -0.325 A  
ENDBRANCH   2   6
TORSDOF 1
ENDMDL
MODEL       40
REMARK 921   NORMALIZED FREE ENERGY PREDICTED BY IDOCK:   -3.43 KCAL/MOL
REMARK 922        TOTAL FREE ENERGY PREDICTED BY IDOCK:   -3.66 KCAL/MOL
REMARK 923 INTER-LIGAND FREE ENERGY PREDICTED BY IDOCK:   -3.64 KCAL/MOL
REMARK 924 INTRA-LIGAND FREE ENERGY PREDICTED BY IDOCK:   -0.02 KCAL/MOL
REMARK 927      BINDING AFFINITY PREDICTED BY RF-SCORE:    0.00 PKD
ROOT
HETATM    1  N   UNL     1     -11.354   7.510  73.216  1.00  0.00    -0.591 N  
HETATM    2  C   UNL     1     -12.072   7.713  72.069  1.00  0.00    -0.299 C  
HETATM    3  H1  UNL     1     -10.912   8.290  73.703  1.00  0.00     0.000 HD 
HETATM    4  H2  UNL     1     -11.258   6.566  73.589  1.00  0.00     0.000 HD 
HETATM    5  O   UNL     1     -12.601   6.778  71.484  1.00  0.00    -0.361 OA 
ENDROOT
BRANCH   2   6
HETATM    6  C   UNL     1     -12.147   9.094  71.549  1.00  0.00    -0.422 A  
HETATM    7  C   UNL     1     -13.012  10.061  72.067  1.00  0.00    -0.514 A  
HETATM    8  C   UNL     1     -13.018  11.340  71.509  1.00  0.00    -0.520 A  
HETATM    9  C   UNL     1     -12.159  11.603  70.452  1.00  0.00    -0.373 A  
HETATM   10  N   UNL     1     -11.317  10.690  69.924  1.00  0.00    -0.290 NA 
HETATM   11  C   UNL     1     -11.337   9.450  70.478  1.00  0.00    -0.274 A  
ENDBRANCH   2   6
TORSDOF 1
ENDMDL
MODEL       41
REMARK 921   NORMALIZED FREE ENERGY PREDICTED BY IDOCK:   -3.42 KCAL/MOL
REMARK 922        TOTAL FREE ENERGY PREDICTED BY IDOCK:   -3.64 KCAL/MOL
REMARK 923 INTER-LIGAND FREE ENERGY PREDICTED BY IDOCK:   -3.62 KCAL/MOL
REMARK 924 INTRA-LIGAND FREE ENERGY PREDICTED BY IDOCK:   -0.02 KCAL/MOL
REMARK 927      BINDING AFFINITY PREDICTED BY RF-SCORE:    0.00 PKD
ROOT
HETATM    1  N   UNL     1     -12.238  13.097  63.023  1.00  0.00    -0.850 N  
HETATM    2  C   UNL     1     -11.403  12.746  64.048  1.00  0.00    -0.413 C  
HETATM    3  H1  UNL     1     -12.804  13.944  63.074  1.00  0.00     0.000 HD 
HETATM    4  H2  UNL     1     -12.296  12.502  62.196  1.00  0.00     0.000 HD 
HETATM    5  O   UNL     1     -10.724  11.731  63.988  1.00  0.00    -0.311 OA 
ENDROOT
BRANCH   2   6
HETATM    6  C   UNL     1     -11.385  13.620  65.240  1.00  0.00    -0.306 A  
HETATM    7  C   UNL     1     -10.883  14.924  65.226  1.00  0.00    -0.398 A  
HETATM    8  C   UNL     1     -10.904  15.674  66.402  1.00  0.00    -0.252 A  
HETATM    9  C   UNL     1     -11.422  15.092  67.549  1.00  0.00    -0.328 A  
HETATM   10  N   UNL     1     -11.908  13.833  67.597  1.00  0.00    -0.365 NA 
HETATM   11  C   UNL     1     -11.869  13.120  66.443  1.00  0.00    -0.400 A  
ENDBRANCH   2   6
TORSDOF 1
ENDMDL
MODEL       42
REMARK 921   NORMALIZED FREE ENERGY PREDICTED BY IDOCK:   -3.41 KCAL/MOL
REMARK 922        TOTAL FREE ENERGY PREDICTED BY IDOCK:   -3.63 KCAL/MOL
REMARK 923 INTER-LIGAND FREE ENERGY PREDICTED BY IDOCK:   -3.61 KCAL/MOL
REMARK 924 INTRA-LIGAND FREE ENERGY PREDICTED BY IDOCK:   -0.02 KCAL/MOL
REMARK 927      BINDING AFFINITY PREDICTED BY RF-SCORE:    0.00 PKD
ROOT
HETATM    1  N   UNL     1     -10.445  12.223  69.238  1.00  0.00    -0.426 N  
HETATM    2  C   UNL     1     -11.475  11.333  69.100  1.00  0.00    -0.297 C  
HETATM    3  H1  UNL     1      -9.837  12.199  70.057  1.00  0.00     0.000 HD 
HETATM    4  H2  UNL     1     -10.283  12.921  68.512  1.00  0.00     0.000 HD 
HETATM    5  O   UNL     1     -12.204  11.362  68.118  1.00  0.00    -0.602 OA 
ENDROOT
BRANCH   2   6
HETATM    6  C   UNL     1     -11.691  10.367  70.197  1.00  0.00    -0.394 A  
HETATM    7  C   UNL     1     -10.740   9.419  70.582  1.00  0.00    -0.353 A  
HETATM    8  C   UNL     1     -11.033   8.544  71.627  1.00  0.00    -0.362 A  
HETATM    9  C   UNL     1     -12.269   8.648  72.248  1.00  0.00    -0.378 A  
HETATM   10  N   UNL     1     -13.212   9.547  71.897  1.00  0.00    -0.408 NA 
HETATM   11  C   UNL     1     -12.907  10.382  70.870  1.00  0.00    -0.392 A  
ENDBRANCH   2   6
TORSDOF 1
ENDMDL
MODEL       43
REMARK 921   NORMALIZED FREE ENERGY PREDICTED BY IDOCK:   -3.40 KCAL/MOL
REMARK 922        TOTAL FREE ENERGY PREDICTED BY IDOCK:   -3.63 KCAL/MOL
REMARK 923 INTER-LIGAND FREE ENERGY PREDICTED BY IDOCK:   -3.60 KCAL/MOL
REMARK 924 INTRA-LIGAND FREE ENERGY PREDICTED BY IDOCK:   -0.03 KCAL/MOL
REMARK 927      BINDING AFFINITY PREDICTED BY RF-SCORE:    0.00 PKD
ROOT
HETATM    1  N   UNL     1     -14.128   8.974  72.784  1.00  0.00    -0.837 N  
HETATM    2  C   UNL     1     -13.167   9.754  72.201  1.00  0.00    -0.436 C  
HETATM    3  H1  UNL     1     -13.928   8.012  73.058  1.00  0.00     0.000 HD 
HETATM    4  H2  UNL     1     -15.058   9.360  72.946  1.00  0.00     0.000 HD 
HETATM    5  O   UNL     1     -13.406  10.907  71.873  1.00  0.00    -0.421 OA 
ENDROOT
BRANCH   2   6
HETATM    6  C   UNL     1     -11.848   9.135  71.953  1.00  0.00    -0.439 A  
HETATM    7  C   UNL     1     -11.406   7.984  72.609  1.00  0.00    -0.469 A  
HETATM    8  C   UNL     1     -10.142   7.473  72.312  1.00  0.00    -0.244 A  
HETATM    9  C   UNL     1      -9.366   8.135  71.373  1.00  0.00    -0.155 A  
HETATM   10  N   UNL     1      -9.760   9.252  70.727  1.00  0.00    -0.268 NA 
HETATM   11  C   UNL     1     -10.990   9.735  71.039  1.00  0.00    -0.332 A  
ENDBRANCH   2   6
TORSDOF 1
ENDMDL
MODEL       44
REMARK 921   NORMALIZED FREE ENERGY PREDICTED BY IDOCK:   -3.37 KCAL/MOL
REMARK 922        TOTAL FREE ENERGY PREDICTED BY IDOCK:   -3.59 KCAL/MOL
REMARK 923 INTER-LIGAND FREE ENERGY PREDICTED BY IDOCK:   -3.58 KCAL/MOL
REMARK 924 INTRA-LIGAND FREE ENERGY PREDICTED BY IDOCK:   -0.02 KCAL/MOL
REMARK 927      BINDING AFFINITY PREDICTED BY RF-SCORE:    0.00 PKD
ROOT
HETATM    1  N   UNL     1     -11.388   7.206  73.091  1.00  0.00    -0.564 N  
HETATM    2  C   UNL     1     -11.824   7.472  71.822  1.00  0.00    -0.294 C  
HETATM    3  H1  UNL     1     -11.215   7.960  73.756  1.00  0.00     0.000 HD 
HETATM    4  H2  UNL     1     -11.233   6.239  73.377  1.00  0.00     0.000 HD 
HETATM    5  O   UNL     1     -12.030   6.567  71.025  1.00  0.00    -0.361 OA 
ENDROOT
BRANCH   2   6
HETATM    6  C   UNL     1     -11.996   8.890  71.445  1.00  0.00    -0.374 A  
HETATM    7  C   UNL     1     -11.220   9.523  70.470  1.00  0.00    -0.345 A  
HETATM    8  C   UNL     1     -11.451  10.868  70.183  1.00  0.00    -0.405 A  
HETATM    9  C   UNL     1     -12.448  11.532  70.884  1.00  0.00    -0.366 A  
HETATM   10  N   UNL     1     -13.209  10.952  71.835  1.00  0.00    -0.460 NA 
HETATM   11  C   UNL     1     -12.959   9.644  72.103  1.00  0.00    -0.406 A  
ENDBRANCH   2   6
TORSDOF 1
ENDMDL
MODEL       45
REMARK 921   NORMALIZED FREE ENERGY PREDICTED BY IDOCK:   -3.37 KCAL/MOL
REMARK 922        TOTAL FREE ENERGY PREDICTED BY IDOCK:   -3.59 KCAL/MOL
REMARK 923 INTER-LIGAND FREE ENERGY PREDICTED BY IDOCK:   -3.57 KCAL/MOL
REMARK 924 INTRA-LIGAND FREE ENERGY PREDICTED BY IDOCK:   -0.02 KCAL/MOL
REMARK 927      BINDING AFFINITY PREDICTED BY RF-SCORE:    0.00 PKD
ROOT
HETATM    1  N   UNL     1     -11.869  13.895  67.839  1.00  0.00    -0.363 N  
HETATM    2  C   UNL     1     -11.458  14.367  69.055  1.00  0.00    -0.283 C  
HETATM    3  H1  UNL     1     -12.799  13.491  67.720  1.00  0.00     0.000 HD 
HETATM    4  H2  UNL     1     -11.238  13.947  67.040  1.00  0.00     0.000 HD 
HETATM    5  O   UNL     1     -10.344  14.851  69.198  1.00  0.00    -0.235 OA 
ENDROOT
BRANCH   2   6
HETATM    6  C   UNL     1     -12.395  14.233  70.190  1.00  0.00    -0.413 A  
HETATM    7  C   UNL     1     -13.228  15.269  70.622  1.00  0.00    -0.370 A  
HETATM    8  C   UNL     1     -14.079  15.053  71.705  1.00  0.00    -0.621 A  
HETATM    9  C   UNL     1     -14.064  13.809  72.319  1.00  0.00    -0.531 A  
HETATM   10  N   UNL     1     -13.268  12.790  71.931  1.00  0.00    -0.445 NA 
HETATM   11  C   UNL     1     -12.442  13.028  70.880  1.00  0.00    -0.310 A  
ENDBRANCH   2   6
TORSDOF 1
ENDMDL
MODEL       46
REMARK 921   NORMALIZED FREE ENERGY PREDICTED BY IDOCK:   -3.36 KCAL/MOL
REMARK 922        TOTAL FREE ENERGY PREDICTED BY IDOCK:   -3.59 KCAL/MOL
REMARK 923 INTER-LIGAND FREE ENERGY PREDICTED BY IDOCK:   -3.56 KCAL/MOL
REMARK 924 INTRA-LIGAND FREE ENERGY PREDICTED BY IDOCK:   -0.02 KCAL/MOL
REMARK 927      BINDING AFFINITY PREDICTED BY RF-SCORE:    0.00 PKD
ROOT
HETATM    1  N   UNL     1     -13.297  10.775  72.192  1.00  0.00    -0.579 N  
HETATM    2  C   UNL     1     -12.368  10.528  71.220  1.00  0.00    -0.397 C  
HETATM    3  H1  UNL     1     -13.860  11.626  72.176  1.00  0.00     0.000 HD 
HETATM    4  H2  UNL     1     -13.429  10.099  72.945  1.00  0.00     0.000 HD 
HETATM    5  O   UNL     1     -11.692   9.509  71.239  1.00  0.00    -0.312 OA 
ENDROOT
BRANCH   2   6
HETATM    6  C   UNL     1     -12.188  11.556  70.173  1.00  0.00    -0.387 A  
HETATM    7  C   UNL     1     -12.154  12.926  70.443  1.00  0.00    -0.385 A  
HETATM    8  C   UNL     1     -11.984  13.825  69.390  1.00  0.00    -0.397 A  
HETATM    9  C   UNL     1     -11.856  13.319  68.104  1.00  0.00    -0.353 A  
HETATM   10  N   UNL     1     -11.892  12.003  67.809  1.00  0.00    -0.545 NA 
HETATM   11  C   UNL     1     -12.068  11.149  68.850  1.00  0.00    -0.207 A  
ENDBRANCH   2   6
TORSDOF 1
ENDMDL
MODEL       47
REMARK 921   NORMALIZED FREE ENERGY PREDICTED BY IDOCK:   -3.36 KCAL/MOL
REMARK 922        TOTAL FREE ENERGY PREDICTED BY IDOCK:   -3.59 KCAL/MOL
REMARK 923 INTER-LIGAND FREE ENERGY PREDICTED BY IDOCK:   -3.57 KCAL/MOL
REMARK 924 INTRA-LIGAND FREE ENERGY PREDICTED BY IDOCK:   -0.02 KCAL/MOL
REMARK 927      BINDING AFFINITY PREDICTED BY RF-SCORE:    0.00 PKD
ROOT
HETATM    1  N   UNL     1     -13.989   8.913  72.928  1.00  0.00    -0.890 N  
HETATM    2  C   UNL     1     -12.854   9.140  72.198  1.00  0.00    -0.412 C  
HETATM    3  H1  UNL     1     -14.156   8.009  73.370  1.00  0.00     0.000 HD 
HETATM    4  H2  UNL     1     -14.677   9.659  73.033  1.00  0.00     0.000 HD 
HETATM    5  O   UNL     1     -12.653  10.224  71.668  1.00  0.00    -0.391 OA 
ENDROOT
BRANCH   2   6
HETATM    6  C   UNL     1     -11.908   8.016  72.044  1.00  0.00    -0.376 A  
HETATM    7  C   UNL     1     -10.872   7.758  72.947  1.00  0.00    -0.453 A  
HETATM    8  C   UNL     1     -10.024   6.675  72.719  1.00  0.00    -0.187 A  
HETATM    9  C   UNL     1     -10.240   5.891  71.595  1.00  0.00    -0.202 A  
HETATM   10  N   UNL     1     -11.226   6.117  70.701  1.00  0.00    -0.323 NA 
HETATM   11  C   UNL     1     -12.033   7.183  70.940  1.00  0.00    -0.334 A  
ENDBRANCH   2   6
TORSDOF 1
ENDMDL
MODEL       48
REMARK 921   NORMALIZED FREE ENERGY PREDICTED BY IDOCK:   -3.36 KCAL/MOL
REMARK 922        TOTAL FREE ENERGY PREDICTED BY IDOCK:   -3.59 KCAL/MOL
REMARK 923 INTER-LIGAND FREE ENERGY PREDICTED BY IDOCK:   -3.56 KCAL/MOL
REMARK 924 INTRA-LIGAND FREE ENERGY PREDICTED BY IDOCK:   -0.02 KCAL/MOL
REMARK 927      BINDING AFFINITY PREDICTED BY RF-SCORE:    0.00 PKD
ROOT
HETATM    1  N   UNL     1      -8.225  10.899  64.016  1.00  0.00    -0.365 N  
HETATM    2  C   UNL     1      -9.460  10.861  63.429  1.00  0.00    -0.314 C  
HETATM    3  H1  UNL     1      -8.069  11.421  64.878  1.00  0.00     0.000 HD 
HETATM    4  H2  UNL     1      -7.448  10.397  63.585  1.00  0.00     0.000 HD 
HETATM    5  O   UNL     1      -9.647  10.234  62.396  1.00  0.00    -0.278 OA 
ENDROOT
BRANCH   2   6
HETATM    6  C   UNL     1     -10.542  11.636  64.072  1.00  0.00    -0.426 A  
HETATM    7  C   UNL     1     -11.350  12.542  63.380  1.00  0.00    -0.489 A  
HETATM    8  C   UNL     1     -12.346  13.232  64.071  1.00  0.00    -0.415 A  
HETATM    9  C   UNL     1     -12.495  12.993  65.429  1.00  0.00    -0.476 A  
HETATM   10  N   UNL     1     -11.727  12.130  66.128  1.00  0.00    -0.522 NA 
HETATM   11  C   UNL     1     -10.759  11.477  65.435  1.00  0.00    -0.278 A  
ENDBRANCH   2   6
TORSDOF 1
ENDMDL
MODEL       49
REMARK 921   NORMALIZED FREE ENERGY PREDICTED BY IDOCK:   -3.34 KCAL/MOL
REMARK 922        TOTAL FREE ENERGY PREDICTED BY IDOCK:   -3.56 KCAL/MOL
REMARK 923 INTER-LIGAND FREE ENERGY PREDICTED BY IDOCK:   -3.54 KCAL/MOL
REMARK 924 INTRA-LIGAND FREE ENERGY PREDICTED BY IDOCK:   -0.03 KCAL/MOL
REMARK 927      BINDING AFFINITY PREDICTED BY RF-SCORE:    0.00 PKD
ROOT
HETATM    1  N   UNL     1     -12.172  15.215  68.551  1.00  0.00    -0.581 N  
HETATM    2  C   UNL     1     -11.997  13.885  68.284  1.00  0.00    -0.357 C  
HETATM    3  H1  UNL     1     -12.070  15.915  67.816  1.00  0.00     0.000 HD 
HETATM    4  H2  UNL     1     -12.410  15.511  69.498  1.00  0.00     0.000 HD 
HETATM    5  O   UNL     1     -12.120  13.045  69.165  1.00  0.00    -0.276 OA 
ENDROOT
BRANCH   2   6
HETATM    6  C   UNL     1     -11.616  13.512  66.906  1.00  0.00    -0.398 A  
HETATM    7  C   UNL     1     -11.650  12.198  66.431  1.00  0.00    -0.429 A  
HETATM    8  C   UNL     1     -11.269  11.939  65.114  1.00  0.00    -0.346 A  
HETATM    9  C   UNL     1     -10.866  13.004  64.322  1.00  0.00    -0.405 A  
HETATM   10  N   UNL     1     -10.816  14.282  64.752  1.00  0.00    -0.407 NA 
HETATM   11  C   UNL     1     -11.182  14.507  66.040  1.00  0.00    -0.337 A  
ENDBRANCH   2   6
TORSDOF 1
ENDMDL
MODEL       50
REMARK 921   NORMALIZED FREE ENERGY PREDICTED BY IDOCK:   -3.32 KCAL/MOL
REMARK 922        TOTAL FREE ENERGY PREDICTED BY IDOCK:   -3.54 KCAL/MOL
REMARK 923 INTER-LIGAND FREE ENERGY PREDICTED BY IDOCK:   -3.53 KCAL/MOL
REMARK 924 INTRA-LIGAND FREE ENERGY PREDICTED BY IDOCK:   -0.02 KCAL/MOL
REMARK 927      BINDING AFFINITY PREDICTED BY RF-SCORE:    0.00 PKD
ROOT
HETATM    1  N   UNL     1     -11.417   6.546  68.849  1.00  0.00    -0.608 N  
HETATM    2  C   UNL     1     -11.439   6.490  70.216  1.00  0.00    -0.411 C  
HETATM    3  H1  UNL     1     -11.935   7.266  68.345  1.00  0.00     0.000 HD 
HETATM    4  H2  UNL     1     -10.874   5.858  68.327  1.00  0.00     0.000 HD 
HETATM    5  O   UNL     1     -10.818   5.627  70.821  1.00  0.00    -0.265 OA 
ENDROOT
BRANCH   2   6
HETATM    6  C   UNL     1     -12.271   7.485  70.924  1.00  0.00    -0.224 A  
HETATM    7  C   UNL     1     -13.618   7.279  71.230  1.00  0.00    -0.330 A  
HETATM    8  C   UNL     1     -14.326   8.278  71.899  1.00  0.00    -0.564 A  
HETATM    9  C   UNL     1     -13.661   9.448  72.234  1.00  0.00    -0.462 A  
HETATM   10  N   UNL     1     -12.362   9.681  71.947  1.00  0.00    -0.374 NA 
HETATM   11  C   UNL     1     -11.698   8.697  71.288  1.00  0.00    -0.289 A  
ENDBRANCH   2   6
TORSDOF 1
ENDMDL
MODEL       51
REMARK 921   NORMALIZED FREE ENERGY PREDICTED BY IDOCK:   -3.31 KCAL/MOL
REMARK 922        TOTAL FREE ENERGY PREDICTED BY IDOCK:   -3.53 KCAL/MOL
REMARK 923 INTER-LIGAND FREE ENERGY PREDICTED BY IDOCK:   -3.51 KCAL/MOL
REMARK 924 INTRA-LIGAND FREE ENERGY PREDICTED BY IDOCK:   -0.02 KCAL/MOL
REMARK 927      BINDING AFFINITY PREDICTED BY RF-SCORE:    0.00 PKD
ROOT
HETATM    1  N   UNL     1     -13.939  15.577  71.531  1.00  0.00    -0.526 N  
HETATM    2  C   UNL     1     -12.611  15.625  71.205  1.00  0.00    -0.453 C  
HETATM    3  H1  UNL     1     -14.586  14.985  71.010  1.00  0.00     0.000 HD 
HETATM    4  H2  UNL     1     -14.286  16.142  72.306  1.00  0.00     0.000 HD 
HETATM    5  O   UNL     1     -11.835  16.335  71.829  1.00  0.00    -0.487 OA 
ENDROOT
BRANCH   2   6
HETATM    6  C   UNL     1     -12.164  14.818  70.050  1.00  0.00    -0.383 A  
HETATM    7  C   UNL     1     -12.236  13.423  70.017  1.00  0.00    -0.367 A  
HETATM    8  C   UNL     1     -11.787  12.744  68.885  1.00  0.00    -0.351 A  
HETATM    9  C   UNL     1     -11.280  13.486  67.827  1.00  0.00    -0.282 A  
HETATM   10  N   UNL     1     -11.191  14.833  67.830  1.00  0.00    -0.293 NA 
HETATM   11  C   UNL     1     -11.626  15.470  68.948  1.00  0.00    -0.373 A  
ENDBRANCH   2   6
TORSDOF 1
ENDMDL
MODEL       52
REMARK 921   NORMALIZED FREE ENERGY PREDICTED BY IDOCK:   -3.30 KCAL/MOL
REMARK 922        TOTAL FREE ENERGY PREDICTED BY IDOCK:   -3.52 KCAL/MOL
REMARK 923 INTER-LIGAND FREE ENERGY PREDICTED BY IDOCK:   -3.50 KCAL/MOL
REMARK 924 INTRA-LIGAND FREE ENERGY PREDICTED BY IDOCK:   -0.02 KCAL/MOL
REMARK 927      BINDING AFFINITY PREDICTED BY RF-SCORE:    0.00 PKD
ROOT
HETATM    1  N   UNL     1     -10.649  13.364  65.095  1.00  0.00    -0.326 N  
HETATM    2  C   UNL     1     -11.868  13.254  65.706  1.00  0.00    -0.387 C  
HETATM    3  H1  UNL     1      -9.787  13.368  65.640  1.00  0.00     0.000 HD 
HETATM    4  H2  UNL     1     -10.602  13.443  64.079  1.00  0.00     0.000 HD 
HETATM    5  O   UNL     1     -12.902  13.249  65.052  1.00  0.00    -0.686 OA 
ENDROOT
BRANCH   2   6
HETATM    6  C   UNL     1     -11.886  13.181  67.182  1.00  0.00    -0.424 A  
HETATM    7  C   UNL     1     -11.709  11.991  67.892  1.00  0.00    -0.393 A  
HETATM    8  C   UNL     1     -11.744  12.017  69.286  1.00  0.00    -0.389 A  
HETATM    9  C   UNL     1     -11.958  13.233  69.919  1.00  0.00    -0.330 A  
HETATM   10  N   UNL     1     -12.139  14.399  69.262  1.00  0.00    -0.320 NA 
HETATM   11  C   UNL     1     -12.109  14.346  67.906  1.00  0.00    -0.245 A  
ENDBRANCH   2   6
TORSDOF 1
ENDMDL
MODEL       53
REMARK 921   NORMALIZED FREE ENERGY PREDICTED BY IDOCK:   -3.27 KCAL/MOL
REMARK 922        TOTAL FREE ENERGY PREDICTED BY IDOCK:   -3.49 KCAL/MOL
REMARK 923 INTER-LIGAND FREE ENERGY PREDICTED BY IDOCK:   -3.47 KCAL/MOL
REMARK 924 INTRA-LIGAND FREE ENERGY PREDICTED BY IDOCK:   -0.02 KCAL/MOL
REMARK 927      BINDING AFFINITY PREDICTED BY RF-SCORE:    0.00 PKD
ROOT
HETATM    1  N   UNL     1     -10.676  15.359  68.858  1.00  0.00    -0.235 N  
HETATM    2  C   UNL     1      -9.686  16.294  68.722  1.00  0.00    -0.240 C  
HETATM    3  H1  UNL     1     -11.573  15.473  68.387  1.00  0.00     0.000 HD 
HETATM    4  H2  UNL     1     -10.514  14.537  69.440  1.00  0.00     0.000 HD 
HETATM    5  O   UNL     1      -8.610  16.158  69.287  1.00  0.00    -0.250 OA 
ENDROOT
BRANCH   2   6
HETATM    6  C   UNL     1      -9.984  17.485  67.900  1.00  0.00    -0.312 A  
HETATM    7  C   UNL     1     -10.059  18.778  68.424  1.00  0.00    -0.443 A  
HETATM    8  C   UNL     1     -10.350  19.843  67.572  1.00  0.00    -0.557 A  
HETATM    9  C   UNL     1     -10.558  19.575  66.227  1.00  0.00    -0.481 A  
HETATM   10  N   UNL     1     -10.499  18.338  65.691  1.00  0.00    -0.623 NA 
HETATM   11  C   UNL     1     -10.224  17.317  66.542  1.00  0.00    -0.325 A  
ENDBRANCH   2   6
TORSDOF 1
ENDMDL
MODEL       54
REMARK 921   NORMALIZED FREE ENERGY PREDICTED BY IDOCK:   -3.27 KCAL/MOL
REMARK 922        TOTAL FREE ENERGY PREDICTED BY IDOCK:   -3.48 KCAL/MOL
REMARK 923 INTER-LIGAND FREE ENERGY PREDICTED BY IDOCK:   -3.46 KCAL/MOL
REMARK 924 INTRA-LIGAND FREE ENERGY PREDICTED BY IDOCK:   -0.02 KCAL/MOL
REMARK 927      BINDING AFFINITY PREDICTED BY RF-SCORE:    0.00 PKD
ROOT
HETATM    1  N   UNL     1     -10.885  13.201  69.104  1.00  0.00    -0.428 N  
HETATM    2  C   UNL     1     -11.004  14.434  68.524  1.00  0.00    -0.251 C  
HETATM    3  H1  UNL     1     -11.011  12.349  68.558  1.00  0.00     0.000 HD 
HETATM    4  H2  UNL     1     -10.666  13.132  70.098  1.00  0.00     0.000 HD 
HETATM    5  O   UNL     1     -10.852  15.455  69.179  1.00  0.00    -0.226 OA 
ENDROOT
BRANCH   2   6
HETATM    6  C   UNL     1     -11.360  14.478  67.090  1.00  0.00    -0.361 A  
HETATM    7  C   UNL     1     -10.791  15.380  66.187  1.00  0.00    -0.313 A  
HETATM    8  C   UNL     1     -11.191  15.352  64.852  1.00  0.00    -0.410 A  
HETATM    9  C   UNL     1     -12.148  14.424  64.468  1.00  0.00    -0.481 A  
HETATM   10  N   UNL     1     -12.722  13.544  65.316  1.00  0.00    -0.657 NA 
HETATM   11  C   UNL     1     -12.322  13.598  66.613  1.00  0.00    -0.331 A  
ENDBRANCH   2   6
TORSDOF 1
ENDMDL
MODEL       55
REMARK 921   NORMALIZED FREE ENERGY PREDICTED BY IDOCK:   -3.26 KCAL/MOL
REMARK 922        TOTAL FREE ENERGY PREDICTED BY IDOCK:   -3.48 KCAL/MOL
REMARK 923 INTER-LIGAND FREE ENERGY PREDICTED BY IDOCK:   -3.46 KCAL/MOL
REMARK 924 INTRA-LIGAND FREE ENERGY PREDICTED BY IDOCK:   -0.02 KCAL/MOL
REMARK 927      BINDING AFFINITY PREDICTED BY RF-SCORE:    0.00 PKD
ROOT
HETATM    1  N   UNL     1     -10.779  10.811  70.032  1.00  0.00    -0.465 N  
HETATM    2  C   UNL     1     -11.697  11.813  69.873  1.00  0.00    -0.323 C  
HETATM    3  H1  UNL     1     -10.111  10.590  69.293  1.00  0.00     0.000 HD 
HETATM    4  H2  UNL     1     -10.763  10.278  70.901  1.00  0.00     0.000 HD 
HETATM    5  O   UNL     1     -12.498  12.079  70.758  1.00  0.00    -0.348 OA 
ENDROOT
BRANCH   2   6
HETATM    6  C   UNL     1     -11.705  12.530  68.581  1.00  0.00    -0.368 A  
HETATM    7  C   UNL     1     -11.541  11.891  67.349  1.00  0.00    -0.367 A  
HETATM    8  C   UNL     1     -11.558  12.650  66.179  1.00  0.00    -0.445 A  
HETATM    9  C   UNL     1     -11.737  14.022  66.285  1.00  0.00    -0.387 A  
HETATM   10  N   UNL     1     -11.891  14.670  67.458  1.00  0.00    -0.380 NA 
HETATM   11  C   UNL     1     -11.861  13.910  68.583  1.00  0.00    -0.372 A  
ENDBRANCH   2   6
TORSDOF 1
ENDMDL
MODEL       56
REMARK 921   NORMALIZED FREE ENERGY PREDICTED BY IDOCK:   -3.26 KCAL/MOL
REMARK 922        TOTAL FREE ENERGY PREDICTED BY IDOCK:   -3.48 KCAL/MOL
REMARK 923 INTER-LIGAND FREE ENERGY PREDICTED BY IDOCK:   -3.46 KCAL/MOL
REMARK 924 INTRA-LIGAND FREE ENERGY PREDICTED BY IDOCK:   -0.02 KCAL/MOL
REMARK 927      BINDING AFFINITY PREDICTED BY RF-SCORE:    0.00 PKD
ROOT
HETATM    1  N   UNL     1     -11.940   6.664  70.039  1.00  0.00    -0.636 N  
HETATM    2  C   UNL     1     -11.401   7.460  71.012  1.00  0.00    -0.275 C  
HETATM    3  H1  UNL     1     -12.573   7.048  69.337  1.00  0.00     0.000 HD 
HETATM    4  H2  UNL     1     -11.705   5.671  70.014  1.00  0.00     0.000 HD 
HETATM    5  O   UNL     1     -10.642   6.999  71.853  1.00  0.00    -0.212 OA 
ENDROOT
BRANCH   2   6
HETATM    6  C   UNL     1     -11.803   8.882  71.027  1.00  0.00    -0.324 A  
HETATM    7  C   UNL     1     -12.827   9.380  71.837  1.00  0.00    -0.497 A  
HETATM    8  C   UNL     1     -13.141  10.738  71.782  1.00  0.00    -0.573 A  
HETATM    9  C   UNL     1     -12.419  11.548  70.916  1.00  0.00    -0.366 A  
HETATM   10  N   UNL     1     -11.430  11.097  70.117  1.00  0.00    -0.295 NA 
HETATM   11  C   UNL     1     -11.150   9.770  70.182  1.00  0.00    -0.285 A  
ENDBRANCH   2   6
TORSDOF 1
ENDMDL
MODEL       57
REMARK 921   NORMALIZED FREE ENERGY PREDICTED BY IDOCK:   -3.25 KCAL/MOL
REMARK 922        TOTAL FREE ENERGY PREDICTED BY IDOCK:   -3.47 KCAL/MOL
REMARK 923 INTER-LIGAND FREE ENERGY PREDICTED BY IDOCK:   -3.45 KCAL/MOL
REMARK 924 INTRA-LIGAND FREE ENERGY PREDICTED BY IDOCK:   -0.02 KCAL/MOL
REMARK 927      BINDING AFFINITY PREDICTED BY RF-SCORE:    0.00 PKD
ROOT
HETATM    1  N   UNL     1     -12.588  10.439  69.747  1.00  0.00    -0.548 N  
HETATM    2  C   UNL     1     -12.624  10.135  71.081  1.00  0.00    -0.386 C  
HETATM    3  H1  UNL     1     -12.181   9.792  69.072  1.00  0.00     0.000 HD 
HETATM    4  H2  UNL     1     -12.975  11.326  69.424  1.00  0.00     0.000 HD 
HETATM    5  O   UNL     1     -13.112  10.910  71.890  1.00  0.00    -0.482 OA 
ENDROOT
BRANCH   2   6
HETATM    6  C   UNL     1     -12.016   8.856  71.503  1.00  0.00    -0.401 A  
HETATM    7  C   UNL     1     -10.671   8.728  71.861  1.00  0.00    -0.429 A  
HETATM    8  C   UNL     1     -10.184   7.478  72.243  1.00  0.00    -0.252 A  
HETATM    9  C   UNL     1     -11.059   6.401  72.251  1.00  0.00    -0.265 A  
HETATM   10  N   UNL     1     -12.360   6.490  71.904  1.00  0.00    -0.341 NA 
HETATM   11  C   UNL     1     -12.808   7.715  71.527  1.00  0.00    -0.344 A  
ENDBRANCH   2   6
TORSDOF 1
ENDMDL
MODEL       58
REMARK 921   NORMALIZED FREE ENERGY PREDICTED BY IDOCK:   -3.24 KCAL/MOL
REMARK 922        TOTAL FREE ENERGY PREDICTED BY IDOCK:   -3.46 KCAL/MOL
REMARK 923 INTER-LIGAND FREE ENERGY PREDICTED BY IDOCK:   -3.43 KCAL/MOL
REMARK 924 INTRA-LIGAND FREE ENERGY PREDICTED BY IDOCK:   -0.03 KCAL/MOL
REMARK 927      BINDING AFFINITY PREDICTED BY RF-SCORE:    0.00 PKD
ROOT
HETATM    1  N   UNL     1      -9.613   9.713  64.685  1.00  0.00    -0.436 N  
HETATM    2  C   UNL     1     -10.060  10.516  65.699  1.00  0.00    -0.268 C  
HETATM    3  H1  UNL     1      -9.838   9.922  63.712  1.00  0.00     0.000 HD 
HETATM    4  H2  UNL     1      -9.045   8.895  64.905  1.00  0.00     0.000 HD 
HETATM    5  O   UNL     1      -9.790  10.266  66.865  1.00  0.00    -0.182 OA 
ENDROOT
BRANCH   2   6
HETATM    6  C   UNL     1     -10.910  11.667  65.330  1.00  0.00    -0.336 A  
HETATM    7  C   UNL     1     -11.122  12.071  64.010  1.00  0.00    -0.452 A  
HETATM    8  C   UNL     1     -11.939  13.174  63.758  1.00  0.00    -0.572 A  
HETATM    9  C   UNL     1     -12.511  13.833  64.836  1.00  0.00    -0.386 A  
HETATM   10  N   UNL     1     -12.320  13.473  66.122  1.00  0.00    -0.424 NA 
HETATM   11  C   UNL     1     -11.514  12.402  66.343  1.00  0.00    -0.373 A  
ENDBRANCH   2   6
TORSDOF 1
ENDMDL
MODEL       59
REMARK 921   NORMALIZED FREE ENERGY PREDICTED BY IDOCK:   -3.21 KCAL/MOL
REMARK 922        TOTAL FREE ENERGY PREDICTED BY IDOCK:   -3.43 KCAL/MOL
REMARK 923 INTER-LIGAND FREE ENERGY PREDICTED BY IDOCK:   -3.41 KCAL/MOL
REMARK 924 INTRA-LIGAND FREE ENERGY PREDICTED BY IDOCK:   -0.02 KCAL/MOL
REMARK 927      BINDING AFFINITY PREDICTED BY RF-SCORE:    0.00 PKD
ROOT
HETATM    1  N   UNL     1     -10.078  11.984  68.146  1.00  0.00    -0.195 N  
HETATM    2  C   UNL     1     -11.402  12.108  68.464  1.00  0.00    -0.275 C  
HETATM    3  H1  UNL     1      -9.386  12.639  68.513  1.00  0.00     0.000 HD 
HETATM    4  H2  UNL     1      -9.777  11.226  67.534  1.00  0.00     0.000 HD 
HETATM    5  O   UNL     1     -12.231  11.323  68.025  1.00  0.00    -0.621 OA 
ENDROOT
BRANCH   2   6
HETATM    6  C   UNL     1     -11.792  13.246  69.323  1.00  0.00    -0.383 A  
HETATM    7  C   UNL     1     -12.353  13.090  70.593  1.00  0.00    -0.391 A  
HETATM    8  C   UNL     1     -12.694  14.223  71.332  1.00  0.00    -0.424 A  
HETATM    9  C   UNL     1     -12.463  15.471  70.772  1.00  0.00    -0.440 A  
HETATM   10  N   UNL     1     -11.929  15.656  69.546  1.00  0.00    -0.369 NA 
HETATM   11  C   UNL     1     -11.615  14.537  68.843  1.00  0.00    -0.309 A  
ENDBRANCH   2   6
TORSDOF 1
ENDMDL
MODEL       60
REMARK 921   NORMALIZED FREE ENERGY PREDICTED BY IDOCK:   -3.20 KCAL/MOL
REMARK 922        TOTAL FREE ENERGY PREDICTED BY IDOCK:   -3.41 KCAL/MOL
REMARK 923 INTER-LIGAND FREE ENERGY PREDICTED BY IDOCK:   -3.39 KCAL/MOL
REMARK 924 INTRA-LIGAND FREE ENERGY PREDICTED BY IDOCK:   -0.02 KCAL/MOL
REMARK 927      BINDING AFFINITY PREDICTED BY RF-SCORE:    0.00 PKD
ROOT
HETATM    1  N   UNL     1     -11.084  11.363  66.151  1.00  0.00    -0.247 N  
HETATM    2  C   UNL     1     -11.886  12.453  65.949  1.00  0.00    -0.405 C  
HETATM    3  H1  UNL     1     -10.350  11.376  66.859  1.00  0.00     0.000 HD 
HETATM    4  H2  UNL     1     -11.223  10.526  65.585  1.00  0.00     0.000 HD 
HETATM    5  O   UNL     1     -12.766  12.439  65.100  1.00  0.00    -0.630 OA 
ENDROOT
BRANCH   2   6
HETATM    6  C   UNL     1     -11.619  13.655  66.768  1.00  0.00    -0.393 A  
HETATM    7  C   UNL     1     -11.884  13.722  68.138  1.00  0.00    -0.411 A  
HETATM    8  C   UNL     1     -11.603  14.900  68.829  1.00  0.00    -0.348 A  
HETATM    9  C   UNL     1     -11.070  15.969  68.124  1.00  0.00    -0.344 A  
HETATM   10  N   UNL     1     -10.810  15.939  66.800  1.00  0.00    -0.278 NA 
HETATM   11  C   UNL     1     -11.100  14.784  66.147  1.00  0.00    -0.339 A  
ENDBRANCH   2   6
TORSDOF 1
ENDMDL
MODEL       61
REMARK 921   NORMALIZED FREE ENERGY PREDICTED BY IDOCK:   -3.19 KCAL/MOL
REMARK 922        TOTAL FREE ENERGY PREDICTED BY IDOCK:   -3.40 KCAL/MOL
REMARK 923 INTER-LIGAND FREE ENERGY PREDICTED BY IDOCK:   -3.38 KCAL/MOL
REMARK 924 INTRA-LIGAND FREE ENERGY PREDICTED BY IDOCK:   -0.02 KCAL/MOL
REMARK 927      BINDING AFFINITY PREDICTED BY RF-SCORE:    0.00 PKD
ROOT
HETATM    1  N   UNL     1     -11.447  10.916  67.731  1.00  0.00    -0.295 N  
HETATM    2  C   UNL     1     -10.907  11.118  66.490  1.00  0.00    -0.245 C  
HETATM    3  H1  UNL     1     -12.014  11.636  68.179  1.00  0.00     0.000 HD 
HETATM    4  H2  UNL     1     -11.279  10.034  68.215  1.00  0.00     0.000 HD 
HETATM    5  O   UNL     1     -10.227  10.256  65.952  1.00  0.00    -0.254 OA 
ENDROOT
BRANCH   2   6
HETATM    6  C   UNL     1     -11.147  12.427  65.848  1.00  0.00    -0.349 A  
HETATM    7  C   UNL     1     -10.316  13.534  66.032  1.00  0.00    -0.303 A  
HETATM    8  C   UNL     1     -10.624  14.732  65.387  1.00  0.00    -0.395 A  
HETATM    9  C   UNL     1     -11.754  14.779  64.584  1.00  0.00    -0.422 A  
HETATM   10  N   UNL     1     -12.581  13.730  64.392  1.00  0.00    -0.666 NA 
HETATM   11  C   UNL     1     -12.265  12.578  65.037  1.00  0.00    -0.456 A  
ENDBRANCH   2   6
TORSDOF 1
ENDMDL
MODEL       62
REMARK 921   NORMALIZED FREE ENERGY PREDICTED BY IDOCK:   -3.18 KCAL/MOL
REMARK 922        TOTAL FREE ENERGY PREDICTED BY IDOCK:   -3.39 KCAL/MOL
REMARK 923 INTER-LIGAND FREE ENERGY PREDICTED BY IDOCK:   -3.38 KCAL/MOL
REMARK 924 INTRA-LIGAND FREE ENERGY PREDICTED BY IDOCK:   -0.02 KCAL/MOL
REMARK 927      BINDING AFFINITY PREDICTED BY RF-SCORE:    0.00 PKD
ROOT
HETATM    1  N   UNL     1     -10.394   7.152  73.962  1.00  0.00    -0.416 N  
HETATM    2  C   UNL     1     -10.747   7.161  72.641  1.00  0.00    -0.268 C  
HETATM    3  H1  UNL     1     -10.638   7.929  74.577  1.00  0.00     0.000 HD 
HETATM    4  H2  UNL     1      -9.878   6.356  74.339  1.00  0.00     0.000 HD 
HETATM    5  O   UNL     1     -10.453   6.230  71.904  1.00  0.00    -0.202 OA 
ENDROOT
BRANCH   2   6
HETATM    6  C   UNL     1     -11.459   8.354  72.135  1.00  0.00    -0.442 A  
HETATM    7  C   UNL     1     -12.799   8.624  72.422  1.00  0.00    -0.413 A  
HETATM    8  C   UNL     1     -13.389   9.774  71.897  1.00  0.00    -0.530 A  
HETATM    9  C   UNL     1     -12.618  10.610  71.103  1.00  0.00    -0.423 A  
HETATM   10  N   UNL     1     -11.324  10.373  70.802  1.00  0.00    -0.331 NA 
HETATM   11  C   UNL     1     -10.774   9.243  71.317  1.00  0.00    -0.352 A  
ENDBRANCH   2   6
TORSDOF 1
ENDMDL
MODEL       63
REMARK 921   NORMALIZED FREE ENERGY PREDICTED BY IDOCK:   -3.15 KCAL/MOL
REMARK 922        TOTAL FREE ENERGY PREDICTED BY IDOCK:   -3.36 KCAL/MOL
REMARK 923 INTER-LIGAND FREE ENERGY PREDICTED BY IDOCK:   -3.35 KCAL/MOL
REMARK 924 INTRA-LIGAND FREE ENERGY PREDICTED BY IDOCK:   -0.02 KCAL/MOL
REMARK 927      BINDING AFFINITY PREDICTED BY RF-SCORE:    0.00 PKD
ROOT
HETATM    1  N   UNL     1     -11.966   6.761  69.881  1.00  0.00    -0.659 N  
HETATM    2  C   UNL     1     -12.432   6.978  71.149  1.00  0.00    -0.362 C  
HETATM    3  H1  UNL     1     -11.070   6.299  69.723  1.00  0.00     0.000 HD 
HETATM    4  H2  UNL     1     -12.523   7.064  69.082  1.00  0.00     0.000 HD 
HETATM    5  O   UNL     1     -13.506   7.531  71.338  1.00  0.00    -0.359 OA 
ENDROOT
BRANCH   2   6
HETATM    6  C   UNL     1     -11.570   6.555  72.272  1.00  0.00    -0.330 A  
HETATM    7  C   UNL     1     -11.511   5.239  72.738  1.00  0.00    -0.317 A  
HETATM    8  C   UNL     1     -10.670   4.932  73.808  1.00  0.00    -0.361 A  
HETATM    9  C   UNL     1      -9.921   5.953  74.374  1.00  0.00    -0.272 A  
HETATM   10  N   UNL     1      -9.960   7.235  73.952  1.00  0.00    -0.313 NA 
HETATM   11  C   UNL     1     -10.793   7.510  72.915  1.00  0.00    -0.373 A  
ENDBRANCH   2   6
TORSDOF 1
ENDMDL
MODEL       64
REMARK 921   NORMALIZED FREE ENERGY PREDICTED BY IDOCK:   -3.15 KCAL/MOL
REMARK 922        TOTAL FREE ENERGY PREDICTED BY IDOCK:   -3.36 KCAL/MOL
REMARK 923 INTER-LIGAND FREE ENERGY PREDICTED BY IDOCK:   -3.33 KCAL/MOL
REMARK 924 INTRA-LIGAND FREE ENERGY PREDICTED BY IDOCK:   -0.02 KCAL/MOL
REMARK 927      BINDING AFFINITY PREDICTED BY RF-SCORE:    0.00 PKD
ROOT
HETATM    1  N   UNL     1     -11.008  11.226  67.205  1.00  0.00    -0.277 N  
HETATM    2  C   UNL     1     -11.711  12.358  66.895  1.00  0.00    -0.362 C  
HETATM    3  H1  UNL     1     -10.568  11.115  68.119  1.00  0.00     0.000 HD 
HETATM    4  H2  UNL     1     -10.922  10.483  66.512  1.00  0.00     0.000 HD 
HETATM    5  O   UNL     1     -12.238  12.491  65.800  1.00  0.00    -0.578 OA 
ENDROOT
BRANCH   2   6
HETATM    6  C   UNL     1     -11.773  13.421  67.920  1.00  0.00    -0.396 A  
HETATM    7  C   UNL     1     -11.564  14.773  67.634  1.00  0.00    -0.374 A  
HETATM    8  C   UNL     1     -11.639  15.707  68.667  1.00  0.00    -0.391 A  
HETATM    9  C   UNL     1     -11.918  15.255  69.949  1.00  0.00    -0.343 A  
HETATM   10  N   UNL     1     -12.119  13.957  70.258  1.00  0.00    -0.333 NA 
HETATM   11  C   UNL     1     -12.032  13.066  69.237  1.00  0.00    -0.278 A  
ENDBRANCH   2   6
TORSDOF 1
ENDMDL
MODEL       65
REMARK 921   NORMALIZED FREE ENERGY PREDICTED BY IDOCK:   -3.12 KCAL/MOL
REMARK 922        TOTAL FREE ENERGY PREDICTED BY IDOCK:   -3.33 KCAL/MOL
REMARK 923 INTER-LIGAND FREE ENERGY PREDICTED BY IDOCK:   -3.31 KCAL/MOL
REMARK 924 INTRA-LIGAND FREE ENERGY PREDICTED BY IDOCK:   -0.02 KCAL/MOL
REMARK 927      BINDING AFFINITY PREDICTED BY RF-SCORE:    0.00 PKD
ROOT
HETATM    1  N   UNL     1     -14.198   7.586  71.097  1.00  0.00    -0.655 N  
HETATM    2  C   UNL     1     -12.905   7.832  71.471  1.00  0.00    -0.329 C  
HETATM    3  H1  UNL     1     -14.463   6.691  70.685  1.00  0.00     0.000 HD 
HETATM    4  H2  UNL     1     -14.906   8.307  71.233  1.00  0.00     0.000 HD 
HETATM    5  O   UNL     1     -12.586   8.905  71.964  1.00  0.00    -0.341 OA 
ENDROOT
BRANCH   2   6
HETATM    6  C   UNL     1     -11.909   6.770  71.218  1.00  0.00    -0.396 A  
HETATM    7  C   UNL     1     -11.427   6.459  69.944  1.00  0.00    -0.483 A  
HETATM    8  C   UNL     1     -10.490   5.437  69.801  1.00  0.00    -0.378 A  
HETATM    9  C   UNL     1     -10.071   4.760  70.937  1.00  0.00    -0.205 A  
HETATM   10  N   UNL     1     -10.522   5.030  72.180  1.00  0.00    -0.214 NA 
HETATM   11  C   UNL     1     -11.441   6.024  72.292  1.00  0.00    -0.312 A  
ENDBRANCH   2   6
TORSDOF 1
ENDMDL
MODEL       66
REMARK 921   NORMALIZED FREE ENERGY PREDICTED BY IDOCK:   -3.12 KCAL/MOL
REMARK 922        TOTAL FREE ENERGY PREDICTED BY IDOCK:   -3.33 KCAL/MOL
REMARK 923 INTER-LIGAND FREE ENERGY PREDICTED BY IDOCK:   -3.30 KCAL/MOL
REMARK 924 INTRA-LIGAND FREE ENERGY PREDICTED BY IDOCK:   -0.02 KCAL/MOL
REMARK 927      BINDING AFFINITY PREDICTED BY RF-SCORE:    0.00 PKD
ROOT
HETATM    1  N   UNL     1     -11.474  13.935  67.213  1.00  0.00    -0.326 N  
HETATM    2  C   UNL     1     -11.769  12.632  66.918  1.00  0.00    -0.383 C  
HETATM    3  H1  UNL     1     -11.071  14.191  68.114  1.00  0.00     0.000 HD 
HETATM    4  H2  UNL     1     -11.659  14.661  66.521  1.00  0.00     0.000 HD 
HETATM    5  O   UNL     1     -12.252  12.325  65.837  1.00  0.00    -0.634 OA 
ENDROOT
BRANCH   2   6
HETATM    6  C   UNL     1     -11.518  11.623  67.968  1.00  0.00    -0.385 A  
HETATM    7  C   UNL     1     -11.860  11.812  69.310  1.00  0.00    -0.389 A  
HETATM    8  C   UNL     1     -11.581  10.805  70.233  1.00  0.00    -0.427 A  
HETATM    9  C   UNL     1     -10.967   9.646  69.781  1.00  0.00    -0.240 A  
HETATM   10  N   UNL     1     -10.617   9.435  68.495  1.00  0.00    -0.213 NA 
HETATM   11  C   UNL     1     -10.891  10.434  67.617  1.00  0.00    -0.306 A  
ENDBRANCH   2   6
TORSDOF 1
ENDMDL
MODEL       67
REMARK 921   NORMALIZED FREE ENERGY PREDICTED BY IDOCK:   -3.08 KCAL/MOL
REMARK 922        TOTAL FREE ENERGY PREDICTED BY IDOCK:   -3.29 KCAL/MOL
REMARK 923 INTER-LIGAND FREE ENERGY PREDICTED BY IDOCK:   -3.27 KCAL/MOL
REMARK 924 INTRA-LIGAND FREE ENERGY PREDICTED BY IDOCK:   -0.02 KCAL/MOL
REMARK 927      BINDING AFFINITY PREDICTED BY RF-SCORE:    0.00 PKD
ROOT
HETATM    1  N   UNL     1      -9.579  20.892  66.973  1.00  0.00    -0.688 N  
HETATM    2  C   UNL     1      -8.863  19.844  67.481  1.00  0.00    -0.338 C  
HETATM    3  H1  UNL     1     -10.526  20.758  66.618  1.00  0.00     0.000 HD 
HETATM    4  H2  UNL     1      -9.161  21.822  66.950  1.00  0.00     0.000 HD 
HETATM    5  O   UNL     1      -7.728  20.004  67.908  1.00  0.00    -0.289 OA 
ENDROOT
BRANCH   2   6
HETATM    6  C   UNL     1      -9.499  18.510  67.458  1.00  0.00    -0.291 A  
HETATM    7  C   UNL     1      -9.503  17.683  66.332  1.00  0.00    -0.274 A  
HETATM    8  C   UNL     1     -10.133  16.440  66.401  1.00  0.00    -0.328 A  
HETATM    9  C   UNL     1     -10.738  16.072  67.593  1.00  0.00    -0.320 A  
HETATM   10  N   UNL     1     -10.758  16.850  68.696  1.00  0.00    -0.348 NA 
HETATM   11  C   UNL     1     -10.146  18.058  68.601  1.00  0.00    -0.394 A  
ENDBRANCH   2   6
TORSDOF 1
ENDMDL
MODEL       68
REMARK 921   NORMALIZED FREE ENERGY PREDICTED BY IDOCK:   -3.05 KCAL/MOL
REMARK 922        TOTAL FREE ENERGY PREDICTED BY IDOCK:   -3.25 KCAL/MOL
REMARK 923 INTER-LIGAND FREE ENERGY PREDICTED BY IDOCK:   -3.22 KCAL/MOL
REMARK 924 INTRA-LIGAND FREE ENERGY PREDICTED BY IDOCK:   -0.03 KCAL/MOL
REMARK 927      BINDING AFFINITY PREDICTED BY RF-SCORE:    0.00 PKD
ROOT
HETATM    1  N   UNL     1     -10.166  14.137  64.794  1.00  0.00    -0.579 N  
HETATM    2  C   UNL     1      -9.979  14.422  66.119  1.00  0.00    -0.311 C  
HETATM    3  H1  UNL     1     -10.377  14.875  64.123  1.00  0.00     0.000 HD 
HETATM    4  H2  UNL     1     -10.093  13.171  64.473  1.00  0.00     0.000 HD 
HETATM    5  O   UNL     1      -9.726  13.537  66.924  1.00  0.00    -0.245 OA 
ENDROOT
BRANCH   2   6
HETATM    6  C   UNL     1     -10.133  15.830  66.540  1.00  0.00    -0.292 A  
HETATM    7  C   UNL     1     -10.092  16.240  67.875  1.00  0.00    -0.247 A  
HETATM    8  C   UNL     1     -10.251  17.592  68.178  1.00  0.00    -0.359 A  
HETATM    9  C   UNL     1     -10.448  18.485  67.135  1.00  0.00    -0.409 A  
HETATM   10  N   UNL     1     -10.499  18.121  65.836  1.00  0.00    -0.565 NA 
HETATM   11  C   UNL     1     -10.351  16.798  65.567  1.00  0.00    -0.215 A  
ENDBRANCH   2   6
TORSDOF 1
ENDMDL
MODEL       69
REMARK 921   NORMALIZED FREE ENERGY PREDICTED BY IDOCK:   -3.04 KCAL/MOL
REMARK 922        TOTAL FREE ENERGY PREDICTED BY IDOCK:   -3.24 KCAL/MOL
REMARK 923 INTER-LIGAND FREE ENERGY PREDICTED BY IDOCK:   -3.22 KCAL/MOL
REMARK 924 INTRA-LIGAND FREE ENERGY PREDICTED BY IDOCK:   -0.02 KCAL/MOL
REMARK 927      BINDING AFFINITY PREDICTED BY RF-SCORE:    0.00 PKD
ROOT
HETATM    1  N   UNL     1     -10.507   9.640  67.118  1.00  0.00    -0.255 N  
HETATM    2  C   UNL     1     -10.312  10.989  67.006  1.00  0.00    -0.228 C  
HETATM    3  H1  UNL     1     -11.024   9.123  66.406  1.00  0.00     0.000 HD 
HETATM    4  H2  UNL     1     -10.130   9.143  67.925  1.00  0.00     0.000 HD 
HETATM    5  O   UNL     1      -9.693  11.609  67.859  1.00  0.00    -0.170 OA 
ENDROOT
BRANCH   2   6
HETATM    6  C   UNL     1     -10.911  11.668  65.838  1.00  0.00    -0.334 A  
HETATM    7  C   UNL     1     -11.862  12.687  65.948  1.00  0.00    -0.499 A  
HETATM    8  C   UNL     1     -12.375  13.268  64.788  1.00  0.00    -0.454 A  
HETATM    9  C   UNL     1     -11.921  12.807  63.561  1.00  0.00    -0.555 A  
HETATM   10  N   UNL     1     -11.009  11.821  63.421  1.00  0.00    -0.395 NA 
HETATM   11  C   UNL     1     -10.532  11.265  64.564  1.00  0.00    -0.334 A  
ENDBRANCH   2   6
TORSDOF 1
ENDMDL
MODEL       70
REMARK 921   NORMALIZED FREE ENERGY PREDICTED BY IDOCK:   -3.03 KCAL/MOL
REMARK 922        TOTAL FREE ENERGY PREDICTED BY IDOCK:   -3.24 KCAL/MOL
REMARK 923 INTER-LIGAND FREE ENERGY PREDICTED BY IDOCK:   -3.21 KCAL/MOL
REMARK 924 INTRA-LIGAND FREE ENERGY PREDICTED BY IDOCK:   -0.02 KCAL/MOL
REMARK 927      BINDING AFFINITY PREDICTED BY RF-SCORE:    0.00 PKD
ROOT
HETATM    1  N   UNL     1      -8.424  12.157  66.465  1.00  0.00    -0.380 N  
HETATM    2  C   UNL     1      -9.431  13.080  66.416  1.00  0.00    -0.224 C  
HETATM    3  H1  UNL     1      -8.427  11.343  65.849  1.00  0.00     0.000 HD 
HETATM    4  H2  UNL     1      -7.657  12.283  67.126  1.00  0.00     0.000 HD 
HETATM    5  O   UNL     1      -9.427  14.056  67.154  1.00  0.00    -0.224 OA 
ENDROOT
BRANCH   2   6
HETATM    6  C   UNL     1     -10.538  12.831  65.469  1.00  0.00    -0.303 A  
HETATM    7  C   UNL     1     -11.883  13.012  65.797  1.00  0.00    -0.453 A  
HETATM    8  C   UNL     1     -12.861  12.748  64.838  1.00  0.00    -0.357 A  
HETATM    9  C   UNL     1     -12.456  12.309  63.586  1.00  0.00    -0.541 A  
HETATM   10  N   UNL     1     -11.166  12.117  63.239  1.00  0.00    -0.380 NA 
HETATM   11  C   UNL     1     -10.234  12.372  64.193  1.00  0.00    -0.351 A  
ENDBRANCH   2   6
TORSDOF 1
ENDMDL
MODEL       71
REMARK 921   NORMALIZED FREE ENERGY PREDICTED BY IDOCK:   -3.02 KCAL/MOL
REMARK 922        TOTAL FREE ENERGY PREDICTED BY IDOCK:   -3.23 KCAL/MOL
REMARK 923 INTER-LIGAND FREE ENERGY PREDICTED BY IDOCK:   -3.21 KCAL/MOL
REMARK 924 INTRA-LIGAND FREE ENERGY PREDICTED BY IDOCK:   -0.02 KCAL/MOL
REMARK 927      BINDING AFFINITY PREDICTED BY RF-SCORE:    0.00 PKD
ROOT
HETATM    1  N   UNL     1     -11.252   5.524  66.175  1.00  0.00    -0.761 N  
HETATM    2  C   UNL     1     -10.895   6.420  67.145  1.00  0.00    -0.393 C  
HETATM    3  H1  UNL     1     -11.319   4.527  66.380  1.00  0.00     0.000 HD 
HETATM    4  H2  UNL     1     -11.455   5.858  65.233  1.00  0.00     0.000 HD 
HETATM    5  O   UNL     1     -10.814   7.615  66.899  1.00  0.00    -0.328 OA 
ENDROOT
BRANCH   2   6
HETATM    6  C   UNL     1     -10.574   5.882  68.483  1.00  0.00    -0.317 A  
HETATM    7  C   UNL     1      -9.721   4.794  68.688  1.00  0.00    -0.223 A  
HETATM    8  C   UNL     1      -9.480   4.352  69.988  1.00  0.00    -0.251 A  
HETATM    9  C   UNL     1     -10.103   5.012  71.037  1.00  0.00    -0.227 A  
HETATM   10  N   UNL     1     -10.937   6.061  70.873  1.00  0.00    -0.287 NA 
HETATM   11  C   UNL     1     -11.163   6.467  69.598  1.00  0.00    -0.418 A  
ENDBRANCH   2   6
TORSDOF 1
ENDMDL
MODEL       72
REMARK 921   NORMALIZED FREE ENERGY PREDICTED BY IDOCK:   -3.02 KCAL/MOL
REMARK 922        TOTAL FREE ENERGY PREDICTED BY IDOCK:   -3.22 KCAL/MOL
REMARK 923 INTER-LIGAND FREE ENERGY PREDICTED BY IDOCK:   -3.20 KCAL/MOL
REMARK 924 INTRA-LIGAND FREE ENERGY PREDICTED BY IDOCK:   -0.02 KCAL/MOL
REMARK 927      BINDING AFFINITY PREDICTED BY RF-SCORE:    0.00 PKD
ROOT
HETATM    1  N   UNL     1      -9.641  17.595  66.234  1.00  0.00    -0.272 N  
HETATM    2  C   UNL     1      -9.651  18.910  66.611  1.00  0.00    -0.336 C  
HETATM    3  H1  UNL     1      -8.857  16.987  66.470  1.00  0.00     0.000 HD 
HETATM    4  H2  UNL     1     -10.430  17.217  65.709  1.00  0.00     0.000 HD 
HETATM    5  O   UNL     1     -10.592  19.639  66.329  1.00  0.00    -0.464 OA 
ENDROOT
BRANCH   2   6
HETATM    6  C   UNL     1      -8.468  19.419  67.336  1.00  0.00    -0.330 A  
HETATM    7  C   UNL     1      -7.963  18.822  68.494  1.00  0.00    -0.377 A  
HETATM    8  C   UNL     1      -6.843  19.374  69.113  1.00  0.00    -0.374 A  
HETATM    9  C   UNL     1      -6.268  20.506  68.552  1.00  0.00    -0.322 A  
HETATM   10  N   UNL     1      -6.735  21.110  67.439  1.00  0.00    -0.466 NA 
HETATM   11  C   UNL     1      -7.832  20.559  66.860  1.00  0.00    -0.257 A  
ENDBRANCH   2   6
TORSDOF 1
ENDMDL
MODEL       73
REMARK 921   NORMALIZED FREE ENERGY PREDICTED BY IDOCK:   -2.98 KCAL/MOL
REMARK 922        TOTAL FREE ENERGY PREDICTED BY IDOCK:   -3.18 KCAL/MOL
REMARK 923 INTER-LIGAND FREE ENERGY PREDICTED BY IDOCK:   -3.16 KCAL/MOL
REMARK 924 INTRA-LIGAND FREE ENERGY PREDICTED BY IDOCK:   -0.02 KCAL/MOL
REMARK 927      BINDING AFFINITY PREDICTED BY RF-SCORE:    0.00 PKD
ROOT
HETATM    1  N   UNL     1      -8.899   9.824  70.217  1.00  0.00    -0.326 N  
HETATM    2  C   UNL     1     -10.160  10.171  69.815  1.00  0.00    -0.231 C  
HETATM    3  H1  UNL     1      -8.748   9.311  71.085  1.00  0.00     0.000 HD 
HETATM    4  H2  UNL     1      -8.099  10.083  69.640  1.00  0.00     0.000 HD 
HETATM    5  O   UNL     1     -10.342  10.787  68.775  1.00  0.00    -0.174 OA 
ENDROOT
BRANCH   2   6
HETATM    6  C   UNL     1     -11.282   9.807  70.706  1.00  0.00    -0.419 A  
HETATM    7  C   UNL     1     -11.466   8.521  71.220  1.00  0.00    -0.329 A  
HETATM    8  C   UNL     1     -12.557   8.268  72.051  1.00  0.00    -0.387 A  
HETATM    9  C   UNL     1     -13.426   9.311  72.335  1.00  0.00    -0.459 A  
HETATM   10  N   UNL     1     -13.281  10.562  71.850  1.00  0.00    -0.452 NA 
HETATM   11  C   UNL     1     -12.217  10.780  71.036  1.00  0.00    -0.380 A  
ENDBRANCH   2   6
TORSDOF 1
ENDMDL
MODEL       74
REMARK 921   NORMALIZED FREE ENERGY PREDICTED BY IDOCK:   -2.97 KCAL/MOL
REMARK 922        TOTAL FREE ENERGY PREDICTED BY IDOCK:   -3.17 KCAL/MOL
REMARK 923 INTER-LIGAND FREE ENERGY PREDICTED BY IDOCK:   -3.15 KCAL/MOL
REMARK 924 INTRA-LIGAND FREE ENERGY PREDICTED BY IDOCK:   -0.02 KCAL/MOL
REMARK 927      BINDING AFFINITY PREDICTED BY RF-SCORE:    0.00 PKD
ROOT
HETATM    1  N   UNL     1     -11.932   7.233  70.118  1.00  0.00    -0.543 N  
HETATM    2  C   UNL     1     -11.957   8.006  71.246  1.00  0.00    -0.296 C  
HETATM    3  H1  UNL     1     -11.148   6.611  69.925  1.00  0.00     0.000 HD 
HETATM    4  H2  UNL     1     -12.710   7.280  69.459  1.00  0.00     0.000 HD 
HETATM    5  O   UNL     1     -12.898   8.753  71.477  1.00  0.00    -0.323 OA 
ENDROOT
BRANCH   2   6
HETATM    6  C   UNL     1     -10.789   7.931  72.148  1.00  0.00    -0.327 A  
HETATM    7  C   UNL     1     -10.754   7.127  73.290  1.00  0.00    -0.403 A  
HETATM    8  C   UNL     1      -9.608   7.122  74.085  1.00  0.00    -0.272 A  
HETATM    9  C   UNL     1      -8.540   7.924  73.710  1.00  0.00    -0.265 A  
HETATM   10  N   UNL     1      -8.544   8.716  72.617  1.00  0.00    -0.407 NA 
HETATM   11  C   UNL     1      -9.674   8.710  71.865  1.00  0.00    -0.313 A  
ENDBRANCH   2   6
TORSDOF 1
ENDMDL
MODEL       75
REMARK 921   NORMALIZED FREE ENERGY PREDICTED BY IDOCK:   -2.96 KCAL/MOL
REMARK 922        TOTAL FREE ENERGY PREDICTED BY IDOCK:   -3.16 KCAL/MOL
REMARK 923 INTER-LIGAND FREE ENERGY PREDICTED BY IDOCK:   -3.13 KCAL/MOL
REMARK 924 INTRA-LIGAND FREE ENERGY PREDICTED BY IDOCK:   -0.03 KCAL/MOL
REMARK 927      BINDING AFFINITY PREDICTED BY RF-SCORE:    0.00 PKD
ROOT
HETATM    1  N   UNL     1      -6.107  20.026  68.576  1.00  0.00    -0.255 N  
HETATM    2  C   UNL     1      -6.959  18.969  68.742  1.00  0.00    -0.310 C  
HETATM    3  H1  UNL     1      -6.395  20.855  68.056  1.00  0.00     0.000 HD 
HETATM    4  H2  UNL     1      -5.171  19.985  68.979  1.00  0.00     0.000 HD 
HETATM    5  O   UNL     1      -6.614  17.975  69.365  1.00  0.00    -0.248 OA 
ENDROOT
BRANCH   2   6
HETATM    6  C   UNL     1      -8.290  19.061  68.106  1.00  0.00    -0.347 A  
HETATM    7  C   UNL     1      -9.287  18.096  68.271  1.00  0.00    -0.312 A  
HETATM    8  C   UNL     1     -10.513  18.266  67.628  1.00  0.00    -0.431 A  
HETATM    9  C   UNL     1     -10.696  19.394  66.842  1.00  0.00    -0.465 A  
HETATM   10  N   UNL     1      -9.752  20.341  66.657  1.00  0.00    -0.423 NA 
HETATM   11  C   UNL     1      -8.564  20.148  67.285  1.00  0.00    -0.343 A  
ENDBRANCH   2   6
TORSDOF 1
ENDMDL
MODEL       76
REMARK 921   NORMALIZED FREE ENERGY PREDICTED BY IDOCK:   -2.95 KCAL/MOL
REMARK 922        TOTAL FREE ENERGY PREDICTED BY IDOCK:   -3.15 KCAL/MOL
REMARK 923 INTER-LIGAND FREE ENERGY PREDICTED BY IDOCK:   -3.13 KCAL/MOL
REMARK 924 INTRA-LIGAND FREE ENERGY PREDICTED BY IDOCK:   -0.02 KCAL/MOL
REMARK 927      BINDING AFFINITY PREDICTED BY RF-SCORE:    0.00 PKD
ROOT
HETATM    1  N   UNL     1      -9.788   7.658  70.070  1.00  0.00    -0.180 N  
HETATM    2  C   UNL     1     -10.198   8.196  71.259  1.00  0.00    -0.195 C  
HETATM    3  H1  UNL     1     -10.463   7.398  69.351  1.00  0.00     0.000 HD 
HETATM    4  H2  UNL     1      -8.792   7.515  69.899  1.00  0.00     0.000 HD 
HETATM    5  O   UNL     1      -9.388   8.508  72.121  1.00  0.00    -0.239 OA 
ENDROOT
BRANCH   2   6
HETATM    6  C   UNL     1     -11.652   8.346  71.472  1.00  0.00    -0.338 A  
HETATM    7  C   UNL     1     -12.255   9.559  71.814  1.00  0.00    -0.465 A  
HETATM    8  C   UNL     1     -13.636   9.606  71.999  1.00  0.00    -0.467 A  
HETATM    9  C   UNL     1     -14.365   8.436  71.837  1.00  0.00    -0.473 A  
HETATM   10  N   UNL     1     -13.813   7.248  71.513  1.00  0.00    -0.389 NA 
HETATM   11  C   UNL     1     -12.465   7.226  71.348  1.00  0.00    -0.383 A  
ENDBRANCH   2   6
TORSDOF 1
ENDMDL
MODEL       77
REMARK 921   NORMALIZED FREE ENERGY PREDICTED BY IDOCK:   -2.95 KCAL/MOL
REMARK 922        TOTAL FREE ENERGY PREDICTED BY IDOCK:   -3.15 KCAL/MOL
REMARK 923 INTER-LIGAND FREE ENERGY PREDICTED BY IDOCK:   -3.12 KCAL/MOL
REMARK 924 INTRA-LIGAND FREE ENERGY PREDICTED BY IDOCK:   -0.02 KCAL/MOL
REMARK 927      BINDING AFFINITY PREDICTED BY RF-SCORE:    0.00 PKD
ROOT
HETATM    1  N   UNL     1     -12.920  10.007  71.575  1.00  0.00    -0.399 N  
HETATM    2  C   UNL     1     -11.676   9.807  71.042  1.00  0.00    -0.370 C  
HETATM    3  H1  UNL     1     -13.667  10.427  71.021  1.00  0.00     0.000 HD 
HETATM    4  H2  UNL     1     -13.103   9.733  72.540  1.00  0.00     0.000 HD 
HETATM    5  O   UNL     1     -10.780   9.304  71.706  1.00  0.00    -0.363 OA 
ENDROOT
BRANCH   2   6
HETATM    6  C   UNL     1     -11.451  10.257  69.652  1.00  0.00    -0.297 A  
HETATM    7  C   UNL     1     -10.663   9.553  68.738  1.00  0.00    -0.218 A  
HETATM    8  C   UNL     1     -10.504  10.056  67.447  1.00  0.00    -0.316 A  
HETATM    9  C   UNL     1     -11.136  11.247  67.119  1.00  0.00    -0.301 A  
HETATM   10  N   UNL     1     -11.898  11.954  67.980  1.00  0.00    -0.526 NA 
HETATM   11  C   UNL     1     -12.030  11.448  69.234  1.00  0.00    -0.332 A  
ENDBRANCH   2   6
TORSDOF 1
ENDMDL
MODEL       78
REMARK 921   NORMALIZED FREE ENERGY PREDICTED BY IDOCK:   -2.91 KCAL/MOL
REMARK 922        TOTAL FREE ENERGY PREDICTED BY IDOCK:   -3.11 KCAL/MOL
REMARK 923 INTER-LIGAND FREE ENERGY PREDICTED BY IDOCK:   -3.09 KCAL/MOL
REMARK 924 INTRA-LIGAND FREE ENERGY PREDICTED BY IDOCK:   -0.02 KCAL/MOL
REMARK 927      BINDING AFFINITY PREDICTED BY RF-SCORE:    0.00 PKD
ROOT
HETATM    1  N   UNL     1     -11.057   9.792  67.922  1.00  0.00    -0.504 N  
HETATM    2  C   UNL     1     -10.598   9.234  69.084  1.00  0.00    -0.212 C  
HETATM    3  H1  UNL     1     -11.987  10.207  67.871  1.00  0.00     0.000 HD 
HETATM    4  H2  UNL     1     -10.460   9.792  67.095  1.00  0.00     0.000 HD 
HETATM    5  O   UNL     1      -9.483   8.736  69.145  1.00  0.00    -0.155 OA 
ENDROOT
BRANCH   2   6
HETATM    6  C   UNL     1     -11.514   9.225  70.243  1.00  0.00    -0.198 A  
HETATM    7  C   UNL     1     -12.200  10.359  70.686  1.00  0.00    -0.441 A  
HETATM    8  C   UNL     1     -13.043  10.256  71.793  1.00  0.00    -0.570 A  
HETATM    9  C   UNL     1     -13.167   9.024  72.417  1.00  0.00    -0.447 A  
HETATM   10  N   UNL     1     -12.514   7.912  72.018  1.00  0.00    -0.311 NA 
HETATM   11  C   UNL     1     -11.692   8.039  70.945  1.00  0.00    -0.251 A  
ENDBRANCH   2   6
TORSDOF 1
ENDMDL
MODEL       79
REMARK 921   NORMALIZED FREE ENERGY PREDICTED BY IDOCK:   -2.91 KCAL/MOL
REMARK 922        TOTAL FREE ENERGY PREDICTED BY IDOCK:   -3.11 KCAL/MOL
REMARK 923 INTER-LIGAND FREE ENERGY PREDICTED BY IDOCK:   -3.09 KCAL/MOL
REMARK 924 INTRA-LIGAND FREE ENERGY PREDICTED BY IDOCK:   -0.02 KCAL/MOL
REMARK 927      BINDING AFFINITY PREDICTED BY RF-SCORE:    0.00 PKD
ROOT
HETATM    1  N   UNL     1     -10.177  15.736  65.576  1.00  0.00    -0.368 N  
HETATM    2  C   UNL     1      -9.190  16.383  66.268  1.00  0.00    -0.315 C  
HETATM    3  H1  UNL     1     -10.991  16.242  65.226  1.00  0.00     0.000 HD 
HETATM    4  H2  UNL     1     -10.098  14.733  65.407  1.00  0.00     0.000 HD 
HETATM    5  O   UNL     1      -8.215  15.777  66.687  1.00  0.00    -0.251 OA 
ENDROOT
BRANCH   2   6
HETATM    6  C   UNL     1      -9.371  17.828  66.518  1.00  0.00    -0.291 A  
HETATM    7  C   UNL     1     -10.570  18.383  66.972  1.00  0.00    -0.400 A  
HETATM    8  C   UNL     1     -10.650  19.760  67.178  1.00  0.00    -0.577 A  
HETATM    9  C   UNL     1      -9.527  20.533  66.919  1.00  0.00    -0.334 A  
HETATM   10  N   UNL     1      -8.356  20.029  66.474  1.00  0.00    -0.321 NA 
HETATM   11  C   UNL     1      -8.307  18.687  66.272  1.00  0.00    -0.230 A  
ENDBRANCH   2   6
TORSDOF 1
ENDMDL
MODEL       80
REMARK 921   NORMALIZED FREE ENERGY PREDICTED BY IDOCK:   -2.90 KCAL/MOL
REMARK 922        TOTAL FREE ENERGY PREDICTED BY IDOCK:   -3.10 KCAL/MOL
REMARK 923 INTER-LIGAND FREE ENERGY PREDICTED BY IDOCK:   -3.07 KCAL/MOL
REMARK 924 INTRA-LIGAND FREE ENERGY PREDICTED BY IDOCK:   -0.03 KCAL/MOL
REMARK 927      BINDING AFFINITY PREDICTED BY RF-SCORE:    0.00 PKD
ROOT
HETATM    1  N   UNL     1      -9.943   9.472  66.534  1.00  0.00    -0.243 N  
HETATM    2  C   UNL     1     -10.158  10.395  65.548  1.00  0.00    -0.283 C  
HETATM    3  H1  UNL     1     -10.305   9.617  67.477  1.00  0.00     0.000 HD 
HETATM    4  H2  UNL     1      -9.413   8.626  66.324  1.00  0.00     0.000 HD 
HETATM    5  O   UNL     1      -9.725  10.221  64.418  1.00  0.00    -0.297 OA 
ENDROOT
BRANCH   2   6
HETATM    6  C   UNL     1     -10.899  11.621  65.913  1.00  0.00    -0.339 A  
HETATM    7  C   UNL     1     -11.073  12.046  67.233  1.00  0.00    -0.341 A  
HETATM    8  C   UNL     1     -11.791  13.215  67.483  1.00  0.00    -0.409 A  
HETATM    9  C   UNL     1     -12.310  13.915  66.404  1.00  0.00    -0.426 A  
HETATM   10  N   UNL     1     -12.166  13.528  65.119  1.00  0.00    -0.403 NA 
HETATM   11  C   UNL     1     -11.471  12.382  64.902  1.00  0.00    -0.332 A  
ENDBRANCH   2   6
TORSDOF 1
ENDMDL
MODEL       81
REMARK 921   NORMALIZED FREE ENERGY PREDICTED BY IDOCK:   -2.90 KCAL/MOL
REMARK 922        TOTAL FREE ENERGY PREDICTED BY IDOCK:   -3.10 KCAL/MOL
REMARK 923 INTER-LIGAND FREE ENERGY PREDICTED BY IDOCK:   -3.07 KCAL/MOL
REMARK 924 INTRA-LIGAND FREE ENERGY PREDICTED BY IDOCK:   -0.03 KCAL/MOL
REMARK 927      BINDING AFFINITY PREDICTED BY RF-SCORE:    0.00 PKD
ROOT
HETATM    1  N   UNL     1     -10.571  19.827  67.112  1.00  0.00    -0.462 N  
HETATM    2  C   UNL     1      -9.962  18.830  67.824  1.00  0.00    -0.350 C  
HETATM    3  H1  UNL     1     -11.050  19.627  66.234  1.00  0.00     0.000 HD 
HETATM    4  H2  UNL     1     -10.545  20.784  67.465  1.00  0.00     0.000 HD 
HETATM    5  O   UNL     1      -9.388  19.069  68.877  1.00  0.00    -0.354 OA 
ENDROOT
BRANCH   2   6
HETATM    6  C   UNL     1      -9.995  17.468  67.252  1.00  0.00    -0.312 A  
HETATM    7  C   UNL     1      -9.710  16.318  67.993  1.00  0.00    -0.230 A  
HETATM    8  C   UNL     1      -9.762  15.073  67.367  1.00  0.00    -0.216 A  
HETATM    9  C   UNL     1     -10.094  15.024  66.021  1.00  0.00    -0.301 A  
HETATM   10  N   UNL     1     -10.368  16.115  65.276  1.00  0.00    -0.565 NA 
HETATM   11  C   UNL     1     -10.301  17.316  65.906  1.00  0.00    -0.278 A  
ENDBRANCH   2   6
TORSDOF 1
ENDMDL
MODEL       82
REMARK 921   NORMALIZED FREE ENERGY PREDICTED BY IDOCK:   -2.88 KCAL/MOL
REMARK 922        TOTAL FREE ENERGY PREDICTED BY IDOCK:   -3.07 KCAL/MOL
REMARK 923 INTER-LIGAND FREE ENERGY PREDICTED BY IDOCK:   -3.06 KCAL/MOL
REMARK 924 INTRA-LIGAND FREE ENERGY PREDICTED BY IDOCK:   -0.02 KCAL/MOL
REMARK 927      BINDING AFFINITY PREDICTED BY RF-SCORE:    0.00 PKD
ROOT
HETATM    1  N   UNL     1     -10.906  19.100  67.757  1.00  0.00    -0.367 N  
HETATM    2  C   UNL     1     -10.150  17.991  68.022  1.00  0.00    -0.365 C  
HETATM    3  H1  UNL     1     -11.861  19.013  67.410  1.00  0.00     0.000 HD 
HETATM    4  H2  UNL     1     -10.509  20.027  67.908  1.00  0.00     0.000 HD 
HETATM    5  O   UNL     1      -9.004  18.095  68.438  1.00  0.00    -0.282 OA 
ENDROOT
BRANCH   2   6
HETATM    6  C   UNL     1     -10.758  16.672  67.750  1.00  0.00    -0.327 A  
HETATM    7  C   UNL     1     -11.427  15.922  68.720  1.00  0.00    -0.393 A  
HETATM    8  C   UNL     1     -11.967  14.684  68.372  1.00  0.00    -0.289 A  
HETATM    9  C   UNL     1     -11.815  14.240  67.067  1.00  0.00    -0.428 A  
HETATM   10  N   UNL     1     -11.168  14.936  66.108  1.00  0.00    -0.336 NA 
HETATM   11  C   UNL     1     -10.644  16.134  66.474  1.00  0.00    -0.268 A  
ENDBRANCH   2   6
TORSDOF 1
ENDMDL
MODEL       83
REMARK 921   NORMALIZED FREE ENERGY PREDICTED BY IDOCK:   -2.87 KCAL/MOL
REMARK 922        TOTAL FREE ENERGY PREDICTED BY IDOCK:   -3.07 KCAL/MOL
REMARK 923 INTER-LIGAND FREE ENERGY PREDICTED BY IDOCK:   -3.04 KCAL/MOL
REMARK 924 INTRA-LIGAND FREE ENERGY PREDICTED BY IDOCK:   -0.03 KCAL/MOL
REMARK 927      BINDING AFFINITY PREDICTED BY RF-SCORE:    0.00 PKD
ROOT
HETATM    1  N   UNL     1      -6.823  16.530  68.215  1.00  0.00    -0.138 N  
HETATM    2  C   UNL     1      -7.289  17.790  68.473  1.00  0.00    -0.266 C  
HETATM    3  H1  UNL     1      -7.233  15.960  67.476  1.00  0.00     0.000 HD 
HETATM    4  H2  UNL     1      -6.053  16.156  68.770  1.00  0.00     0.000 HD 
HETATM    5  O   UNL     1      -6.797  18.474  69.359  1.00  0.00    -0.250 OA 
ENDROOT
BRANCH   2   6
HETATM    6  C   UNL     1      -8.430  18.272  67.667  1.00  0.00    -0.260 A  
HETATM    7  C   UNL     1      -9.205  19.379  68.020  1.00  0.00    -0.388 A  
HETATM    8  C   UNL     1     -10.266  19.759  67.199  1.00  0.00    -0.574 A  
HETATM    9  C   UNL     1     -10.516  19.014  66.056  1.00  0.00    -0.458 A  
HETATM   10  N   UNL     1      -9.792  17.935  65.690  1.00  0.00    -0.442 NA 
HETATM   11  C   UNL     1      -8.770  17.581  66.510  1.00  0.00    -0.262 A  
ENDBRANCH   2   6
TORSDOF 1
ENDMDL
MODEL       84
REMARK 921   NORMALIZED FREE ENERGY PREDICTED BY IDOCK:   -2.86 KCAL/MOL
REMARK 922        TOTAL FREE ENERGY PREDICTED BY IDOCK:   -3.06 KCAL/MOL
REMARK 923 INTER-LIGAND FREE ENERGY PREDICTED BY IDOCK:   -3.03 KCAL/MOL
REMARK 924 INTRA-LIGAND FREE ENERGY PREDICTED BY IDOCK:   -0.03 KCAL/MOL
REMARK 927      BINDING AFFINITY PREDICTED BY RF-SCORE:    0.00 PKD
ROOT
HETATM    1  N   UNL     1     -11.032  16.999  67.836  1.00  0.00    -0.298 N  
HETATM    2  C   UNL     1     -10.383  18.201  67.761  1.00  0.00    -0.399 C  
HETATM    3  H1  UNL     1     -10.584  16.186  68.258  1.00  0.00     0.000 HD 
HETATM    4  H2  UNL     1     -11.979  16.915  67.465  1.00  0.00     0.000 HD 
HETATM    5  O   UNL     1     -10.920  19.176  67.255  1.00  0.00    -0.478 OA 
ENDROOT
BRANCH   2   6
HETATM    6  C   UNL     1      -9.000  18.260  68.279  1.00  0.00    -0.318 A  
HETATM    7  C   UNL     1      -8.335  19.458  68.553  1.00  0.00    -0.399 A  
HETATM    8  C   UNL     1      -7.028  19.417  69.036  1.00  0.00    -0.390 A  
HETATM    9  C   UNL     1      -6.431  18.178  69.224  1.00  0.00    -0.255 A  
HETATM   10  N   UNL     1      -7.043  17.004  68.962  1.00  0.00    -0.231 NA 
HETATM   11  C   UNL     1      -8.312  17.071  68.484  1.00  0.00    -0.260 A  
ENDBRANCH   2   6
TORSDOF 1
ENDMDL
MODEL       85
REMARK 921   NORMALIZED FREE ENERGY PREDICTED BY IDOCK:   -2.85 KCAL/MOL
REMARK 922        TOTAL FREE ENERGY PREDICTED BY IDOCK:   -3.05 KCAL/MOL
REMARK 923 INTER-LIGAND FREE ENERGY PREDICTED BY IDOCK:   -3.03 KCAL/MOL
REMARK 924 INTRA-LIGAND FREE ENERGY PREDICTED BY IDOCK:   -0.02 KCAL/MOL
REMARK 927      BINDING AFFINITY PREDICTED BY RF-SCORE:    0.00 PKD
ROOT
HETATM    1  N   UNL     1     -11.281   4.623  65.096  1.00  0.00    -0.965 N  
HETATM    2  C   UNL     1     -10.122   4.711  65.817  1.00  0.00    -0.244 C  
HETATM    3  H1  UNL     1     -12.186   4.795  65.534  1.00  0.00     0.000 HD 
HETATM    4  H2  UNL     1     -11.240   4.381  64.106  1.00  0.00     0.000 HD 
HETATM    5  O   UNL     1      -9.037   4.504  65.292  1.00  0.00    -0.137 OA 
ENDROOT
BRANCH   2   6
HETATM    6  C   UNL     1     -10.238   5.026  67.256  1.00  0.00    -0.219 A  
HETATM    7  C   UNL     1     -10.964   6.115  67.745  1.00  0.00    -0.400 A  
HETATM    8  C   UNL     1     -11.015   6.338  69.121  1.00  0.00    -0.442 A  
HETATM    9  C   UNL     1     -10.336   5.464  69.958  1.00  0.00    -0.296 A  
HETATM   10  N   UNL     1      -9.621   4.407  69.517  1.00  0.00    -0.186 NA 
HETATM   11  C   UNL     1      -9.578   4.218  68.173  1.00  0.00    -0.137 A  
ENDBRANCH   2   6
TORSDOF 1
ENDMDL
MODEL       86
REMARK 921   NORMALIZED FREE ENERGY PREDICTED BY IDOCK:   -2.85 KCAL/MOL
REMARK 922        TOTAL FREE ENERGY PREDICTED BY IDOCK:   -3.04 KCAL/MOL
REMARK 923 INTER-LIGAND FREE ENERGY PREDICTED BY IDOCK:   -3.01 KCAL/MOL
REMARK 924 INTRA-LIGAND FREE ENERGY PREDICTED BY IDOCK:   -0.03 KCAL/MOL
REMARK 927      BINDING AFFINITY PREDICTED BY RF-SCORE:    0.00 PKD
ROOT
HETATM    1  N   UNL     1     -11.515  10.095  69.461  1.00  0.00    -0.395 N  
HETATM    2  C   UNL     1     -11.355  10.586  68.193  1.00  0.00    -0.254 C  
HETATM    3  H1  UNL     1     -11.821  10.700  70.223  1.00  0.00     0.000 HD 
HETATM    4  H2  UNL     1     -11.325   9.110  69.646  1.00  0.00     0.000 HD 
HETATM    5  O   UNL     1     -10.988   9.860  67.280  1.00  0.00    -0.251 OA 
ENDROOT
BRANCH   2   6
HETATM    6  C   UNL     1     -11.606  12.027  67.985  1.00  0.00    -0.407 A  
HETATM    7  C   UNL     1     -11.739  12.941  69.034  1.00  0.00    -0.375 A  
HETATM    8  C   UNL     1     -11.978  14.283  68.742  1.00  0.00    -0.346 A  
HETATM    9  C   UNL     1     -12.079  14.662  67.411  1.00  0.00    -0.183 A  
HETATM   10  N   UNL     1     -11.963  13.804  66.376  1.00  0.00    -0.413 NA 
HETATM   11  C   UNL     1     -11.739  12.501  66.686  1.00  0.00    -0.387 A  
ENDBRANCH   2   6
TORSDOF 1
ENDMDL
MODEL       87
REMARK 921   NORMALIZED FREE ENERGY PREDICTED BY IDOCK:   -2.85 KCAL/MOL
REMARK 922        TOTAL FREE ENERGY PREDICTED BY IDOCK:   -3.04 KCAL/MOL
REMARK 923 INTER-LIGAND FREE ENERGY PREDICTED BY IDOCK:   -3.02 KCAL/MOL
REMARK 924 INTRA-LIGAND FREE ENERGY PREDICTED BY IDOCK:   -0.02 KCAL/MOL
REMARK 927      BINDING AFFINITY PREDICTED BY RF-SCORE:    0.00 PKD
ROOT
HETATM    1  N   UNL     1     -11.475   4.830  65.254  1.00  0.00    -0.917 N  
HETATM    2  C   UNL     1     -10.478   4.853  66.192  1.00  0.00    -0.302 C  
HETATM    3  H1  UNL     1     -12.215   5.532  65.259  1.00  0.00     0.000 HD 
HETATM    4  H2  UNL     1     -11.477   4.102  64.541  1.00  0.00     0.000 HD 
HETATM    5  O   UNL     1      -9.591   4.011  66.186  1.00  0.00    -0.177 OA 
ENDROOT
BRANCH   2   6
HETATM    6  C   UNL     1     -10.541   5.905  67.227  1.00  0.00    -0.365 A  
HETATM    7  C   UNL     1     -10.768   5.638  68.579  1.00  0.00    -0.232 A  
HETATM    8  C   UNL     1     -10.815   6.697  69.485  1.00  0.00    -0.339 A  
HETATM    9  C   UNL     1     -10.636   7.986  69.004  1.00  0.00    -0.154 A  
HETATM   10  N   UNL     1     -10.422   8.279  67.704  1.00  0.00    -0.245 NA 
HETATM   11  C   UNL     1     -10.390   7.232  66.841  1.00  0.00    -0.288 A  
ENDBRANCH   2   6
TORSDOF 1
ENDMDL
MODEL       88
REMARK 921   NORMALIZED FREE ENERGY PREDICTED BY IDOCK:   -2.83 KCAL/MOL
REMARK 922        TOTAL FREE ENERGY PREDICTED BY IDOCK:   -3.02 KCAL/MOL
REMARK 923 INTER-LIGAND FREE ENERGY PREDICTED BY IDOCK:   -2.99 KCAL/MOL
REMARK 924 INTRA-LIGAND FREE ENERGY PREDICTED BY IDOCK:   -0.03 KCAL/MOL
REMARK 927      BINDING AFFINITY PREDICTED BY RF-SCORE:    0.00 PKD
ROOT
HETATM    1  N   UNL     1     -11.272   6.220  66.579  1.00  0.00    -0.719 N  
HETATM    2  C   UNL     1     -10.782   7.323  67.223  1.00  0.00    -0.321 C  
HETATM    3  H1  UNL     1     -11.632   5.422  67.104  1.00  0.00     0.000 HD 
HETATM    4  H2  UNL     1     -11.278   6.195  65.560  1.00  0.00     0.000 HD 
HETATM    5  O   UNL     1     -10.351   8.279  66.595  1.00  0.00    -0.308 OA 
ENDROOT
BRANCH   2   6
HETATM    6  C   UNL     1     -10.761   7.294  68.701  1.00  0.00    -0.172 A  
HETATM    7  C   UNL     1     -11.322   6.260  69.455  1.00  0.00    -0.475 A  
HETATM    8  C   UNL     1     -11.258   6.320  70.847  1.00  0.00    -0.386 A  
HETATM    9  C   UNL     1     -10.636   7.412  71.434  1.00  0.00    -0.214 A  
HETATM   10  N   UNL     1     -10.090   8.430  70.735  1.00  0.00    -0.190 NA 
HETATM   11  C   UNL     1     -10.174   8.353  69.381  1.00  0.00    -0.208 A  
ENDBRANCH   2   6
TORSDOF 1
ENDMDL
MODEL       89
REMARK 921   NORMALIZED FREE ENERGY PREDICTED BY IDOCK:   -2.82 KCAL/MOL
REMARK 922        TOTAL FREE ENERGY PREDICTED BY IDOCK:   -3.01 KCAL/MOL
REMARK 923 INTER-LIGAND FREE ENERGY PREDICTED BY IDOCK:   -2.99 KCAL/MOL
REMARK 924 INTRA-LIGAND FREE ENERGY PREDICTED BY IDOCK:   -0.03 KCAL/MOL
REMARK 927      BINDING AFFINITY PREDICTED BY RF-SCORE:    0.00 PKD
ROOT
HETATM    1  N   UNL     1      -9.372  15.062  69.718  1.00  0.00    -0.461 N  
HETATM    2  C   UNL     1     -10.142  15.823  68.881  1.00  0.00    -0.222 C  
HETATM    3  H1  UNL     1      -8.517  15.436  70.129  1.00  0.00     0.000 HD 
HETATM    4  H2  UNL     1      -9.658  14.107  69.934  1.00  0.00     0.000 HD 
HETATM    5  O   UNL     1     -11.168  15.375  68.389  1.00  0.00    -0.283 OA 
ENDROOT
BRANCH   2   6
HETATM    6  C   UNL     1      -9.665  17.186  68.570  1.00  0.00    -0.291 A  
HETATM    7  C   UNL     1     -10.478  18.172  68.005  1.00  0.00    -0.387 A  
HETATM    8  C   UNL     1      -9.939  19.431  67.741  1.00  0.00    -0.484 A  
HETATM    9  C   UNL     1      -8.605  19.657  68.050  1.00  0.00    -0.312 A  
HETATM   10  N   UNL     1      -7.792  18.725  68.589  1.00  0.00    -0.326 NA 
HETATM   11  C   UNL     1      -8.337  17.504  68.828  1.00  0.00    -0.219 A  
ENDBRANCH   2   6
TORSDOF 1
ENDMDL
MODEL       90
REMARK 921   NORMALIZED FREE ENERGY PREDICTED BY IDOCK:   -2.81 KCAL/MOL
REMARK 922        TOTAL FREE ENERGY PREDICTED BY IDOCK:   -3.00 KCAL/MOL
REMARK 923 INTER-LIGAND FREE ENERGY PREDICTED BY IDOCK:   -2.98 KCAL/MOL
REMARK 924 INTRA-LIGAND FREE ENERGY PREDICTED BY IDOCK:   -0.02 KCAL/MOL
REMARK 927      BINDING AFFINITY PREDICTED BY RF-SCORE:    0.00 PKD
ROOT
HETATM    1  N   UNL     1     -11.388   4.607  65.346  1.00  0.00    -0.963 N  
HETATM    2  C   UNL     1     -10.362   4.784  66.233  1.00  0.00    -0.291 C  
HETATM    3  H1  UNL     1     -12.161   5.271  65.298  1.00  0.00     0.000 HD 
HETATM    4  H2  UNL     1     -11.380   3.799  64.723  1.00  0.00     0.000 HD 
HETATM    5  O   UNL     1      -9.435   3.988  66.290  1.00  0.00    -0.165 OA 
ENDROOT
BRANCH   2   6
HETATM    6  C   UNL     1     -10.439   5.949  67.139  1.00  0.00    -0.335 A  
HETATM    7  C   UNL     1     -10.188   7.259  66.726  1.00  0.00    -0.305 A  
HETATM    8  C   UNL     1     -10.282   8.296  67.654  1.00  0.00    -0.294 A  
HETATM    9  C   UNL     1     -10.620   7.984  68.962  1.00  0.00    -0.154 A  
HETATM   10  N   UNL     1     -10.862   6.729  69.395  1.00  0.00    -0.255 NA 
HETATM   11  C   UNL     1     -10.756   5.735  68.475  1.00  0.00    -0.217 A  
ENDBRANCH   2   6
TORSDOF 1
ENDMDL
MODEL       91
REMARK 921   NORMALIZED FREE ENERGY PREDICTED BY IDOCK:   -2.78 KCAL/MOL
REMARK 922        TOTAL FREE ENERGY PREDICTED BY IDOCK:   -2.97 KCAL/MOL
REMARK 923 INTER-LIGAND FREE ENERGY PREDICTED BY IDOCK:   -2.94 KCAL/MOL
REMARK 924 INTRA-LIGAND FREE ENERGY PREDICTED BY IDOCK:   -0.03 KCAL/MOL
REMARK 927      BINDING AFFINITY PREDICTED BY RF-SCORE:    0.00 PKD
ROOT
HETATM    1  N   UNL     1     -11.020   9.133  67.424  1.00  0.00    -0.411 N  
HETATM    2  C   UNL     1     -10.119   9.270  66.404  1.00  0.00    -0.267 C  
HETATM    3  H1  UNL     1     -11.794   9.789  67.533  1.00  0.00     0.000 HD 
HETATM    4  H2  UNL     1     -10.917   8.363  68.086  1.00  0.00     0.000 HD 
HETATM    5  O   UNL     1      -9.192   8.484  66.274  1.00  0.00    -0.179 OA 
ENDROOT
BRANCH   2   6
HETATM    6  C   UNL     1     -10.291  10.424  65.496  1.00  0.00    -0.265 A  
HETATM    7  C   UNL     1      -9.876  10.417  64.162  1.00  0.00    -0.379 A  
HETATM    8  C   UNL     1     -10.076  11.554  63.380  1.00  0.00    -0.454 A  
HETATM    9  C   UNL     1     -10.681  12.658  63.962  1.00  0.00    -0.425 A  
HETATM   10  N   UNL     1     -11.087  12.700  65.248  1.00  0.00    -0.288 NA 
HETATM   11  C   UNL     1     -10.873  11.584  65.992  1.00  0.00    -0.276 A  
ENDBRANCH   2   6
TORSDOF 1
ENDMDL
MODEL       92
REMARK 921   NORMALIZED FREE ENERGY PREDICTED BY IDOCK:   -2.77 KCAL/MOL
REMARK 922        TOTAL FREE ENERGY PREDICTED BY IDOCK:   -2.96 KCAL/MOL
REMARK 923 INTER-LIGAND FREE ENERGY PREDICTED BY IDOCK:   -2.95 KCAL/MOL
REMARK 924 INTRA-LIGAND FREE ENERGY PREDICTED BY IDOCK:   -0.02 KCAL/MOL
REMARK 927      BINDING AFFINITY PREDICTED BY RF-SCORE:    0.00 PKD
ROOT
HETATM    1  N   UNL     1      -9.169  12.193  68.723  1.00  0.00    -0.398 N  
HETATM    2  C   UNL     1      -9.856  11.020  68.569  1.00  0.00    -0.192 C  
HETATM    3  H1  UNL     1      -9.265  12.750  69.572  1.00  0.00     0.000 HD 
HETATM    4  H2  UNL     1      -8.552  12.515  67.978  1.00  0.00     0.000 HD 
HETATM    5  O   UNL     1      -9.742  10.353  67.551  1.00  0.00    -0.165 OA 
ENDROOT
BRANCH   2   6
HETATM    6  C   UNL     1     -10.767  10.617  69.661  1.00  0.00    -0.290 A  
HETATM    7  C   UNL     1     -10.477   9.586  70.558  1.00  0.00    -0.358 A  
HETATM    8  C   UNL     1     -11.400   9.272  71.556  1.00  0.00    -0.455 A  
HETATM    9  C   UNL     1     -12.579  10.000  71.619  1.00  0.00    -0.427 A  
HETATM   10  N   UNL     1     -12.892  10.996  70.764  1.00  0.00    -0.301 NA 
HETATM   11  C   UNL     1     -11.982  11.277  69.796  1.00  0.00    -0.360 A  
ENDBRANCH   2   6
TORSDOF 1
ENDMDL
MODEL       93
REMARK 921   NORMALIZED FREE ENERGY PREDICTED BY IDOCK:   -2.76 KCAL/MOL
REMARK 922        TOTAL FREE ENERGY PREDICTED BY IDOCK:   -2.95 KCAL/MOL
REMARK 923 INTER-LIGAND FREE ENERGY PREDICTED BY IDOCK:   -2.93 KCAL/MOL
REMARK 924 INTRA-LIGAND FREE ENERGY PREDICTED BY IDOCK:   -0.02 KCAL/MOL
REMARK 927      BINDING AFFINITY PREDICTED BY RF-SCORE:    0.00 PKD
ROOT
HETATM    1  N   UNL     1      -5.801  19.002  67.000  1.00  0.00    -0.156 N  
HETATM    2  C   UNL     1      -6.802  18.090  66.810  1.00  0.00    -0.196 C  
HETATM    3  H1  UNL     1      -6.008  19.954  67.301  1.00  0.00     0.000 HD 
HETATM    4  H2  UNL     1      -4.832  18.726  66.839  1.00  0.00     0.000 HD 
HETATM    5  O   UNL     1      -6.554  16.948  66.449  1.00  0.00    -0.214 OA 
ENDROOT
BRANCH   2   6
HETATM    6  C   UNL     1      -8.191  18.550  67.020  1.00  0.00    -0.252 A  
HETATM    7  C   UNL     1      -8.788  19.555  66.255  1.00  0.00    -0.391 A  
HETATM    8  C   UNL     1     -10.104  19.928  66.528  1.00  0.00    -0.607 A  
HETATM    9  C   UNL     1     -10.774  19.283  67.558  1.00  0.00    -0.463 A  
HETATM   10  N   UNL     1     -10.224  18.314  68.319  1.00  0.00    -0.376 NA 
HETATM   11  C   UNL     1      -8.939  17.975  68.040  1.00  0.00    -0.272 A  
ENDBRANCH   2   6
TORSDOF 1
ENDMDL
MODEL       94
REMARK 921   NORMALIZED FREE ENERGY PREDICTED BY IDOCK:   -2.76 KCAL/MOL
REMARK 922        TOTAL FREE ENERGY PREDICTED BY IDOCK:   -2.94 KCAL/MOL
REMARK 923 INTER-LIGAND FREE ENERGY PREDICTED BY IDOCK:   -2.93 KCAL/MOL
REMARK 924 INTRA-LIGAND FREE ENERGY PREDICTED BY IDOCK:   -0.02 KCAL/MOL
REMARK 927      BINDING AFFINITY PREDICTED BY RF-SCORE:    0.00 PKD
ROOT
HETATM    1  N   UNL     1     -11.455   6.828  67.642  1.00  0.00    -0.653 N  
HETATM    2  C   UNL     1     -10.723   6.681  68.788  1.00  0.00    -0.258 C  
HETATM    3  H1  UNL     1     -12.276   7.434  67.617  1.00  0.00     0.000 HD 
HETATM    4  H2  UNL     1     -11.176   6.325  66.799  1.00  0.00     0.000 HD 
HETATM    5  O   UNL     1      -9.739   5.956  68.818  1.00  0.00    -0.124 OA 
ENDROOT
BRANCH   2   6
HETATM    6  C   UNL     1     -11.191   7.401  69.991  1.00  0.00    -0.200 A  
HETATM    7  C   UNL     1     -10.631   8.603  70.431  1.00  0.00    -0.244 A  
HETATM    8  C   UNL     1     -11.136   9.210  71.581  1.00  0.00    -0.445 A  
HETATM    9  C   UNL     1     -12.182   8.591  72.250  1.00  0.00    -0.389 A  
HETATM   10  N   UNL     1     -12.741   7.427  71.855  1.00  0.00    -0.303 NA 
HETATM   11  C   UNL     1     -12.225   6.852  70.738  1.00  0.00    -0.312 A  
ENDBRANCH   2   6
TORSDOF 1
ENDMDL
MODEL       95
REMARK 921   NORMALIZED FREE ENERGY PREDICTED BY IDOCK:   -2.75 KCAL/MOL
REMARK 922        TOTAL FREE ENERGY PREDICTED BY IDOCK:   -2.94 KCAL/MOL
REMARK 923 INTER-LIGAND FREE ENERGY PREDICTED BY IDOCK:   -2.92 KCAL/MOL
REMARK 924 INTRA-LIGAND FREE ENERGY PREDICTED BY IDOCK:   -0.02 KCAL/MOL
REMARK 927      BINDING AFFINITY PREDICTED BY RF-SCORE:    0.00 PKD
ROOT
HETATM    1  N   UNL     1     -11.450   6.482  67.513  1.00  0.00    -0.714 N  
HETATM    2  C   UNL     1     -10.627   6.949  68.500  1.00  0.00    -0.212 C  
HETATM    3  H1  UNL     1     -12.195   5.817  67.721  1.00  0.00     0.000 HD 
HETATM    4  H2  UNL     1     -11.319   6.805  66.554  1.00  0.00     0.000 HD 
HETATM    5  O   UNL     1      -9.734   7.747  68.250  1.00  0.00    -0.153 OA 
ENDROOT
BRANCH   2   6
HETATM    6  C   UNL     1     -10.835   6.422  69.865  1.00  0.00    -0.370 A  
HETATM    7  C   UNL     1     -10.139   5.323  70.376  1.00  0.00    -0.324 A  
HETATM    8  C   UNL     1     -10.404   4.894  71.676  1.00  0.00    -0.241 A  
HETATM    9  C   UNL     1     -11.358   5.577  72.417  1.00  0.00    -0.234 A  
HETATM   10  N   UNL     1     -12.051   6.637  71.950  1.00  0.00    -0.338 NA 
HETATM   11  C   UNL     1     -11.782   7.031  70.679  1.00  0.00    -0.338 A  
ENDBRANCH   2   6
TORSDOF 1
ENDMDL
MODEL       96
REMARK 921   NORMALIZED FREE ENERGY PREDICTED BY IDOCK:   -2.72 KCAL/MOL
REMARK 922        TOTAL FREE ENERGY PREDICTED BY IDOCK:   -2.91 KCAL/MOL
REMARK 923 INTER-LIGAND FREE ENERGY PREDICTED BY IDOCK:   -2.89 KCAL/MOL
REMARK 924 INTRA-LIGAND FREE ENERGY PREDICTED BY IDOCK:   -0.02 KCAL/MOL
REMARK 927      BINDING AFFINITY PREDICTED BY RF-SCORE:    0.00 PKD
ROOT
HETATM    1  N   UNL     1     -12.355  14.562  68.391  1.00  0.00    -0.605 N  
HETATM    2  C   UNL     1     -11.159  14.000  68.036  1.00  0.00    -0.263 C  
HETATM    3  H1  UNL     1     -12.551  15.544  68.199  1.00  0.00     0.000 HD 
HETATM    4  H2  UNL     1     -13.061  13.990  68.854  1.00  0.00     0.000 HD 
HETATM    5  O   UNL     1     -10.924  12.823  68.266  1.00  0.00    -0.230 OA 
ENDROOT
BRANCH   2   6
HETATM    6  C   UNL     1     -10.155  14.881  67.403  1.00  0.00    -0.228 A  
HETATM    7  C   UNL     1      -8.792  14.829  67.704  1.00  0.00    -0.182 A  
HETATM    8  C   UNL     1      -7.917  15.703  67.058  1.00  0.00    -0.268 A  
HETATM    9  C   UNL     1      -8.439  16.599  66.137  1.00  0.00    -0.273 A  
HETATM   10  N   UNL     1      -9.751  16.680  65.830  1.00  0.00    -0.531 NA 
HETATM   11  C   UNL     1     -10.583  15.825  66.478  1.00  0.00    -0.306 A  
ENDBRANCH   2   6
TORSDOF 1
ENDMDL
MODEL       97
REMARK 921   NORMALIZED FREE ENERGY PREDICTED BY IDOCK:   -2.70 KCAL/MOL
REMARK 922        TOTAL FREE ENERGY PREDICTED BY IDOCK:   -2.88 KCAL/MOL
REMARK 923 INTER-LIGAND FREE ENERGY PREDICTED BY IDOCK:   -2.85 KCAL/MOL
REMARK 924 INTRA-LIGAND FREE ENERGY PREDICTED BY IDOCK:   -0.03 KCAL/MOL
REMARK 927      BINDING AFFINITY PREDICTED BY RF-SCORE:    0.00 PKD
ROOT
HETATM    1  N   UNL     1     -11.989  13.017  69.209  1.00  0.00    -0.302 N  
HETATM    2  C   UNL     1     -11.817  13.432  67.917  1.00  0.00    -0.357 C  
HETATM    3  H1  UNL     1     -11.729  12.073  69.496  1.00  0.00     0.000 HD 
HETATM    4  H2  UNL     1     -12.383  13.660  69.895  1.00  0.00     0.000 HD 
HETATM    5  O   UNL     1     -12.129  14.563  67.573  1.00  0.00    -0.366 OA 
ENDROOT
BRANCH   2   6
HETATM    6  C   UNL     1     -11.278  12.450  66.953  1.00  0.00    -0.359 A  
HETATM    7  C   UNL     1     -10.835  11.177  67.323  1.00  0.00    -0.326 A  
HETATM    8  C   UNL     1     -10.338  10.318  66.343  1.00  0.00    -0.262 A  
HETATM    9  C   UNL     1     -10.300  10.763  65.030  1.00  0.00    -0.287 A  
HETATM   10  N   UNL     1     -10.714  11.988  64.641  1.00  0.00    -0.294 NA 
HETATM   11  C   UNL     1     -11.184  12.810  65.614  1.00  0.00    -0.301 A  
ENDBRANCH   2   6
TORSDOF 1
ENDMDL
MODEL       98
REMARK 921   NORMALIZED FREE ENERGY PREDICTED BY IDOCK:   -2.65 KCAL/MOL
REMARK 922        TOTAL FREE ENERGY PREDICTED BY IDOCK:   -2.83 KCAL/MOL
REMARK 923 INTER-LIGAND FREE ENERGY PREDICTED BY IDOCK:   -2.81 KCAL/MOL
REMARK 924 INTRA-LIGAND FREE ENERGY PREDICTED BY IDOCK:   -0.02 KCAL/MOL
REMARK 927      BINDING AFFINITY PREDICTED BY RF-SCORE:    0.00 PKD
ROOT
HETATM    1  N   UNL     1      -7.884  11.517  66.034  1.00  0.00    -0.370 N  
HETATM    2  C   UNL     1      -9.180  11.226  66.362  1.00  0.00    -0.192 C  
HETATM    3  H1  UNL     1      -7.616  12.453  65.732  1.00  0.00     0.000 HD 
HETATM    4  H2  UNL     1      -7.174  10.786  66.094  1.00  0.00     0.000 HD 
HETATM    5  O   UNL     1      -9.501  10.103  66.724  1.00  0.00    -0.160 OA 
ENDROOT
BRANCH   2   6
HETATM    6  C   UNL     1     -10.176  12.309  66.222  1.00  0.00    -0.251 A  
HETATM    7  C   UNL     1     -11.398  12.146  65.567  1.00  0.00    -0.393 A  
HETATM    8  C   UNL     1     -12.276  13.227  65.481  1.00  0.00    -0.506 A  
HETATM    9  C   UNL     1     -11.896  14.433  66.051  1.00  0.00    -0.372 A  
HETATM   10  N   UNL     1     -10.720  14.625  66.685  1.00  0.00    -0.299 NA 
HETATM   11  C   UNL     1      -9.879  13.561  66.747  1.00  0.00    -0.267 A  
ENDBRANCH   2   6
TORSDOF 1
ENDMDL
MODEL       99
REMARK 921   NORMALIZED FREE ENERGY PREDICTED BY IDOCK:   -2.63 KCAL/MOL
REMARK 922        TOTAL FREE ENERGY PREDICTED BY IDOCK:   -2.81 KCAL/MOL
REMARK 923 INTER-LIGAND FREE ENERGY PREDICTED BY IDOCK:   -2.79 KCAL/MOL
REMARK 924 INTRA-LIGAND FREE ENERGY PREDICTED BY IDOCK:   -0.02 KCAL/MOL
REMARK 927      BINDING AFFINITY PREDICTED BY RF-SCORE:    0.00 PKD
ROOT
HETATM    1  N   UNL     1     -10.142   7.689  66.701  1.00  0.00    -0.407 N  
HETATM    2  C   UNL     1      -9.807   8.994  66.937  1.00  0.00    -0.224 C  
HETATM    3  H1  UNL     1     -10.928   7.254  67.184  1.00  0.00     0.000 HD 
HETATM    4  H2  UNL     1      -9.599   7.144  66.033  1.00  0.00     0.000 HD 
HETATM    5  O   UNL     1      -8.865   9.517  66.359  1.00  0.00    -0.138 OA 
ENDROOT
BRANCH   2   6
HETATM    6  C   UNL     1     -10.602   9.730  67.943  1.00  0.00    -0.310 A  
HETATM    7  C   UNL     1     -10.635   9.383  69.296  1.00  0.00    -0.239 A  
HETATM    8  C   UNL     1     -11.418  10.133  70.173  1.00  0.00    -0.368 A  
HETATM    9  C   UNL     1     -12.141  11.202  69.664  1.00  0.00    -0.336 A  
HETATM   10  N   UNL     1     -12.135  11.559  68.362  1.00  0.00    -0.560 NA 
HETATM   11  C   UNL     1     -11.373  10.808  67.527  1.00  0.00    -0.205 A  
ENDBRANCH   2   6
TORSDOF 1
ENDMDL
MODEL      100
REMARK 921   NORMALIZED FREE ENERGY PREDICTED BY IDOCK:   -2.62 KCAL/MOL
REMARK 922        TOTAL FREE ENERGY PREDICTED BY IDOCK:   -2.80 KCAL/MOL
REMARK 923 INTER-LIGAND FREE ENERGY PREDICTED BY IDOCK:   -2.77 KCAL/MOL
REMARK 924 INTRA-LIGAND FREE ENERGY PREDICTED BY IDOCK:   -0.03 KCAL/MOL
REMARK 927      BINDING AFFINITY PREDICTED BY RF-SCORE:    0.00 PKD
ROOT
HETATM    1  N   UNL     1     -12.966   6.491  72.262  1.00  0.00    -0.531 N  
HETATM    2  C   UNL     1     -11.807   7.201  72.109  1.00  0.00    -0.277 C  
HETATM    3  H1  UNL     1     -13.256   5.803  71.566  1.00  0.00     0.000 HD 
HETATM    4  H2  UNL     1     -13.549   6.651  73.083  1.00  0.00     0.000 HD 
HETATM    5  O   UNL     1     -11.460   8.026  72.943  1.00  0.00    -0.411 OA 
ENDROOT
BRANCH   2   6
HETATM    6  C   UNL     1     -11.018   6.960  70.883  1.00  0.00    -0.290 A  
HETATM    7  C   UNL     1     -11.519   6.279  69.771  1.00  0.00    -0.449 A  
HETATM    8  C   UNL     1     -10.699   6.095  68.658  1.00  0.00    -0.370 A  
HETATM    9  C   UNL     1      -9.406   6.597  68.699  1.00  0.00    -0.129 A  
HETATM   10  N   UNL     1      -8.890   7.253  69.760  1.00  0.00    -0.142 NA 
HETATM   11  C   UNL     1      -9.705   7.411  70.835  1.00  0.00    -0.169 A  
ENDBRANCH   2   6
TORSDOF 1
ENDMDL
MODEL      101
REMARK 921   NORMALIZED FREE ENERGY PREDICTED BY IDOCK:   -2.62 KCAL/MOL
REMARK 922        TOTAL FREE ENERGY PREDICTED BY IDOCK:   -2.79 KCAL/MOL
REMARK 923 INTER-LIGAND FREE ENERGY PREDICTED BY IDOCK:   -2.78 KCAL/MOL
REMARK 924 INTRA-LIGAND FREE ENERGY PREDICTED BY IDOCK:   -0.02 KCAL/MOL
REMARK 927      BINDING AFFINITY PREDICTED BY RF-SCORE:    0.00 PKD
ROOT
HETATM    1  N   UNL     1     -12.280  14.138  68.637  1.00  0.00    -0.554 N  
HETATM    2  C   UNL     1     -11.602  14.882  69.563  1.00  0.00    -0.303 C  
HETATM    3  H1  UNL     1     -12.054  14.203  67.645  1.00  0.00     0.000 HD 
HETATM    4  H2  UNL     1     -13.022  13.509  68.944  1.00  0.00     0.000 HD 
HETATM    5  O   UNL     1     -11.873  14.805  70.753  1.00  0.00    -0.280 OA 
ENDROOT
BRANCH   2   6
HETATM    6  C   UNL     1     -10.562  15.806  69.064  1.00  0.00    -0.232 A  
HETATM    7  C   UNL     1      -9.201  15.645  69.334  1.00  0.00    -0.279 A  
HETATM    8  C   UNL     1      -8.291  16.571  68.823  1.00  0.00    -0.248 A  
HETATM    9  C   UNL     1      -8.776  17.625  68.064  1.00  0.00    -0.253 A  
HETATM   10  N   UNL     1     -10.084  17.813  67.791  1.00  0.00    -0.327 NA 
HETATM   11  C   UNL     1     -10.951  16.904  68.307  1.00  0.00    -0.298 A  
ENDBRANCH   2   6
TORSDOF 1
ENDMDL
MODEL      102
REMARK 921   NORMALIZED FREE ENERGY PREDICTED BY IDOCK:   -2.61 KCAL/MOL
REMARK 922        TOTAL FREE ENERGY PREDICTED BY IDOCK:   -2.79 KCAL/MOL
REMARK 923 INTER-LIGAND FREE ENERGY PREDICTED BY IDOCK:   -2.77 KCAL/MOL
REMARK 924 INTRA-LIGAND FREE ENERGY PREDICTED BY IDOCK:   -0.02 KCAL/MOL
REMARK 927      BINDING AFFINITY PREDICTED BY RF-SCORE:    0.00 PKD
ROOT
HETATM    1  N   UNL     1      -9.762  14.261  65.897  1.00  0.00    -0.451 N  
HETATM    2  C   UNL     1     -10.264  13.199  65.196  1.00  0.00    -0.284 C  
HETATM    3  H1  UNL     1      -9.361  14.134  66.827  1.00  0.00     0.000 HD 
HETATM    4  H2  UNL     1      -9.789  15.194  65.485  1.00  0.00     0.000 HD 
HETATM    5  O   UNL     1     -10.745  13.352  64.082  1.00  0.00    -0.392 OA 
ENDROOT
BRANCH   2   6
HETATM    6  C   UNL     1     -10.236  11.876  65.853  1.00  0.00    -0.270 A  
HETATM    7  C   UNL     1     -10.873  11.610  67.068  1.00  0.00    -0.311 A  
HETATM    8  C   UNL     1     -10.789  10.330  67.616  1.00  0.00    -0.363 A  
HETATM    9  C   UNL     1     -10.069   9.363  66.929  1.00  0.00    -0.248 A  
HETATM   10  N   UNL     1      -9.437   9.589  65.758  1.00  0.00    -0.231 NA 
HETATM   11  C   UNL     1      -9.526  10.845  65.250  1.00  0.00    -0.217 A  
ENDBRANCH   2   6
TORSDOF 1
ENDMDL
MODEL      103
REMARK 921   NORMALIZED FREE ENERGY PREDICTED BY IDOCK:   -2.57 KCAL/MOL
REMARK 922        TOTAL FREE ENERGY PREDICTED BY IDOCK:   -2.75 KCAL/MOL
REMARK 923 INTER-LIGAND FREE ENERGY PREDICTED BY IDOCK:   -2.72 KCAL/MOL
REMARK 924 INTRA-LIGAND FREE ENERGY PREDICTED BY IDOCK:   -0.03 KCAL/MOL
REMARK 927      BINDING AFFINITY PREDICTED BY RF-SCORE:    0.00 PKD
ROOT
HETATM    1  N   UNL     1      -8.957   7.789  74.348  1.00  0.00    -0.433 N  
HETATM    2  C   UNL     1      -9.969   7.059  73.788  1.00  0.00    -0.330 C  
HETATM    3  H1  UNL     1      -8.488   8.526  73.822  1.00  0.00     0.000 HD 
HETATM    4  H2  UNL     1      -8.667   7.593  75.306  1.00  0.00     0.000 HD 
HETATM    5  O   UNL     1     -10.532   6.175  74.419  1.00  0.00    -0.280 OA 
ENDROOT
BRANCH   2   6
HETATM    6  C   UNL     1     -10.326   7.356  72.385  1.00  0.00    -0.263 A  
HETATM    7  C   UNL     1     -10.910   6.419  71.528  1.00  0.00    -0.299 A  
HETATM    8  C   UNL     1     -11.209   6.788  70.217  1.00  0.00    -0.385 A  
HETATM    9  C   UNL     1     -10.911   8.080  69.810  1.00  0.00    -0.194 A  
HETATM   10  N   UNL     1     -10.341   9.006  70.610  1.00  0.00    -0.212 NA 
HETATM   11  C   UNL     1     -10.051   8.620  71.879  1.00  0.00    -0.328 A  
ENDBRANCH   2   6
TORSDOF 1
ENDMDL
MODEL      104
REMARK 921   NORMALIZED FREE ENERGY PREDICTED BY IDOCK:   -2.56 KCAL/MOL
REMARK 922        TOTAL FREE ENERGY PREDICTED BY IDOCK:   -2.74 KCAL/MOL
REMARK 923 INTER-LIGAND FREE ENERGY PREDICTED BY IDOCK:   -2.71 KCAL/MOL
REMARK 924 INTRA-LIGAND FREE ENERGY PREDICTED BY IDOCK:   -0.03 KCAL/MOL
REMARK 927      BINDING AFFINITY PREDICTED BY RF-SCORE:    0.00 PKD
ROOT
HETATM    1  N   UNL     1     -10.297  17.131  66.893  1.00  0.00    -0.317 N  
HETATM    2  C   UNL     1     -10.316  16.411  68.056  1.00  0.00    -0.288 C  
HETATM    3  H1  UNL     1     -10.658  16.735  66.025  1.00  0.00     0.000 HD 
HETATM    4  H2  UNL     1      -9.918  18.078  66.895  1.00  0.00     0.000 HD 
HETATM    5  O   UNL     1      -9.884  16.885  69.097  1.00  0.00    -0.256 OA 
ENDROOT
BRANCH   2   6
HETATM    6  C   UNL     1     -10.840  15.031  67.993  1.00  0.00    -0.270 A  
HETATM    7  C   UNL     1     -10.821  14.256  66.830  1.00  0.00    -0.298 A  
HETATM    8  C   UNL     1     -11.343  12.963  66.864  1.00  0.00    -0.358 A  
HETATM    9  C   UNL     1     -11.867  12.493  68.059  1.00  0.00    -0.325 A  
HETATM   10  N   UNL     1     -11.907  13.217  69.197  1.00  0.00    -0.321 NA 
HETATM   11  C   UNL     1     -11.402  14.476  69.136  1.00  0.00    -0.277 A  
ENDBRANCH   2   6
TORSDOF 1
ENDMDL
MODEL      105
REMARK 921   NORMALIZED FREE ENERGY PREDICTED BY IDOCK:   -2.53 KCAL/MOL
REMARK 922        TOTAL FREE ENERGY PREDICTED BY IDOCK:   -2.71 KCAL/MOL
REMARK 923 INTER-LIGAND FREE ENERGY PREDICTED BY IDOCK:   -2.68 KCAL/MOL
REMARK 924 INTRA-LIGAND FREE ENERGY PREDICTED BY IDOCK:   -0.03 KCAL/MOL
REMARK 927      BINDING AFFINITY PREDICTED BY RF-SCORE:    0.00 PKD
ROOT
HETATM    1  N   UNL     1     -10.450   3.927  72.348  1.00  0.00    -0.123 N  
HETATM    2  C   UNL     1     -10.820   5.040  73.051  1.00  0.00    -0.273 C  
HETATM    3  H1  UNL     1     -10.300   3.969  71.340  1.00  0.00     0.000 HD 
HETATM    4  H2  UNL     1     -10.323   3.042  72.838  1.00  0.00     0.000 HD 
HETATM    5  O   UNL     1     -11.000   4.990  74.260  1.00  0.00    -0.310 OA 
ENDROOT
BRANCH   2   6
HETATM    6  C   UNL     1     -11.029   6.289  72.289  1.00  0.00    -0.297 A  
HETATM    7  C   UNL     1     -11.233   7.531  72.894  1.00  0.00    -0.396 A  
HETATM    8  C   UNL     1     -11.425   8.657  72.093  1.00  0.00    -0.443 A  
HETATM    9  C   UNL     1     -11.410   8.497  70.715  1.00  0.00    -0.266 A  
HETATM   10  N   UNL     1     -11.224   7.310  70.099  1.00  0.00    -0.262 NA 
HETATM   11  C   UNL     1     -11.047   6.229  70.901  1.00  0.00    -0.306 A  
ENDBRANCH   2   6
TORSDOF 1
ENDMDL
MODEL      106
REMARK 921   NORMALIZED FREE ENERGY PREDICTED BY IDOCK:   -2.49 KCAL/MOL
REMARK 922        TOTAL FREE ENERGY PREDICTED BY IDOCK:   -2.66 KCAL/MOL
REMARK 923 INTER-LIGAND FREE ENERGY PREDICTED BY IDOCK:   -2.64 KCAL/MOL
REMARK 924 INTRA-LIGAND FREE ENERGY PREDICTED BY IDOCK:   -0.02 KCAL/MOL
REMARK 927      BINDING AFFINITY PREDICTED BY RF-SCORE:    0.00 PKD
ROOT
HETATM    1  N   UNL     1     -13.002   7.434  70.823  1.00  0.00    -0.587 N  
HETATM    2  C   UNL     1     -11.897   7.016  71.514  1.00  0.00    -0.314 C  
HETATM    3  H1  UNL     1     -12.941   8.192  70.144  1.00  0.00     0.000 HD 
HETATM    4  H2  UNL     1     -13.900   6.980  70.990  1.00  0.00     0.000 HD 
HETATM    5  O   UNL     1     -11.971   6.107  72.328  1.00  0.00    -0.318 OA 
ENDROOT
BRANCH   2   6
HETATM    6  C   UNL     1     -10.629   7.731  71.264  1.00  0.00    -0.241 A  
HETATM    7  C   UNL     1     -10.181   8.073  69.985  1.00  0.00    -0.205 A  
HETATM    8  C   UNL     1      -8.967   8.745  69.845  1.00  0.00    -0.152 A  
HETATM    9  C   UNL     1      -8.244   9.049  70.989  1.00  0.00    -0.176 A  
HETATM   10  N   UNL     1      -8.645   8.728  72.237  1.00  0.00    -0.399 NA 
HETATM   11  C   UNL     1      -9.825   8.065  72.347  1.00  0.00    -0.247 A  
ENDBRANCH   2   6
TORSDOF 1
ENDMDL
MODEL      107
REMARK 921   NORMALIZED FREE ENERGY PREDICTED BY IDOCK:   -2.46 KCAL/MOL
REMARK 922        TOTAL FREE ENERGY PREDICTED BY IDOCK:   -2.63 KCAL/MOL
REMARK 923 INTER-LIGAND FREE ENERGY PREDICTED BY IDOCK:   -2.60 KCAL/MOL
REMARK 924 INTRA-LIGAND FREE ENERGY PREDICTED BY IDOCK:   -0.03 KCAL/MOL
REMARK 927      BINDING AFFINITY PREDICTED BY RF-SCORE:    0.00 PKD
ROOT
HETATM    1  N   UNL     1      -7.965  10.999  69.471  1.00  0.00    -0.374 N  
HETATM    2  C   UNL     1      -9.249  10.655  69.148  1.00  0.00    -0.148 C  
HETATM    3  H1  UNL     1      -7.540  11.850  69.101  1.00  0.00     0.000 HD 
HETATM    4  H2  UNL     1      -7.424  10.397  70.092  1.00  0.00     0.000 HD 
HETATM    5  O   UNL     1      -9.758   9.636  69.592  1.00  0.00    -0.186 OA 
ENDROOT
BRANCH   2   6
HETATM    6  C   UNL     1      -9.976  11.541  68.214  1.00  0.00    -0.205 A  
HETATM    7  C   UNL     1      -9.477  12.772  67.781  1.00  0.00    -0.205 A  
HETATM    8  C   UNL     1     -10.236  13.543  66.901  1.00  0.00    -0.256 A  
HETATM    9  C   UNL     1     -11.467  13.056  66.488  1.00  0.00    -0.340 A  
HETATM   10  N   UNL     1     -11.980  11.875  66.893  1.00  0.00    -0.591 NA 
HETATM   11  C   UNL     1     -11.227  11.147  67.757  1.00  0.00    -0.294 A  
ENDBRANCH   2   6
TORSDOF 1
ENDMDL
MODEL      108
REMARK 921   NORMALIZED FREE ENERGY PREDICTED BY IDOCK:   -2.46 KCAL/MOL
REMARK 922        TOTAL FREE ENERGY PREDICTED BY IDOCK:   -2.63 KCAL/MOL
REMARK 923 INTER-LIGAND FREE ENERGY PREDICTED BY IDOCK:   -2.61 KCAL/MOL
REMARK 924 INTRA-LIGAND FREE ENERGY PREDICTED BY IDOCK:   -0.02 KCAL/MOL
REMARK 927      BINDING AFFINITY PREDICTED BY RF-SCORE:    0.00 PKD
ROOT
HETATM    1  N   UNL     1     -11.290   4.734  65.529  1.00  0.00    -0.947 N  
HETATM    2  C   UNL     1     -10.208   5.111  66.275  1.00  0.00    -0.253 C  
HETATM    3  H1  UNL     1     -11.857   5.427  65.039  1.00  0.00     0.000 HD 
HETATM    4  H2  UNL     1     -11.534   3.746  65.460  1.00  0.00     0.000 HD 
HETATM    5  O   UNL     1      -9.528   4.281  66.862  1.00  0.00    -0.159 OA 
ENDROOT
BRANCH   2   6
HETATM    6  C   UNL     1      -9.920   6.557  66.374  1.00  0.00    -0.086 A  
HETATM    7  C   UNL     1     -10.756   7.462  67.033  1.00  0.00    -0.389 A  
HETATM    8  C   UNL     1     -10.405   8.811  67.072  1.00  0.00    -0.353 A  
HETATM    9  C   UNL     1      -9.231   9.207  66.448  1.00  0.00    -0.183 A  
HETATM   10  N   UNL     1      -8.405   8.360  65.798  1.00  0.00    -0.137 NA 
HETATM   11  C   UNL     1      -8.773   7.053  65.766  1.00  0.00    -0.100 A  
ENDBRANCH   2   6
TORSDOF 1
ENDMDL
MODEL      109
REMARK 921   NORMALIZED FREE ENERGY PREDICTED BY IDOCK:   -2.44 KCAL/MOL
REMARK 922        TOTAL FREE ENERGY PREDICTED BY IDOCK:   -2.61 KCAL/MOL
REMARK 923 INTER-LIGAND FREE ENERGY PREDICTED BY IDOCK:   -2.58 KCAL/MOL
REMARK 924 INTRA-LIGAND FREE ENERGY PREDICTED BY IDOCK:   -0.02 KCAL/MOL
REMARK 927      BINDING AFFINITY PREDICTED BY RF-SCORE:    0.00 PKD
ROOT
HETATM    1  N   UNL     1      -9.194  12.191  65.717  1.00  0.00    -0.431 N  
HETATM    2  C   UNL     1      -9.980  11.093  65.494  1.00  0.00    -0.249 C  
HETATM    3  H1  UNL     1      -8.729  12.329  66.614  1.00  0.00     0.000 HD 
HETATM    4  H2  UNL     1      -9.072  12.880  64.975  1.00  0.00     0.000 HD 
HETATM    5  O   UNL     1     -10.538  10.927  64.419  1.00  0.00    -0.360 OA 
ENDROOT
BRANCH   2   6
HETATM    6  C   UNL     1     -10.156  10.144  66.613  1.00  0.00    -0.283 A  
HETATM    7  C   UNL     1     -10.069   8.758  66.462  1.00  0.00    -0.349 A  
HETATM    8  C   UNL     1     -10.253   7.938  67.576  1.00  0.00    -0.308 A  
HETATM    9  C   UNL     1     -10.521   8.536  68.799  1.00  0.00    -0.184 A  
HETATM   10  N   UNL     1     -10.618   9.870  68.977  1.00  0.00    -0.212 NA 
HETATM   11  C   UNL     1     -10.443  10.646  67.876  1.00  0.00    -0.208 A  
ENDBRANCH   2   6
TORSDOF 1
ENDMDL
MODEL      110
REMARK 921   NORMALIZED FREE ENERGY PREDICTED BY IDOCK:   -2.43 KCAL/MOL
REMARK 922        TOTAL FREE ENERGY PREDICTED BY IDOCK:   -2.60 KCAL/MOL
REMARK 923 INTER-LIGAND FREE ENERGY PREDICTED BY IDOCK:   -2.57 KCAL/MOL
REMARK 924 INTRA-LIGAND FREE ENERGY PREDICTED BY IDOCK:   -0.03 KCAL/MOL
REMARK 927      BINDING AFFINITY PREDICTED BY RF-SCORE:    0.00 PKD
ROOT
HETATM    1  N   UNL     1      -8.043  14.502  69.234  1.00  0.00    -0.354 N  
HETATM    2  C   UNL     1      -8.508  15.613  68.585  1.00  0.00    -0.179 C  
HETATM    3  H1  UNL     1      -8.253  13.566  68.888  1.00  0.00     0.000 HD 
HETATM    4  H2  UNL     1      -7.478  14.612  70.077  1.00  0.00     0.000 HD 
HETATM    5  O   UNL     1      -8.257  16.735  69.000  1.00  0.00    -0.238 OA 
ENDROOT
BRANCH   2   6
HETATM    6  C   UNL     1      -9.353  15.399  67.392  1.00  0.00    -0.205 A  
HETATM    7  C   UNL     1      -9.783  16.437  66.561  1.00  0.00    -0.287 A  
HETATM    8  C   UNL     1     -10.582  16.141  65.458  1.00  0.00    -0.394 A  
HETATM    9  C   UNL     1     -10.925  14.817  65.226  1.00  0.00    -0.374 A  
HETATM   10  N   UNL     1     -10.533  13.792  66.012  1.00  0.00    -0.291 NA 
HETATM   11  C   UNL     1      -9.763  14.107  67.085  1.00  0.00    -0.248 A  
ENDBRANCH   2   6
TORSDOF 1
ENDMDL
MODEL      111
REMARK 921   NORMALIZED FREE ENERGY PREDICTED BY IDOCK:   -2.42 KCAL/MOL
REMARK 922        TOTAL FREE ENERGY PREDICTED BY IDOCK:   -2.59 KCAL/MOL
REMARK 923 INTER-LIGAND FREE ENERGY PREDICTED BY IDOCK:   -2.57 KCAL/MOL
REMARK 924 INTRA-LIGAND FREE ENERGY PREDICTED BY IDOCK:   -0.02 KCAL/MOL
REMARK 927      BINDING AFFINITY PREDICTED BY RF-SCORE:    0.00 PKD
ROOT
HETATM    1  N   UNL     1     -10.723  16.034  67.229  1.00  0.00    -0.313 N  
HETATM    2  C   UNL     1     -10.530  15.060  66.288  1.00  0.00    -0.304 C  
HETATM    3  H1  UNL     1     -10.759  15.805  68.222  1.00  0.00     0.000 HD 
HETATM    4  H2  UNL     1     -10.833  17.004  66.933  1.00  0.00     0.000 HD 
HETATM    5  O   UNL     1     -10.488  15.335  65.097  1.00  0.00    -0.384 OA 
ENDROOT
BRANCH   2   6
HETATM    6  C   UNL     1     -10.415  13.666  66.765  1.00  0.00    -0.270 A  
HETATM    7  C   UNL     1     -11.251  12.635  66.328  1.00  0.00    -0.354 A  
HETATM    8  C   UNL     1     -11.071  11.350  66.837  1.00  0.00    -0.356 A  
HETATM    9  C   UNL     1     -10.063  11.143  67.768  1.00  0.00    -0.178 A  
HETATM   10  N   UNL     1      -9.244  12.118  68.216  1.00  0.00    -0.198 NA 
HETATM   11  C   UNL     1      -9.445  13.362  67.712  1.00  0.00    -0.210 A  
ENDBRANCH   2   6
TORSDOF 1
ENDMDL
MODEL      112
REMARK 921   NORMALIZED FREE ENERGY PREDICTED BY IDOCK:   -2.42 KCAL/MOL
REMARK 922        TOTAL FREE ENERGY PREDICTED BY IDOCK:   -2.59 KCAL/MOL
REMARK 923 INTER-LIGAND FREE ENERGY PREDICTED BY IDOCK:   -2.56 KCAL/MOL
REMARK 924 INTRA-LIGAND FREE ENERGY PREDICTED BY IDOCK:   -0.03 KCAL/MOL
REMARK 927      BINDING AFFINITY PREDICTED BY RF-SCORE:    0.00 PKD
ROOT
HETATM    1  N   UNL     1      -8.573   7.821  64.860  1.00  0.00    -0.373 N  
HETATM    2  C   UNL     1      -8.863   9.097  64.461  1.00  0.00    -0.125 C  
HETATM    3  H1  UNL     1      -8.928   7.454  65.742  1.00  0.00     0.000 HD 
HETATM    4  H2  UNL     1      -7.994   7.228  64.265  1.00  0.00     0.000 HD 
HETATM    5  O   UNL     1      -8.437   9.538  63.403  1.00  0.00    -0.169 OA 
ENDROOT
BRANCH   2   6
HETATM    6  C   UNL     1      -9.674   9.928  65.375  1.00  0.00    -0.375 A  
HETATM    7  C   UNL     1     -10.145   9.473  66.609  1.00  0.00    -0.321 A  
HETATM    8  C   UNL     1     -10.908  10.327  67.405  1.00  0.00    -0.336 A  
HETATM    9  C   UNL     1     -11.173  11.605  66.937  1.00  0.00    -0.313 A  
HETATM   10  N   UNL     1     -10.739  12.074  65.747  1.00  0.00    -0.269 NA 
HETATM   11  C   UNL     1     -10.006  11.220  64.987  1.00  0.00    -0.274 A  
ENDBRANCH   2   6
TORSDOF 1
ENDMDL
MODEL      113
REMARK 921   NORMALIZED FREE ENERGY PREDICTED BY IDOCK:   -2.40 KCAL/MOL
REMARK 922        TOTAL FREE ENERGY PREDICTED BY IDOCK:   -2.57 KCAL/MOL
REMARK 923 INTER-LIGAND FREE ENERGY PREDICTED BY IDOCK:   -2.54 KCAL/MOL
REMARK 924 INTRA-LIGAND FREE ENERGY PREDICTED BY IDOCK:   -0.02 KCAL/MOL
REMARK 927      BINDING AFFINITY PREDICTED BY RF-SCORE:    0.00 PKD
ROOT
HETATM    1  N   UNL     1      -7.174  20.623  65.288  1.00  0.00    -0.524 N  
HETATM    2  C   UNL     1      -6.717  19.350  65.082  1.00  0.00    -0.171 C  
HETATM    3  H1  UNL     1      -7.733  20.854  66.109  1.00  0.00     0.000 HD 
HETATM    4  H2  UNL     1      -6.952  21.352  64.609  1.00  0.00     0.000 HD 
HETATM    5  O   UNL     1      -6.046  19.073  64.098  1.00  0.00    -0.469 OA 
ENDROOT
BRANCH   2   6
HETATM    6  C   UNL     1      -7.098  18.323  66.074  1.00  0.00    -0.307 A  
HETATM    7  C   UNL     1      -6.197  17.394  66.600  1.00  0.00    -0.239 A  
HETATM    8  C   UNL     1      -6.648  16.457  67.529  1.00  0.00    -0.184 A  
HETATM    9  C   UNL     1      -7.985  16.482  67.897  1.00  0.00    -0.158 A  
HETATM   10  N   UNL     1      -8.883  17.361  67.402  1.00  0.00    -0.225 NA 
HETATM   11  C   UNL     1      -8.421  18.257  66.492  1.00  0.00    -0.268 A  
ENDBRANCH   2   6
TORSDOF 1
ENDMDL
MODEL      114
REMARK 921   NORMALIZED FREE ENERGY PREDICTED BY IDOCK:   -2.39 KCAL/MOL
REMARK 922        TOTAL FREE ENERGY PREDICTED BY IDOCK:   -2.55 KCAL/MOL
REMARK 923 INTER-LIGAND FREE ENERGY PREDICTED BY IDOCK:   -2.53 KCAL/MOL
REMARK 924 INTRA-LIGAND FREE ENERGY PREDICTED BY IDOCK:   -0.02 KCAL/MOL
REMARK 927      BINDING AFFINITY PREDICTED BY RF-SCORE:    0.00 PKD
ROOT
HETATM    1  N   UNL     1     -10.240   8.298  66.368  1.00  0.00    -0.453 N  
HETATM    2  C   UNL     1      -9.828   9.488  65.833  1.00  0.00    -0.290 C  
HETATM    3  H1  UNL     1     -10.681   8.261  67.287  1.00  0.00     0.000 HD 
HETATM    4  H2  UNL     1     -10.105   7.436  65.840  1.00  0.00     0.000 HD 
HETATM    5  O   UNL     1      -9.299   9.532  64.731  1.00  0.00    -0.245 OA 
ENDROOT
BRANCH   2   6
HETATM    6  C   UNL     1     -10.011  10.703  66.653  1.00  0.00    -0.259 A  
HETATM    7  C   UNL     1     -11.214  11.025  67.287  1.00  0.00    -0.330 A  
HETATM    8  C   UNL     1     -11.295  12.197  68.039  1.00  0.00    -0.353 A  
HETATM    9  C   UNL     1     -10.172  13.005  68.127  1.00  0.00    -0.239 A  
HETATM   10  N   UNL     1      -8.998  12.727  67.521  1.00  0.00    -0.182 NA 
HETATM   11  C   UNL     1      -8.946  11.585  66.787  1.00  0.00    -0.181 A  
ENDBRANCH   2   6
TORSDOF 1
ENDMDL
MODEL      115
REMARK 921   NORMALIZED FREE ENERGY PREDICTED BY IDOCK:   -2.38 KCAL/MOL
REMARK 922        TOTAL FREE ENERGY PREDICTED BY IDOCK:   -2.55 KCAL/MOL
REMARK 923 INTER-LIGAND FREE ENERGY PREDICTED BY IDOCK:   -2.52 KCAL/MOL
REMARK 924 INTRA-LIGAND FREE ENERGY PREDICTED BY IDOCK:   -0.03 KCAL/MOL
REMARK 927      BINDING AFFINITY PREDICTED BY RF-SCORE:    0.00 PKD
ROOT
HETATM    1  N   UNL     1      -9.740   8.108  65.964  1.00  0.00    -0.459 N  
HETATM    2  C   UNL     1      -9.695   8.314  67.316  1.00  0.00    -0.177 C  
HETATM    3  H1  UNL     1     -10.259   8.740  65.354  1.00  0.00     0.000 HD 
HETATM    4  H2  UNL     1      -9.247   7.312  65.560  1.00  0.00     0.000 HD 
HETATM    5  O   UNL     1      -9.073   7.557  68.047  1.00  0.00    -0.132 OA 
ENDROOT
BRANCH   2   6
HETATM    6  C   UNL     1     -10.458   9.459  67.856  1.00  0.00    -0.296 A  
HETATM    7  C   UNL     1     -10.819  10.569  67.088  1.00  0.00    -0.319 A  
HETATM    8  C   UNL     1     -11.536  11.606  67.684  1.00  0.00    -0.373 A  
HETATM    9  C   UNL     1     -11.863  11.496  69.027  1.00  0.00    -0.343 A  
HETATM   10  N   UNL     1     -11.524  10.441  69.798  1.00  0.00    -0.267 NA 
HETATM   11  C   UNL     1     -10.818   9.449  69.197  1.00  0.00    -0.155 A  
ENDBRANCH   2   6
TORSDOF 1
ENDMDL
MODEL      116
REMARK 921   NORMALIZED FREE ENERGY PREDICTED BY IDOCK:   -2.37 KCAL/MOL
REMARK 922        TOTAL FREE ENERGY PREDICTED BY IDOCK:   -2.53 KCAL/MOL
REMARK 923 INTER-LIGAND FREE ENERGY PREDICTED BY IDOCK:   -2.50 KCAL/MOL
REMARK 924 INTRA-LIGAND FREE ENERGY PREDICTED BY IDOCK:   -0.03 KCAL/MOL
REMARK 927      BINDING AFFINITY PREDICTED BY RF-SCORE:    0.00 PKD
ROOT
HETATM    1  N   UNL     1     -11.930   9.556  71.820  1.00  0.00    -0.382 N  
HETATM    2  C   UNL     1     -11.263   9.572  70.626  1.00  0.00    -0.302 C  
HETATM    3  H1  UNL     1     -12.139   8.677  72.293  1.00  0.00     0.000 HD 
HETATM    4  H2  UNL     1     -12.223  10.437  72.243  1.00  0.00     0.000 HD 
HETATM    5  O   UNL     1     -11.012  10.626  70.058  1.00  0.00    -0.282 OA 
ENDROOT
BRANCH   2   6
HETATM    6  C   UNL     1     -10.895   8.268  70.035  1.00  0.00    -0.232 A  
HETATM    7  C   UNL     1     -11.414   7.050  70.483  1.00  0.00    -0.363 A  
HETATM    8  C   UNL     1     -11.005   5.868  69.867  1.00  0.00    -0.444 A  
HETATM    9  C   UNL     1     -10.091   5.946  68.827  1.00  0.00    -0.172 A  
HETATM   10  N   UNL     1      -9.566   7.104  68.375  1.00  0.00    -0.137 NA 
HETATM   11  C   UNL     1      -9.972   8.241  68.997  1.00  0.00    -0.189 A  
ENDBRANCH   2   6
TORSDOF 1
ENDMDL
MODEL      117
REMARK 921   NORMALIZED FREE ENERGY PREDICTED BY IDOCK:   -2.35 KCAL/MOL
REMARK 922        TOTAL FREE ENERGY PREDICTED BY IDOCK:   -2.52 KCAL/MOL
REMARK 923 INTER-LIGAND FREE ENERGY PREDICTED BY IDOCK:   -2.50 KCAL/MOL
REMARK 924 INTRA-LIGAND FREE ENERGY PREDICTED BY IDOCK:   -0.02 KCAL/MOL
REMARK 927      BINDING AFFINITY PREDICTED BY RF-SCORE:    0.00 PKD
ROOT
HETATM    1  N   UNL     1      -8.945   8.507  64.837  1.00  0.00    -0.416 N  
HETATM    2  C   UNL     1      -9.741   8.952  65.857  1.00  0.00    -0.189 C  
HETATM    3  H1  UNL     1      -8.528   7.577  64.864  1.00  0.00     0.000 HD 
HETATM    4  H2  UNL     1      -8.767   9.115  64.037  1.00  0.00     0.000 HD 
HETATM    5  O   UNL     1     -10.242  10.067  65.825  1.00  0.00    -0.265 OA 
ENDROOT
BRANCH   2   6
HETATM    6  C   UNL     1      -9.937   8.048  67.010  1.00  0.00    -0.324 A  
HETATM    7  C   UNL     1     -10.798   6.949  66.985  1.00  0.00    -0.436 A  
HETATM    8  C   UNL     1     -10.922   6.153  68.123  1.00  0.00    -0.398 A  
HETATM    9  C   UNL     1     -10.181   6.488  69.247  1.00  0.00    -0.187 A  
HETATM   10  N   UNL     1      -9.346   7.547  69.307  1.00  0.00    -0.151 NA 
HETATM   11  C   UNL     1      -9.250   8.311  68.189  1.00  0.00    -0.134 A  
ENDBRANCH   2   6
TORSDOF 1
ENDMDL
MODEL      118
REMARK 921   NORMALIZED FREE ENERGY PREDICTED BY IDOCK:   -2.34 KCAL/MOL
REMARK 922        TOTAL FREE ENERGY PREDICTED BY IDOCK:   -2.50 KCAL/MOL
REMARK 923 INTER-LIGAND FREE ENERGY PREDICTED BY IDOCK:   -2.48 KCAL/MOL
REMARK 924 INTRA-LIGAND FREE ENERGY PREDICTED BY IDOCK:   -0.02 KCAL/MOL
REMARK 927      BINDING AFFINITY PREDICTED BY RF-SCORE:    0.00 PKD
ROOT
HETATM    1  N   UNL     1     -11.446   7.676  70.346  1.00  0.00    -0.422 N  
HETATM    2  C   UNL     1     -10.663   8.781  70.152  1.00  0.00    -0.224 C  
HETATM    3  H1  UNL     1     -11.874   7.191  69.558  1.00  0.00     0.000 HD 
HETATM    4  H2  UNL     1     -11.604   7.332  71.294  1.00  0.00     0.000 HD 
HETATM    5  O   UNL     1     -10.150   9.362  71.098  1.00  0.00    -0.296 OA 
ENDROOT
BRANCH   2   6
HETATM    6  C   UNL     1     -10.497   9.261  68.765  1.00  0.00    -0.233 A  
HETATM    7  C   UNL     1     -10.154   8.425  67.700  1.00  0.00    -0.268 A  
HETATM    8  C   UNL     1     -10.015   8.968  66.423  1.00  0.00    -0.370 A  
HETATM    9  C   UNL     1     -10.223  10.330  66.258  1.00  0.00    -0.221 A  
HETATM   10  N   UNL     1     -10.549  11.166  67.267  1.00  0.00    -0.225 NA 
HETATM   11  C   UNL     1     -10.669  10.615  68.502  1.00  0.00    -0.217 A  
ENDBRANCH   2   6
TORSDOF 1
ENDMDL
MODEL      119
REMARK 921   NORMALIZED FREE ENERGY PREDICTED BY IDOCK:   -2.33 KCAL/MOL
REMARK 922        TOTAL FREE ENERGY PREDICTED BY IDOCK:   -2.49 KCAL/MOL
REMARK 923 INTER-LIGAND FREE ENERGY PREDICTED BY IDOCK:   -2.47 KCAL/MOL
REMARK 924 INTRA-LIGAND FREE ENERGY PREDICTED BY IDOCK:   -0.02 KCAL/MOL
REMARK 927      BINDING AFFINITY PREDICTED BY RF-SCORE:    0.00 PKD
ROOT
HETATM    1  N   UNL     1     -11.267  11.031  67.558  1.00  0.00    -0.309 N  
HETATM    2  C   UNL     1     -10.255  10.316  68.138  1.00  0.00    -0.164 C  
HETATM    3  H1  UNL     1     -12.114  10.569  67.227  1.00  0.00     0.000 HD 
HETATM    4  H2  UNL     1     -11.173  12.041  67.455  1.00  0.00     0.000 HD 
HETATM    5  O   UNL     1      -9.240  10.870  68.534  1.00  0.00    -0.166 OA 
ENDROOT
BRANCH   2   6
HETATM    6  C   UNL     1     -10.424   8.850  68.229  1.00  0.00    -0.243 A  
HETATM    7  C   UNL     1     -10.534   8.021  67.110  1.00  0.00    -0.408 A  
HETATM    8  C   UNL     1     -10.694   6.648  67.292  1.00  0.00    -0.427 A  
HETATM    9  C   UNL     1     -10.742   6.154  68.588  1.00  0.00    -0.307 A  
HETATM   10  N   UNL     1     -10.646   6.929  69.689  1.00  0.00    -0.221 NA 
HETATM   11  C   UNL     1     -10.499   8.263  69.485  1.00  0.00    -0.227 A  
ENDBRANCH   2   6
TORSDOF 1
ENDMDL
MODEL      120
REMARK 921   NORMALIZED FREE ENERGY PREDICTED BY IDOCK:   -2.33 KCAL/MOL
REMARK 922        TOTAL FREE ENERGY PREDICTED BY IDOCK:   -2.49 KCAL/MOL
REMARK 923 INTER-LIGAND FREE ENERGY PREDICTED BY IDOCK:   -2.47 KCAL/MOL
REMARK 924 INTRA-LIGAND FREE ENERGY PREDICTED BY IDOCK:   -0.02 KCAL/MOL
REMARK 927      BINDING AFFINITY PREDICTED BY RF-SCORE:    0.00 PKD
ROOT
HETATM    1  N   UNL     1     -10.701  18.674  65.869  1.00  0.00    -0.353 N  
HETATM    2  C   UNL     1      -9.425  18.969  66.263  1.00  0.00    -0.314 C  
HETATM    3  H1  UNL     1     -11.113  17.762  66.065  1.00  0.00     0.000 HD 
HETATM    4  H2  UNL     1     -11.248  19.377  65.372  1.00  0.00     0.000 HD 
HETATM    5  O   UNL     1      -8.930  20.063  66.029  1.00  0.00    -0.346 OA 
ENDROOT
BRANCH   2   6
HETATM    6  C   UNL     1      -8.661  17.904  66.945  1.00  0.00    -0.259 A  
HETATM    7  C   UNL     1      -7.758  17.066  66.286  1.00  0.00    -0.346 A  
HETATM    8  C   UNL     1      -7.084  16.084  67.012  1.00  0.00    -0.233 A  
HETATM    9  C   UNL     1      -7.339  15.975  68.371  1.00  0.00    -0.131 A  
HETATM   10  N   UNL     1      -8.209  16.763  69.036  1.00  0.00    -0.215 NA 
HETATM   11  C   UNL     1      -8.860  17.705  68.306  1.00  0.00    -0.276 A  
ENDBRANCH   2   6
TORSDOF 1
ENDMDL
MODEL      121
REMARK 921   NORMALIZED FREE ENERGY PREDICTED BY IDOCK:   -2.32 KCAL/MOL
REMARK 922        TOTAL FREE ENERGY PREDICTED BY IDOCK:   -2.48 KCAL/MOL
REMARK 923 INTER-LIGAND FREE ENERGY PREDICTED BY IDOCK:   -2.46 KCAL/MOL
REMARK 924 INTRA-LIGAND FREE ENERGY PREDICTED BY IDOCK:   -0.03 KCAL/MOL
REMARK 927      BINDING AFFINITY PREDICTED BY RF-SCORE:    0.00 PKD
ROOT
HETATM    1  N   UNL     1      -7.629  20.276  65.426  1.00  0.00    -0.450 N  
HETATM    2  C   UNL     1      -7.054  19.089  65.791  1.00  0.00    -0.253 C  
HETATM    3  H1  UNL     1      -8.639  20.408  65.481  1.00  0.00     0.000 HD 
HETATM    4  H2  UNL     1      -7.039  21.039  65.095  1.00  0.00     0.000 HD 
HETATM    5  O   UNL     1      -5.843  18.930  65.725  1.00  0.00    -0.153 OA 
ENDROOT
BRANCH   2   6
HETATM    6  C   UNL     1      -7.955  18.002  66.227  1.00  0.00    -0.276 A  
HETATM    7  C   UNL     1      -9.331  18.172  66.405  1.00  0.00    -0.274 A  
HETATM    8  C   UNL     1     -10.103  17.089  66.823  1.00  0.00    -0.300 A  
HETATM    9  C   UNL     1      -9.471  15.876  67.053  1.00  0.00    -0.222 A  
HETATM   10  N   UNL     1      -8.144  15.680  66.898  1.00  0.00    -0.240 NA 
HETATM   11  C   UNL     1      -7.413  16.752  66.498  1.00  0.00    -0.287 A  
ENDBRANCH   2   6
TORSDOF 1
ENDMDL
MODEL      122
REMARK 921   NORMALIZED FREE ENERGY PREDICTED BY IDOCK:   -2.32 KCAL/MOL
REMARK 922        TOTAL FREE ENERGY PREDICTED BY IDOCK:   -2.48 KCAL/MOL
REMARK 923 INTER-LIGAND FREE ENERGY PREDICTED BY IDOCK:   -2.46 KCAL/MOL
REMARK 924 INTRA-LIGAND FREE ENERGY PREDICTED BY IDOCK:   -0.03 KCAL/MOL
REMARK 927      BINDING AFFINITY PREDICTED BY RF-SCORE:    0.00 PKD
ROOT
HETATM    1  N   UNL     1      -9.617   3.922  70.792  1.00  0.00    -0.177 N  
HETATM    2  C   UNL     1     -10.159   4.350  71.973  1.00  0.00    -0.186 C  
HETATM    3  H1  UNL     1      -9.599   4.529  69.972  1.00  0.00     0.000 HD 
HETATM    4  H2  UNL     1      -9.227   2.982  70.729  1.00  0.00     0.000 HD 
HETATM    5  O   UNL     1     -10.181   3.622  72.955  1.00  0.00    -0.144 OA 
ENDROOT
BRANCH   2   6
HETATM    6  C   UNL     1     -10.746   5.705  72.001  1.00  0.00    -0.291 A  
HETATM    7  C   UNL     1     -11.347   6.303  70.890  1.00  0.00    -0.389 A  
HETATM    8  C   UNL     1     -11.872   7.590  71.008  1.00  0.00    -0.319 A  
HETATM    9  C   UNL     1     -11.775   8.233  72.233  1.00  0.00    -0.388 A  
HETATM   10  N   UNL     1     -11.195   7.687  73.323  1.00  0.00    -0.293 NA 
HETATM   11  C   UNL     1     -10.683   6.437  73.180  1.00  0.00    -0.268 A  
ENDBRANCH   2   6
TORSDOF 1
ENDMDL
MODEL      123
REMARK 921   NORMALIZED FREE ENERGY PREDICTED BY IDOCK:   -2.28 KCAL/MOL
REMARK 922        TOTAL FREE ENERGY PREDICTED BY IDOCK:   -2.44 KCAL/MOL
REMARK 923 INTER-LIGAND FREE ENERGY PREDICTED BY IDOCK:   -2.42 KCAL/MOL
REMARK 924 INTRA-LIGAND FREE ENERGY PREDICTED BY IDOCK:   -0.02 KCAL/MOL
REMARK 927      BINDING AFFINITY PREDICTED BY RF-SCORE:    0.00 PKD
ROOT
HETATM    1  N   UNL     1     -10.974   8.088  67.244  1.00  0.00    -0.480 N  
HETATM    2  C   UNL     1     -10.402   9.077  67.996  1.00  0.00    -0.224 C  
HETATM    3  H1  UNL     1     -11.361   7.252  67.683  1.00  0.00     0.000 HD 
HETATM    4  H2  UNL     1     -11.015   8.187  66.230  1.00  0.00     0.000 HD 
HETATM    5  O   UNL     1      -9.938  10.079  67.469  1.00  0.00    -0.174 OA 
ENDROOT
BRANCH   2   6
HETATM    6  C   UNL     1     -10.333   8.867  69.457  1.00  0.00    -0.213 A  
HETATM    7  C   UNL     1     -11.318   9.313  70.342  1.00  0.00    -0.283 A  
HETATM    8  C   UNL     1     -11.166   9.073  71.707  1.00  0.00    -0.448 A  
HETATM    9  C   UNL     1     -10.033   8.398  72.138  1.00  0.00    -0.306 A  
HETATM   10  N   UNL     1      -9.060   7.961  71.310  1.00  0.00    -0.136 NA 
HETATM   11  C   UNL     1      -9.227   8.215  69.987  1.00  0.00    -0.155 A  
ENDBRANCH   2   6
TORSDOF 1
ENDMDL
MODEL      124
REMARK 921   NORMALIZED FREE ENERGY PREDICTED BY IDOCK:   -2.26 KCAL/MOL
REMARK 922        TOTAL FREE ENERGY PREDICTED BY IDOCK:   -2.42 KCAL/MOL
REMARK 923 INTER-LIGAND FREE ENERGY PREDICTED BY IDOCK:   -2.39 KCAL/MOL
REMARK 924 INTRA-LIGAND FREE ENERGY PREDICTED BY IDOCK:   -0.03 KCAL/MOL
REMARK 927      BINDING AFFINITY PREDICTED BY RF-SCORE:    0.00 PKD
ROOT
HETATM    1  N   UNL     1     -12.473   6.989  71.354  1.00  0.00    -0.371 N  
HETATM    2  C   UNL     1     -12.072   8.294  71.436  1.00  0.00    -0.300 C  
HETATM    3  H1  UNL     1     -12.017   6.339  70.715  1.00  0.00     0.000 HD 
HETATM    4  H2  UNL     1     -13.239   6.661  71.942  1.00  0.00     0.000 HD 
HETATM    5  O   UNL     1     -12.619   9.074  72.203  1.00  0.00    -0.363 OA 
ENDROOT
BRANCH   2   6
HETATM    6  C   UNL     1     -10.984   8.729  70.536  1.00  0.00    -0.272 A  
HETATM    7  C   UNL     1     -10.710  10.070  70.258  1.00  0.00    -0.367 A  
HETATM    8  C   UNL     1      -9.663  10.387  69.392  1.00  0.00    -0.222 A  
HETATM    9  C   UNL     1      -8.930   9.349  68.834  1.00  0.00    -0.136 A  
HETATM   10  N   UNL     1      -9.174   8.044  69.076  1.00  0.00    -0.148 NA 
HETATM   11  C   UNL     1     -10.203   7.761  69.915  1.00  0.00    -0.213 A  
ENDBRANCH   2   6
TORSDOF 1
ENDMDL
MODEL      125
REMARK 921   NORMALIZED FREE ENERGY PREDICTED BY IDOCK:   -2.26 KCAL/MOL
REMARK 922        TOTAL FREE ENERGY PREDICTED BY IDOCK:   -2.42 KCAL/MOL
REMARK 923 INTER-LIGAND FREE ENERGY PREDICTED BY IDOCK:   -2.40 KCAL/MOL
REMARK 924 INTRA-LIGAND FREE ENERGY PREDICTED BY IDOCK:   -0.02 KCAL/MOL
REMARK 927      BINDING AFFINITY PREDICTED BY RF-SCORE:    0.00 PKD
ROOT
HETATM    1  N   UNL     1     -10.873   6.890  72.289  1.00  0.00    -0.223 N  
HETATM    2  C   UNL     1     -11.711   7.244  71.267  1.00  0.00    -0.296 C  
HETATM    3  H1  UNL     1      -9.890   6.684  72.113  1.00  0.00     0.000 HD 
HETATM    4  H2  UNL     1     -11.237   6.831  73.240  1.00  0.00     0.000 HD 
HETATM    5  O   UNL     1     -12.890   7.491  71.477  1.00  0.00    -0.340 OA 
ENDROOT
BRANCH   2   6
HETATM    6  C   UNL     1     -11.144   7.278  69.903  1.00  0.00    -0.233 A  
HETATM    7  C   UNL     1     -10.963   6.135  69.120  1.00  0.00    -0.450 A  
HETATM    8  C   UNL     1     -10.416   6.262  67.843  1.00  0.00    -0.285 A  
HETATM    9  C   UNL     1     -10.068   7.529  67.397  1.00  0.00    -0.216 A  
HETATM   10  N   UNL     1     -10.224   8.651  68.130  1.00  0.00    -0.198 NA 
HETATM   11  C   UNL     1     -10.749   8.500  69.373  1.00  0.00    -0.156 A  
ENDBRANCH   2   6
TORSDOF 1
ENDMDL
MODEL      126
REMARK 921   NORMALIZED FREE ENERGY PREDICTED BY IDOCK:   -2.26 KCAL/MOL
REMARK 922        TOTAL FREE ENERGY PREDICTED BY IDOCK:   -2.41 KCAL/MOL
REMARK 923 INTER-LIGAND FREE ENERGY PREDICTED BY IDOCK:   -2.39 KCAL/MOL
REMARK 924 INTRA-LIGAND FREE ENERGY PREDICTED BY IDOCK:   -0.02 KCAL/MOL
REMARK 927      BINDING AFFINITY PREDICTED BY RF-SCORE:    0.00 PKD
ROOT
HETATM    1  N   UNL     1     -11.264   6.326  66.505  1.00  0.00    -0.719 N  
HETATM    2  C   UNL     1     -10.599   6.331  67.701  1.00  0.00    -0.271 C  
HETATM    3  H1  UNL     1     -11.484   7.198  66.023  1.00  0.00     0.000 HD 
HETATM    4  H2  UNL     1     -11.543   5.437  66.089  1.00  0.00     0.000 HD 
HETATM    5  O   UNL     1     -10.335   5.285  68.278  1.00  0.00    -0.167 OA 
ENDROOT
BRANCH   2   6
HETATM    6  C   UNL     1     -10.251   7.645  68.280  1.00  0.00    -0.229 A  
HETATM    7  C   UNL     1      -9.734   8.701  67.527  1.00  0.00    -0.212 A  
HETATM    8  C   UNL     1      -9.431   9.906  68.160  1.00  0.00    -0.149 A  
HETATM    9  C   UNL     1      -9.654  10.009  69.526  1.00  0.00    -0.230 A  
HETATM   10  N   UNL     1     -10.146   9.006  70.283  1.00  0.00    -0.187 NA 
HETATM   11  C   UNL     1     -10.424   7.840  69.645  1.00  0.00    -0.229 A  
ENDBRANCH   2   6
TORSDOF 1
ENDMDL
MODEL      127
REMARK 921   NORMALIZED FREE ENERGY PREDICTED BY IDOCK:   -2.25 KCAL/MOL
REMARK 922        TOTAL FREE ENERGY PREDICTED BY IDOCK:   -2.41 KCAL/MOL
REMARK 923 INTER-LIGAND FREE ENERGY PREDICTED BY IDOCK:   -2.38 KCAL/MOL
REMARK 924 INTRA-LIGAND FREE ENERGY PREDICTED BY IDOCK:   -0.03 KCAL/MOL
REMARK 927      BINDING AFFINITY PREDICTED BY RF-SCORE:    0.00 PKD
ROOT
HETATM    1  N   UNL     1      -8.821   3.436  72.920  1.00  0.00    -0.085 N  
HETATM    2  C   UNL     1     -10.007   4.108  73.032  1.00  0.00    -0.141 C  
HETATM    3  H1  UNL     1      -8.244   3.526  72.084  1.00  0.00     0.000 HD 
HETATM    4  H2  UNL     1      -8.509   2.837  73.684  1.00  0.00     0.000 HD 
HETATM    5  O   UNL     1     -10.699   4.001  74.035  1.00  0.00    -0.209 OA 
ENDROOT
BRANCH   2   6
HETATM    6  C   UNL     1     -10.432   4.933  71.882  1.00  0.00    -0.233 A  
HETATM    7  C   UNL     1      -9.963   4.734  70.582  1.00  0.00    -0.300 A  
HETATM    8  C   UNL     1     -10.418   5.566  69.558  1.00  0.00    -0.368 A  
HETATM    9  C   UNL     1     -11.324   6.567  69.874  1.00  0.00    -0.406 A  
HETATM   10  N   UNL     1     -11.792   6.790  71.121  1.00  0.00    -0.343 NA 
HETATM   11  C   UNL     1     -11.327   5.974  72.101  1.00  0.00    -0.299 A  
ENDBRANCH   2   6
TORSDOF 1
ENDMDL
MODEL      128
REMARK 921   NORMALIZED FREE ENERGY PREDICTED BY IDOCK:   -2.23 KCAL/MOL
REMARK 922        TOTAL FREE ENERGY PREDICTED BY IDOCK:   -2.39 KCAL/MOL
REMARK 923 INTER-LIGAND FREE ENERGY PREDICTED BY IDOCK:   -2.36 KCAL/MOL
REMARK 924 INTRA-LIGAND FREE ENERGY PREDICTED BY IDOCK:   -0.03 KCAL/MOL
REMARK 927      BINDING AFFINITY PREDICTED BY RF-SCORE:    0.00 PKD
ROOT
HETATM    1  N   UNL     1     -11.194   4.748  65.535  1.00  0.00    -0.968 N  
HETATM    2  C   UNL     1     -10.786   5.376  66.680  1.00  0.00    -0.141 C  
HETATM    3  H1  UNL     1     -10.887   3.800  65.319  1.00  0.00     0.000 HD 
HETATM    4  H2  UNL     1     -11.815   5.235  64.889  1.00  0.00     0.000 HD 
HETATM    5  O   UNL     1     -11.154   6.513  66.940  1.00  0.00    -0.399 OA 
ENDROOT
BRANCH   2   6
HETATM    6  C   UNL     1      -9.857   4.642  67.564  1.00  0.00    -0.200 A  
HETATM    7  C   UNL     1      -9.767   4.870  68.940  1.00  0.00    -0.242 A  
HETATM    8  C   UNL     1      -8.857   4.132  69.695  1.00  0.00    -0.135 A  
HETATM    9  C   UNL     1      -8.068   3.193  69.047  1.00  0.00    -0.059 A  
HETATM   10  N   UNL     1      -8.125   2.954  67.720  1.00  0.00    -0.074 NA 
HETATM   11  C   UNL     1      -9.012   3.692  67.004  1.00  0.00    -0.144 A  
ENDBRANCH   2   6
TORSDOF 1
ENDMDL
MODEL      129
REMARK 921   NORMALIZED FREE ENERGY PREDICTED BY IDOCK:   -2.22 KCAL/MOL
REMARK 922        TOTAL FREE ENERGY PREDICTED BY IDOCK:   -2.37 KCAL/MOL
REMARK 923 INTER-LIGAND FREE ENERGY PREDICTED BY IDOCK:   -2.35 KCAL/MOL
REMARK 924 INTRA-LIGAND FREE ENERGY PREDICTED BY IDOCK:   -0.03 KCAL/MOL
REMARK 927      BINDING AFFINITY PREDICTED BY RF-SCORE:    0.00 PKD
ROOT
HETATM    1  N   UNL     1     -10.863  11.672  62.955  1.00  0.00    -0.696 N  
HETATM    2  C   UNL     1     -10.551  11.407  64.261  1.00  0.00    -0.355 C  
HETATM    3  H1  UNL     1     -10.259  11.356  62.197  1.00  0.00     0.000 HD 
HETATM    4  H2  UNL     1     -11.712  12.194  62.738  1.00  0.00     0.000 HD 
HETATM    5  O   UNL     1     -11.275  11.786  65.170  1.00  0.00    -0.302 OA 
ENDROOT
BRANCH   2   6
HETATM    6  C   UNL     1      -9.291  10.682  64.525  1.00  0.00    -0.284 A  
HETATM    7  C   UNL     1      -8.472  10.945  65.626  1.00  0.00    -0.139 A  
HETATM    8  C   UNL     1      -7.297  10.211  65.792  1.00  0.00    -0.128 A  
HETATM    9  C   UNL     1      -6.984   9.243  64.850  1.00  0.00    -0.090 A  
HETATM   10  N   UNL     1      -7.749   8.969  63.773  1.00  0.00    -0.119 NA 
HETATM   11  C   UNL     1      -8.883   9.703  63.628  1.00  0.00    -0.232 A  
ENDBRANCH   2   6
TORSDOF 1
ENDMDL
MODEL      130
REMARK 921   NORMALIZED FREE ENERGY PREDICTED BY IDOCK:   -2.21 KCAL/MOL
REMARK 922        TOTAL FREE ENERGY PREDICTED BY IDOCK:   -2.37 KCAL/MOL
REMARK 923 INTER-LIGAND FREE ENERGY PREDICTED BY IDOCK:   -2.35 KCAL/MOL
REMARK 924 INTRA-LIGAND FREE ENERGY PREDICTED BY IDOCK:   -0.02 KCAL/MOL
REMARK 927      BINDING AFFINITY PREDICTED BY RF-SCORE:    0.00 PKD
ROOT
HETATM    1  N   UNL     1      -8.815  11.303  63.077  1.00  0.00    -0.484 N  
HETATM    2  C   UNL     1      -9.871  11.293  63.947  1.00  0.00    -0.300 C  
HETATM    3  H1  UNL     1      -7.895  10.970  63.365  1.00  0.00     0.000 HD 
HETATM    4  H2  UNL     1      -8.949  11.649  62.127  1.00  0.00     0.000 HD 
HETATM    5  O   UNL     1     -10.974  11.692  63.601  1.00  0.00    -0.383 OA 
ENDROOT
BRANCH   2   6
HETATM    6  C   UNL     1      -9.615  10.818  65.322  1.00  0.00    -0.278 A  
HETATM    7  C   UNL     1     -10.279   9.729  65.893  1.00  0.00    -0.245 A  
HETATM    8  C   UNL     1      -9.974   9.355  67.202  1.00  0.00    -0.263 A  
HETATM    9  C   UNL     1      -9.018  10.085  67.893  1.00  0.00    -0.131 A  
HETATM   10  N   UNL     1      -8.364  11.146  67.373  1.00  0.00    -0.132 NA 
HETATM   11  C   UNL     1      -8.685  11.496  66.101  1.00  0.00    -0.131 A  
ENDBRANCH   2   6
TORSDOF 1
ENDMDL
MODEL      131
REMARK 921   NORMALIZED FREE ENERGY PREDICTED BY IDOCK:   -2.19 KCAL/MOL
REMARK 922        TOTAL FREE ENERGY PREDICTED BY IDOCK:   -2.34 KCAL/MOL
REMARK 923 INTER-LIGAND FREE ENERGY PREDICTED BY IDOCK:   -2.32 KCAL/MOL
REMARK 924 INTRA-LIGAND FREE ENERGY PREDICTED BY IDOCK:   -0.02 KCAL/MOL
REMARK 927      BINDING AFFINITY PREDICTED BY RF-SCORE:    0.00 PKD
ROOT
HETATM    1  N   UNL     1      -9.086  12.550  67.468  1.00  0.00    -0.179 N  
HETATM    2  C   UNL     1      -8.231  13.607  67.315  1.00  0.00    -0.152 C  
HETATM    3  H1  UNL     1     -10.096  12.677  67.401  1.00  0.00     0.000 HD 
HETATM    4  H2  UNL     1      -8.707  11.620  67.652  1.00  0.00     0.000 HD 
HETATM    5  O   UNL     1      -7.021  13.455  67.395  1.00  0.00    -0.165 OA 
ENDROOT
BRANCH   2   6
HETATM    6  C   UNL     1      -8.831  14.939  67.088  1.00  0.00    -0.235 A  
HETATM    7  C   UNL     1      -8.865  15.939  68.063  1.00  0.00    -0.178 A  
HETATM    8  C   UNL     1      -9.456  17.166  67.760  1.00  0.00    -0.253 A  
HETATM    9  C   UNL     1      -9.994  17.346  66.494  1.00  0.00    -0.311 A  
HETATM   10  N   UNL     1      -9.984  16.398  65.533  1.00  0.00    -0.549 NA 
HETATM   11  C   UNL     1      -9.411  15.209  65.855  1.00  0.00    -0.299 A  
ENDBRANCH   2   6
TORSDOF 1
ENDMDL
MODEL      132
REMARK 921   NORMALIZED FREE ENERGY PREDICTED BY IDOCK:   -2.19 KCAL/MOL
REMARK 922        TOTAL FREE ENERGY PREDICTED BY IDOCK:   -2.34 KCAL/MOL
REMARK 923 INTER-LIGAND FREE ENERGY PREDICTED BY IDOCK:   -2.32 KCAL/MOL
REMARK 924 INTRA-LIGAND FREE ENERGY PREDICTED BY IDOCK:   -0.02 KCAL/MOL
REMARK 927      BINDING AFFINITY PREDICTED BY RF-SCORE:    0.00 PKD
ROOT
HETATM    1  N   UNL     1     -11.302   6.350  69.012  1.00  0.00    -0.581 N  
HETATM    2  C   UNL     1     -11.533   6.468  70.355  1.00  0.00    -0.404 C  
HETATM    3  H1  UNL     1     -10.413   5.994  68.662  1.00  0.00     0.000 HD 
HETATM    4  H2  UNL     1     -12.030   6.622  68.351  1.00  0.00     0.000 HD 
HETATM    5  O   UNL     1     -12.599   6.895  70.775  1.00  0.00    -0.324 OA 
ENDROOT
BRANCH   2   6
HETATM    6  C   UNL     1     -10.433   6.097  71.270  1.00  0.00    -0.274 A  
HETATM    7  C   UNL     1     -10.049   6.878  72.363  1.00  0.00    -0.189 A  
HETATM    8  C   UNL     1      -8.996   6.449  73.170  1.00  0.00    -0.133 A  
HETATM    9  C   UNL     1      -8.363   5.256  72.853  1.00  0.00    -0.112 A  
HETATM   10  N   UNL     1      -8.705   4.482  71.802  1.00  0.00    -0.115 NA 
HETATM   11  C   UNL     1      -9.728   4.925  71.025  1.00  0.00    -0.185 A  
ENDBRANCH   2   6
TORSDOF 1
ENDMDL
MODEL      133
REMARK 921   NORMALIZED FREE ENERGY PREDICTED BY IDOCK:   -2.18 KCAL/MOL
REMARK 922        TOTAL FREE ENERGY PREDICTED BY IDOCK:   -2.33 KCAL/MOL
REMARK 923 INTER-LIGAND FREE ENERGY PREDICTED BY IDOCK:   -2.31 KCAL/MOL
REMARK 924 INTRA-LIGAND FREE ENERGY PREDICTED BY IDOCK:   -0.02 KCAL/MOL
REMARK 927      BINDING AFFINITY PREDICTED BY RF-SCORE:    0.00 PKD
ROOT
HETATM    1  N   UNL     1     -10.020   4.722  69.692  1.00  0.00    -0.225 N  
HETATM    2  C   UNL     1     -10.696   5.898  69.861  1.00  0.00    -0.336 C  
HETATM    3  H1  UNL     1      -9.364   4.387  70.398  1.00  0.00     0.000 HD 
HETATM    4  H2  UNL     1     -10.173   4.170  68.847  1.00  0.00     0.000 HD 
HETATM    5  O   UNL     1     -11.483   6.299  69.015  1.00  0.00    -0.363 OA 
ENDROOT
BRANCH   2   6
HETATM    6  C   UNL     1     -10.409   6.678  71.083  1.00  0.00    -0.232 A  
HETATM    7  C   UNL     1     -11.361   6.925  72.075  1.00  0.00    -0.301 A  
HETATM    8  C   UNL     1     -11.001   7.676  73.194  1.00  0.00    -0.411 A  
HETATM    9  C   UNL     1      -9.701   8.154  73.278  1.00  0.00    -0.156 A  
HETATM   10  N   UNL     1      -8.761   7.940  72.335  1.00  0.00    -0.137 NA 
HETATM   11  C   UNL     1      -9.138   7.214  71.251  1.00  0.00    -0.151 A  
ENDBRANCH   2   6
TORSDOF 1
ENDMDL
MODEL      134
REMARK 921   NORMALIZED FREE ENERGY PREDICTED BY IDOCK:   -2.15 KCAL/MOL
REMARK 922        TOTAL FREE ENERGY PREDICTED BY IDOCK:   -2.31 KCAL/MOL
REMARK 923 INTER-LIGAND FREE ENERGY PREDICTED BY IDOCK:   -2.29 KCAL/MOL
REMARK 924 INTRA-LIGAND FREE ENERGY PREDICTED BY IDOCK:   -0.02 KCAL/MOL
REMARK 927      BINDING AFFINITY PREDICTED BY RF-SCORE:    0.00 PKD
ROOT
HETATM    1  N   UNL     1      -9.653  15.791  69.110  1.00  0.00    -0.237 N  
HETATM    2  C   UNL     1      -8.396  16.195  68.754  1.00  0.00    -0.231 C  
HETATM    3  H1  UNL     1     -10.472  16.349  68.867  1.00  0.00     0.000 HD 
HETATM    4  H2  UNL     1      -9.774  14.919  69.625  1.00  0.00     0.000 HD 
HETATM    5  O   UNL     1      -7.414  15.526  69.045  1.00  0.00    -0.142 OA 
ENDROOT
BRANCH   2   6
HETATM    6  C   UNL     1      -8.271  17.484  68.042  1.00  0.00    -0.239 A  
HETATM    7  C   UNL     1      -7.771  17.596  66.742  1.00  0.00    -0.259 A  
HETATM    8  C   UNL     1      -7.687  18.856  66.150  1.00  0.00    -0.281 A  
HETATM    9  C   UNL     1      -8.102  19.959  66.882  1.00  0.00    -0.310 A  
HETATM   10  N   UNL     1      -8.583  19.885  68.141  1.00  0.00    -0.282 NA 
HETATM   11  C   UNL     1      -8.647  18.649  68.698  1.00  0.00    -0.307 A  
ENDBRANCH   2   6
TORSDOF 1
ENDMDL
MODEL      135
REMARK 921   NORMALIZED FREE ENERGY PREDICTED BY IDOCK:   -2.15 KCAL/MOL
REMARK 922        TOTAL FREE ENERGY PREDICTED BY IDOCK:   -2.30 KCAL/MOL
REMARK 923 INTER-LIGAND FREE ENERGY PREDICTED BY IDOCK:   -2.27 KCAL/MOL
REMARK 924 INTRA-LIGAND FREE ENERGY PREDICTED BY IDOCK:   -0.03 KCAL/MOL
REMARK 927      BINDING AFFINITY PREDICTED BY RF-SCORE:    0.00 PKD
ROOT
HETATM    1  N   UNL     1      -6.026  15.869  68.688  1.00  0.00    -0.100 N  
HETATM    2  C   UNL     1      -6.905  16.898  68.488  1.00  0.00    -0.172 C  
HETATM    3  H1  UNL     1      -6.207  14.941  68.305  1.00  0.00     0.000 HD 
HETATM    4  H2  UNL     1      -5.176  16.032  69.228  1.00  0.00     0.000 HD 
HETATM    5  O   UNL     1      -6.688  18.010  68.947  1.00  0.00    -0.228 OA 
ENDROOT
BRANCH   2   6
HETATM    6  C   UNL     1      -8.140  16.600  67.731  1.00  0.00    -0.185 A  
HETATM    7  C   UNL     1      -8.213  15.615  66.743  1.00  0.00    -0.300 A  
HETATM    8  C   UNL     1      -9.421  15.406  66.078  1.00  0.00    -0.381 A  
HETATM    9  C   UNL     1     -10.511  16.192  66.424  1.00  0.00    -0.301 A  
HETATM   10  N   UNL     1     -10.471  17.155  67.368  1.00  0.00    -0.343 NA 
HETATM   11  C   UNL     1      -9.281  17.346  67.995  1.00  0.00    -0.266 A  
ENDBRANCH   2   6
TORSDOF 1
ENDMDL
MODEL      136
REMARK 921   NORMALIZED FREE ENERGY PREDICTED BY IDOCK:   -2.11 KCAL/MOL
REMARK 922        TOTAL FREE ENERGY PREDICTED BY IDOCK:   -2.26 KCAL/MOL
REMARK 923 INTER-LIGAND FREE ENERGY PREDICTED BY IDOCK:   -2.23 KCAL/MOL
REMARK 924 INTRA-LIGAND FREE ENERGY PREDICTED BY IDOCK:   -0.03 KCAL/MOL
REMARK 927      BINDING AFFINITY PREDICTED BY RF-SCORE:    0.00 PKD
ROOT
HETATM    1  N   UNL     1     -10.271   4.795  72.598  1.00  0.00    -0.183 N  
HETATM    2  C   UNL     1     -10.427   6.129  72.859  1.00  0.00    -0.217 C  
HETATM    3  H1  UNL     1     -10.165   4.457  71.641  1.00  0.00     0.000 HD 
HETATM    4  H2  UNL     1     -10.261   4.129  73.370  1.00  0.00     0.000 HD 
HETATM    5  O   UNL     1     -10.555   6.534  74.006  1.00  0.00    -0.310 OA 
ENDROOT
BRANCH   2   6
HETATM    6  C   UNL     1     -10.474   7.048  71.703  1.00  0.00    -0.219 A  
HETATM    7  C   UNL     1     -10.426   6.613  70.376  1.00  0.00    -0.249 A  
HETATM    8  C   UNL     1     -10.472   7.554  69.348  1.00  0.00    -0.222 A  
HETATM    9  C   UNL     1     -10.561   8.897  69.685  1.00  0.00    -0.226 A  
HETATM   10  N   UNL     1     -10.602   9.350  70.955  1.00  0.00    -0.308 NA 
HETATM   11  C   UNL     1     -10.547   8.415  71.938  1.00  0.00    -0.300 A  
ENDBRANCH   2   6
TORSDOF 1
ENDMDL
MODEL      137
REMARK 921   NORMALIZED FREE ENERGY PREDICTED BY IDOCK:   -2.11 KCAL/MOL
REMARK 922        TOTAL FREE ENERGY PREDICTED BY IDOCK:   -2.26 KCAL/MOL
REMARK 923 INTER-LIGAND FREE ENERGY PREDICTED BY IDOCK:   -2.23 KCAL/MOL
REMARK 924 INTRA-LIGAND FREE ENERGY PREDICTED BY IDOCK:   -0.03 KCAL/MOL
REMARK 927      BINDING AFFINITY PREDICTED BY RF-SCORE:    0.00 PKD
ROOT
HETATM    1  N   UNL     1      -9.592   6.133  65.846  1.00  0.00    -0.373 N  
HETATM    2  C   UNL     1      -9.620   7.309  66.545  1.00  0.00    -0.149 C  
HETATM    3  H1  UNL     1      -9.837   5.250  66.295  1.00  0.00     0.000 HD 
HETATM    4  H2  UNL     1      -9.323   6.139  64.862  1.00  0.00     0.000 HD 
HETATM    5  O   UNL     1      -9.326   8.367  66.008  1.00  0.00    -0.209 OA 
ENDROOT
BRANCH   2   6
HETATM    6  C   UNL     1      -9.979   7.241  67.977  1.00  0.00    -0.186 A  
HETATM    7  C   UNL     1      -9.396   8.053  68.953  1.00  0.00    -0.150 A  
HETATM    8  C   UNL     1      -9.796   7.915  70.282  1.00  0.00    -0.184 A  
HETATM    9  C   UNL     1     -10.763   6.968  70.587  1.00  0.00    -0.231 A  
HETATM   10  N   UNL     1     -11.341   6.164  69.669  1.00  0.00    -0.426 NA 
HETATM   11  C   UNL     1     -10.928   6.311  68.384  1.00  0.00    -0.325 A  
ENDBRANCH   2   6
TORSDOF 1
ENDMDL
MODEL      138
REMARK 921   NORMALIZED FREE ENERGY PREDICTED BY IDOCK:   -2.00 KCAL/MOL
REMARK 922        TOTAL FREE ENERGY PREDICTED BY IDOCK:   -2.14 KCAL/MOL
REMARK 923 INTER-LIGAND FREE ENERGY PREDICTED BY IDOCK:   -2.12 KCAL/MOL
REMARK 924 INTRA-LIGAND FREE ENERGY PREDICTED BY IDOCK:   -0.02 KCAL/MOL
REMARK 927      BINDING AFFINITY PREDICTED BY RF-SCORE:    0.00 PKD
ROOT
HETATM    1  N   UNL     1     -11.446   6.506  66.844  1.00  0.00    -0.780 N  
HETATM    2  C   UNL     1     -10.512   7.433  67.219  1.00  0.00    -0.315 C  
HETATM    3  H1  UNL     1     -11.443   5.567  67.242  1.00  0.00     0.000 HD 
HETATM    4  H2  UNL     1     -12.156   6.758  66.156  1.00  0.00     0.000 HD 
HETATM    5  O   UNL     1     -10.515   8.558  66.741  1.00  0.00    -0.303 OA 
ENDROOT
BRANCH   2   6
HETATM    6  C   UNL     1      -9.482   7.007  68.190  1.00  0.00    -0.123 A  
HETATM    7  C   UNL     1      -8.130   6.874  67.864  1.00  0.00    -0.114 A  
HETATM    8  C   UNL     1      -7.230   6.461  68.846  1.00  0.00    -0.084 A  
HETATM    9  C   UNL     1      -7.715   6.194  70.117  1.00  0.00    -0.097 A  
HETATM   10  N   UNL     1      -9.015   6.306  70.463  1.00  0.00    -0.150 NA 
HETATM   11  C   UNL     1      -9.874   6.700  69.487  1.00  0.00    -0.152 A  
ENDBRANCH   2   6
TORSDOF 1
ENDMDL
MODEL      139
REMARK 921   NORMALIZED FREE ENERGY PREDICTED BY IDOCK:   -1.98 KCAL/MOL
REMARK 922        TOTAL FREE ENERGY PREDICTED BY IDOCK:   -2.12 KCAL/MOL
REMARK 923 INTER-LIGAND FREE ENERGY PREDICTED BY IDOCK:   -2.10 KCAL/MOL
REMARK 924 INTRA-LIGAND FREE ENERGY PREDICTED BY IDOCK:   -0.03 KCAL/MOL
REMARK 927      BINDING AFFINITY PREDICTED BY RF-SCORE:    0.00 PKD
ROOT
HETATM    1  N   UNL     1     -11.309   6.765  67.800  1.00  0.00    -0.622 N  
HETATM    2  C   UNL     1     -10.333   6.102  68.492  1.00  0.00    -0.207 C  
HETATM    3  H1  UNL     1     -11.840   7.520  68.235  1.00  0.00     0.000 HD 
HETATM    4  H2  UNL     1     -11.508   6.502  66.835  1.00  0.00     0.000 HD 
HETATM    5  O   UNL     1      -9.696   5.197  67.971  1.00  0.00    -0.134 OA 
ENDROOT
BRANCH   2   6
HETATM    6  C   UNL     1     -10.110   6.496  69.899  1.00  0.00    -0.202 A  
HETATM    7  C   UNL     1     -10.287   7.800  70.366  1.00  0.00    -0.212 A  
HETATM    8  C   UNL     1     -10.048   8.080  71.712  1.00  0.00    -0.249 A  
HETATM    9  C   UNL     1      -9.639   7.045  72.540  1.00  0.00    -0.145 A  
HETATM   10  N   UNL     1      -9.452   5.777  72.118  1.00  0.00    -0.149 NA 
HETATM   11  C   UNL     1      -9.682   5.531  70.803  1.00  0.00    -0.177 A  
ENDBRANCH   2   6
TORSDOF 1
ENDMDL
MODEL      140
REMARK 921   NORMALIZED FREE ENERGY PREDICTED BY IDOCK:   -1.95 KCAL/MOL
REMARK 922        TOTAL FREE ENERGY PREDICTED BY IDOCK:   -2.09 KCAL/MOL
REMARK 923 INTER-LIGAND FREE ENERGY PREDICTED BY IDOCK:   -2.06 KCAL/MOL
REMARK 924 INTRA-LIGAND FREE ENERGY PREDICTED BY IDOCK:   -0.03 KCAL/MOL
REMARK 927      BINDING AFFINITY PREDICTED BY RF-SCORE:    0.00 PKD
ROOT
HETATM    1  N   UNL     1      -7.762   5.224  72.890  1.00  0.00    -0.097 N  
HETATM    2  C   UNL     1      -8.183   6.510  73.088  1.00  0.00    -0.113 C  
HETATM    3  H1  UNL     1      -8.379   4.528  72.471  1.00  0.00     0.000 HD 
HETATM    4  H2  UNL     1      -6.817   4.957  73.166  1.00  0.00     0.000 HD 
HETATM    5  O   UNL     1      -7.444   7.345  73.591  1.00  0.00    -0.094 OA 
ENDROOT
BRANCH   2   6
HETATM    6  C   UNL     1      -9.573   6.837  72.707  1.00  0.00    -0.161 A  
HETATM    7  C   UNL     1     -10.028   8.144  72.516  1.00  0.00    -0.372 A  
HETATM    8  C   UNL     1     -11.360   8.357  72.160  1.00  0.00    -0.437 A  
HETATM    9  C   UNL     1     -12.188   7.255  72.010  1.00  0.00    -0.277 A  
HETATM   10  N   UNL     1     -11.782   5.981  72.194  1.00  0.00    -0.306 NA 
HETATM   11  C   UNL     1     -10.484   5.800  72.549  1.00  0.00    -0.207 A  
ENDBRANCH   2   6
TORSDOF 1
ENDMDL
MODEL      141
REMARK 921   NORMALIZED FREE ENERGY PREDICTED BY IDOCK:   -1.94 KCAL/MOL
REMARK 922        TOTAL FREE ENERGY PREDICTED BY IDOCK:   -2.08 KCAL/MOL
REMARK 923 INTER-LIGAND FREE ENERGY PREDICTED BY IDOCK:   -2.06 KCAL/MOL
REMARK 924 INTRA-LIGAND FREE ENERGY PREDICTED BY IDOCK:   -0.03 KCAL/MOL
REMARK 927      BINDING AFFINITY PREDICTED BY RF-SCORE:    0.00 PKD
ROOT
HETATM    1  N   UNL     1     -10.715   6.149  68.823  1.00  0.00    -0.275 N  
HETATM    2  C   UNL     1     -11.115   6.454  70.095  1.00  0.00    -0.365 C  
HETATM    3  H1  UNL     1     -10.159   5.315  68.633  1.00  0.00     0.000 HD 
HETATM    4  H2  UNL     1     -10.978   6.764  68.052  1.00  0.00     0.000 HD 
HETATM    5  O   UNL     1     -11.782   7.453  70.323  1.00  0.00    -0.196 OA 
ENDROOT
BRANCH   2   6
HETATM    6  C   UNL     1     -10.676   5.552  71.181  1.00  0.00    -0.280 A  
HETATM    7  C   UNL     1      -9.508   4.788  71.116  1.00  0.00    -0.218 A  
HETATM    8  C   UNL     1      -9.175   3.961  72.189  1.00  0.00    -0.167 A  
HETATM    9  C   UNL     1     -10.024   3.926  73.285  1.00  0.00    -0.131 A  
HETATM   10  N   UNL     1     -11.162   4.646  73.376  1.00  0.00    -0.334 NA 
HETATM   11  C   UNL     1     -11.469   5.437  72.315  1.00  0.00    -0.090 A  
ENDBRANCH   2   6
TORSDOF 1
ENDMDL
MODEL      142
REMARK 921   NORMALIZED FREE ENERGY PREDICTED BY IDOCK:   -1.94 KCAL/MOL
REMARK 922        TOTAL FREE ENERGY PREDICTED BY IDOCK:   -2.08 KCAL/MOL
REMARK 923 INTER-LIGAND FREE ENERGY PREDICTED BY IDOCK:   -2.05 KCAL/MOL
REMARK 924 INTRA-LIGAND FREE ENERGY PREDICTED BY IDOCK:   -0.03 KCAL/MOL
REMARK 927      BINDING AFFINITY PREDICTED BY RF-SCORE:    0.00 PKD
ROOT
HETATM    1  N   UNL     1      -8.164   3.014  70.421  1.00  0.00    -0.048 N  
HETATM    2  C   UNL     1      -9.345   3.597  70.791  1.00  0.00    -0.155 C  
HETATM    3  H1  UNL     1      -7.694   3.284  69.556  1.00  0.00     0.000 HD 
HETATM    4  H2  UNL     1      -7.747   2.300  71.018  1.00  0.00     0.000 HD 
HETATM    5  O   UNL     1      -9.909   3.274  71.827  1.00  0.00    -0.163 OA 
ENDROOT
BRANCH   2   6
HETATM    6  C   UNL     1      -9.927   4.598  69.872  1.00  0.00    -0.296 A  
HETATM    7  C   UNL     1     -10.702   5.676  70.306  1.00  0.00    -0.364 A  
HETATM    8  C   UNL     1     -11.214   6.570  69.365  1.00  0.00    -0.418 A  
HETATM    9  C   UNL     1     -10.934   6.350  68.025  1.00  0.00    -0.311 A  
HETATM   10  N   UNL     1     -10.195   5.315  67.573  1.00  0.00    -0.187 NA 
HETATM   11  C   UNL     1      -9.716   4.454  68.507  1.00  0.00    -0.113 A  
ENDBRANCH   2   6
TORSDOF 1
ENDMDL
MODEL      143
REMARK 921   NORMALIZED FREE ENERGY PREDICTED BY IDOCK:   -1.93 KCAL/MOL
REMARK 922        TOTAL FREE ENERGY PREDICTED BY IDOCK:   -2.07 KCAL/MOL
REMARK 923 INTER-LIGAND FREE ENERGY PREDICTED BY IDOCK:   -2.06 KCAL/MOL
REMARK 924 INTRA-LIGAND FREE ENERGY PREDICTED BY IDOCK:   -0.02 KCAL/MOL
REMARK 927      BINDING AFFINITY PREDICTED BY RF-SCORE:    0.00 PKD
ROOT
HETATM    1  N   UNL     1     -10.313   1.969  72.195  1.00  0.00    -0.143 N  
HETATM    2  C   UNL     1      -9.698   3.171  72.418  1.00  0.00    -0.148 C  
HETATM    3  H1  UNL     1     -11.214   1.921  71.721  1.00  0.00     0.000 HD 
HETATM    4  H2  UNL     1      -9.863   1.109  72.508  1.00  0.00     0.000 HD 
HETATM    5  O   UNL     1      -8.617   3.229  72.987  1.00  0.00    -0.080 OA 
ENDROOT
BRANCH   2   6
HETATM    6  C   UNL     1     -10.409   4.390  71.980  1.00  0.00    -0.189 A  
HETATM    7  C   UNL     1     -11.282   5.105  72.804  1.00  0.00    -0.323 A  
HETATM    8  C   UNL     1     -11.912   6.244  72.303  1.00  0.00    -0.296 A  
HETATM    9  C   UNL     1     -11.648   6.625  70.995  1.00  0.00    -0.346 A  
HETATM   10  N   UNL     1     -10.815   5.953  70.172  1.00  0.00    -0.318 NA 
HETATM   11  C   UNL     1     -10.221   4.842  70.680  1.00  0.00    -0.211 A  
ENDBRANCH   2   6
TORSDOF 1
ENDMDL
MODEL      144
REMARK 921   NORMALIZED FREE ENERGY PREDICTED BY IDOCK:   -1.86 KCAL/MOL
REMARK 922        TOTAL FREE ENERGY PREDICTED BY IDOCK:   -1.99 KCAL/MOL
REMARK 923 INTER-LIGAND FREE ENERGY PREDICTED BY IDOCK:   -1.96 KCAL/MOL
REMARK 924 INTRA-LIGAND FREE ENERGY PREDICTED BY IDOCK:   -0.03 KCAL/MOL
REMARK 927      BINDING AFFINITY PREDICTED BY RF-SCORE:    0.00 PKD
ROOT
HETATM    1  N   UNL     1      -9.669  17.054  66.506  1.00  0.00    -0.269 N  
HETATM    2  C   UNL     1      -8.702  16.380  67.201  1.00  0.00    -0.186 C  
HETATM    3  H1  UNL     1     -10.349  16.553  65.934  1.00  0.00     0.000 HD 
HETATM    4  H2  UNL     1      -9.710  18.071  66.561  1.00  0.00     0.000 HD 
HETATM    5  O   UNL     1      -7.887  16.980  67.887  1.00  0.00    -0.177 OA 
ENDROOT
BRANCH   2   6
HETATM    6  C   UNL     1      -8.661  14.910  67.058  1.00  0.00    -0.265 A  
HETATM    7  C   UNL     1      -9.704  14.165  66.502  1.00  0.00    -0.307 A  
HETATM    8  C   UNL     1      -9.578  12.779  66.411  1.00  0.00    -0.254 A  
HETATM    9  C   UNL     1      -8.414  12.188  66.881  1.00  0.00    -0.173 A  
HETATM   10  N   UNL     1      -7.391  12.878  67.429  1.00  0.00    -0.149 NA 
HETATM   11  C   UNL     1      -7.542  14.225  67.516  1.00  0.00    -0.184 A  
ENDBRANCH   2   6
TORSDOF 1
ENDMDL
MODEL      145
REMARK 921   NORMALIZED FREE ENERGY PREDICTED BY IDOCK:   -1.83 KCAL/MOL
REMARK 922        TOTAL FREE ENERGY PREDICTED BY IDOCK:   -1.96 KCAL/MOL
REMARK 923 INTER-LIGAND FREE ENERGY PREDICTED BY IDOCK:   -1.94 KCAL/MOL
REMARK 924 INTRA-LIGAND FREE ENERGY PREDICTED BY IDOCK:   -0.02 KCAL/MOL
REMARK 927      BINDING AFFINITY PREDICTED BY RF-SCORE:    0.00 PKD
ROOT
HETATM    1  N   UNL     1     -10.989   6.819  67.508  1.00  0.00    -0.483 N  
HETATM    2  C   UNL     1     -10.462   7.346  68.655  1.00  0.00    -0.189 C  
HETATM    3  H1  UNL     1     -10.933   5.818  67.315  1.00  0.00     0.000 HD 
HETATM    4  H2  UNL     1     -11.445   7.435  66.835  1.00  0.00     0.000 HD 
HETATM    5  O   UNL     1     -10.529   8.545  68.885  1.00  0.00    -0.215 OA 
ENDROOT
BRANCH   2   6
HETATM    6  C   UNL     1      -9.778   6.417  69.579  1.00  0.00    -0.167 A  
HETATM    7  C   UNL     1     -10.454   5.636  70.519  1.00  0.00    -0.347 A  
HETATM    8  C   UNL     1      -9.724   4.789  71.353  1.00  0.00    -0.240 A  
HETATM    9  C   UNL     1      -8.344   4.756  71.217  1.00  0.00    -0.106 A  
HETATM   10  N   UNL     1      -7.660   5.502  70.324  1.00  0.00    -0.078 NA 
HETATM   11  C   UNL     1      -8.392   6.325  69.530  1.00  0.00    -0.118 A  
ENDBRANCH   2   6
TORSDOF 1
ENDMDL
MODEL      146
REMARK 921   NORMALIZED FREE ENERGY PREDICTED BY IDOCK:   -1.81 KCAL/MOL
REMARK 922        TOTAL FREE ENERGY PREDICTED BY IDOCK:   -1.94 KCAL/MOL
REMARK 923 INTER-LIGAND FREE ENERGY PREDICTED BY IDOCK:   -1.93 KCAL/MOL
REMARK 924 INTRA-LIGAND FREE ENERGY PREDICTED BY IDOCK:   -0.02 KCAL/MOL
REMARK 927      BINDING AFFINITY PREDICTED BY RF-SCORE:    0.00 PKD
ROOT
HETATM    1  N   UNL     1     -10.910   3.957  64.410  1.00  0.00    -0.579 N  
HETATM    2  C   UNL     1      -9.740   4.295  65.035  1.00  0.00    -0.189 C  
HETATM    3  H1  UNL     1     -11.810   4.112  64.864  1.00  0.00     0.000 HD 
HETATM    4  H2  UNL     1     -10.881   3.545  63.478  1.00  0.00     0.000 HD 
HETATM    5  O   UNL     1      -8.660   4.109  64.491  1.00  0.00    -0.113 OA 
ENDROOT
BRANCH   2   6
HETATM    6  C   UNL     1      -9.834   4.853  66.400  1.00  0.00    -0.226 A  
HETATM    7  C   UNL     1      -9.737   4.073  67.555  1.00  0.00    -0.177 A  
HETATM    8  C   UNL     1      -9.842   4.687  68.803  1.00  0.00    -0.201 A  
HETATM    9  C   UNL     1     -10.042   6.059  68.850  1.00  0.00    -0.176 A  
HETATM   10  N   UNL     1     -10.146   6.839  67.753  1.00  0.00    -0.144 NA 
HETATM   11  C   UNL     1     -10.051   6.217  66.550  1.00  0.00    -0.121 A  
ENDBRANCH   2   6
TORSDOF 1
ENDMDL
MODEL      147
REMARK 921   NORMALIZED FREE ENERGY PREDICTED BY IDOCK:   -1.80 KCAL/MOL
REMARK 922        TOTAL FREE ENERGY PREDICTED BY IDOCK:   -1.93 KCAL/MOL
REMARK 923 INTER-LIGAND FREE ENERGY PREDICTED BY IDOCK:   -1.90 KCAL/MOL
REMARK 924 INTRA-LIGAND FREE ENERGY PREDICTED BY IDOCK:   -0.03 KCAL/MOL
REMARK 927      BINDING AFFINITY PREDICTED BY RF-SCORE:    0.00 PKD
ROOT
HETATM    1  N   UNL     1      -9.072   3.182  72.690  1.00  0.00    -0.087 N  
HETATM    2  C   UNL     1      -8.962   4.279  73.500  1.00  0.00    -0.092 C  
HETATM    3  H1  UNL     1      -9.678   3.193  71.870  1.00  0.00     0.000 HD 
HETATM    4  H2  UNL     1      -8.539   2.340  72.910  1.00  0.00     0.000 HD 
HETATM    5  O   UNL     1      -8.236   4.265  74.483  1.00  0.00    -0.089 OA 
ENDROOT
BRANCH   2   6
HETATM    6  C   UNL     1      -9.784   5.459  73.161  1.00  0.00    -0.163 A  
HETATM    7  C   UNL     1      -9.434   6.764  73.517  1.00  0.00    -0.187 A  
HETATM    8  C   UNL     1     -10.273   7.818  73.157  1.00  0.00    -0.398 A  
HETATM    9  C   UNL     1     -11.434   7.527  72.455  1.00  0.00    -0.315 A  
HETATM   10  N   UNL     1     -11.804   6.278  72.101  1.00  0.00    -0.331 NA 
HETATM   11  C   UNL     1     -10.975   5.269  72.471  1.00  0.00    -0.240 A  
ENDBRANCH   2   6
TORSDOF 1
ENDMDL
MODEL      148
REMARK 921   NORMALIZED FREE ENERGY PREDICTED BY IDOCK:   -1.78 KCAL/MOL
REMARK 922        TOTAL FREE ENERGY PREDICTED BY IDOCK:   -1.91 KCAL/MOL
REMARK 923 INTER-LIGAND FREE ENERGY PREDICTED BY IDOCK:   -1.89 KCAL/MOL
REMARK 924 INTRA-LIGAND FREE ENERGY PREDICTED BY IDOCK:   -0.02 KCAL/MOL
REMARK 927      BINDING AFFINITY PREDICTED BY RF-SCORE:    0.00 PKD
ROOT
HETATM    1  N   UNL     1      -7.790   4.883  69.971  1.00  0.00    -0.065 N  
HETATM    2  C   UNL     1      -9.123   5.186  69.914  1.00  0.00    -0.123 C  
HETATM    3  H1  UNL     1      -7.128   5.302  69.318  1.00  0.00     0.000 HD 
HETATM    4  H2  UNL     1      -7.453   4.228  70.677  1.00  0.00     0.000 HD 
HETATM    5  O   UNL     1      -9.917   4.683  70.696  1.00  0.00    -0.213 OA 
ENDROOT
BRANCH   2   6
HETATM    6  C   UNL     1      -9.565   6.110  68.848  1.00  0.00    -0.144 A  
HETATM    7  C   UNL     1     -10.695   5.884  68.058  1.00  0.00    -0.332 A  
HETATM    8  C   UNL     1     -11.034   6.811  67.073  1.00  0.00    -0.439 A  
HETATM    9  C   UNL     1     -10.228   7.929  66.911  1.00  0.00    -0.310 A  
HETATM   10  N   UNL     1      -9.127   8.173  67.653  1.00  0.00    -0.134 NA 
HETATM   11  C   UNL     1      -8.813   7.251  68.599  1.00  0.00    -0.129 A  
ENDBRANCH   2   6
TORSDOF 1
ENDMDL
MODEL      149
REMARK 921   NORMALIZED FREE ENERGY PREDICTED BY IDOCK:   -1.78 KCAL/MOL
REMARK 922        TOTAL FREE ENERGY PREDICTED BY IDOCK:   -1.91 KCAL/MOL
REMARK 923 INTER-LIGAND FREE ENERGY PREDICTED BY IDOCK:   -1.89 KCAL/MOL
REMARK 924 INTRA-LIGAND FREE ENERGY PREDICTED BY IDOCK:   -0.02 KCAL/MOL
REMARK 927      BINDING AFFINITY PREDICTED BY RF-SCORE:    0.00 PKD
ROOT
HETATM    1  N   UNL     1      -8.395  10.668  65.734  1.00  0.00    -0.160 N  
HETATM    2  C   UNL     1      -8.944   9.561  65.146  1.00  0.00    -0.209 C  
HETATM    3  H1  UNL     1      -8.162  10.674  66.727  1.00  0.00     0.000 HD 
HETATM    4  H2  UNL     1      -8.214  11.499  65.170  1.00  0.00     0.000 HD 
HETATM    5  O   UNL     1      -9.223   9.553  63.956  1.00  0.00    -0.219 OA 
ENDROOT
BRANCH   2   6
HETATM    6  C   UNL     1      -9.221   8.397  66.014  1.00  0.00    -0.247 A  
HETATM    7  C   UNL     1     -10.312   8.333  66.885  1.00  0.00    -0.391 A  
HETATM    8  C   UNL     1     -10.492   7.194  67.669  1.00  0.00    -0.306 A  
HETATM    9  C   UNL     1      -9.572   6.162  67.557  1.00  0.00    -0.112 A  
HETATM   10  N   UNL     1      -8.504   6.196  66.731  1.00  0.00    -0.110 NA 
HETATM   11  C   UNL     1      -8.346   7.319  65.984  1.00  0.00    -0.140 A  
ENDBRANCH   2   6
TORSDOF 1
ENDMDL
MODEL      150
REMARK 921   NORMALIZED FREE ENERGY PREDICTED BY IDOCK:   -1.78 KCAL/MOL
REMARK 922        TOTAL FREE ENERGY PREDICTED BY IDOCK:   -1.91 KCAL/MOL
REMARK 923 INTER-LIGAND FREE ENERGY PREDICTED BY IDOCK:   -1.88 KCAL/MOL
REMARK 924 INTRA-LIGAND FREE ENERGY PREDICTED BY IDOCK:   -0.02 KCAL/MOL
REMARK 927      BINDING AFFINITY PREDICTED BY RF-SCORE:    0.00 PKD
ROOT
HETATM    1  N   UNL     1     -11.346   4.570  65.281  1.00  0.00    -0.942 N  
HETATM    2  C   UNL     1     -10.482   3.860  64.494  1.00  0.00    -0.207 C  
HETATM    3  H1  UNL     1     -11.001   5.239  65.970  1.00  0.00     0.000 HD 
HETATM    4  H2  UNL     1     -12.351   4.429  65.178  1.00  0.00     0.000 HD 
HETATM    5  O   UNL     1     -10.896   3.058  63.669  1.00  0.00    -0.246 OA 
ENDROOT
BRANCH   2   6
HETATM    6  C   UNL     1      -9.035   4.073  64.709  1.00  0.00    -0.135 A  
HETATM    7  C   UNL     1      -8.464   4.235  65.974  1.00  0.00    -0.113 A  
HETATM    8  C   UNL     1      -7.088   4.435  66.080  1.00  0.00    -0.071 A  
HETATM    9  C   UNL     1      -6.333   4.468  64.916  1.00  0.00    -0.035 A  
HETATM   10  N   UNL     1      -6.855   4.322  63.680  1.00  0.00    -0.043 NA 
HETATM   11  C   UNL     1      -8.198   4.138  63.602  1.00  0.00    -0.093 A  
ENDBRANCH   2   6
TORSDOF 1
ENDMDL
MODEL      151
REMARK 921   NORMALIZED FREE ENERGY PREDICTED BY IDOCK:   -1.76 KCAL/MOL
REMARK 922        TOTAL FREE ENERGY PREDICTED BY IDOCK:   -1.89 KCAL/MOL
REMARK 923 INTER-LIGAND FREE ENERGY PREDICTED BY IDOCK:   -1.86 KCAL/MOL
REMARK 924 INTRA-LIGAND FREE ENERGY PREDICTED BY IDOCK:   -0.03 KCAL/MOL
REMARK 927      BINDING AFFINITY PREDICTED BY RF-SCORE:    0.00 PKD
ROOT
HETATM    1  N   UNL     1      -9.764   8.129  72.022  1.00  0.00    -0.204 N  
HETATM    2  C   UNL     1     -10.206   7.143  72.861  1.00  0.00    -0.230 C  
HETATM    3  H1  UNL     1      -9.411   7.908  71.091  1.00  0.00     0.000 HD 
HETATM    4  H2  UNL     1      -9.788   9.101  72.333  1.00  0.00     0.000 HD 
HETATM    5  O   UNL     1     -10.629   7.409  73.977  1.00  0.00    -0.284 OA 
ENDROOT
BRANCH   2   6
HETATM    6  C   UNL     1     -10.115   5.749  72.379  1.00  0.00    -0.207 A  
HETATM    7  C   UNL     1      -9.647   5.407  71.108  1.00  0.00    -0.214 A  
HETATM    8  C   UNL     1      -9.600   4.063  70.737  1.00  0.00    -0.263 A  
HETATM    9  C   UNL     1     -10.025   3.110  71.652  1.00  0.00    -0.094 A  
HETATM   10  N   UNL     1     -10.488   3.408  72.884  1.00  0.00    -0.164 NA 
HETATM   11  C   UNL     1     -10.533   4.723  73.218  1.00  0.00    -0.202 A  
ENDBRANCH   2   6
TORSDOF 1
ENDMDL
MODEL      152
REMARK 921   NORMALIZED FREE ENERGY PREDICTED BY IDOCK:   -1.76 KCAL/MOL
REMARK 922        TOTAL FREE ENERGY PREDICTED BY IDOCK:   -1.89 KCAL/MOL
REMARK 923 INTER-LIGAND FREE ENERGY PREDICTED BY IDOCK:   -1.86 KCAL/MOL
REMARK 924 INTRA-LIGAND FREE ENERGY PREDICTED BY IDOCK:   -0.03 KCAL/MOL
REMARK 927      BINDING AFFINITY PREDICTED BY RF-SCORE:    0.00 PKD
ROOT
HETATM    1  N   UNL     1     -11.638   7.308  70.733  1.00  0.00    -0.298 N  
HETATM    2  C   UNL     1     -10.869   7.274  69.602  1.00  0.00    -0.222 C  
HETATM    3  H1  UNL     1     -11.756   6.476  71.312  1.00  0.00     0.000 HD 
HETATM    4  H2  UNL     1     -12.100   8.177  71.001  1.00  0.00     0.000 HD 
HETATM    5  O   UNL     1     -10.727   8.271  68.908  1.00  0.00    -0.175 OA 
ENDROOT
BRANCH   2   6
HETATM    6  C   UNL     1     -10.252   5.982  69.237  1.00  0.00    -0.263 A  
HETATM    7  C   UNL     1     -10.238   4.872  70.086  1.00  0.00    -0.310 A  
HETATM    8  C   UNL     1      -9.629   3.693  69.657  1.00  0.00    -0.211 A  
HETATM    9  C   UNL     1      -9.054   3.667  68.395  1.00  0.00    -0.147 A  
HETATM   10  N   UNL     1      -9.045   4.723  67.553  1.00  0.00    -0.114 NA 
HETATM   11  C   UNL     1      -9.636   5.862  67.998  1.00  0.00    -0.116 A  
ENDBRANCH   2   6
TORSDOF 1
ENDMDL
MODEL      153
REMARK 921   NORMALIZED FREE ENERGY PREDICTED BY IDOCK:   -1.75 KCAL/MOL
REMARK 922        TOTAL FREE ENERGY PREDICTED BY IDOCK:   -1.88 KCAL/MOL
REMARK 923 INTER-LIGAND FREE ENERGY PREDICTED BY IDOCK:   -1.86 KCAL/MOL
REMARK 924 INTRA-LIGAND FREE ENERGY PREDICTED BY IDOCK:   -0.02 KCAL/MOL
REMARK 927      BINDING AFFINITY PREDICTED BY RF-SCORE:    0.00 PKD
ROOT
HETATM    1  N   UNL     1      -8.599   6.516  64.573  1.00  0.00    -0.342 N  
HETATM    2  C   UNL     1      -8.979   5.638  65.551  1.00  0.00    -0.104 C  
HETATM    3  H1  UNL     1      -8.594   7.522  64.744  1.00  0.00     0.000 HD 
HETATM    4  H2  UNL     1      -8.317   6.160  63.660  1.00  0.00     0.000 HD 
HETATM    5  O   UNL     1      -8.985   4.432  65.347  1.00  0.00    -0.127 OA 
ENDROOT
BRANCH   2   6
HETATM    6  C   UNL     1      -9.415   6.207  66.843  1.00  0.00    -0.151 A  
HETATM    7  C   UNL     1     -10.722   6.099  67.325  1.00  0.00    -0.414 A  
HETATM    8  C   UNL     1     -11.044   6.671  68.556  1.00  0.00    -0.284 A  
HETATM    9  C   UNL     1     -10.047   7.333  69.258  1.00  0.00    -0.183 A  
HETATM   10  N   UNL     1      -8.778   7.460  68.818  1.00  0.00    -0.129 NA 
HETATM   11  C   UNL     1      -8.492   6.903  67.613  1.00  0.00    -0.122 A  
ENDBRANCH   2   6
TORSDOF 1
ENDMDL
MODEL      154
REMARK 921   NORMALIZED FREE ENERGY PREDICTED BY IDOCK:   -1.61 KCAL/MOL
REMARK 922        TOTAL FREE ENERGY PREDICTED BY IDOCK:   -1.73 KCAL/MOL
REMARK 923 INTER-LIGAND FREE ENERGY PREDICTED BY IDOCK:   -1.71 KCAL/MOL
REMARK 924 INTRA-LIGAND FREE ENERGY PREDICTED BY IDOCK:   -0.03 KCAL/MOL
REMARK 927      BINDING AFFINITY PREDICTED BY RF-SCORE:    0.00 PKD
ROOT
HETATM    1  N   UNL     1     -11.352   7.573  69.476  1.00  0.00    -0.455 N  
HETATM    2  C   UNL     1     -10.908   7.188  70.711  1.00  0.00    -0.244 C  
HETATM    3  H1  UNL     1     -10.920   7.209  68.626  1.00  0.00     0.000 HD 
HETATM    4  H2  UNL     1     -12.126   8.233  69.403  1.00  0.00     0.000 HD 
HETATM    5  O   UNL     1     -11.425   7.624  71.730  1.00  0.00    -0.251 OA 
ENDROOT
BRANCH   2   6
HETATM    6  C   UNL     1      -9.759   6.259  70.762  1.00  0.00    -0.202 A  
HETATM    7  C   UNL     1      -8.859   6.094  69.706  1.00  0.00    -0.135 A  
HETATM    8  C   UNL     1      -7.806   5.191  69.843  1.00  0.00    -0.075 A  
HETATM    9  C   UNL     1      -7.692   4.483  71.031  1.00  0.00    -0.072 A  
HETATM   10  N   UNL     1      -8.548   4.614  72.066  1.00  0.00    -0.117 NA 
HETATM   11  C   UNL     1      -9.571   5.492  71.905  1.00  0.00    -0.156 A  
ENDBRANCH   2   6
TORSDOF 1
ENDMDL
MODEL      155
REMARK 921   NORMALIZED FREE ENERGY PREDICTED BY IDOCK:   -1.61 KCAL/MOL
REMARK 922        TOTAL FREE ENERGY PREDICTED BY IDOCK:   -1.73 KCAL/MOL
REMARK 923 INTER-LIGAND FREE ENERGY PREDICTED BY IDOCK:   -1.70 KCAL/MOL
REMARK 924 INTRA-LIGAND FREE ENERGY PREDICTED BY IDOCK:   -0.03 KCAL/MOL
REMARK 927      BINDING AFFINITY PREDICTED BY RF-SCORE:    0.00 PKD
ROOT
HETATM    1  N   UNL     1      -8.433   8.003  71.119  1.00  0.00    -0.117 N  
HETATM    2  C   UNL     1      -9.627   7.539  70.636  1.00  0.00    -0.171 C  
HETATM    3  H1  UNL     1      -7.744   8.424  70.496  1.00  0.00     0.000 HD 
HETATM    4  H2  UNL     1      -8.231   7.926  72.115  1.00  0.00     0.000 HD 
HETATM    5  O   UNL     1     -10.454   7.034  71.382  1.00  0.00    -0.209 OA 
ENDROOT
BRANCH   2   6
HETATM    6  C   UNL     1      -9.856   7.639  69.180  1.00  0.00    -0.171 A  
HETATM    7  C   UNL     1      -9.273   8.623  68.378  1.00  0.00    -0.138 A  
HETATM    8  C   UNL     1      -9.550   8.641  67.011  1.00  0.00    -0.240 A  
HETATM    9  C   UNL     1     -10.404   7.676  66.497  1.00  0.00    -0.052 A  
HETATM   10  N   UNL     1     -10.989   6.717  67.245  1.00  0.00    -0.375 NA 
HETATM   11  C   UNL     1     -10.710   6.726  68.574  1.00  0.00    -0.231 A  
ENDBRANCH   2   6
TORSDOF 1
ENDMDL
MODEL      156
REMARK 921   NORMALIZED FREE ENERGY PREDICTED BY IDOCK:   -1.60 KCAL/MOL
REMARK 922        TOTAL FREE ENERGY PREDICTED BY IDOCK:   -1.72 KCAL/MOL
REMARK 923 INTER-LIGAND FREE ENERGY PREDICTED BY IDOCK:   -1.70 KCAL/MOL
REMARK 924 INTRA-LIGAND FREE ENERGY PREDICTED BY IDOCK:   -0.02 KCAL/MOL
REMARK 927      BINDING AFFINITY PREDICTED BY RF-SCORE:    0.00 PKD
ROOT
HETATM    1  N   UNL     1      -7.212   5.676  70.273  1.00  0.00    -0.065 N  
HETATM    2  C   UNL     1      -8.578   5.740  70.292  1.00  0.00    -0.133 C  
HETATM    3  H1  UNL     1      -6.678   6.072  69.499  1.00  0.00     0.000 HD 
HETATM    4  H2  UNL     1      -6.719   5.226  71.045  1.00  0.00     0.000 HD 
HETATM    5  O   UNL     1      -9.218   5.265  71.220  1.00  0.00    -0.142 OA 
ENDROOT
BRANCH   2   6
HETATM    6  C   UNL     1      -9.246   6.367  69.132  1.00  0.00    -0.133 A  
HETATM    7  C   UNL     1      -8.761   7.513  68.497  1.00  0.00    -0.128 A  
HETATM    8  C   UNL     1      -9.460   8.038  67.411  1.00  0.00    -0.187 A  
HETATM    9  C   UNL     1     -10.621   7.398  67.000  1.00  0.00    -0.344 A  
HETATM   10  N   UNL     1     -11.119   6.294  67.596  1.00  0.00    -0.335 NA 
HETATM   11  C   UNL     1     -10.425   5.808  68.657  1.00  0.00    -0.229 A  
ENDBRANCH   2   6
TORSDOF 1
ENDMDL
MODEL      157
REMARK 921   NORMALIZED FREE ENERGY PREDICTED BY IDOCK:   -1.60 KCAL/MOL
REMARK 922        TOTAL FREE ENERGY PREDICTED BY IDOCK:   -1.72 KCAL/MOL
REMARK 923 INTER-LIGAND FREE ENERGY PREDICTED BY IDOCK:   -1.70 KCAL/MOL
REMARK 924 INTRA-LIGAND FREE ENERGY PREDICTED BY IDOCK:   -0.02 KCAL/MOL
REMARK 927      BINDING AFFINITY PREDICTED BY RF-SCORE:    0.00 PKD
ROOT
HETATM    1  N   UNL     1      -8.125   8.489  71.564  1.00  0.00    -0.139 N  
HETATM    2  C   UNL     1      -8.345   7.154  71.365  1.00  0.00    -0.112 C  
HETATM    3  H1  UNL     1      -8.635   9.191  71.027  1.00  0.00     0.000 HD 
HETATM    4  H2  UNL     1      -7.442   8.788  72.261  1.00  0.00     0.000 HD 
HETATM    5  O   UNL     1      -7.734   6.313  72.009  1.00  0.00    -0.095 OA 
ENDROOT
BRANCH   2   6
HETATM    6  C   UNL     1      -9.316   6.773  70.318  1.00  0.00    -0.159 A  
HETATM    7  C   UNL     1     -10.677   6.582  70.569  1.00  0.00    -0.305 A  
HETATM    8  C   UNL     1     -11.519   6.219  69.518  1.00  0.00    -0.387 A  
HETATM    9  C   UNL     1     -10.969   6.059  68.255  1.00  0.00    -0.256 A  
HETATM   10  N   UNL     1      -9.658   6.230  67.981  1.00  0.00    -0.115 NA 
HETATM   11  C   UNL     1      -8.857   6.573  69.022  1.00  0.00    -0.130 A  
ENDBRANCH   2   6
TORSDOF 1
ENDMDL
MODEL      158
REMARK 921   NORMALIZED FREE ENERGY PREDICTED BY IDOCK:   -1.58 KCAL/MOL
REMARK 922        TOTAL FREE ENERGY PREDICTED BY IDOCK:   -1.70 KCAL/MOL
REMARK 923 INTER-LIGAND FREE ENERGY PREDICTED BY IDOCK:   -1.67 KCAL/MOL
REMARK 924 INTRA-LIGAND FREE ENERGY PREDICTED BY IDOCK:   -0.03 KCAL/MOL
REMARK 927      BINDING AFFINITY PREDICTED BY RF-SCORE:    0.00 PKD
ROOT
HETATM    1  N   UNL     1     -10.158   5.359  69.660  1.00  0.00    -0.225 N  
HETATM    2  C   UNL     1      -9.972   6.459  70.452  1.00  0.00    -0.183 C  
HETATM    3  H1  UNL     1     -10.133   5.435  68.643  1.00  0.00     0.000 HD 
HETATM    4  H2  UNL     1     -10.325   4.451  70.092  1.00  0.00     0.000 HD 
HETATM    5  O   UNL     1     -10.002   6.369  71.671  1.00  0.00    -0.175 OA 
ENDROOT
BRANCH   2   6
HETATM    6  C   UNL     1      -9.772   7.758  69.776  1.00  0.00    -0.176 A  
HETATM    7  C   UNL     1     -10.089   8.985  70.365  1.00  0.00    -0.248 A  
HETATM    8  C   UNL     1      -9.870  10.161  69.649  1.00  0.00    -0.254 A  
HETATM    9  C   UNL     1      -9.342  10.068  68.370  1.00  0.00    -0.138 A  
HETATM   10  N   UNL     1      -9.031   8.900  67.770  1.00  0.00    -0.135 NA 
HETATM   11  C   UNL     1      -9.263   7.768  68.483  1.00  0.00    -0.137 A  
ENDBRANCH   2   6
TORSDOF 1
ENDMDL
MODEL      159
REMARK 921   NORMALIZED FREE ENERGY PREDICTED BY IDOCK:   -1.58 KCAL/MOL
REMARK 922        TOTAL FREE ENERGY PREDICTED BY IDOCK:   -1.70 KCAL/MOL
REMARK 923 INTER-LIGAND FREE ENERGY PREDICTED BY IDOCK:   -1.67 KCAL/MOL
REMARK 924 INTRA-LIGAND FREE ENERGY PREDICTED BY IDOCK:   -0.03 KCAL/MOL
REMARK 927      BINDING AFFINITY PREDICTED BY RF-SCORE:    0.00 PKD
ROOT
HETATM    1  N   UNL     1      -9.086   3.159  72.095  1.00  0.00    -0.094 N  
HETATM    2  C   UNL     1      -8.521   4.403  72.166  1.00  0.00    -0.112 C  
HETATM    3  H1  UNL     1      -9.952   3.005  71.577  1.00  0.00     0.000 HD 
HETATM    4  H2  UNL     1      -8.636   2.375  72.567  1.00  0.00     0.000 HD 
HETATM    5  O   UNL     1      -7.483   4.588  72.787  1.00  0.00    -0.080 OA 
ENDROOT
BRANCH   2   6
HETATM    6  C   UNL     1      -9.232   5.513  71.498  1.00  0.00    -0.164 A  
HETATM    7  C   UNL     1     -10.318   5.321  70.641  1.00  0.00    -0.324 A  
HETATM    8  C   UNL     1     -10.926   6.429  70.051  1.00  0.00    -0.397 A  
HETATM    9  C   UNL     1     -10.422   7.689  70.338  1.00  0.00    -0.220 A  
HETATM   10  N   UNL     1      -9.370   7.908  71.155  1.00  0.00    -0.149 NA 
HETATM   11  C   UNL     1      -8.790   6.813  71.710  1.00  0.00    -0.128 A  
ENDBRANCH   2   6
TORSDOF 1
ENDMDL
MODEL      160
REMARK 921   NORMALIZED FREE ENERGY PREDICTED BY IDOCK:   -1.55 KCAL/MOL
REMARK 922        TOTAL FREE ENERGY PREDICTED BY IDOCK:   -1.66 KCAL/MOL
REMARK 923 INTER-LIGAND FREE ENERGY PREDICTED BY IDOCK:   -1.64 KCAL/MOL
REMARK 924 INTRA-LIGAND FREE ENERGY PREDICTED BY IDOCK:   -0.02 KCAL/MOL
REMARK 927      BINDING AFFINITY PREDICTED BY RF-SCORE:    0.00 PKD
ROOT
HETATM    1  N   UNL     1     -11.396   6.597  69.329  1.00  0.00    -0.574 N  
HETATM    2  C   UNL     1     -10.236   5.909  69.558  1.00  0.00    -0.225 C  
HETATM    3  H1  UNL     1     -11.561   7.067  68.438  1.00  0.00     0.000 HD 
HETATM    4  H2  UNL     1     -12.107   6.641  70.059  1.00  0.00     0.000 HD 
HETATM    5  O   UNL     1     -10.039   5.345  70.625  1.00  0.00    -0.201 OA 
ENDROOT
BRANCH   2   6
HETATM    6  C   UNL     1      -9.223   5.907  68.482  1.00  0.00    -0.119 A  
HETATM    7  C   UNL     1      -7.912   6.355  68.664  1.00  0.00    -0.106 A  
HETATM    8  C   UNL     1      -7.024   6.320  67.589  1.00  0.00    -0.075 A  
HETATM    9  C   UNL     1      -7.481   5.840  66.370  1.00  0.00    -0.086 A  
HETATM   10  N   UNL     1      -8.741   5.407  66.160  1.00  0.00    -0.125 NA 
HETATM   11  C   UNL     1      -9.589   5.460  67.219  1.00  0.00    -0.132 A  
ENDBRANCH   2   6
TORSDOF 1
ENDMDL
MODEL      161
REMARK 921   NORMALIZED FREE ENERGY PREDICTED BY IDOCK:   -1.53 KCAL/MOL
REMARK 922        TOTAL FREE ENERGY PREDICTED BY IDOCK:   -1.64 KCAL/MOL
REMARK 923 INTER-LIGAND FREE ENERGY PREDICTED BY IDOCK:   -1.62 KCAL/MOL
REMARK 924 INTRA-LIGAND FREE ENERGY PREDICTED BY IDOCK:   -0.02 KCAL/MOL
REMARK 927      BINDING AFFINITY PREDICTED BY RF-SCORE:    0.00 PKD
ROOT
HETATM    1  N   UNL     1      -9.828   4.776  62.639  1.00  0.00    -0.367 N  
HETATM    2  C   UNL     1      -9.718   3.949  63.723  1.00  0.00    -0.161 C  
HETATM    3  H1  UNL     1      -9.707   5.784  62.733  1.00  0.00     0.000 HD 
HETATM    4  H2  UNL     1     -10.033   4.378  61.722  1.00  0.00     0.000 HD 
HETATM    5  O   UNL     1      -9.863   2.740  63.610  1.00  0.00    -0.125 OA 
ENDROOT
BRANCH   2   6
HETATM    6  C   UNL     1      -9.458   4.578  65.035  1.00  0.00    -0.156 A  
HETATM    7  C   UNL     1      -8.172   4.819  65.527  1.00  0.00    -0.117 A  
HETATM    8  C   UNL     1      -8.023   5.415  66.779  1.00  0.00    -0.101 A  
HETATM    9  C   UNL     1      -9.164   5.746  67.494  1.00  0.00    -0.108 A  
HETATM   10  N   UNL     1     -10.419   5.520  67.051  1.00  0.00    -0.258 NA 
HETATM   11  C   UNL     1     -10.538   4.930  65.833  1.00  0.00    -0.230 A  
ENDBRANCH   2   6
TORSDOF 1
ENDMDL
MODEL      162
REMARK 921   NORMALIZED FREE ENERGY PREDICTED BY IDOCK:   -1.50 KCAL/MOL
REMARK 922        TOTAL FREE ENERGY PREDICTED BY IDOCK:   -1.61 KCAL/MOL
REMARK 923 INTER-LIGAND FREE ENERGY PREDICTED BY IDOCK:   -1.59 KCAL/MOL
REMARK 924 INTRA-LIGAND FREE ENERGY PREDICTED BY IDOCK:   -0.03 KCAL/MOL
REMARK 927      BINDING AFFINITY PREDICTED BY RF-SCORE:    0.00 PKD
ROOT
HETATM    1  N   UNL     1     -11.876   8.155  70.745  1.00  0.00    -0.443 N  
HETATM    2  C   UNL     1     -10.856   8.839  70.143  1.00  0.00    -0.227 C  
HETATM    3  H1  UNL     1     -11.700   7.282  71.243  1.00  0.00     0.000 HD 
HETATM    4  H2  UNL     1     -12.826   8.523  70.696  1.00  0.00     0.000 HD 
HETATM    5  O   UNL     1     -11.067   9.886  69.546  1.00  0.00    -0.233 OA 
ENDROOT
BRANCH   2   6
HETATM    6  C   UNL     1      -9.505   8.245  70.210  1.00  0.00    -0.164 A  
HETATM    7  C   UNL     1      -9.117   7.333  71.195  1.00  0.00    -0.152 A  
HETATM    8  C   UNL     1      -7.818   6.827  71.181  1.00  0.00    -0.101 A  
HETATM    9  C   UNL     1      -6.953   7.253  70.184  1.00  0.00    -0.060 A  
HETATM   10  N   UNL     1      -7.294   8.137  69.222  1.00  0.00    -0.075 NA 
HETATM   11  C   UNL     1      -8.561   8.622  69.263  1.00  0.00    -0.131 A  
ENDBRANCH   2   6
TORSDOF 1
ENDMDL
MODEL      163
REMARK 921   NORMALIZED FREE ENERGY PREDICTED BY IDOCK:   -1.49 KCAL/MOL
REMARK 922        TOTAL FREE ENERGY PREDICTED BY IDOCK:   -1.61 KCAL/MOL
REMARK 923 INTER-LIGAND FREE ENERGY PREDICTED BY IDOCK:   -1.58 KCAL/MOL
REMARK 924 INTRA-LIGAND FREE ENERGY PREDICTED BY IDOCK:   -0.02 KCAL/MOL
REMARK 927      BINDING AFFINITY PREDICTED BY RF-SCORE:    0.00 PKD
ROOT
HETATM    1  N   UNL     1      -8.607  11.089  64.355  1.00  0.00    -0.377 N  
HETATM    2  C   UNL     1      -8.789   9.931  63.651  1.00  0.00    -0.237 C  
HETATM    3  H1  UNL     1      -8.099  11.091  65.240  1.00  0.00     0.000 HD 
HETATM    4  H2  UNL     1      -8.985  11.964  63.991  1.00  0.00     0.000 HD 
HETATM    5  O   UNL     1      -9.398   9.929  62.590  1.00  0.00    -0.287 OA 
ENDROOT
BRANCH   2   6
HETATM    6  C   UNL     1      -8.257   8.685  64.241  1.00  0.00    -0.160 A  
HETATM    7  C   UNL     1      -7.578   7.715  63.499  1.00  0.00    -0.119 A  
HETATM    8  C   UNL     1      -7.113   6.568  64.141  1.00  0.00    -0.057 A  
HETATM    9  C   UNL     1      -7.347   6.431  65.501  1.00  0.00    -0.076 A  
HETATM   10  N   UNL     1      -8.005   7.345  66.245  1.00  0.00    -0.105 NA 
HETATM   11  C   UNL     1      -8.455   8.449  65.595  1.00  0.00    -0.164 A  
ENDBRANCH   2   6
TORSDOF 1
ENDMDL
MODEL      164
REMARK 921   NORMALIZED FREE ENERGY PREDICTED BY IDOCK:   -1.48 KCAL/MOL
REMARK 922        TOTAL FREE ENERGY PREDICTED BY IDOCK:   -1.60 KCAL/MOL
REMARK 923 INTER-LIGAND FREE ENERGY PREDICTED BY IDOCK:   -1.58 KCAL/MOL
REMARK 924 INTRA-LIGAND FREE ENERGY PREDICTED BY IDOCK:   -0.02 KCAL/MOL
REMARK 927      BINDING AFFINITY PREDICTED BY RF-SCORE:    0.00 PKD
ROOT
HETATM    1  N   UNL     1      -9.465  11.850  63.038  1.00  0.00    -0.441 N  
HETATM    2  C   UNL     1      -9.169  10.859  63.933  1.00  0.00    -0.203 C  
HETATM    3  H1  UNL     1      -9.053  11.855  62.105  1.00  0.00     0.000 HD 
HETATM    4  H2  UNL     1     -10.107  12.596  63.307  1.00  0.00     0.000 HD 
HETATM    5  O   UNL     1      -9.662  10.854  65.052  1.00  0.00    -0.229 OA 
ENDROOT
BRANCH   2   6
HETATM    6  C   UNL     1      -8.203   9.824  63.508  1.00  0.00    -0.156 A  
HETATM    7  C   UNL     1      -8.552   8.736  62.705  1.00  0.00    -0.152 A  
HETATM    8  C   UNL     1      -7.573   7.805  62.356  1.00  0.00    -0.112 A  
HETATM    9  C   UNL     1      -6.282   7.996  62.825  1.00  0.00    -0.081 A  
HETATM   10  N   UNL     1      -5.914   9.033  63.607  1.00  0.00    -0.079 NA 
HETATM   11  C   UNL     1      -6.887   9.920  63.941  1.00  0.00    -0.125 A  
ENDBRANCH   2   6
TORSDOF 1
ENDMDL
MODEL      165
REMARK 921   NORMALIZED FREE ENERGY PREDICTED BY IDOCK:   -1.48 KCAL/MOL
REMARK 922        TOTAL FREE ENERGY PREDICTED BY IDOCK:   -1.59 KCAL/MOL
REMARK 923 INTER-LIGAND FREE ENERGY PREDICTED BY IDOCK:   -1.57 KCAL/MOL
REMARK 924 INTRA-LIGAND FREE ENERGY PREDICTED BY IDOCK:   -0.02 KCAL/MOL
REMARK 927      BINDING AFFINITY PREDICTED BY RF-SCORE:    0.00 PKD
ROOT
HETATM    1  N   UNL     1     -10.400   8.028  66.487  1.00  0.00    -0.468 N  
HETATM    2  C   UNL     1      -9.868   7.196  67.434  1.00  0.00    -0.155 C  
HETATM    3  H1  UNL     1     -10.462   7.740  65.510  1.00  0.00     0.000 HD 
HETATM    4  H2  UNL     1     -10.740   8.950  66.762  1.00  0.00     0.000 HD 
HETATM    5  O   UNL     1      -9.794   7.541  68.605  1.00  0.00    -0.158 OA 
ENDROOT
BRANCH   2   6
HETATM    6  C   UNL     1      -9.355   5.887  66.978  1.00  0.00    -0.125 A  
HETATM    7  C   UNL     1      -8.281   5.751  66.096  1.00  0.00    -0.111 A  
HETATM    8  C   UNL     1      -7.868   4.474  65.717  1.00  0.00    -0.095 A  
HETATM    9  C   UNL     1      -8.546   3.379  66.234  1.00  0.00    -0.119 A  
HETATM   10  N   UNL     1      -9.591   3.477  67.083  1.00  0.00    -0.182 NA 
HETATM   11  C   UNL     1      -9.980   4.731  67.428  1.00  0.00    -0.159 A  
ENDBRANCH   2   6
TORSDOF 1
ENDMDL
MODEL      166
REMARK 921   NORMALIZED FREE ENERGY PREDICTED BY IDOCK:   -1.46 KCAL/MOL
REMARK 922        TOTAL FREE ENERGY PREDICTED BY IDOCK:   -1.58 KCAL/MOL
REMARK 923 INTER-LIGAND FREE ENERGY PREDICTED BY IDOCK:   -1.55 KCAL/MOL
REMARK 924 INTRA-LIGAND FREE ENERGY PREDICTED BY IDOCK:   -0.02 KCAL/MOL
REMARK 927      BINDING AFFINITY PREDICTED BY RF-SCORE:    0.00 PKD
ROOT
HETATM    1  N   UNL     1      -6.918   9.690  65.570  1.00  0.00    -0.089 N  
HETATM    2  C   UNL     1      -7.657  10.388  66.485  1.00  0.00    -0.118 C  
HETATM    3  H1  UNL     1      -7.088   8.698  65.405  1.00  0.00     0.000 HD 
HETATM    4  H2  UNL     1      -6.187  10.169  65.043  1.00  0.00     0.000 HD 
HETATM    5  O   UNL     1      -7.455  11.578  66.682  1.00  0.00    -0.138 OA 
ENDROOT
BRANCH   2   6
HETATM    6  C   UNL     1      -8.678   9.640  67.248  1.00  0.00    -0.136 A  
HETATM    7  C   UNL     1      -9.477   8.642  66.685  1.00  0.00    -0.267 A  
HETATM    8  C   UNL     1     -10.418   7.991  67.482  1.00  0.00    -0.331 A  
HETATM    9  C   UNL     1     -10.527   8.364  68.814  1.00  0.00    -0.178 A  
HETATM   10  N   UNL     1      -9.775   9.327  69.387  1.00  0.00    -0.167 NA 
HETATM   11  C   UNL     1      -8.873   9.953  68.588  1.00  0.00    -0.128 A  
ENDBRANCH   2   6
TORSDOF 1
ENDMDL
MODEL      167
REMARK 921   NORMALIZED FREE ENERGY PREDICTED BY IDOCK:   -1.33 KCAL/MOL
REMARK 922        TOTAL FREE ENERGY PREDICTED BY IDOCK:   -1.44 KCAL/MOL
REMARK 923 INTER-LIGAND FREE ENERGY PREDICTED BY IDOCK:   -1.42 KCAL/MOL
REMARK 924 INTRA-LIGAND FREE ENERGY PREDICTED BY IDOCK:   -0.02 KCAL/MOL
REMARK 927      BINDING AFFINITY PREDICTED BY RF-SCORE:    0.00 PKD
ROOT
HETATM    1  N   UNL     1      -6.674   7.408  65.491  1.00  0.00    -0.048 N  
HETATM    2  C   UNL     1      -7.299   6.734  66.505  1.00  0.00    -0.074 C  
HETATM    3  H1  UNL     1      -6.932   8.368  65.262  1.00  0.00     0.000 HD 
HETATM    4  H2  UNL     1      -5.939   6.944  64.958  1.00  0.00     0.000 HD 
HETATM    5  O   UNL     1      -6.989   5.584  66.780  1.00  0.00    -0.062 OA 
ENDROOT
BRANCH   2   6
HETATM    6  C   UNL     1      -8.383   7.437  67.222  1.00  0.00    -0.119 A  
HETATM    7  C   UNL     1      -9.521   7.939  66.587  1.00  0.00    -0.270 A  
HETATM    8  C   UNL     1     -10.492   8.593  67.345  1.00  0.00    -0.351 A  
HETATM    9  C   UNL     1     -10.287   8.724  68.711  1.00  0.00    -0.213 A  
HETATM   10  N   UNL     1      -9.196   8.257  69.353  1.00  0.00    -0.154 NA 
HETATM   11  C   UNL     1      -8.261   7.632  68.592  1.00  0.00    -0.128 A  
ENDBRANCH   2   6
TORSDOF 1
ENDMDL
MODEL      168
REMARK 921   NORMALIZED FREE ENERGY PREDICTED BY IDOCK:   -1.27 KCAL/MOL
REMARK 922        TOTAL FREE ENERGY PREDICTED BY IDOCK:   -1.37 KCAL/MOL
REMARK 923 INTER-LIGAND FREE ENERGY PREDICTED BY IDOCK:   -1.35 KCAL/MOL
REMARK 924 INTRA-LIGAND FREE ENERGY PREDICTED BY IDOCK:   -0.02 KCAL/MOL
REMARK 927      BINDING AFFINITY PREDICTED BY RF-SCORE:    0.00 PKD
ROOT
HETATM    1  N   UNL     1      -8.294   7.181  64.674  1.00  0.00    -0.335 N  
HETATM    2  C   UNL     1      -8.923   7.659  65.791  1.00  0.00    -0.053 C  
HETATM    3  H1  UNL     1      -7.847   6.264  64.675  1.00  0.00     0.000 HD 
HETATM    4  H2  UNL     1      -8.271   7.750  63.828  1.00  0.00     0.000 HD 
HETATM    5  O   UNL     1      -9.458   8.758  65.790  1.00  0.00    -0.229 OA 
ENDROOT
BRANCH   2   6
HETATM    6  C   UNL     1      -8.894   6.813  67.002  1.00  0.00    -0.115 A  
HETATM    7  C   UNL     1      -8.230   7.179  68.176  1.00  0.00    -0.124 A  
HETATM    8  C   UNL     1      -8.253   6.314  69.270  1.00  0.00    -0.114 A  
HETATM    9  C   UNL     1      -8.938   5.114  69.149  1.00  0.00    -0.100 A  
HETATM   10  N   UNL     1      -9.583   4.728  68.028  1.00  0.00    -0.144 NA 
HETATM   11  C   UNL     1      -9.538   5.583  66.974  1.00  0.00    -0.137 A  
ENDBRANCH   2   6
TORSDOF 1
ENDMDL
MODEL      169
REMARK 921   NORMALIZED FREE ENERGY PREDICTED BY IDOCK:   -1.22 KCAL/MOL
REMARK 922        TOTAL FREE ENERGY PREDICTED BY IDOCK:   -1.32 KCAL/MOL
REMARK 923 INTER-LIGAND FREE ENERGY PREDICTED BY IDOCK:   -1.29 KCAL/MOL
REMARK 924 INTRA-LIGAND FREE ENERGY PREDICTED BY IDOCK:   -0.02 KCAL/MOL
REMARK 927      BINDING AFFINITY PREDICTED BY RF-SCORE:    0.00 PKD
ROOT
HETATM    1  N   UNL     1      -7.427   5.761  69.601  1.00  0.00    -0.074 N  
HETATM    2  C   UNL     1      -7.223   6.487  68.459  1.00  0.00    -0.085 C  
HETATM    3  H1  UNL     1      -8.326   5.782  70.082  1.00  0.00     0.000 HD 
HETATM    4  H2  UNL     1      -6.669   5.191  69.976  1.00  0.00     0.000 HD 
HETATM    5  O   UNL     1      -6.146   6.462  67.881  1.00  0.00    -0.024 OA 
ENDROOT
BRANCH   2   6
HETATM    6  C   UNL     1      -8.340   7.326  67.978  1.00  0.00    -0.123 A  
HETATM    7  C   UNL     1      -9.662   6.878  67.911  1.00  0.00    -0.136 A  
HETATM    8  C   UNL     1     -10.651   7.741  67.439  1.00  0.00    -0.345 A  
HETATM    9  C   UNL     1     -10.281   9.020  67.050  1.00  0.00    -0.266 A  
HETATM   10  N   UNL     1      -9.014   9.481  67.095  1.00  0.00    -0.134 NA 
HETATM   11  C   UNL     1      -8.067   8.619  67.549  1.00  0.00    -0.106 A  
ENDBRANCH   2   6
TORSDOF 1
ENDMDL
MODEL      170
REMARK 921   NORMALIZED FREE ENERGY PREDICTED BY IDOCK:   -1.18 KCAL/MOL
REMARK 922        TOTAL FREE ENERGY PREDICTED BY IDOCK:   -1.28 KCAL/MOL
REMARK 923 INTER-LIGAND FREE ENERGY PREDICTED BY IDOCK:   -1.26 KCAL/MOL
REMARK 924 INTRA-LIGAND FREE ENERGY PREDICTED BY IDOCK:   -0.02 KCAL/MOL
REMARK 927      BINDING AFFINITY PREDICTED BY RF-SCORE:    0.00 PKD
ROOT
HETATM    1  N   UNL     1      -8.058   1.949  69.317  1.00  0.00    -0.045 N  
HETATM    2  C   UNL     1      -8.930   2.981  69.528  1.00  0.00    -0.111 C  
HETATM    3  H1  UNL     1      -7.513   1.889  68.456  1.00  0.00     0.000 HD 
HETATM    4  H2  UNL     1      -7.950   1.228  70.031  1.00  0.00     0.000 HD 
HETATM    5  O   UNL     1      -9.582   3.053  70.559  1.00  0.00    -0.165 OA 
ENDROOT
BRANCH   2   6
HETATM    6  C   UNL     1      -9.078   3.978  68.447  1.00  0.00    -0.186 A  
HETATM    7  C   UNL     1      -9.659   3.686  67.210  1.00  0.00    -0.194 A  
HETATM    8  C   UNL     1      -9.752   4.691  66.247  1.00  0.00    -0.212 A  
HETATM    9  C   UNL     1      -9.259   5.950  66.556  1.00  0.00    -0.145 A  
HETATM   10  N   UNL     1      -8.687   6.263  67.737  1.00  0.00    -0.114 NA 
HETATM   11  C   UNL     1      -8.599   5.266  68.655  1.00  0.00    -0.087 A  
ENDBRANCH   2   6
TORSDOF 1
ENDMDL
MODEL      171
REMARK 921   NORMALIZED FREE ENERGY PREDICTED BY IDOCK:   -1.17 KCAL/MOL
REMARK 922        TOTAL FREE ENERGY PREDICTED BY IDOCK:   -1.26 KCAL/MOL
REMARK 923 INTER-LIGAND FREE ENERGY PREDICTED BY IDOCK:   -1.24 KCAL/MOL
REMARK 924 INTRA-LIGAND FREE ENERGY PREDICTED BY IDOCK:   -0.02 KCAL/MOL
REMARK 927      BINDING AFFINITY PREDICTED BY RF-SCORE:    0.00 PKD
ROOT
HETATM    1  N   UNL     1      -7.182   3.418  66.445  1.00  0.00    -0.063 N  
HETATM    2  C   UNL     1      -8.545   3.521  66.395  1.00  0.00    -0.117 C  
HETATM    3  H1  UNL     1      -6.644   3.164  65.616  1.00  0.00     0.000 HD 
HETATM    4  H2  UNL     1      -6.696   3.598  67.323  1.00  0.00     0.000 HD 
HETATM    5  O   UNL     1      -9.190   3.826  67.388  1.00  0.00    -0.153 OA 
ENDROOT
BRANCH   2   6
HETATM    6  C   UNL     1      -9.204   3.213  65.109  1.00  0.00    -0.150 A  
HETATM    7  C   UNL     1     -10.181   4.029  64.533  1.00  0.00    -0.222 A  
HETATM    8  C   UNL     1     -10.751   3.655  63.316  1.00  0.00    -0.220 A  
HETATM    9  C   UNL     1     -10.325   2.477  62.721  1.00  0.00    -0.122 A  
HETATM   10  N   UNL     1      -9.389   1.663  63.254  1.00  0.00    -0.091 NA 
HETATM   11  C   UNL     1      -8.856   2.044  64.443  1.00  0.00    -0.106 A  
ENDBRANCH   2   6
TORSDOF 1
ENDMDL
MODEL      172
REMARK 921   NORMALIZED FREE ENERGY PREDICTED BY IDOCK:   -1.17 KCAL/MOL
REMARK 922        TOTAL FREE ENERGY PREDICTED BY IDOCK:   -1.26 KCAL/MOL
REMARK 923 INTER-LIGAND FREE ENERGY PREDICTED BY IDOCK:   -1.23 KCAL/MOL
REMARK 924 INTRA-LIGAND FREE ENERGY PREDICTED BY IDOCK:   -0.03 KCAL/MOL
REMARK 927      BINDING AFFINITY PREDICTED BY RF-SCORE:    0.00 PKD
ROOT
HETATM    1  N   UNL     1      -8.272   6.936  71.229  1.00  0.00    -0.114 N  
HETATM    2  C   UNL     1      -8.060   5.671  70.752  1.00  0.00    -0.117 C  
HETATM    3  H1  UNL     1      -8.930   7.106  71.990  1.00  0.00     0.000 HD 
HETATM    4  H2  UNL     1      -7.766   7.720  70.817  1.00  0.00     0.000 HD 
HETATM    5  O   UNL     1      -7.272   5.467  69.840  1.00  0.00    -0.060 OA 
ENDROOT
BRANCH   2   6
HETATM    6  C   UNL     1      -8.846   4.575  71.357  1.00  0.00    -0.153 A  
HETATM    7  C   UNL     1      -8.698   3.235  70.991  1.00  0.00    -0.124 A  
HETATM    8  C   UNL     1      -9.487   2.268  71.614  1.00  0.00    -0.200 A  
HETATM    9  C   UNL     1     -10.397   2.678  72.578  1.00  0.00    -0.129 A  
HETATM   10  N   UNL     1     -10.569   3.964  72.948  1.00  0.00    -0.167 NA 
HETATM   11  C   UNL     1      -9.796   4.888  72.321  1.00  0.00    -0.169 A  
ENDBRANCH   2   6
TORSDOF 1
ENDMDL
MODEL      173
REMARK 921   NORMALIZED FREE ENERGY PREDICTED BY IDOCK:   -1.06 KCAL/MOL
REMARK 922        TOTAL FREE ENERGY PREDICTED BY IDOCK:   -1.15 KCAL/MOL
REMARK 923 INTER-LIGAND FREE ENERGY PREDICTED BY IDOCK:   -1.12 KCAL/MOL
REMARK 924 INTRA-LIGAND FREE ENERGY PREDICTED BY IDOCK:   -0.03 KCAL/MOL
REMARK 927      BINDING AFFINITY PREDICTED BY RF-SCORE:    0.00 PKD
ROOT
HETATM    1  N   UNL     1      -6.944   8.662  72.920  1.00  0.00    -0.013 N  
HETATM    2  C   UNL     1      -8.137   8.204  72.434  1.00  0.00    -0.146 C  
HETATM    3  H1  UNL     1      -6.251   9.082  72.300  1.00  0.00     0.000 HD 
HETATM    4  H2  UNL     1      -6.744   8.584  73.917  1.00  0.00     0.000 HD 
HETATM    5  O   UNL     1      -8.968   7.701  73.177  1.00  0.00    -0.152 OA 
ENDROOT
BRANCH   2   6
HETATM    6  C   UNL     1      -8.363   8.306  70.977  1.00  0.00    -0.138 A  
HETATM    7  C   UNL     1      -7.773   9.289  70.177  1.00  0.00    -0.122 A  
HETATM    8  C   UNL     1      -8.047   9.310  68.810  1.00  0.00    -0.104 A  
HETATM    9  C   UNL     1      -8.903   8.349  68.292  1.00  0.00    -0.139 A  
HETATM   10  N   UNL     1      -9.493   7.391  69.038  1.00  0.00    -0.148 NA 
HETATM   11  C   UNL     1      -9.218   7.397  70.367  1.00  0.00    -0.158 A  
ENDBRANCH   2   6
TORSDOF 1
ENDMDL
MODEL      174
REMARK 921   NORMALIZED FREE ENERGY PREDICTED BY IDOCK:   -0.87 KCAL/MOL
REMARK 922        TOTAL FREE ENERGY PREDICTED BY IDOCK:   -0.94 KCAL/MOL
REMARK 923 INTER-LIGAND FREE ENERGY PREDICTED BY IDOCK:   -0.92 KCAL/MOL
REMARK 924 INTRA-LIGAND FREE ENERGY PREDICTED BY IDOCK:   -0.02 KCAL/MOL
REMARK 927      BINDING AFFINITY PREDICTED BY RF-SCORE:    0.00 PKD
ROOT
HETATM    1  N   UNL     1      -8.901   6.398  70.452  1.00  0.00    -0.150 N  
HETATM    2  C   UNL     1      -8.872   5.563  71.535  1.00  0.00    -0.136 C  
HETATM    3  H1  UNL     1      -8.249   7.179  70.373  1.00  0.00     0.000 HD 
HETATM    4  H2  UNL     1      -9.584   6.238  69.712  1.00  0.00     0.000 HD 
HETATM    5  O   UNL     1      -9.653   4.627  71.629  1.00  0.00    -0.145 OA 
ENDROOT
BRANCH   2   6
HETATM    6  C   UNL     1      -7.888   5.860  72.597  1.00  0.00    -0.101 A  
HETATM    7  C   UNL     1      -7.125   4.877  73.232  1.00  0.00    -0.080 A  
HETATM    8  C   UNL     1      -6.223   5.251  74.228  1.00  0.00    -0.063 A  
HETATM    9  C   UNL     1      -6.120   6.596  74.554  1.00  0.00    -0.072 A  
HETATM   10  N   UNL     1      -6.847   7.569  73.965  1.00  0.00    -0.084 NA 
HETATM   11  C   UNL     1      -7.725   7.178  73.006  1.00  0.00    -0.089 A  
ENDBRANCH   2   6
TORSDOF 1
ENDMDL
MODEL      175
REMARK 921   NORMALIZED FREE ENERGY PREDICTED BY IDOCK:   -0.79 KCAL/MOL
REMARK 922        TOTAL FREE ENERGY PREDICTED BY IDOCK:   -0.86 KCAL/MOL
REMARK 923 INTER-LIGAND FREE ENERGY PREDICTED BY IDOCK:   -0.83 KCAL/MOL
REMARK 924 INTRA-LIGAND FREE ENERGY PREDICTED BY IDOCK:   -0.03 KCAL/MOL
REMARK 927      BINDING AFFINITY PREDICTED BY RF-SCORE:    0.00 PKD
ROOT
HETATM    1  N   UNL     1      -6.488   6.877  69.214  1.00  0.00    -0.042 N  
HETATM    2  C   UNL     1      -6.751   5.579  68.873  1.00  0.00    -0.053 C  
HETATM    3  H1  UNL     1      -6.863   7.651  68.664  1.00  0.00     0.000 HD 
HETATM    4  H2  UNL     1      -5.909   7.075  70.030  1.00  0.00     0.000 HD 
HETATM    5  O   UNL     1      -6.302   4.652  69.533  1.00  0.00    -0.026 OA 
ENDROOT
BRANCH   2   6
HETATM    6  C   UNL     1      -7.563   5.345  67.661  1.00  0.00    -0.088 A  
HETATM    7  C   UNL     1      -8.104   4.100  67.329  1.00  0.00    -0.099 A  
HETATM    8  C   UNL     1      -8.854   3.973  66.161  1.00  0.00    -0.120 A  
HETATM    9  C   UNL     1      -9.034   5.095  65.365  1.00  0.00    -0.156 A  
HETATM   10  N   UNL     1      -8.520   6.309  65.653  1.00  0.00    -0.146 NA 
HETATM   11  C   UNL     1      -7.785   6.405  66.791  1.00  0.00    -0.100 A  
ENDBRANCH   2   6
TORSDOF 1
ENDMDL
