MODEL        1
REMARK 921   NORMALIZED FREE ENERGY PREDICTED BY IDOCK:   -5.97 KCAL/MOL
REMARK 922        TOTAL FREE ENERGY PREDICTED BY IDOCK:   -8.93 KCAL/MOL
REMARK 923 INTER-LIGAND FREE ENERGY PREDICTED BY IDOCK:   -7.71 KCAL/MOL
REMARK 924 INTRA-LIGAND FREE ENERGY PREDICTED BY IDOCK:   -1.22 KCAL/MOL
REMARK 927      BINDING AFFINITY PREDICTED BY RF-SCORE:    0.00 PKD
ROOT
HETATM    1  C   UNL     1     -13.834  15.516  72.238  1.00  0.00    -0.543 C  
HETATM    2  O   UNL     1     -13.244  15.757  70.958  1.00  0.00    -0.547 OA 
ENDROOT
BRANCH   2   3
HETATM    3  C   UNL     1     -11.937  15.423  70.858  1.00  0.00    -0.359 C  
HETATM    4  O   UNL     1     -11.079  15.701  71.682  1.00  0.00    -0.318 OA 
BRANCH   3   5
HETATM    5  C   UNL     1     -11.678  14.684  69.592  1.00  0.00    -0.358 C  
HETATM    6  C   UNL     1     -12.064  13.387  69.505  1.00  0.00    -0.278 C  
HETATM    7  N   UNL     1     -12.031  12.739  68.288  1.00  0.00    -0.293 NA 
HETATM    8  C   UNL     1     -12.521  12.514  70.651  1.00  0.00    -0.323 C  
HETATM    9  C   UNL     1     -11.584  13.285  67.104  1.00  0.00    -0.357 C  
HETATM   10  C   UNL     1     -11.679  12.371  65.902  1.00  0.00    -0.476 C  
HETATM   11  C   UNL     1     -11.095  14.550  67.082  1.00  0.00    -0.325 C  
HETATM   12  C   UNL     1     -11.088  15.424  68.365  1.00  0.00    -0.301 C  
BRANCH  11  13
HETATM   13  C   UNL     1     -10.436  15.026  65.834  1.00  0.00    -0.328 C  
HETATM   14  O   UNL     1      -9.323  14.667  65.474  1.00  0.00    -0.093 OA 
BRANCH  13  15
HETATM   15  O   UNL     1     -11.194  15.931  65.176  1.00  0.00    -0.308 OA 
HETATM   16  C   UNL     1     -11.987  15.398  64.103  1.00  0.00    -0.097 C  
ENDBRANCH  13  15
ENDBRANCH  11  13
BRANCH  12  17
HETATM   17  C   UNL     1      -9.668  15.945  68.645  1.00  0.00    -0.207 A  
HETATM   18  O   UNL     1     -10.942  18.334  67.334  1.00  0.00    -0.328 OA 
HETATM   19  O   UNL     1     -10.209  19.314  69.155  1.00  0.00    -0.340 OA 
HETATM   20  C   UNL     1      -8.681  15.016  69.040  1.00  0.00    -0.203 A  
HETATM   21  C   UNL     1      -7.362  15.410  69.283  1.00  0.00    -0.197 A  
HETATM   22  C   UNL     1      -6.982  16.738  69.122  1.00  0.00    -0.231 A  
HETATM   23  C   UNL     1      -7.933  17.689  68.763  1.00  0.00    -0.244 A  
HETATM   24  C   UNL     1      -9.267  17.299  68.552  1.00  0.00    -0.273 A  
HETATM   25  N   UNL     1     -10.215  18.383  68.336  1.00  0.00    -0.384 N  
ENDBRANCH  12  17
ENDBRANCH   3   5
ENDBRANCH   2   3
TORSDOF 5
ENDMDL
MODEL        2
REMARK 921   NORMALIZED FREE ENERGY PREDICTED BY IDOCK:   -5.94 KCAL/MOL
REMARK 922        TOTAL FREE ENERGY PREDICTED BY IDOCK:   -8.90 KCAL/MOL
REMARK 923 INTER-LIGAND FREE ENERGY PREDICTED BY IDOCK:   -7.99 KCAL/MOL
REMARK 924 INTRA-LIGAND FREE ENERGY PREDICTED BY IDOCK:   -0.90 KCAL/MOL
REMARK 927      BINDING AFFINITY PREDICTED BY RF-SCORE:    0.00 PKD
ROOT
HETATM    1  C   UNL     1     -10.103   9.857  69.774  1.00  0.00    -0.242 C  
HETATM    2  O   UNL     1     -10.085  11.239  69.407  1.00  0.00    -0.073 OA 
ENDROOT
BRANCH   2   3
HETATM    3  C   UNL     1     -11.227  11.696  68.845  1.00  0.00    -0.246 C  
HETATM    4  O   UNL     1     -12.199  11.007  68.575  1.00  0.00    -0.582 OA 
BRANCH   3   5
HETATM    5  C   UNL     1     -11.134  13.158  68.578  1.00  0.00    -0.296 C  
HETATM    6  C   UNL     1     -11.669  14.019  69.478  1.00  0.00    -0.313 C  
HETATM    7  N   UNL     1     -11.419  15.372  69.371  1.00  0.00    -0.300 NA 
HETATM    8  C   UNL     1     -12.580  13.655  70.628  1.00  0.00    -0.366 C  
HETATM    9  C   UNL     1     -10.684  15.971  68.370  1.00  0.00    -0.289 C  
HETATM   10  C   UNL     1     -10.535  17.471  68.498  1.00  0.00    -0.361 C  
HETATM   11  C   UNL     1     -10.167  15.220  67.366  1.00  0.00    -0.243 C  
HETATM   12  C   UNL     1     -10.336  13.677  67.356  1.00  0.00    -0.244 C  
BRANCH  11  13
HETATM   13  C   UNL     1      -9.559  15.926  66.204  1.00  0.00    -0.333 C  
HETATM   14  O   UNL     1     -10.211  16.468  65.322  1.00  0.00    -0.588 OA 
BRANCH  13  15
HETATM   15  O   UNL     1      -8.209  15.857  66.220  1.00  0.00    -0.274 OA 
HETATM   16  C   UNL     1      -7.535  17.119  66.356  1.00  0.00    -0.306 C  
ENDBRANCH  13  15
ENDBRANCH  11  13
BRANCH  12  17
HETATM   17  C   UNL     1     -10.968  13.222  66.029  1.00  0.00    -0.292 A  
HETATM   18  O   UNL     1      -8.492  11.516  66.137  1.00  0.00    -0.154 OA 
HETATM   19  O   UNL     1      -9.971   9.924  65.834  1.00  0.00    -0.261 OA 
HETATM   20  C   UNL     1     -12.037  13.979  65.504  1.00  0.00    -0.423 A  
HETATM   21  C   UNL     1     -12.642  13.644  64.289  1.00  0.00    -0.195 A  
HETATM   22  C   UNL     1     -12.189  12.554  63.552  1.00  0.00    -0.652 A  
HETATM   23  C   UNL     1     -11.158  11.765  64.052  1.00  0.00    -0.461 A  
HETATM   24  C   UNL     1     -10.572  12.082  65.290  1.00  0.00    -0.287 A  
HETATM   25  N   UNL     1      -9.614  11.111  65.801  1.00  0.00    -0.212 N  
ENDBRANCH  12  17
ENDBRANCH   3   5
ENDBRANCH   2   3
TORSDOF 5
ENDMDL
MODEL        3
REMARK 921   NORMALIZED FREE ENERGY PREDICTED BY IDOCK:   -5.82 KCAL/MOL
REMARK 922        TOTAL FREE ENERGY PREDICTED BY IDOCK:   -8.75 KCAL/MOL
REMARK 923 INTER-LIGAND FREE ENERGY PREDICTED BY IDOCK:   -7.50 KCAL/MOL
REMARK 924 INTRA-LIGAND FREE ENERGY PREDICTED BY IDOCK:   -1.24 KCAL/MOL
REMARK 927      BINDING AFFINITY PREDICTED BY RF-SCORE:    0.00 PKD
ROOT
HETATM    1  C   UNL     1     -11.245  15.946  64.660  1.00  0.00    -0.351 C  
HETATM    2  O   UNL     1     -12.091  14.928  64.119  1.00  0.00    -0.502 OA 
ENDROOT
BRANCH   2   3
HETATM    3  C   UNL     1     -12.507  13.998  65.008  1.00  0.00    -0.425 C  
HETATM    4  O   UNL     1     -13.534  14.067  65.665  1.00  0.00    -0.604 OA 
BRANCH   3   5
HETATM    5  C   UNL     1     -11.528  12.878  65.094  1.00  0.00    -0.348 C  
HETATM    6  C   UNL     1     -11.546  11.923  64.133  1.00  0.00    -0.351 C  
HETATM    7  N   UNL     1     -10.527  10.995  64.065  1.00  0.00    -0.371 NA 
HETATM    8  C   UNL     1     -12.622  11.726  63.091  1.00  0.00    -0.247 C  
HETATM    9  C   UNL     1      -9.467  10.908  64.942  1.00  0.00    -0.235 C  
HETATM   10  C   UNL     1      -8.468   9.815  64.629  1.00  0.00    -0.179 C  
HETATM   11  C   UNL     1      -9.385  11.759  65.994  1.00  0.00    -0.231 C  
HETATM   12  C   UNL     1     -10.439  12.880  66.197  1.00  0.00    -0.283 C  
BRANCH  11  13
HETATM   13  C   UNL     1      -8.343  11.500  67.026  1.00  0.00    -0.165 C  
HETATM   14  O   UNL     1      -8.343  10.522  67.761  1.00  0.00    -0.111 OA 
BRANCH  13  15
HETATM   15  O   UNL     1      -7.428  12.494  67.081  1.00  0.00    -0.143 OA 
HETATM   16  C   UNL     1      -7.116  12.963  68.403  1.00  0.00    -0.099 C  
ENDBRANCH  13  15
ENDBRANCH  11  13
BRANCH  12  17
HETATM   17  C   UNL     1     -11.055  12.782  67.603  1.00  0.00    -0.294 A  
HETATM   18  O   UNL     1      -9.662  15.446  67.736  1.00  0.00    -0.211 OA 
HETATM   19  O   UNL     1     -11.661  16.091  68.372  1.00  0.00    -0.364 OA 
HETATM   20  C   UNL     1     -11.592  11.542  68.013  1.00  0.00    -0.370 A  
HETATM   21  C   UNL     1     -12.141  11.369  69.286  1.00  0.00    -0.356 A  
HETATM   22  C   UNL     1     -12.156  12.421  70.197  1.00  0.00    -0.366 A  
HETATM   23  C   UNL     1     -11.664  13.666  69.820  1.00  0.00    -0.364 A  
HETATM   24  C   UNL     1     -11.143  13.850  68.527  1.00  0.00    -0.265 A  
HETATM   25  N   UNL     1     -10.799  15.221  68.175  1.00  0.00    -0.264 N  
ENDBRANCH  12  17
ENDBRANCH   3   5
ENDBRANCH   2   3
TORSDOF 5
ENDMDL
MODEL        4
REMARK 921   NORMALIZED FREE ENERGY PREDICTED BY IDOCK:   -5.82 KCAL/MOL
REMARK 922        TOTAL FREE ENERGY PREDICTED BY IDOCK:   -8.74 KCAL/MOL
REMARK 923 INTER-LIGAND FREE ENERGY PREDICTED BY IDOCK:   -7.51 KCAL/MOL
REMARK 924 INTRA-LIGAND FREE ENERGY PREDICTED BY IDOCK:   -1.23 KCAL/MOL
REMARK 927      BINDING AFFINITY PREDICTED BY RF-SCORE:    0.00 PKD
ROOT
HETATM    1  C   UNL     1      -6.958  11.728  67.413  1.00  0.00    -0.121 C  
HETATM    2  O   UNL     1      -6.976  13.119  67.080  1.00  0.00    -0.079 OA 
ENDROOT
BRANCH   2   3
HETATM    3  C   UNL     1      -7.800  13.877  67.839  1.00  0.00    -0.161 C  
HETATM    4  O   UNL     1      -7.647  14.100  69.030  1.00  0.00    -0.120 OA 
BRANCH   3   5
HETATM    5  C   UNL     1      -8.939  14.390  67.028  1.00  0.00    -0.257 C  
HETATM    6  C   UNL     1      -8.813  15.596  66.419  1.00  0.00    -0.330 C  
HETATM    7  N   UNL     1      -9.755  16.004  65.497  1.00  0.00    -0.443 NA 
HETATM    8  C   UNL     1      -7.722  16.611  66.669  1.00  0.00    -0.316 C  
HETATM    9  C   UNL     1     -10.887  15.299  65.147  1.00  0.00    -0.426 C  
HETATM   10  C   UNL     1     -11.745  15.955  64.088  1.00  0.00    -0.028 C  
HETATM   11  C   UNL     1     -11.163  14.116  65.750  1.00  0.00    -0.312 C  
HETATM   12  C   UNL     1     -10.188  13.505  66.791  1.00  0.00    -0.264 C  
BRANCH  11  13
HETATM   13  C   UNL     1     -12.491  13.492  65.493  1.00  0.00    -0.491 C  
HETATM   14  O   UNL     1     -13.556  14.075  65.646  1.00  0.00    -0.499 OA 
BRANCH  13  15
HETATM   15  O   UNL     1     -12.378  12.199  65.118  1.00  0.00    -0.488 OA 
HETATM   16  C   UNL     1     -12.320  11.979  63.699  1.00  0.00    -0.539 C  
ENDBRANCH  13  15
ENDBRANCH  11  13
BRANCH  12  17
HETATM   17  C   UNL     1     -10.932  13.210  68.105  1.00  0.00    -0.275 A  
HETATM   18  O   UNL     1     -10.546  10.441  66.993  1.00  0.00    -0.243 OA 
HETATM   19  O   UNL     1      -9.676  10.118  68.982  1.00  0.00    -0.184 OA 
HETATM   20  C   UNL     1     -11.511  14.292  68.803  1.00  0.00    -0.327 A  
HETATM   21  C   UNL     1     -12.227  14.098  69.988  1.00  0.00    -0.418 A  
HETATM   22  C   UNL     1     -12.403  12.818  70.504  1.00  0.00    -0.355 A  
HETATM   23  C   UNL     1     -11.821  11.730  69.862  1.00  0.00    -0.423 A  
HETATM   24  C   UNL     1     -11.072  11.928  68.689  1.00  0.00    -0.246 A  
HETATM   25  N   UNL     1     -10.374  10.756  68.180  1.00  0.00    -0.164 N  
ENDBRANCH  12  17
ENDBRANCH   3   5
ENDBRANCH   2   3
TORSDOF 5
ENDMDL
MODEL        5
REMARK 921   NORMALIZED FREE ENERGY PREDICTED BY IDOCK:   -5.62 KCAL/MOL
REMARK 922        TOTAL FREE ENERGY PREDICTED BY IDOCK:   -8.48 KCAL/MOL
REMARK 923 INTER-LIGAND FREE ENERGY PREDICTED BY IDOCK:   -7.58 KCAL/MOL
REMARK 924 INTRA-LIGAND FREE ENERGY PREDICTED BY IDOCK:   -0.90 KCAL/MOL
REMARK 927      BINDING AFFINITY PREDICTED BY RF-SCORE:    0.00 PKD
ROOT
HETATM    1  C   UNL     1      -9.436   9.143  70.335  1.00  0.00    -0.227 C  
HETATM    2  O   UNL     1      -9.422  10.278  69.465  1.00  0.00    -0.214 OA 
ENDROOT
BRANCH   2   3
HETATM    3  C   UNL     1     -10.595  10.535  68.842  1.00  0.00    -0.216 C  
HETATM    4  O   UNL     1     -11.114   9.814  68.004  1.00  0.00    -0.222 OA 
BRANCH   3   5
HETATM    5  C   UNL     1     -11.162  11.832  69.302  1.00  0.00    -0.318 C  
HETATM    6  C   UNL     1     -12.051  11.828  70.326  1.00  0.00    -0.342 C  
HETATM    7  N   UNL     1     -12.433  13.017  70.912  1.00  0.00    -0.357 NA 
HETATM    8  C   UNL     1     -12.731  10.612  70.910  1.00  0.00    -0.498 C  
HETATM    9  C   UNL     1     -12.018  14.271  70.516  1.00  0.00    -0.331 C  
HETATM   10  C   UNL     1     -12.563  15.414  71.345  1.00  0.00    -0.471 C  
HETATM   11  C   UNL     1     -11.193  14.408  69.450  1.00  0.00    -0.317 C  
HETATM   12  C   UNL     1     -10.649  13.164  68.697  1.00  0.00    -0.259 C  
BRANCH  11  13
HETATM   13  C   UNL     1     -10.936  15.781  68.934  1.00  0.00    -0.283 C  
HETATM   14  O   UNL     1     -11.763  16.441  68.319  1.00  0.00    -0.176 OA 
BRANCH  13  15
HETATM   15  O   UNL     1      -9.672  16.188  69.185  1.00  0.00    -0.227 OA 
HETATM   16  C   UNL     1      -9.187  17.235  68.330  1.00  0.00    -0.265 C  
ENDBRANCH  13  15
ENDBRANCH  11  13
BRANCH  12  17
HETATM   17  C   UNL     1     -10.973  13.268  67.197  1.00  0.00    -0.288 A  
HETATM   18  O   UNL     1      -7.999  12.823  67.144  1.00  0.00    -0.167 OA 
HETATM   19  O   UNL     1      -8.594  11.206  65.786  1.00  0.00    -0.176 OA 
HETATM   20  C   UNL     1     -12.255  13.726  66.820  1.00  0.00    -0.440 A  
HETATM   21  C   UNL     1     -12.612  13.874  65.477  1.00  0.00    -0.560 A  
HETATM   22  C   UNL     1     -11.698  13.589  64.468  1.00  0.00    -0.431 A  
HETATM   23  C   UNL     1     -10.435  13.106  64.799  1.00  0.00    -0.390 A  
HETATM   24  C   UNL     1     -10.087  12.923  66.149  1.00  0.00    -0.276 A  
HETATM   25  N   UNL     1      -8.809  12.268  66.388  1.00  0.00    -0.130 N  
ENDBRANCH  12  17
ENDBRANCH   3   5
ENDBRANCH   2   3
TORSDOF 5
ENDMDL
MODEL        6
REMARK 921   NORMALIZED FREE ENERGY PREDICTED BY IDOCK:   -5.58 KCAL/MOL
REMARK 922        TOTAL FREE ENERGY PREDICTED BY IDOCK:   -8.43 KCAL/MOL
REMARK 923 INTER-LIGAND FREE ENERGY PREDICTED BY IDOCK:   -7.29 KCAL/MOL
REMARK 924 INTRA-LIGAND FREE ENERGY PREDICTED BY IDOCK:   -1.14 KCAL/MOL
REMARK 927      BINDING AFFINITY PREDICTED BY RF-SCORE:    0.00 PKD
ROOT
HETATM    1  C   UNL     1     -11.374  16.037  64.583  1.00  0.00    -0.306 C  
HETATM    2  O   UNL     1     -12.047  14.889  64.059  1.00  0.00    -0.513 OA 
ENDROOT
BRANCH   2   3
HETATM    3  C   UNL     1     -12.470  14.002  64.987  1.00  0.00    -0.425 C  
HETATM    4  O   UNL     1     -13.471  14.134  65.676  1.00  0.00    -0.576 OA 
BRANCH   3   5
HETATM    5  C   UNL     1     -11.537  12.845  65.074  1.00  0.00    -0.367 C  
HETATM    6  C   UNL     1     -11.599  11.886  64.118  1.00  0.00    -0.351 C  
HETATM    7  N   UNL     1     -10.619  10.917  64.049  1.00  0.00    -0.333 NA 
HETATM    8  C   UNL     1     -12.690  11.727  63.083  1.00  0.00    -0.179 C  
HETATM    9  C   UNL     1      -9.558  10.792  64.920  1.00  0.00    -0.256 C  
HETATM   10  C   UNL     1      -8.606   9.658  64.607  1.00  0.00    -0.201 C  
HETATM   11  C   UNL     1      -9.436  11.644  65.967  1.00  0.00    -0.246 C  
HETATM   12  C   UNL     1     -10.443  12.808  66.170  1.00  0.00    -0.284 C  
BRANCH  11  13
HETATM   13  C   UNL     1      -8.398  11.349  66.994  1.00  0.00    -0.161 C  
HETATM   14  O   UNL     1      -7.374  12.004  67.132  1.00  0.00    -0.140 OA 
BRANCH  13  15
HETATM   15  O   UNL     1      -8.702  10.250  67.720  1.00  0.00    -0.121 OA 
HETATM   16  C   UNL     1      -8.417  10.348  69.124  1.00  0.00    -0.164 C  
ENDBRANCH  13  15
ENDBRANCH  11  13
BRANCH  12  17
HETATM   17  C   UNL     1     -11.053  12.742  67.581  1.00  0.00    -0.294 A  
HETATM   18  O   UNL     1      -9.493  15.311  67.715  1.00  0.00    -0.196 OA 
HETATM   19  O   UNL     1     -11.441  16.079  68.369  1.00  0.00    -0.369 OA 
HETATM   20  C   UNL     1     -11.665  11.537  67.988  1.00  0.00    -0.343 A  
HETATM   21  C   UNL     1     -12.214  11.392  69.265  1.00  0.00    -0.271 A  
HETATM   22  C   UNL     1     -12.156  12.438  70.181  1.00  0.00    -0.366 A  
HETATM   23  C   UNL     1     -11.588  13.652  69.806  1.00  0.00    -0.322 A  
HETATM   24  C   UNL     1     -11.066  13.809  68.510  1.00  0.00    -0.267 A  
HETATM   25  N   UNL     1     -10.639  15.157  68.161  1.00  0.00    -0.241 N  
ENDBRANCH  12  17
ENDBRANCH   3   5
ENDBRANCH   2   3
TORSDOF 5
ENDMDL
MODEL        7
REMARK 921   NORMALIZED FREE ENERGY PREDICTED BY IDOCK:   -5.54 KCAL/MOL
REMARK 922        TOTAL FREE ENERGY PREDICTED BY IDOCK:   -8.37 KCAL/MOL
REMARK 923 INTER-LIGAND FREE ENERGY PREDICTED BY IDOCK:   -7.12 KCAL/MOL
REMARK 924 INTRA-LIGAND FREE ENERGY PREDICTED BY IDOCK:   -1.25 KCAL/MOL
REMARK 927      BINDING AFFINITY PREDICTED BY RF-SCORE:    0.00 PKD
ROOT
HETATM    1  C   UNL     1      -8.908  10.819  66.381  1.00  0.00    -0.165 C  
HETATM    2  O   UNL     1      -7.812  11.691  66.675  1.00  0.00    -0.149 OA 
ENDROOT
BRANCH   2   3
HETATM    3  C   UNL     1      -7.952  12.425  67.801  1.00  0.00    -0.156 C  
HETATM    4  O   UNL     1      -8.130  11.965  68.919  1.00  0.00    -0.064 OA 
BRANCH   3   5
HETATM    5  C   UNL     1      -7.879  13.880  67.494  1.00  0.00    -0.193 C  
HETATM    6  C   UNL     1      -6.666  14.485  67.494  1.00  0.00    -0.116 C  
HETATM    7  N   UNL     1      -6.537  15.772  67.012  1.00  0.00    -0.285 NA 
HETATM    8  C   UNL     1      -5.376  13.897  68.016  1.00  0.00    -0.106 C  
HETATM    9  C   UNL     1      -7.571  16.558  66.549  1.00  0.00    -0.269 C  
HETATM   10  C   UNL     1      -7.159  17.924  66.048  1.00  0.00    -0.340 C  
HETATM   11  C   UNL     1      -8.844  16.090  66.577  1.00  0.00    -0.340 C  
HETATM   12  C   UNL     1      -9.154  14.650  67.066  1.00  0.00    -0.254 C  
BRANCH  11  13
HETATM   13  C   UNL     1      -9.947  17.041  66.263  1.00  0.00    -0.310 C  
HETATM   14  O   UNL     1     -10.562  17.040  65.205  1.00  0.00    -0.688 OA 
BRANCH  13  15
HETATM   15  O   UNL     1     -10.153  17.926  67.263  1.00  0.00    -0.316 OA 
HETATM   16  C   UNL     1     -10.734  19.176  66.861  1.00  0.00    -0.424 C  
ENDBRANCH  13  15
ENDBRANCH  11  13
BRANCH  12  17
HETATM   17  C   UNL     1     -10.201  14.686  68.192  1.00  0.00    -0.231 A  
HETATM   18  O   UNL     1     -11.818  13.608  65.896  1.00  0.00    -0.344 OA 
HETATM   19  O   UNL     1     -12.258  12.041  67.368  1.00  0.00    -0.491 OA 
HETATM   20  C   UNL     1      -9.878  15.373  69.383  1.00  0.00    -0.273 A  
HETATM   21  C   UNL     1     -10.789  15.473  70.438  1.00  0.00    -0.356 A  
HETATM   22  C   UNL     1     -12.056  14.907  70.333  1.00  0.00    -0.386 A  
HETATM   23  C   UNL     1     -12.400  14.196  69.187  1.00  0.00    -0.173 A  
HETATM   24  C   UNL     1     -11.471  14.066  68.140  1.00  0.00    -0.309 A  
HETATM   25  N   UNL     1     -11.864  13.175  67.057  1.00  0.00    -0.379 N  
ENDBRANCH  12  17
ENDBRANCH   3   5
ENDBRANCH   2   3
TORSDOF 5
ENDMDL
MODEL        8
REMARK 921   NORMALIZED FREE ENERGY PREDICTED BY IDOCK:   -5.47 KCAL/MOL
REMARK 922        TOTAL FREE ENERGY PREDICTED BY IDOCK:   -8.29 KCAL/MOL
REMARK 923 INTER-LIGAND FREE ENERGY PREDICTED BY IDOCK:   -7.05 KCAL/MOL
REMARK 924 INTRA-LIGAND FREE ENERGY PREDICTED BY IDOCK:   -1.24 KCAL/MOL
REMARK 927      BINDING AFFINITY PREDICTED BY RF-SCORE:    0.00 PKD
ROOT
HETATM    1  C   UNL     1      -8.314   9.706  69.616  1.00  0.00    -0.168 C  
HETATM    2  O   UNL     1      -9.664   9.762  70.088  1.00  0.00    -0.242 OA 
ENDROOT
BRANCH   2   3
HETATM    3  C   UNL     1     -10.587  10.055  69.144  1.00  0.00    -0.218 C  
HETATM    4  O   UNL     1     -10.996   9.273  68.298  1.00  0.00    -0.128 OA 
BRANCH   3   5
HETATM    5  C   UNL     1     -11.027  11.472  69.260  1.00  0.00    -0.261 C  
HETATM    6  C   UNL     1     -11.952  11.791  70.199  1.00  0.00    -0.339 C  
HETATM    7  N   UNL     1     -12.225  13.115  70.475  1.00  0.00    -0.361 NA 
HETATM    8  C   UNL     1     -12.784  10.816  70.999  1.00  0.00    -0.513 C  
HETATM    9  C   UNL     1     -11.661  14.198  69.833  1.00  0.00    -0.309 C  
HETATM   10  C   UNL     1     -12.111  15.548  70.345  1.00  0.00    -0.426 C  
HETATM   11  C   UNL     1     -10.783  14.002  68.819  1.00  0.00    -0.272 C  
HETATM   12  C   UNL     1     -10.349  12.571  68.404  1.00  0.00    -0.237 C  
BRANCH  11  13
HETATM   13  C   UNL     1     -10.358  15.187  68.022  1.00  0.00    -0.240 C  
HETATM   14  O   UNL     1     -11.112  15.827  67.302  1.00  0.00    -0.302 OA 
BRANCH  13  15
HETATM   15  O   UNL     1      -9.037  15.439  68.157  1.00  0.00    -0.180 OA 
HETATM   16  C   UNL     1      -8.688  16.829  68.254  1.00  0.00    -0.227 C  
ENDBRANCH  13  15
ENDBRANCH  11  13
BRANCH  12  17
HETATM   17  C   UNL     1     -10.599  12.355  66.901  1.00  0.00    -0.251 A  
HETATM   18  O   UNL     1      -7.602  12.148  67.053  1.00  0.00    -0.148 OA 
HETATM   19  O   UNL     1      -8.007  10.255  66.020  1.00  0.00    -0.126 OA 
HETATM   20  C   UNL     1     -11.888  12.627  66.393  1.00  0.00    -0.466 A  
HETATM   21  C   UNL     1     -12.181  12.483  65.034  1.00  0.00    -0.519 A  
HETATM   22  C   UNL     1     -11.197  12.080  64.137  1.00  0.00    -0.441 A  
HETATM   23  C   UNL     1      -9.922  11.774  64.606  1.00  0.00    -0.275 A  
HETATM   24  C   UNL     1      -9.636  11.885  65.977  1.00  0.00    -0.235 A  
HETATM   25  N   UNL     1      -8.329  11.394  66.391  1.00  0.00    -0.163 N  
ENDBRANCH  12  17
ENDBRANCH   3   5
ENDBRANCH   2   3
TORSDOF 5
ENDMDL
MODEL        9
REMARK 921   NORMALIZED FREE ENERGY PREDICTED BY IDOCK:   -5.47 KCAL/MOL
REMARK 922        TOTAL FREE ENERGY PREDICTED BY IDOCK:   -8.29 KCAL/MOL
REMARK 923 INTER-LIGAND FREE ENERGY PREDICTED BY IDOCK:   -6.90 KCAL/MOL
REMARK 924 INTRA-LIGAND FREE ENERGY PREDICTED BY IDOCK:   -1.38 KCAL/MOL
REMARK 927      BINDING AFFINITY PREDICTED BY RF-SCORE:    0.00 PKD
ROOT
HETATM    1  C   UNL     1     -12.862  13.608  65.543  1.00  0.00    -0.392 C  
HETATM    2  O   UNL     1     -12.079  12.420  65.692  1.00  0.00    -0.529 OA 
ENDROOT
BRANCH   2   3
HETATM    3  C   UNL     1     -10.889  12.436  65.049  1.00  0.00    -0.295 C  
HETATM    4  O   UNL     1     -10.748  12.559  63.841  1.00  0.00    -0.377 OA 
BRANCH   3   5
HETATM    5  C   UNL     1      -9.768  12.262  66.012  1.00  0.00    -0.254 C  
HETATM    6  C   UNL     1      -9.336  11.007  66.288  1.00  0.00    -0.183 C  
HETATM    7  N   UNL     1      -8.172  10.822  67.006  1.00  0.00    -0.123 NA 
HETATM    8  C   UNL     1     -10.032   9.721  65.908  1.00  0.00    -0.345 C  
HETATM    9  C   UNL     1      -7.391  11.827  67.535  1.00  0.00    -0.127 C  
HETATM   10  C   UNL     1      -6.148  11.356  68.258  1.00  0.00    -0.045 C  
HETATM   11  C   UNL     1      -7.766  13.122  67.395  1.00  0.00    -0.151 C  
HETATM   12  C   UNL     1      -9.038  13.502  66.589  1.00  0.00    -0.182 C  
BRANCH  11  13
HETATM   13  C   UNL     1      -7.009  14.158  68.152  1.00  0.00    -0.126 C  
HETATM   14  O   UNL     1      -7.184  14.393  69.340  1.00  0.00    -0.134 OA 
BRANCH  13  15
HETATM   15  O   UNL     1      -6.144  14.831  67.361  1.00  0.00    -0.338 OA 
HETATM   16  C   UNL     1      -5.898  16.192  67.748  1.00  0.00    -0.138 C  
ENDBRANCH  13  15
ENDBRANCH  11  13
BRANCH  12  17
HETATM   17  C   UNL     1      -9.976  14.363  67.452  1.00  0.00    -0.242 A  
HETATM   18  O   UNL     1      -8.678  16.442  65.707  1.00  0.00    -0.432 OA 
HETATM   19  O   UNL     1     -10.776  16.948  65.311  1.00  0.00    -0.599 OA 
HETATM   20  C   UNL     1     -10.586  13.765  68.576  1.00  0.00    -0.261 A  
HETATM   21  C   UNL     1     -11.427  14.493  69.423  1.00  0.00    -0.323 A  
HETATM   22  C   UNL     1     -11.671  15.842  69.187  1.00  0.00    -0.398 A  
HETATM   23  C   UNL     1     -11.112  16.458  68.071  1.00  0.00    -0.292 A  
HETATM   24  C   UNL     1     -10.294  15.718  67.200  1.00  0.00    -0.291 A  
HETATM   25  N   UNL     1      -9.886  16.406  65.982  1.00  0.00    -0.326 N  
ENDBRANCH  12  17
ENDBRANCH   3   5
ENDBRANCH   2   3
TORSDOF 5
ENDMDL
MODEL       10
REMARK 921   NORMALIZED FREE ENERGY PREDICTED BY IDOCK:   -5.34 KCAL/MOL
REMARK 922        TOTAL FREE ENERGY PREDICTED BY IDOCK:   -8.12 KCAL/MOL
REMARK 923 INTER-LIGAND FREE ENERGY PREDICTED BY IDOCK:   -6.83 KCAL/MOL
REMARK 924 INTRA-LIGAND FREE ENERGY PREDICTED BY IDOCK:   -1.29 KCAL/MOL
REMARK 927      BINDING AFFINITY PREDICTED BY RF-SCORE:    0.00 PKD
ROOT
HETATM    1  C   UNL     1     -11.010   9.282  70.730  1.00  0.00    -0.284 C  
HETATM    2  O   UNL     1     -11.140   9.862  69.428  1.00  0.00    -0.232 OA 
ENDROOT
BRANCH   2   3
HETATM    3  C   UNL     1     -10.000  10.380  68.917  1.00  0.00    -0.199 C  
HETATM    4  O   UNL     1      -8.933  10.444  69.509  1.00  0.00    -0.182 OA 
BRANCH   3   5
HETATM    5  C   UNL     1     -10.225  10.885  67.535  1.00  0.00    -0.224 C  
HETATM    6  C   UNL     1     -10.002  10.048  66.492  1.00  0.00    -0.225 C  
HETATM    7  N   UNL     1     -10.399  10.410  65.221  1.00  0.00    -0.255 NA 
HETATM    8  C   UNL     1      -9.307   8.708  66.557  1.00  0.00    -0.257 C  
HETATM    9  C   UNL     1     -10.984  11.610  64.879  1.00  0.00    -0.284 C  
HETATM   10  C   UNL     1     -11.350  11.748  63.417  1.00  0.00    -0.437 C  
HETATM   11  C   UNL     1     -11.183  12.562  65.824  1.00  0.00    -0.356 C  
HETATM   12  C   UNL     1     -10.817  12.299  67.309  1.00  0.00    -0.283 C  
BRANCH  11  13
HETATM   13  C   UNL     1     -11.626  13.912  65.377  1.00  0.00    -0.325 C  
HETATM   14  O   UNL     1     -12.800  14.251  65.303  1.00  0.00    -0.630 OA 
BRANCH  13  15
HETATM   15  O   UNL     1     -10.584  14.696  65.023  1.00  0.00    -0.390 OA 
HETATM   16  C   UNL     1     -10.708  16.078  65.393  1.00  0.00    -0.383 C  
ENDBRANCH  13  15
ENDBRANCH  11  13
BRANCH  12  17
HETATM   17  C   UNL     1      -9.872  13.399  67.825  1.00  0.00    -0.234 A  
HETATM   18  O   UNL     1     -12.535  14.360  68.844  1.00  0.00    -0.146 OA 
HETATM   19  O   UNL     1     -11.429  14.396  70.739  1.00  0.00    -0.221 OA 
HETATM   20  C   UNL     1      -8.549  13.428  67.334  1.00  0.00    -0.204 A  
HETATM   21  C   UNL     1      -7.643  14.414  67.734  1.00  0.00    -0.175 A  
HETATM   22  C   UNL     1      -8.032  15.412  68.622  1.00  0.00    -0.149 A  
HETATM   23  C   UNL     1      -9.319  15.399  69.152  1.00  0.00    -0.246 A  
HETATM   24  C   UNL     1     -10.220  14.387  68.776  1.00  0.00    -0.239 A  
HETATM   25  N   UNL     1     -11.483  14.367  69.500  1.00  0.00    -0.274 N  
ENDBRANCH  12  17
ENDBRANCH   3   5
ENDBRANCH   2   3
TORSDOF 5
ENDMDL
MODEL       11
REMARK 921   NORMALIZED FREE ENERGY PREDICTED BY IDOCK:   -5.25 KCAL/MOL
REMARK 922        TOTAL FREE ENERGY PREDICTED BY IDOCK:   -8.01 KCAL/MOL
REMARK 923 INTER-LIGAND FREE ENERGY PREDICTED BY IDOCK:   -6.70 KCAL/MOL
REMARK 924 INTRA-LIGAND FREE ENERGY PREDICTED BY IDOCK:   -1.31 KCAL/MOL
REMARK 927      BINDING AFFINITY PREDICTED BY RF-SCORE:    0.00 PKD
ROOT
HETATM    1  C   UNL     1      -8.015  11.933  68.182  1.00  0.00    -0.151 C  
HETATM    2  O   UNL     1      -7.373  13.038  68.824  1.00  0.00    -0.105 OA 
ENDROOT
BRANCH   2   3
HETATM    3  C   UNL     1      -6.741  13.895  67.991  1.00  0.00    -0.144 C  
HETATM    4  O   UNL     1      -5.953  13.568  67.116  1.00  0.00    -0.264 OA 
BRANCH   3   5
HETATM    5  C   UNL     1      -7.119  15.302  68.297  1.00  0.00    -0.117 C  
HETATM    6  C   UNL     1      -6.330  16.021  69.132  1.00  0.00    -0.151 C  
HETATM    7  N   UNL     1      -6.531  17.379  69.271  1.00  0.00    -0.239 NA 
HETATM    8  C   UNL     1      -5.218  15.476  69.998  1.00  0.00    -0.112 C  
HETATM    9  C   UNL     1      -7.526  18.107  68.653  1.00  0.00    -0.290 C  
HETATM   10  C   UNL     1      -7.510  19.590  68.951  1.00  0.00    -0.392 C  
HETATM   11  C   UNL     1      -8.428  17.482  67.857  1.00  0.00    -0.230 C  
HETATM   12  C   UNL     1      -8.324  15.959  67.576  1.00  0.00    -0.180 C  
BRANCH  11  13
HETATM   13  C   UNL     1      -9.600  18.265  67.377  1.00  0.00    -0.283 C  
HETATM   14  O   UNL     1     -10.644  18.379  68.005  1.00  0.00    -0.381 OA 
BRANCH  13  15
HETATM   15  O   UNL     1      -9.388  18.794  66.151  1.00  0.00    -0.433 OA 
HETATM   16  C   UNL     1     -10.109  20.005  65.876  1.00  0.00    -0.393 C  
ENDBRANCH  13  15
ENDBRANCH  11  13
BRANCH  12  17
HETATM   17  C   UNL     1      -9.648  15.261  67.933  1.00  0.00    -0.199 A  
HETATM   18  O   UNL     1      -9.962  15.678  64.970  1.00  0.00    -0.362 OA 
HETATM   19  O   UNL     1     -10.365  13.522  65.040  1.00  0.00    -0.343 OA 
HETATM   20  C   UNL     1      -9.983  15.121  69.297  1.00  0.00    -0.243 A  
HETATM   21  C   UNL     1     -11.182  14.525  69.697  1.00  0.00    -0.292 A  
HETATM   22  C   UNL     1     -12.093  14.067  68.751  1.00  0.00    -0.338 A  
HETATM   23  C   UNL     1     -11.785  14.160  67.396  1.00  0.00    -0.422 A  
HETATM   24  C   UNL     1     -10.563  14.728  66.995  1.00  0.00    -0.290 A  
HETATM   25  N   UNL     1     -10.263  14.638  65.572  1.00  0.00    -0.346 N  
ENDBRANCH  12  17
ENDBRANCH   3   5
ENDBRANCH   2   3
TORSDOF 5
ENDMDL
MODEL       12
REMARK 921   NORMALIZED FREE ENERGY PREDICTED BY IDOCK:   -5.20 KCAL/MOL
REMARK 922        TOTAL FREE ENERGY PREDICTED BY IDOCK:   -7.94 KCAL/MOL
REMARK 923 INTER-LIGAND FREE ENERGY PREDICTED BY IDOCK:   -6.63 KCAL/MOL
REMARK 924 INTRA-LIGAND FREE ENERGY PREDICTED BY IDOCK:   -1.31 KCAL/MOL
REMARK 927      BINDING AFFINITY PREDICTED BY RF-SCORE:    0.00 PKD
ROOT
HETATM    1  C   UNL     1     -11.968  12.856  66.153  1.00  0.00    -0.429 C  
HETATM    2  O   UNL     1     -12.000  11.866  67.185  1.00  0.00    -0.611 OA 
ENDROOT
BRANCH   2   3
HETATM    3  C   UNL     1     -11.092  12.041  68.172  1.00  0.00    -0.245 C  
HETATM    4  O   UNL     1     -10.127  12.787  68.111  1.00  0.00    -0.226 OA 
BRANCH   3   5
HETATM    5  C   UNL     1     -11.417  11.181  69.344  1.00  0.00    -0.368 C  
HETATM    6  C   UNL     1     -12.051  11.739  70.405  1.00  0.00    -0.352 C  
HETATM    7  N   UNL     1     -12.551  10.935  71.409  1.00  0.00    -0.402 NA 
HETATM    8  C   UNL     1     -12.257  13.216  70.644  1.00  0.00    -0.402 C  
HETATM    9  C   UNL     1     -12.427   9.563  71.470  1.00  0.00    -0.376 C  
HETATM   10  C   UNL     1     -13.091   8.916  72.665  1.00  0.00    -0.349 C  
HETATM   11  C   UNL     1     -11.741   8.901  70.507  1.00  0.00    -0.137 C  
HETATM   12  C   UNL     1     -11.140   9.657  69.292  1.00  0.00    -0.149 C  
BRANCH  11  13
HETATM   13  C   UNL     1     -11.458   7.454  70.717  1.00  0.00    -0.288 C  
HETATM   14  O   UNL     1     -12.032   6.555  70.116  1.00  0.00    -0.383 OA 
BRANCH  13  15
HETATM   15  O   UNL     1     -10.529   7.254  71.679  1.00  0.00    -0.199 OA 
HETATM   16  C   UNL     1      -9.493   6.318  71.341  1.00  0.00    -0.156 C  
ENDBRANCH  13  15
ENDBRANCH  11  13
BRANCH  12  17
HETATM   17  C   UNL     1      -9.636   9.357  69.172  1.00  0.00    -0.163 A  
HETATM   18  O   UNL     1     -10.783   7.560  67.049  1.00  0.00    -0.346 OA 
HETATM   19  O   UNL     1      -9.301   8.611  65.820  1.00  0.00    -0.214 OA 
HETATM   20  C   UNL     1      -8.776   9.836  70.184  1.00  0.00    -0.215 A  
HETATM   21  C   UNL     1      -7.402   9.578  70.158  1.00  0.00    -0.124 A  
HETATM   22  C   UNL     1      -6.846   8.820  69.133  1.00  0.00    -0.055 A  
HETATM   23  C   UNL     1      -7.656   8.356  68.101  1.00  0.00    -0.098 A  
HETATM   24  C   UNL     1      -9.032   8.645  68.108  1.00  0.00    -0.141 A  
HETATM   25  N   UNL     1      -9.765   8.254  66.912  1.00  0.00    -0.204 N  
ENDBRANCH  12  17
ENDBRANCH   3   5
ENDBRANCH   2   3
TORSDOF 5
ENDMDL
MODEL       13
REMARK 921   NORMALIZED FREE ENERGY PREDICTED BY IDOCK:   -5.20 KCAL/MOL
REMARK 922        TOTAL FREE ENERGY PREDICTED BY IDOCK:   -7.94 KCAL/MOL
REMARK 923 INTER-LIGAND FREE ENERGY PREDICTED BY IDOCK:   -6.63 KCAL/MOL
REMARK 924 INTRA-LIGAND FREE ENERGY PREDICTED BY IDOCK:   -1.31 KCAL/MOL
REMARK 927      BINDING AFFINITY PREDICTED BY RF-SCORE:    0.00 PKD
ROOT
HETATM    1  C   UNL     1      -6.905  11.921  69.457  1.00  0.00    -0.004 C  
HETATM    2  O   UNL     1      -7.422  13.174  68.998  1.00  0.00    -0.037 OA 
ENDROOT
BRANCH   2   3
HETATM    3  C   UNL     1      -7.138  13.472  67.710  1.00  0.00    -0.159 C  
HETATM    4  O   UNL     1      -6.096  13.188  67.139  1.00  0.00    -0.301 OA 
BRANCH   3   5
HETATM    5  C   UNL     1      -8.264  14.217  67.082  1.00  0.00    -0.184 C  
HETATM    6  C   UNL     1      -8.196  15.570  67.023  1.00  0.00    -0.240 C  
HETATM    7  N   UNL     1      -9.112  16.273  66.268  1.00  0.00    -0.304 NA 
HETATM    8  C   UNL     1      -7.203  16.446  67.750  1.00  0.00    -0.155 C  
HETATM    9  C   UNL     1     -10.165  15.720  65.570  1.00  0.00    -0.378 C  
HETATM   10  C   UNL     1     -11.008  16.709  64.797  1.00  0.00    -0.123 C  
HETATM   11  C   UNL     1     -10.384  14.383  65.621  1.00  0.00    -0.360 C  
HETATM   12  C   UNL     1      -9.426  13.447  66.406  1.00  0.00    -0.230 C  
BRANCH  11  13
HETATM   13  C   UNL     1     -11.643  13.855  65.025  1.00  0.00    -0.345 C  
HETATM   14  O   UNL     1     -12.730  13.899  65.586  1.00  0.00    -0.521 OA 
BRANCH  13  15
HETATM   15  O   UNL     1     -11.432  13.286  63.817  1.00  0.00    -0.390 OA 
HETATM   16  C   UNL     1     -12.261  12.150  63.525  1.00  0.00    -0.567 C  
ENDBRANCH  13  15
ENDBRANCH  11  13
BRANCH  12  17
HETATM   17  C   UNL     1     -10.219  12.608  67.423  1.00  0.00    -0.219 A  
HETATM   18  O   UNL     1      -9.568  10.556  65.323  1.00  0.00    -0.209 OA 
HETATM   19  O   UNL     1      -8.791   9.487  67.074  1.00  0.00    -0.127 OA 
HETATM   20  C   UNL     1     -10.915  13.284  68.449  1.00  0.00    -0.289 A  
HETATM   21  C   UNL     1     -11.680  12.592  69.391  1.00  0.00    -0.383 A  
HETATM   22  C   UNL     1     -11.791  11.206  69.331  1.00  0.00    -0.415 A  
HETATM   23  C   UNL     1     -11.095  10.502  68.352  1.00  0.00    -0.335 A  
HETATM   24  C   UNL     1     -10.297  11.195  67.426  1.00  0.00    -0.196 A  
HETATM   25  N   UNL     1      -9.487  10.365  66.545  1.00  0.00    -0.163 N  
ENDBRANCH  12  17
ENDBRANCH   3   5
ENDBRANCH   2   3
TORSDOF 5
ENDMDL
MODEL       14
REMARK 921   NORMALIZED FREE ENERGY PREDICTED BY IDOCK:   -5.18 KCAL/MOL
REMARK 922        TOTAL FREE ENERGY PREDICTED BY IDOCK:   -7.91 KCAL/MOL
REMARK 923 INTER-LIGAND FREE ENERGY PREDICTED BY IDOCK:   -6.95 KCAL/MOL
REMARK 924 INTRA-LIGAND FREE ENERGY PREDICTED BY IDOCK:   -0.96 KCAL/MOL
REMARK 927      BINDING AFFINITY PREDICTED BY RF-SCORE:    0.00 PKD
ROOT
HETATM    1  C   UNL     1     -12.193  12.077  63.846  1.00  0.00    -0.453 C  
HETATM    2  O   UNL     1     -11.802  12.504  65.154  1.00  0.00    -0.366 OA 
ENDROOT
BRANCH   2   3
HETATM    3  C   UNL     1     -12.445  13.601  65.613  1.00  0.00    -0.496 C  
HETATM    4  O   UNL     1     -13.648  13.796  65.525  1.00  0.00    -0.511 OA 
BRANCH   3   5
HETATM    5  C   UNL     1     -11.482  14.557  66.227  1.00  0.00    -0.358 C  
HETATM    6  C   UNL     1     -11.144  15.673  65.536  1.00  0.00    -0.226 C  
HETATM    7  N   UNL     1     -10.426  16.676  66.155  1.00  0.00    -0.311 NA 
HETATM    8  C   UNL     1     -11.449  15.949  64.082  1.00  0.00    -0.058 C  
HETATM    9  C   UNL     1      -9.957  16.639  67.451  1.00  0.00    -0.265 C  
HETATM   10  C   UNL     1      -9.220  17.882  67.899  1.00  0.00    -0.263 C  
HETATM   11  C   UNL     1     -10.163  15.538  68.215  1.00  0.00    -0.222 C  
HETATM   12  C   UNL     1     -10.978  14.333  67.675  1.00  0.00    -0.286 C  
BRANCH  11  13
HETATM   13  C   UNL     1      -9.468  15.457  69.530  1.00  0.00    -0.249 C  
HETATM   14  O   UNL     1      -8.253  15.527  69.661  1.00  0.00    -0.230 OA 
BRANCH  13  15
HETATM   15  O   UNL     1     -10.333  15.255  70.549  1.00  0.00    -0.199 OA 
HETATM   16  C   UNL     1     -11.365  16.245  70.678  1.00  0.00    -0.297 C  
ENDBRANCH  13  15
ENDBRANCH  11  13
BRANCH  12  17
HETATM   17  C   UNL     1     -10.155  13.039  67.795  1.00  0.00    -0.229 A  
HETATM   18  O   UNL     1     -12.132  12.708  70.037  1.00  0.00    -0.316 OA 
HETATM   19  O   UNL     1     -12.479  10.799  69.013  1.00  0.00    -0.379 OA 
HETATM   20  C   UNL     1      -8.956  12.938  67.055  1.00  0.00    -0.225 A  
HETATM   21  C   UNL     1      -8.141  11.806  67.136  1.00  0.00    -0.169 A  
HETATM   22  C   UNL     1      -8.485  10.746  67.970  1.00  0.00    -0.124 A  
HETATM   23  C   UNL     1      -9.674  10.795  68.691  1.00  0.00    -0.187 A  
HETATM   24  C   UNL     1     -10.511  11.919  68.583  1.00  0.00    -0.212 A  
HETATM   25  N   UNL     1     -11.802  11.810  69.249  1.00  0.00    -0.318 N  
ENDBRANCH  12  17
ENDBRANCH   3   5
ENDBRANCH   2   3
TORSDOF 5
ENDMDL
MODEL       15
REMARK 921   NORMALIZED FREE ENERGY PREDICTED BY IDOCK:   -5.18 KCAL/MOL
REMARK 922        TOTAL FREE ENERGY PREDICTED BY IDOCK:   -7.91 KCAL/MOL
REMARK 923 INTER-LIGAND FREE ENERGY PREDICTED BY IDOCK:   -6.63 KCAL/MOL
REMARK 924 INTRA-LIGAND FREE ENERGY PREDICTED BY IDOCK:   -1.28 KCAL/MOL
REMARK 927      BINDING AFFINITY PREDICTED BY RF-SCORE:    0.00 PKD
ROOT
HETATM    1  C   UNL     1      -6.842  11.912  67.632  1.00  0.00    -0.112 C  
HETATM    2  O   UNL     1      -7.868  11.271  68.395  1.00  0.00    -0.120 OA 
ENDROOT
BRANCH   2   3
HETATM    3  C   UNL     1      -9.054  11.137  67.759  1.00  0.00    -0.149 C  
HETATM    4  O   UNL     1      -9.197  10.684  66.634  1.00  0.00    -0.160 OA 
BRANCH   3   5
HETATM    5  C   UNL     1     -10.168  11.637  68.611  1.00  0.00    -0.215 C  
HETATM    6  C   UNL     1     -10.843  10.752  69.385  1.00  0.00    -0.244 C  
HETATM    7  N   UNL     1     -11.733  11.207  70.336  1.00  0.00    -0.329 NA 
HETATM    8  C   UNL     1     -10.754   9.245  69.303  1.00  0.00    -0.211 C  
HETATM    9  C   UNL     1     -12.055  12.529  70.561  1.00  0.00    -0.274 C  
HETATM   10  C   UNL     1     -13.041  12.763  71.684  1.00  0.00    -0.428 C  
HETATM   11  C   UNL     1     -11.505  13.500  69.792  1.00  0.00    -0.246 C  
HETATM   12  C   UNL     1     -10.462  13.156  68.695  1.00  0.00    -0.242 C  
BRANCH  11  13
HETATM   13  C   UNL     1     -12.032  14.887  69.932  1.00  0.00    -0.330 C  
HETATM   14  O   UNL     1     -13.027  15.296  69.350  1.00  0.00     0.262 OA 
BRANCH  13  15
HETATM   15  O   UNL     1     -11.256  15.644  70.739  1.00  0.00    -0.315 OA 
HETATM   16  C   UNL     1     -11.898  16.117  71.934  1.00  0.00    -0.525 C  
ENDBRANCH  13  15
ENDBRANCH  11  13
BRANCH  12  17
HETATM   17  C   UNL     1     -10.912  13.723  67.338  1.00  0.00    -0.296 A  
HETATM   18  O   UNL     1      -9.133  15.925  68.355  1.00  0.00    -0.181 OA 
HETATM   19  O   UNL     1      -8.191  15.624  66.397  1.00  0.00    -0.248 OA 
HETATM   20  C   UNL     1     -11.966  13.073  66.659  1.00  0.00    -0.453 A  
HETATM   21  C   UNL     1     -12.449  13.548  65.436  1.00  0.00    -0.540 A  
HETATM   22  C   UNL     1     -11.909  14.694  64.861  1.00  0.00    -0.403 A  
HETATM   23  C   UNL     1     -10.849  15.345  65.486  1.00  0.00    -0.384 A  
HETATM   24  C   UNL     1     -10.340  14.848  66.698  1.00  0.00    -0.283 A  
HETATM   25  N   UNL     1      -9.135  15.500  67.191  1.00  0.00    -0.208 N  
ENDBRANCH  12  17
ENDBRANCH   3   5
ENDBRANCH   2   3
TORSDOF 5
ENDMDL
MODEL       16
REMARK 921   NORMALIZED FREE ENERGY PREDICTED BY IDOCK:   -5.15 KCAL/MOL
REMARK 922        TOTAL FREE ENERGY PREDICTED BY IDOCK:   -7.87 KCAL/MOL
REMARK 923 INTER-LIGAND FREE ENERGY PREDICTED BY IDOCK:   -6.69 KCAL/MOL
REMARK 924 INTRA-LIGAND FREE ENERGY PREDICTED BY IDOCK:   -1.18 KCAL/MOL
REMARK 927      BINDING AFFINITY PREDICTED BY RF-SCORE:    0.00 PKD
ROOT
HETATM    1  C   UNL     1     -12.016  16.341  72.636  1.00  0.00    -0.546 C  
HETATM    2  O   UNL     1     -11.517  15.803  71.409  1.00  0.00    -0.377 OA 
ENDROOT
BRANCH   2   3
HETATM    3  C   UNL     1     -12.459  15.290  70.585  1.00  0.00    -0.406 C  
HETATM    4  O   UNL     1     -13.598  15.717  70.473  1.00  0.00    -0.351 OA 
BRANCH   3   5
HETATM    5  C   UNL     1     -11.925  14.114  69.842  1.00  0.00    -0.398 C  
HETATM    6  C   UNL     1     -12.204  12.871  70.306  1.00  0.00    -0.289 C  
HETATM    7  N   UNL     1     -11.908  11.766  69.535  1.00  0.00    -0.324 NA 
HETATM    8  C   UNL     1     -12.803  12.534  71.652  1.00  0.00    -0.368 C  
HETATM    9  C   UNL     1     -11.289  11.795  68.303  1.00  0.00    -0.282 C  
HETATM   10  C   UNL     1     -11.104  10.442  67.650  1.00  0.00    -0.361 C  
HETATM   11  C   UNL     1     -10.888  12.976  67.773  1.00  0.00    -0.257 C  
HETATM   12  C   UNL     1     -11.172  14.316  68.504  1.00  0.00    -0.289 C  
BRANCH  11  13
HETATM   13  C   UNL     1     -10.046  12.944  66.545  1.00  0.00    -0.261 C  
HETATM   14  O   UNL     1      -8.913  12.482  66.510  1.00  0.00    -0.207 OA 
BRANCH  13  15
HETATM   15  O   UNL     1     -10.664  13.523  65.491  1.00  0.00    -0.278 OA 
HETATM   16  C   UNL     1     -11.428  12.630  64.666  1.00  0.00    -0.330 C  
ENDBRANCH  13  15
ENDBRANCH  11  13
BRANCH  12  17
HETATM   17  C   UNL     1      -9.864  15.100  68.701  1.00  0.00    -0.218 A  
HETATM   18  O   UNL     1     -11.078  16.530  66.349  1.00  0.00    -0.000 OA 
HETATM   19  O   UNL     1     -10.739  18.267  67.647  1.00  0.00    -0.419 OA 
HETATM   20  C   UNL     1      -8.889  14.566  69.572  1.00  0.00     0.322 A  
HETATM   21  C   UNL     1      -7.664  15.207  69.778  1.00  0.00    -0.066 A  
HETATM   22  C   UNL     1      -7.365  16.390  69.110  1.00  0.00    -0.225 A  
HETATM   23  C   UNL     1      -8.312  16.963  68.266  1.00  0.00    -0.224 A  
HETATM   24  C   UNL     1      -9.558  16.337  68.085  1.00  0.00    -0.219 A  
HETATM   25  N   UNL     1     -10.536  17.090  67.313  1.00  0.00    -0.316 N  
ENDBRANCH  12  17
ENDBRANCH   3   5
ENDBRANCH   2   3
TORSDOF 5
ENDMDL
MODEL       17
REMARK 921   NORMALIZED FREE ENERGY PREDICTED BY IDOCK:   -5.06 KCAL/MOL
REMARK 922        TOTAL FREE ENERGY PREDICTED BY IDOCK:   -7.76 KCAL/MOL
REMARK 923 INTER-LIGAND FREE ENERGY PREDICTED BY IDOCK:   -6.51 KCAL/MOL
REMARK 924 INTRA-LIGAND FREE ENERGY PREDICTED BY IDOCK:   -1.25 KCAL/MOL
REMARK 927      BINDING AFFINITY PREDICTED BY RF-SCORE:    0.00 PKD
ROOT
HETATM    1  C   UNL     1      -6.863   8.154  73.425  1.00  0.00    -0.116 C  
HETATM    2  O   UNL     1      -7.442   8.852  72.319  1.00  0.00    -0.338 OA 
ENDROOT
BRANCH   2   3
HETATM    3  C   UNL     1      -8.226   8.099  71.514  1.00  0.00    -0.125 C  
HETATM    4  O   UNL     1      -7.876   7.067  70.963  1.00  0.00    -0.094 OA 
BRANCH   3   5
HETATM    5  C   UNL     1      -9.576   8.712  71.371  1.00  0.00    -0.313 C  
HETATM    6  C   UNL     1     -10.525   8.416  72.292  1.00  0.00    -0.337 C  
HETATM    7  N   UNL     1     -11.710   9.123  72.311  1.00  0.00    -0.235 NA 
HETATM    8  C   UNL     1     -10.446   7.327  73.336  1.00  0.00    -0.423 C  
HETATM    9  C   UNL     1     -12.063  10.114  71.420  1.00  0.00    -0.382 C  
HETATM   10  C   UNL     1     -13.410  10.752  71.677  1.00  0.00    -0.390 C  
HETATM   11  C   UNL     1     -11.228  10.440  70.403  1.00  0.00    -0.399 C  
HETATM   12  C   UNL     1      -9.842   9.757  70.258  1.00  0.00    -0.296 C  
BRANCH  11  13
HETATM   13  C   UNL     1     -11.734  11.365  69.351  1.00  0.00    -0.338 C  
HETATM   14  O   UNL     1     -12.236  10.989  68.300  1.00  0.00    -0.582 OA 
BRANCH  13  15
HETATM   15  O   UNL     1     -11.530  12.661  69.676  1.00  0.00    -0.250 OA 
HETATM   16  C   UNL     1     -11.807  13.603  68.627  1.00  0.00    -0.374 C  
ENDBRANCH  13  15
ENDBRANCH  11  13
BRANCH  12  17
HETATM   17  C   UNL     1      -9.698   9.142  68.855  1.00  0.00    -0.165 A  
HETATM   18  O   UNL     1      -8.323  11.794  68.499  1.00  0.00    -0.156 OA 
HETATM   19  O   UNL     1      -6.716  10.493  67.765  1.00  0.00    -0.068 OA 
HETATM   20  C   UNL     1     -10.443   7.981  68.555  1.00  0.00    -0.200 A  
HETATM   21  C   UNL     1     -10.386   7.383  67.292  1.00  0.00    -0.356 A  
HETATM   22  C   UNL     1      -9.599   7.933  66.286  1.00  0.00    -0.200 A  
HETATM   23  C   UNL     1      -8.826   9.060  66.553  1.00  0.00    -0.158 A  
HETATM   24  C   UNL     1      -8.857   9.641  67.833  1.00  0.00    -0.119 A  
HETATM   25  N   UNL     1      -7.899  10.715  68.061  1.00  0.00    -0.103 N  
ENDBRANCH  12  17
ENDBRANCH   3   5
ENDBRANCH   2   3
TORSDOF 5
ENDMDL
MODEL       18
REMARK 921   NORMALIZED FREE ENERGY PREDICTED BY IDOCK:   -5.06 KCAL/MOL
REMARK 922        TOTAL FREE ENERGY PREDICTED BY IDOCK:   -7.75 KCAL/MOL
REMARK 923 INTER-LIGAND FREE ENERGY PREDICTED BY IDOCK:   -6.88 KCAL/MOL
REMARK 924 INTRA-LIGAND FREE ENERGY PREDICTED BY IDOCK:   -0.88 KCAL/MOL
REMARK 927      BINDING AFFINITY PREDICTED BY RF-SCORE:    0.00 PKD
ROOT
HETATM    1  C   UNL     1     -10.903  17.165  65.309  1.00  0.00    -0.036 C  
HETATM    2  O   UNL     1     -10.454  15.944  64.715  1.00  0.00    -0.538 OA 
ENDROOT
BRANCH   2   3
HETATM    3  C   UNL     1     -11.361  14.940  64.717  1.00  0.00    -0.397 C  
HETATM    4  O   UNL     1     -12.538  15.060  64.413  1.00  0.00    -0.546 OA 
BRANCH   3   5
HETATM    5  C   UNL     1     -10.733  13.665  65.163  1.00  0.00    -0.359 C  
HETATM    6  C   UNL     1     -11.010  12.530  64.476  1.00  0.00    -0.323 C  
HETATM    7  N   UNL     1     -10.290  11.380  64.727  1.00  0.00    -0.275 NA 
HETATM    8  C   UNL     1     -12.093  12.357  63.436  1.00  0.00    -0.620 C  
HETATM    9  C   UNL     1      -9.301  11.249  65.680  1.00  0.00    -0.224 C  
HETATM   10  C   UNL     1      -8.645   9.887  65.735  1.00  0.00    -0.151 C  
HETATM   11  C   UNL     1      -8.993  12.295  66.485  1.00  0.00    -0.161 C  
HETATM   12  C   UNL     1      -9.694  13.669  66.312  1.00  0.00    -0.295 C  
BRANCH  11  13
HETATM   13  C   UNL     1      -8.070  12.051  67.629  1.00  0.00    -0.155 C  
HETATM   14  O   UNL     1      -8.382  11.421  68.630  1.00  0.00    -0.153 OA 
BRANCH  13  15
HETATM   15  O   UNL     1      -6.870  12.646  67.446  1.00  0.00    -0.145 OA 
HETATM   16  C   UNL     1      -5.839  11.791  66.927  1.00  0.00    -0.143 C  
ENDBRANCH  13  15
ENDBRANCH  11  13
BRANCH  12  17
HETATM   17  C   UNL     1     -10.321  14.116  67.643  1.00  0.00    -0.241 A  
HETATM   18  O   UNL     1      -7.722  15.631  67.660  1.00  0.00    -0.133 OA 
HETATM   19  O   UNL     1      -9.083  17.317  68.000  1.00  0.00    -0.238 OA 
HETATM   20  C   UNL     1     -11.457  13.421  68.114  1.00  0.00    -0.339 A  
HETATM   21  C   UNL     1     -12.063  13.752  69.329  1.00  0.00    -0.374 A  
HETATM   22  C   UNL     1     -11.547  14.772  70.121  1.00  0.00    -0.338 A  
HETATM   23  C   UNL     1     -10.448  15.500  69.677  1.00  0.00    -0.289 A  
HETATM   24  C   UNL     1      -9.859  15.191  68.439  1.00  0.00    -0.223 A  
HETATM   25  N   UNL     1      -8.818  16.106  67.989  1.00  0.00    -0.179 N  
ENDBRANCH  12  17
ENDBRANCH   3   5
ENDBRANCH   2   3
TORSDOF 5
ENDMDL
MODEL       19
REMARK 921   NORMALIZED FREE ENERGY PREDICTED BY IDOCK:   -5.03 KCAL/MOL
REMARK 922        TOTAL FREE ENERGY PREDICTED BY IDOCK:   -7.72 KCAL/MOL
REMARK 923 INTER-LIGAND FREE ENERGY PREDICTED BY IDOCK:   -6.43 KCAL/MOL
REMARK 924 INTRA-LIGAND FREE ENERGY PREDICTED BY IDOCK:   -1.29 KCAL/MOL
REMARK 927      BINDING AFFINITY PREDICTED BY RF-SCORE:    0.00 PKD
ROOT
HETATM    1  C   UNL     1     -12.157  15.042  64.345  1.00  0.00    -0.359 C  
HETATM    2  O   UNL     1     -11.134  14.049  64.456  1.00  0.00    -0.381 OA 
ENDROOT
BRANCH   2   3
HETATM    3  C   UNL     1     -11.489  12.937  65.139  1.00  0.00    -0.313 C  
HETATM    4  O   UNL     1     -12.639  12.574  65.336  1.00  0.00    -0.656 OA 
BRANCH   3   5
HETATM    5  C   UNL     1     -10.284  12.221  65.642  1.00  0.00    -0.287 C  
HETATM    6  C   UNL     1      -9.679  11.318  64.831  1.00  0.00    -0.256 C  
HETATM    7  N   UNL     1      -8.450  10.795  65.179  1.00  0.00    -0.145 NA 
HETATM    8  C   UNL     1     -10.235  10.765  63.540  1.00  0.00    -0.315 C  
HETATM    9  C   UNL     1      -7.763  11.076  66.341  1.00  0.00    -0.146 C  
HETATM   10  C   UNL     1      -6.420  10.392  66.469  1.00  0.00    -0.089 C  
HETATM   11  C   UNL     1      -8.307  11.902  67.268  1.00  0.00    -0.169 C  
HETATM   12  C   UNL     1      -9.673  12.594  67.016  1.00  0.00    -0.225 C  
BRANCH  11  13
HETATM   13  C   UNL     1      -7.630  12.015  68.590  1.00  0.00    -0.112 C  
HETATM   14  O   UNL     1      -7.538  11.091  69.387  1.00  0.00    -0.128 OA 
BRANCH  13  15
HETATM   15  O   UNL     1      -7.172  13.266  68.819  1.00  0.00    -0.102 OA 
HETATM   16  C   UNL     1      -5.796  13.484  68.470  1.00  0.00    -0.090 C  
ENDBRANCH  13  15
ENDBRANCH  11  13
BRANCH  12  17
HETATM   17  C   UNL     1     -10.643  12.290  68.170  1.00  0.00    -0.232 A  
HETATM   18  O   UNL     1      -9.844  15.125  68.783  1.00  0.00    -0.208 OA 
HETATM   19  O   UNL     1     -12.022  15.388  68.807  1.00  0.00    -0.331 OA 
HETATM   20  C   UNL     1     -11.048  10.952  68.368  1.00  0.00    -0.320 A  
HETATM   21  C   UNL     1     -11.904  10.594  69.414  1.00  0.00    -0.325 A  
HETATM   22  C   UNL     1     -12.369  11.556  70.305  1.00  0.00    -0.355 A  
HETATM   23  C   UNL     1     -12.017  12.890  70.125  1.00  0.00    -0.373 A  
HETATM   24  C   UNL     1     -11.184  13.255  69.053  1.00  0.00    -0.270 A  
HETATM   25  N   UNL     1     -11.001  14.686  68.855  1.00  0.00    -0.243 N  
ENDBRANCH  12  17
ENDBRANCH   3   5
ENDBRANCH   2   3
TORSDOF 5
ENDMDL
MODEL       20
REMARK 921   NORMALIZED FREE ENERGY PREDICTED BY IDOCK:   -4.97 KCAL/MOL
REMARK 922        TOTAL FREE ENERGY PREDICTED BY IDOCK:   -7.64 KCAL/MOL
REMARK 923 INTER-LIGAND FREE ENERGY PREDICTED BY IDOCK:   -6.33 KCAL/MOL
REMARK 924 INTRA-LIGAND FREE ENERGY PREDICTED BY IDOCK:   -1.32 KCAL/MOL
REMARK 927      BINDING AFFINITY PREDICTED BY RF-SCORE:    0.00 PKD
ROOT
HETATM    1  C   UNL     1     -11.996  12.621  65.232  1.00  0.00    -0.439 C  
HETATM    2  O   UNL     1     -12.160  12.147  66.572  1.00  0.00    -0.627 OA 
ENDROOT
BRANCH   2   3
HETATM    3  C   UNL     1     -11.125  12.409  67.401  1.00  0.00    -0.272 C  
HETATM    4  O   UNL     1     -10.237  13.219  67.179  1.00  0.00    -0.242 OA 
BRANCH   3   5
HETATM    5  C   UNL     1     -11.199  11.558  68.621  1.00  0.00    -0.307 C  
HETATM    6  C   UNL     1     -11.795  12.061  69.730  1.00  0.00    -0.331 C  
HETATM    7  N   UNL     1     -12.068  11.234  70.800  1.00  0.00    -0.364 NA 
HETATM    8  C   UNL     1     -12.189  13.502  69.954  1.00  0.00    -0.356 C  
HETATM    9  C   UNL     1     -11.740   9.897  70.881  1.00  0.00    -0.364 C  
HETATM   10  C   UNL     1     -12.177   9.209  72.155  1.00  0.00    -0.408 C  
HETATM   11  C   UNL     1     -11.067   9.302  69.866  1.00  0.00    -0.200 C  
HETATM   12  C   UNL     1     -10.710  10.088  68.576  1.00  0.00    -0.264 C  
BRANCH  11  13
HETATM   13  C   UNL     1     -10.557   7.919  70.079  1.00  0.00    -0.242 C  
HETATM   14  O   UNL     1      -9.540   7.661  70.709  1.00  0.00    -0.166 OA 
BRANCH  13  15
HETATM   15  O   UNL     1     -11.324   6.995  69.459  1.00  0.00    -0.189 OA 
HETATM   16  C   UNL     1     -10.700   5.715  69.266  1.00  0.00    -0.280 C  
ENDBRANCH  13  15
ENDBRANCH  11  13
BRANCH  12  17
HETATM   17  C   UNL     1      -9.198  10.001  68.303  1.00  0.00    -0.129 A  
HETATM   18  O   UNL     1     -10.268   7.855  66.485  1.00  0.00    -0.251 OA 
HETATM   19  O   UNL     1      -9.105   8.985  65.007  1.00  0.00    -0.197 OA 
HETATM   20  C   UNL     1      -8.322  10.698  69.163  1.00  0.00    -0.140 A  
HETATM   21  C   UNL     1      -6.936  10.641  68.996  1.00  0.00    -0.080 A  
HETATM   22  C   UNL     1      -6.379   9.875  67.977  1.00  0.00    -0.055 A  
HETATM   23  C   UNL     1      -7.211   9.198  67.090  1.00  0.00    -0.086 A  
HETATM   24  C   UNL     1      -8.606   9.283  67.237  1.00  0.00    -0.125 A  
HETATM   25  N   UNL     1      -9.391   8.673  66.172  1.00  0.00    -0.216 N  
ENDBRANCH  12  17
ENDBRANCH   3   5
ENDBRANCH   2   3
TORSDOF 5
ENDMDL
MODEL       21
REMARK 921   NORMALIZED FREE ENERGY PREDICTED BY IDOCK:   -4.96 KCAL/MOL
REMARK 922        TOTAL FREE ENERGY PREDICTED BY IDOCK:   -7.63 KCAL/MOL
REMARK 923 INTER-LIGAND FREE ENERGY PREDICTED BY IDOCK:   -6.88 KCAL/MOL
REMARK 924 INTRA-LIGAND FREE ENERGY PREDICTED BY IDOCK:   -0.74 KCAL/MOL
REMARK 927      BINDING AFFINITY PREDICTED BY RF-SCORE:    0.00 PKD
ROOT
HETATM    1  C   UNL     1     -12.218  13.562  70.091  1.00  0.00    -0.330 C  
HETATM    2  O   UNL     1     -11.237  12.690  69.522  1.00  0.00    -0.190 OA 
ENDROOT
BRANCH   2   3
HETATM    3  C   UNL     1     -11.722  11.530  69.026  1.00  0.00    -0.335 C  
HETATM    4  O   UNL     1     -12.814  11.054  69.299  1.00  0.00    -0.173 OA 
BRANCH   3   5
HETATM    5  C   UNL     1     -10.734  10.894  68.112  1.00  0.00    -0.256 C  
HETATM    6  C   UNL     1      -9.914   9.934  68.607  1.00  0.00    -0.164 C  
HETATM    7  N   UNL     1      -9.138   9.181  67.749  1.00  0.00    -0.127 NA 
HETATM    8  C   UNL     1      -9.717   9.595  70.066  1.00  0.00    -0.280 C  
HETATM    9  C   UNL     1      -9.074   9.342  66.381  1.00  0.00    -0.160 C  
HETATM   10  C   UNL     1      -8.165   8.366  65.666  1.00  0.00    -0.132 C  
HETATM   11  C   UNL     1      -9.788  10.325  65.780  1.00  0.00    -0.320 C  
HETATM   12  C   UNL     1     -10.732  11.243  66.602  1.00  0.00    -0.321 C  
BRANCH  11  13
HETATM   13  C   UNL     1      -9.533  10.594  64.337  1.00  0.00    -0.269 C  
HETATM   14  O   UNL     1     -10.409  10.597  63.483  1.00  0.00    -0.251 OA 
BRANCH  13  15
HETATM   15  O   UNL     1      -8.220  10.787  64.082  1.00  0.00    -0.044 OA 
HETATM   16  C   UNL     1      -7.783  10.362  62.782  1.00  0.00    -0.138 C  
ENDBRANCH  13  15
ENDBRANCH  11  13
BRANCH  12  17
HETATM   17  C   UNL     1     -10.379  12.720  66.361  1.00  0.00    -0.271 A  
HETATM   18  O   UNL     1     -12.722  12.348  64.511  1.00  0.00    -0.594 OA 
HETATM   19  O   UNL     1     -13.453  14.098  65.614  1.00  0.00    -0.576 OA 
HETATM   20  C   UNL     1      -9.159  13.209  66.878  1.00  0.00    -0.231 A  
HETATM   21  C   UNL     1      -8.757  14.532  66.674  1.00  0.00    -0.162 A  
HETATM   22  C   UNL     1      -9.549  15.404  65.934  1.00  0.00    -0.386 A  
HETATM   23  C   UNL     1     -10.773  14.968  65.434  1.00  0.00    -0.389 A  
HETATM   24  C   UNL     1     -11.193  13.647  65.668  1.00  0.00    -0.297 A  
HETATM   25  N   UNL     1     -12.551  13.333  65.244  1.00  0.00    -0.487 N  
ENDBRANCH  12  17
ENDBRANCH   3   5
ENDBRANCH   2   3
TORSDOF 5
ENDMDL
MODEL       22
REMARK 921   NORMALIZED FREE ENERGY PREDICTED BY IDOCK:   -4.95 KCAL/MOL
REMARK 922        TOTAL FREE ENERGY PREDICTED BY IDOCK:   -7.62 KCAL/MOL
REMARK 923 INTER-LIGAND FREE ENERGY PREDICTED BY IDOCK:   -6.77 KCAL/MOL
REMARK 924 INTRA-LIGAND FREE ENERGY PREDICTED BY IDOCK:   -0.85 KCAL/MOL
REMARK 927      BINDING AFFINITY PREDICTED BY RF-SCORE:    0.00 PKD
ROOT
HETATM    1  C   UNL     1     -11.884  15.826  64.229  1.00  0.00    -0.118 C  
HETATM    2  O   UNL     1     -10.801  15.069  64.775  1.00  0.00    -0.394 OA 
ENDROOT
BRANCH   2   3
HETATM    3  C   UNL     1     -10.140  15.668  65.792  1.00  0.00    -0.366 C  
HETATM    4  O   UNL     1      -9.304  16.549  65.660  1.00  0.00    -0.490 OA 
BRANCH   3   5
HETATM    5  C   UNL     1     -10.556  15.094  67.101  1.00  0.00    -0.295 C  
HETATM    6  C   UNL     1     -10.803  15.938  68.133  1.00  0.00    -0.317 C  
HETATM    7  N   UNL     1     -11.388  15.460  69.288  1.00  0.00    -0.292 NA 
HETATM    8  C   UNL     1     -10.467  17.410  68.181  1.00  0.00    -0.389 C  
HETATM    9  C   UNL     1     -11.721  14.145  69.530  1.00  0.00    -0.312 C  
HETATM   10  C   UNL     1     -12.378  13.888  70.868  1.00  0.00    -0.451 C  
HETATM   11  C   UNL     1     -11.446  13.194  68.603  1.00  0.00    -0.342 C  
HETATM   12  C   UNL     1     -10.813  13.572  67.237  1.00  0.00    -0.285 C  
BRANCH  11  13
HETATM   13  C   UNL     1     -11.633  11.767  68.985  1.00  0.00    -0.311 C  
HETATM   14  O   UNL     1     -12.525  11.056  68.540  1.00  0.00    -0.440 OA 
BRANCH  13  15
HETATM   15  O   UNL     1     -10.733  11.368  69.912  1.00  0.00     0.006 OA 
HETATM   16  C   UNL     1     -10.892  10.018  70.374  1.00  0.00    -0.318 C  
ENDBRANCH  13  15
ENDBRANCH  11  13
BRANCH  12  17
HETATM   17  C   UNL     1      -9.530  12.756  67.002  1.00  0.00    -0.233 A  
HETATM   18  O   UNL     1     -11.479  11.356  65.188  1.00  0.00    -0.096 OA 
HETATM   19  O   UNL     1      -9.893  11.744  63.723  1.00  0.00    -0.305 OA 
HETATM   20  C   UNL     1      -8.439  12.960  67.874  1.00  0.00    -0.181 A  
HETATM   21  C   UNL     1      -7.252  12.234  67.741  1.00  0.00    -0.114 A  
HETATM   22  C   UNL     1      -7.122  11.270  66.747  1.00  0.00    -0.143 A  
HETATM   23  C   UNL     1      -8.164  11.061  65.849  1.00  0.00    -0.100 A  
HETATM   24  C   UNL     1      -9.345  11.815  65.961  1.00  0.00    -0.220 A  
HETATM   25  N   UNL     1     -10.311  11.638  64.885  1.00  0.00    -0.269 N  
ENDBRANCH  12  17
ENDBRANCH   3   5
ENDBRANCH   2   3
TORSDOF 5
ENDMDL
MODEL       23
REMARK 921   NORMALIZED FREE ENERGY PREDICTED BY IDOCK:   -4.89 KCAL/MOL
REMARK 922        TOTAL FREE ENERGY PREDICTED BY IDOCK:   -7.55 KCAL/MOL
REMARK 923 INTER-LIGAND FREE ENERGY PREDICTED BY IDOCK:   -6.25 KCAL/MOL
REMARK 924 INTRA-LIGAND FREE ENERGY PREDICTED BY IDOCK:   -1.29 KCAL/MOL
REMARK 927      BINDING AFFINITY PREDICTED BY RF-SCORE:    0.00 PKD
ROOT
HETATM    1  C   UNL     1     -12.378  13.111  64.706  1.00  0.00    -0.423 C  
HETATM    2  O   UNL     1     -12.066  12.047  65.610  1.00  0.00    -0.508 OA 
ENDROOT
BRANCH   2   3
HETATM    3  C   UNL     1     -10.960  12.243  66.363  1.00  0.00    -0.287 C  
HETATM    4  O   UNL     1      -9.873  12.596  65.931  1.00  0.00    -0.261 OA 
BRANCH   3   5
HETATM    5  C   UNL     1     -11.240  11.950  67.796  1.00  0.00    -0.330 C  
HETATM    6  C   UNL     1     -11.827  12.909  68.553  1.00  0.00    -0.313 C  
HETATM    7  N   UNL     1     -12.289  12.601  69.817  1.00  0.00    -0.102 NA 
HETATM    8  C   UNL     1     -12.017  14.358  68.168  1.00  0.00    -0.320 C  
HETATM    9  C   UNL     1     -12.170  11.374  70.434  1.00  0.00    -0.362 C  
HETATM   10  C   UNL     1     -12.787  11.291  71.813  1.00  0.00    -0.466 C  
HETATM   11  C   UNL     1     -11.527  10.359  69.806  1.00  0.00    -0.348 C  
HETATM   12  C   UNL     1     -10.972  10.535  68.367  1.00  0.00    -0.310 C  
BRANCH  11  13
HETATM   13  C   UNL     1     -11.242   9.122  70.585  1.00  0.00    -0.270 C  
HETATM   14  O   UNL     1     -11.785   8.046  70.373  1.00  0.00    -0.154 OA 
BRANCH  13  15
HETATM   15  O   UNL     1     -10.350   9.342  71.577  1.00  0.00    -0.336 OA 
HETATM   16  C   UNL     1      -9.343   8.329  71.726  1.00  0.00    -0.202 C  
ENDBRANCH  13  15
ENDBRANCH  11  13
BRANCH  12  17
HETATM   17  C   UNL     1      -9.476  10.180  68.328  1.00  0.00    -0.147 A  
HETATM   18  O   UNL     1     -10.708   7.749  67.055  1.00  0.00    -0.347 OA 
HETATM   19  O   UNL     1      -9.256   8.237  65.485  1.00  0.00    -0.083 OA 
HETATM   20  C   UNL     1      -8.579  10.982  69.067  1.00  0.00    -0.076 A  
HETATM   21  C   UNL     1      -7.210  10.704  69.104  1.00  0.00    -0.102 A  
HETATM   22  C   UNL     1      -6.694   9.608  68.419  1.00  0.00    -0.057 A  
HETATM   23  C   UNL     1      -7.542   8.812  67.655  1.00  0.00    -0.097 A  
HETATM   24  C   UNL     1      -8.914   9.112  67.590  1.00  0.00    -0.123 A  
HETATM   25  N   UNL     1      -9.688   8.321  66.644  1.00  0.00    -0.230 N  
ENDBRANCH  12  17
ENDBRANCH   3   5
ENDBRANCH   2   3
TORSDOF 5
ENDMDL
MODEL       24
REMARK 921   NORMALIZED FREE ENERGY PREDICTED BY IDOCK:   -4.88 KCAL/MOL
REMARK 922        TOTAL FREE ENERGY PREDICTED BY IDOCK:   -7.52 KCAL/MOL
REMARK 923 INTER-LIGAND FREE ENERGY PREDICTED BY IDOCK:   -6.74 KCAL/MOL
REMARK 924 INTRA-LIGAND FREE ENERGY PREDICTED BY IDOCK:   -0.78 KCAL/MOL
REMARK 927      BINDING AFFINITY PREDICTED BY RF-SCORE:    0.00 PKD
ROOT
HETATM    1  C   UNL     1     -10.742  19.300  65.647  1.00  0.00    -0.251 C  
HETATM    2  O   UNL     1     -10.786  17.871  65.670  1.00  0.00    -0.521 OA 
ENDROOT
BRANCH   2   3
HETATM    3  C   UNL     1      -9.741  17.277  66.291  1.00  0.00    -0.266 C  
HETATM    4  O   UNL     1      -8.628  17.136  65.807  1.00  0.00    -0.525 OA 
BRANCH   3   5
HETATM    5  C   UNL     1     -10.136  16.797  67.644  1.00  0.00    -0.275 C  
HETATM    6  C   UNL     1      -9.843  17.569  68.719  1.00  0.00    -0.326 C  
HETATM    7  N   UNL     1     -10.375  17.260  69.954  1.00  0.00     0.119 NA 
HETATM    8  C   UNL     1      -8.929  18.773  68.730  1.00  0.00    -0.315 C  
HETATM    9  C   UNL     1     -11.174  16.172  70.230  1.00  0.00    -0.381 C  
HETATM   10  C   UNL     1     -11.651  16.076  71.662  1.00  0.00    -0.538 C  
HETATM   11  C   UNL     1     -11.469  15.282  69.251  1.00  0.00    -0.334 C  
HETATM   12  C   UNL     1     -10.970  15.500  67.797  1.00  0.00    -0.317 C  
BRANCH  11  13
HETATM   13  C   UNL     1     -12.161  14.020  69.635  1.00  0.00    -0.355 C  
HETATM   14  O   UNL     1     -13.353  13.954  69.902  1.00  0.00     0.578 OA 
BRANCH  13  15
HETATM   15  O   UNL     1     -11.308  12.973  69.696  1.00  0.00    -0.208 OA 
HETATM   16  C   UNL     1     -11.883  11.698  69.372  1.00  0.00    -0.342 C  
ENDBRANCH  13  15
ENDBRANCH  11  13
BRANCH  12  17
HETATM   17  C   UNL     1     -10.192  14.265  67.312  1.00  0.00    -0.252 A  
HETATM   18  O   UNL     1     -12.855  13.872  65.967  1.00  0.00    -0.430 OA 
HETATM   19  O   UNL     1     -11.569  13.708  64.197  1.00  0.00    -0.383 OA 
HETATM   20  C   UNL     1      -8.961  13.963  67.933  1.00  0.00    -0.191 A  
HETATM   21  C   UNL     1      -8.213  12.841  67.565  1.00  0.00    -0.179 A  
HETATM   22  C   UNL     1      -8.677  11.975  66.581  1.00  0.00    -0.171 A  
HETATM   23  C   UNL     1      -9.872  12.255  65.924  1.00  0.00    -0.266 A  
HETATM   24  C   UNL     1     -10.607  13.402  66.269  1.00  0.00    -0.291 A  
HETATM   25  N   UNL     1     -11.756  13.694  65.422  1.00  0.00    -0.322 N  
ENDBRANCH  12  17
ENDBRANCH   3   5
ENDBRANCH   2   3
TORSDOF 5
ENDMDL
MODEL       25
REMARK 921   NORMALIZED FREE ENERGY PREDICTED BY IDOCK:   -4.86 KCAL/MOL
REMARK 922        TOTAL FREE ENERGY PREDICTED BY IDOCK:   -7.51 KCAL/MOL
REMARK 923 INTER-LIGAND FREE ENERGY PREDICTED BY IDOCK:   -6.23 KCAL/MOL
REMARK 924 INTRA-LIGAND FREE ENERGY PREDICTED BY IDOCK:   -1.27 KCAL/MOL
REMARK 927      BINDING AFFINITY PREDICTED BY RF-SCORE:    0.00 PKD
ROOT
HETATM    1  C   UNL     1      -7.526  11.009  68.985  1.00  0.00    -0.129 C  
HETATM    2  O   UNL     1      -8.778  10.641  69.572  1.00  0.00    -0.096 OA 
ENDROOT
BRANCH   2   3
HETATM    3  C   UNL     1      -9.855  10.801  68.769  1.00  0.00    -0.194 C  
HETATM    4  O   UNL     1      -9.942  10.385  67.624  1.00  0.00    -0.166 OA 
BRANCH   3   5
HETATM    5  C   UNL     1     -10.919  11.576  69.466  1.00  0.00    -0.186 C  
HETATM    6  C   UNL     1     -11.865  10.899  70.163  1.00  0.00    -0.353 C  
HETATM    7  N   UNL     1     -12.735  11.585  70.986  1.00  0.00    -0.361 NA 
HETATM    8  C   UNL     1     -12.111   9.409  70.118  1.00  0.00     0.195 C  
HETATM    9  C   UNL     1     -12.772  12.953  71.146  1.00  0.00    -0.276 C  
HETATM   10  C   UNL     1     -13.805  13.453  72.132  1.00  0.00    -0.605 C  
HETATM   11  C   UNL     1     -11.928  13.742  70.437  1.00  0.00    -0.385 C  
HETATM   12  C   UNL     1     -10.868  13.124  69.486  1.00  0.00     0.122 C  
BRANCH  11  13
HETATM   13  C   UNL     1     -12.138  15.216  70.485  1.00  0.00    -0.343 C  
HETATM   14  O   UNL     1     -12.892  15.819  69.733  1.00  0.00    -0.081 OA 
BRANCH  13  15
HETATM   15  O   UNL     1     -11.368  15.807  71.425  1.00  0.00    -0.375 OA 
HETATM   16  C   UNL     1     -12.088  16.439  72.495  1.00  0.00    -0.443 C  
ENDBRANCH  13  15
ENDBRANCH  11  13
BRANCH  12  17
HETATM   17  C   UNL     1     -11.013  13.716  68.074  1.00  0.00    -0.270 A  
HETATM   18  O   UNL     1      -8.802  15.407  69.215  1.00  0.00    -0.231 OA 
HETATM   19  O   UNL     1      -7.796  14.753  67.378  1.00  0.00    -0.173 OA 
HETATM   20  C   UNL     1     -12.135  13.339  67.303  1.00  0.00    -0.341 A  
HETATM   21  C   UNL     1     -12.349  13.859  66.023  1.00  0.00    -0.511 A  
HETATM   22  C   UNL     1     -11.462  14.782  65.478  1.00  0.00    -0.329 A  
HETATM   23  C   UNL     1     -10.329  15.154  66.195  1.00  0.00    -0.313 A  
HETATM   24  C   UNL     1     -10.095  14.606  67.468  1.00  0.00    -0.224 A  
HETATM   25  N   UNL     1      -8.809  14.934  68.069  1.00  0.00    -0.163 N  
ENDBRANCH  12  17
ENDBRANCH   3   5
ENDBRANCH   2   3
TORSDOF 5
ENDMDL
MODEL       26
REMARK 921   NORMALIZED FREE ENERGY PREDICTED BY IDOCK:   -4.86 KCAL/MOL
REMARK 922        TOTAL FREE ENERGY PREDICTED BY IDOCK:   -7.49 KCAL/MOL
REMARK 923 INTER-LIGAND FREE ENERGY PREDICTED BY IDOCK:   -6.59 KCAL/MOL
REMARK 924 INTRA-LIGAND FREE ENERGY PREDICTED BY IDOCK:   -0.90 KCAL/MOL
REMARK 927      BINDING AFFINITY PREDICTED BY RF-SCORE:    0.00 PKD
ROOT
HETATM    1  C   UNL     1     -10.965  16.571  67.521  1.00  0.00    -0.166 C  
HETATM    2  O   UNL     1      -9.588  16.325  67.221  1.00  0.00    -0.226 OA 
ENDROOT
BRANCH   2   3
HETATM    3  C   UNL     1      -9.368  15.361  66.298  1.00  0.00    -0.316 C  
HETATM    4  O   UNL     1      -9.347  15.541  65.090  1.00  0.00    -0.055 OA 
BRANCH   3   5
HETATM    5  C   UNL     1      -9.173  14.038  66.954  1.00  0.00    -0.271 C  
HETATM    6  C   UNL     1      -8.027  13.817  67.644  1.00  0.00    -0.174 C  
HETATM    7  N   UNL     1      -7.905  12.692  68.434  1.00  0.00    -0.140 NA 
HETATM    8  C   UNL     1      -6.792  14.688  67.625  1.00  0.00    -0.204 C  
HETATM    9  C   UNL     1      -8.854  11.701  68.564  1.00  0.00    -0.131 C  
HETATM   10  C   UNL     1      -8.485  10.585  69.516  1.00  0.00    -0.060 C  
HETATM   11  C   UNL     1     -10.009  11.771  67.858  1.00  0.00    -0.187 C  
HETATM   12  C   UNL     1     -10.312  12.989  66.944  1.00  0.00    -0.246 C  
BRANCH  11  13
HETATM   13  C   UNL     1     -10.912  10.587  67.871  1.00  0.00    -0.295 C  
HETATM   14  O   UNL     1     -10.587   9.481  67.460  1.00  0.00    -0.259 OA 
BRANCH  13  15
HETATM   15  O   UNL     1     -12.140  10.892  68.346  1.00  0.00    -0.559 OA 
HETATM   16  C   UNL     1     -12.227  11.020  69.774  1.00  0.00    -0.318 C  
ENDBRANCH  13  15
ENDBRANCH  11  13
BRANCH  12  17
HETATM   17  C   UNL     1     -10.634  12.514  65.516  1.00  0.00    -0.304 A  
HETATM   18  O   UNL     1     -13.077  14.140  66.178  1.00  0.00    -0.159 OA 
HETATM   19  O   UNL     1     -12.539  15.115  64.288  1.00  0.00    -0.638 OA 
HETATM   20  C   UNL     1      -9.821  11.510  64.947  1.00  0.00    -0.289 A  
HETATM   21  C   UNL     1     -10.070  11.007  63.667  1.00  0.00    -0.428 A  
HETATM   22  C   UNL     1     -11.146  11.477  62.921  1.00  0.00     0.234 A  
HETATM   23  C   UNL     1     -11.952  12.488  63.436  1.00  0.00    -0.602 A  
HETATM   24  C   UNL     1     -11.681  13.018  64.709  1.00  0.00    -0.345 A  
HETATM   25  N   UNL     1     -12.478  14.175  65.094  1.00  0.00    -0.449 N  
ENDBRANCH  12  17
ENDBRANCH   3   5
ENDBRANCH   2   3
TORSDOF 5
ENDMDL
MODEL       27
REMARK 921   NORMALIZED FREE ENERGY PREDICTED BY IDOCK:   -4.84 KCAL/MOL
REMARK 922        TOTAL FREE ENERGY PREDICTED BY IDOCK:   -7.47 KCAL/MOL
REMARK 923 INTER-LIGAND FREE ENERGY PREDICTED BY IDOCK:   -6.13 KCAL/MOL
REMARK 924 INTRA-LIGAND FREE ENERGY PREDICTED BY IDOCK:   -1.35 KCAL/MOL
REMARK 927      BINDING AFFINITY PREDICTED BY RF-SCORE:    0.00 PKD
ROOT
HETATM    1  C   UNL     1     -12.181  13.744  69.479  1.00  0.00    -0.293 C  
HETATM    2  O   UNL     1     -11.393  12.607  69.843  1.00  0.00    -0.127 OA 
ENDROOT
BRANCH   2   3
HETATM    3  C   UNL     1     -11.800  11.434  69.306  1.00  0.00    -0.349 C  
HETATM    4  O   UNL     1     -12.932  10.984  69.386  1.00  0.00    -0.065 OA 
BRANCH   3   5
HETATM    5  C   UNL     1     -10.670  10.750  68.617  1.00  0.00    -0.242 C  
HETATM    6  C   UNL     1      -9.970   9.807  69.295  1.00  0.00    -0.192 C  
HETATM    7  N   UNL     1      -9.062   9.011  68.628  1.00  0.00    -0.137 NA 
HETATM    8  C   UNL     1     -10.049   9.533  70.779  1.00  0.00    -0.352 C  
HETATM    9  C   UNL     1      -8.746   9.110  67.290  1.00  0.00    -0.117 C  
HETATM   10  C   UNL     1      -7.736   8.097  66.797  1.00  0.00    -0.095 C  
HETATM   11  C   UNL     1      -9.321  10.071  66.526  1.00  0.00    -0.201 C  
HETATM   12  C   UNL     1     -10.386  11.031  67.120  1.00  0.00    -0.259 C  
BRANCH  11  13
HETATM   13  C   UNL     1      -8.803  10.272  65.144  1.00  0.00    -0.184 C  
HETATM   14  O   UNL     1      -7.674  10.674  64.895  1.00  0.00    -0.069 OA 
BRANCH  13  15
HETATM   15  O   UNL     1      -9.739  10.002  64.208  1.00  0.00    -0.296 OA 
HETATM   16  C   UNL     1      -9.563  10.684  62.956  1.00  0.00    -0.348 C  
ENDBRANCH  13  15
ENDBRANCH  11  13
BRANCH  12  17
HETATM   17  C   UNL     1      -9.972  12.493  66.885  1.00  0.00    -0.229 A  
HETATM   18  O   UNL     1     -12.199  12.167  64.890  1.00  0.00    -0.358 OA 
HETATM   19  O   UNL     1     -12.946  13.953  65.921  1.00  0.00    -0.436 OA 
HETATM   20  C   UNL     1      -8.774  12.952  67.476  1.00  0.00    -0.190 A  
HETATM   21  C   UNL     1      -8.318  14.259  67.282  1.00  0.00    -0.222 A  
HETATM   22  C   UNL     1      -9.032  15.144  66.481  1.00  0.00    -0.326 A  
HETATM   23  C   UNL     1     -10.234  14.739  65.907  1.00  0.00    -0.331 A  
HETATM   24  C   UNL     1     -10.710  13.435  66.129  1.00  0.00    -0.284 A  
HETATM   25  N   UNL     1     -12.046  13.156  65.620  1.00  0.00    -0.424 N  
ENDBRANCH  12  17
ENDBRANCH   3   5
ENDBRANCH   2   3
TORSDOF 5
ENDMDL
MODEL       28
REMARK 921   NORMALIZED FREE ENERGY PREDICTED BY IDOCK:   -4.82 KCAL/MOL
REMARK 922        TOTAL FREE ENERGY PREDICTED BY IDOCK:   -7.44 KCAL/MOL
REMARK 923 INTER-LIGAND FREE ENERGY PREDICTED BY IDOCK:   -6.04 KCAL/MOL
REMARK 924 INTRA-LIGAND FREE ENERGY PREDICTED BY IDOCK:   -1.40 KCAL/MOL
REMARK 927      BINDING AFFINITY PREDICTED BY RF-SCORE:    0.00 PKD
ROOT
HETATM    1  C   UNL     1     -12.108  13.625  69.399  1.00  0.00    -0.314 C  
HETATM    2  O   UNL     1     -11.801  12.273  69.752  1.00  0.00    -0.313 OA 
ENDROOT
BRANCH   2   3
HETATM    3  C   UNL     1     -11.372  11.500  68.729  1.00  0.00    -0.265 C  
HETATM    4  O   UNL     1     -12.051  11.167  67.770  1.00  0.00    -0.606 OA 
BRANCH   3   5
HETATM    5  C   UNL     1      -9.957  11.086  68.941  1.00  0.00    -0.201 C  
HETATM    6  C   UNL     1      -8.975  11.793  68.328  1.00  0.00    -0.180 C  
HETATM    7  N   UNL     1      -7.655  11.572  68.665  1.00  0.00    -0.128 NA 
HETATM    8  C   UNL     1      -9.163  12.825  67.241  1.00  0.00    -0.203 C  
HETATM    9  C   UNL     1      -7.208  10.633  69.571  1.00  0.00    -0.140 C  
HETATM   10  C   UNL     1      -5.710  10.612  69.782  1.00  0.00    -0.050 C  
HETATM   11  C   UNL     1      -8.093   9.810  70.186  1.00  0.00    -0.202 C  
HETATM   12  C   UNL     1      -9.618   9.948  69.936  1.00  0.00    -0.265 C  
BRANCH  11  13
HETATM   13  C   UNL     1      -7.554   8.681  70.995  1.00  0.00    -0.100 C  
HETATM   14  O   UNL     1      -7.428   8.718  72.212  1.00  0.00    -0.309 OA 
BRANCH  13  15
HETATM   15  O   UNL     1      -7.182   7.637  70.223  1.00  0.00    -0.064 OA 
HETATM   16  C   UNL     1      -7.531   6.342  70.738  1.00  0.00    -0.087 C  
ENDBRANCH  13  15
ENDBRANCH  11  13
BRANCH  12  17
HETATM   17  C   UNL     1     -10.206   8.602  69.480  1.00  0.00    -0.209 A  
HETATM   18  O   UNL     1     -10.827   8.567  72.423  1.00  0.00    -0.346 OA 
HETATM   19  O   UNL     1     -12.846   8.176  71.660  1.00  0.00    -0.315 OA 
HETATM   20  C   UNL     1      -9.890   8.140  68.183  1.00  0.00    -0.194 A  
HETATM   21  C   UNL     1     -10.362   6.912  67.710  1.00  0.00    -0.253 A  
HETATM   22  C   UNL     1     -11.149   6.099  68.520  1.00  0.00    -0.352 A  
HETATM   23  C   UNL     1     -11.506   6.534  69.793  1.00  0.00    -0.443 A  
HETATM   24  C   UNL     1     -11.060   7.784  70.256  1.00  0.00    -0.234 A  
HETATM   25  N   UNL     1     -11.614   8.218  71.532  1.00  0.00    -0.267 N  
ENDBRANCH  12  17
ENDBRANCH   3   5
ENDBRANCH   2   3
TORSDOF 5
ENDMDL
MODEL       29
REMARK 921   NORMALIZED FREE ENERGY PREDICTED BY IDOCK:   -4.80 KCAL/MOL
REMARK 922        TOTAL FREE ENERGY PREDICTED BY IDOCK:   -7.42 KCAL/MOL
REMARK 923 INTER-LIGAND FREE ENERGY PREDICTED BY IDOCK:   -6.38 KCAL/MOL
REMARK 924 INTRA-LIGAND FREE ENERGY PREDICTED BY IDOCK:   -1.04 KCAL/MOL
REMARK 927      BINDING AFFINITY PREDICTED BY RF-SCORE:    0.00 PKD
ROOT
HETATM    1  C   UNL     1     -11.908  13.734  69.210  1.00  0.00    -0.344 C  
HETATM    2  O   UNL     1     -10.958  12.847  68.614  1.00  0.00    -0.244 OA 
ENDROOT
BRANCH   2   3
HETATM    3  C   UNL     1     -11.461  11.659  68.209  1.00  0.00    -0.303 C  
HETATM    4  O   UNL     1     -12.420  11.096  68.714  1.00  0.00    -0.468 OA 
BRANCH   3   5
HETATM    5  C   UNL     1     -10.671  11.113  67.070  1.00  0.00    -0.316 C  
HETATM    6  C   UNL     1     -10.888  11.613  65.829  1.00  0.00    -0.281 C  
HETATM    7  N   UNL     1     -10.035  11.285  64.795  1.00  0.00    -0.260 NA 
HETATM    8  C   UNL     1     -12.032  12.510  65.416  1.00  0.00    -0.492 C  
HETATM    9  C   UNL     1      -8.961  10.425  64.889  1.00  0.00    -0.199 C  
HETATM   10  C   UNL     1      -8.166  10.256  63.612  1.00  0.00    -0.158 C  
HETATM   11  C   UNL     1      -8.693   9.799  66.061  1.00  0.00    -0.156 C  
HETATM   12  C   UNL     1      -9.543  10.082  67.328  1.00  0.00    -0.188 C  
BRANCH  11  13
HETATM   13  C   UNL     1      -7.656   8.730  66.064  1.00  0.00    -0.093 C  
HETATM   14  O   UNL     1      -7.788   7.656  65.492  1.00  0.00    -0.098 OA 
BRANCH  13  15
HETATM   15  O   UNL     1      -6.580   9.071  66.806  1.00  0.00    -0.063 OA 
HETATM   16  C   UNL     1      -6.378   8.278  67.987  1.00  0.00    -0.056 C  
ENDBRANCH  13  15
ENDBRANCH  11  13
BRANCH  12  17
HETATM   17  C   UNL     1     -10.097   8.766  67.900  1.00  0.00    -0.257 A  
HETATM   18  O   UNL     1      -8.627   9.886  70.274  1.00  0.00    -0.175 OA 
HETATM   19  O   UNL     1     -10.576   9.554  71.225  1.00  0.00    -0.332 OA 
HETATM   20  C   UNL     1     -10.649   7.827  67.002  1.00  0.00    -0.396 A  
HETATM   21  C   UNL     1     -11.145   6.597  67.445  1.00  0.00    -0.398 A  
HETATM   22  C   UNL     1     -11.090   6.258  68.792  1.00  0.00    -0.424 A  
HETATM   23  C   UNL     1     -10.581   7.169  69.713  1.00  0.00    -0.250 A  
HETATM   24  C   UNL     1     -10.114   8.420  69.272  1.00  0.00    -0.202 A  
HETATM   25  N   UNL     1      -9.749   9.362  70.322  1.00  0.00    -0.229 N  
ENDBRANCH  12  17
ENDBRANCH   3   5
ENDBRANCH   2   3
TORSDOF 5
ENDMDL
MODEL       30
REMARK 921   NORMALIZED FREE ENERGY PREDICTED BY IDOCK:   -4.79 KCAL/MOL
REMARK 922        TOTAL FREE ENERGY PREDICTED BY IDOCK:   -7.41 KCAL/MOL
REMARK 923 INTER-LIGAND FREE ENERGY PREDICTED BY IDOCK:   -6.04 KCAL/MOL
REMARK 924 INTRA-LIGAND FREE ENERGY PREDICTED BY IDOCK:   -1.37 KCAL/MOL
REMARK 927      BINDING AFFINITY PREDICTED BY RF-SCORE:    0.00 PKD
ROOT
HETATM    1  C   UNL     1      -9.803  14.979  66.058  1.00  0.00    -0.319 C  
HETATM    2  O   UNL     1     -10.383  14.643  67.322  1.00  0.00    -0.253 OA 
ENDROOT
BRANCH   2   3
HETATM    3  C   UNL     1     -11.458  13.825  67.258  1.00  0.00    -0.341 C  
HETATM    4  O   UNL     1     -12.355  13.912  66.433  1.00  0.00    -0.448 OA 
BRANCH   3   5
HETATM    5  C   UNL     1     -11.412  12.809  68.345  1.00  0.00    -0.349 C  
HETATM    6  C   UNL     1     -11.997  13.101  69.533  1.00  0.00    -0.294 C  
HETATM    7  N   UNL     1     -12.157  12.114  70.483  1.00  0.00    -0.355 NA 
HETATM    8  C   UNL     1     -12.492  14.459  69.973  1.00  0.00    -0.353 C  
HETATM    9  C   UNL     1     -11.724  10.810  70.361  1.00  0.00    -0.351 C  
HETATM   10  C   UNL     1     -12.050   9.917  71.538  1.00  0.00    -0.496 C  
HETATM   11  C   UNL     1     -11.051  10.421  69.251  1.00  0.00    -0.303 C  
HETATM   12  C   UNL     1     -10.813  11.406  68.076  1.00  0.00    -0.264 C  
BRANCH  11  13
HETATM   13  C   UNL     1     -10.426   9.069  69.249  1.00  0.00    -0.228 C  
HETATM   14  O   UNL     1     -10.911   8.097  68.685  1.00  0.00    -0.078 OA 
BRANCH  13  15
HETATM   15  O   UNL     1      -9.288   9.036  69.978  1.00  0.00    -0.164 OA 
HETATM   16  C   UNL     1      -8.176   8.384  69.345  1.00  0.00    -0.116 C  
ENDBRANCH  13  15
ENDBRANCH  11  13
BRANCH  12  17
HETATM   17  C   UNL     1      -9.312  11.484  67.745  1.00  0.00    -0.168 A  
HETATM   18  O   UNL     1     -10.277   9.479  65.719  1.00  0.00    -0.255 OA 
HETATM   19  O   UNL     1      -9.277  10.871  64.349  1.00  0.00    -0.207 OA 
HETATM   20  C   UNL     1      -8.461  12.150  68.653  1.00  0.00    -0.005 A  
HETATM   21  C   UNL     1      -7.083  12.235  68.434  1.00  0.00    -0.094 A  
HETATM   22  C   UNL     1      -6.508  11.644  67.313  1.00  0.00    -0.120 A  
HETATM   23  C   UNL     1      -7.319  11.005  66.379  1.00  0.00    -0.128 A  
HETATM   24  C   UNL     1      -8.709  10.950  66.581  1.00  0.00    -0.155 A  
HETATM   25  N   UNL     1      -9.485  10.402  65.478  1.00  0.00    -0.198 N  
ENDBRANCH  12  17
ENDBRANCH   3   5
ENDBRANCH   2   3
TORSDOF 5
ENDMDL
MODEL       31
REMARK 921   NORMALIZED FREE ENERGY PREDICTED BY IDOCK:   -4.78 KCAL/MOL
REMARK 922        TOTAL FREE ENERGY PREDICTED BY IDOCK:   -7.40 KCAL/MOL
REMARK 923 INTER-LIGAND FREE ENERGY PREDICTED BY IDOCK:   -6.04 KCAL/MOL
REMARK 924 INTRA-LIGAND FREE ENERGY PREDICTED BY IDOCK:   -1.36 KCAL/MOL
REMARK 927      BINDING AFFINITY PREDICTED BY RF-SCORE:    0.00 PKD
ROOT
HETATM    1  C   UNL     1     -10.056   6.553  74.254  1.00  0.00    -0.356 C  
HETATM    2  O   UNL     1     -10.617   7.669  73.557  1.00  0.00    -0.343 OA 
ENDROOT
BRANCH   2   3
HETATM    3  C   UNL     1     -11.346   7.352  72.462  1.00  0.00    -0.313 C  
HETATM    4  O   UNL     1     -11.860   6.264  72.255  1.00  0.00    -0.311 OA 
BRANCH   3   5
HETATM    5  C   UNL     1     -11.421   8.509  71.527  1.00  0.00    -0.350 C  
HETATM    6  C   UNL     1     -12.486   9.344  71.611  1.00  0.00    -0.378 C  
HETATM    7  N   UNL     1     -12.485  10.533  70.911  1.00  0.00    -0.356 NA 
HETATM    8  C   UNL     1     -13.752   9.099  72.398  1.00  0.00    -0.543 C  
HETATM    9  C   UNL     1     -11.486  10.958  70.060  1.00  0.00    -0.329 C  
HETATM   10  C   UNL     1     -11.716  12.317  69.436  1.00  0.00    -0.392 C  
HETATM   11  C   UNL     1     -10.408  10.169  69.832  1.00  0.00    -0.308 C  
HETATM   12  C   UNL     1     -10.245   8.810  70.565  1.00  0.00    -0.240 C  
BRANCH  11  13
HETATM   13  C   UNL     1      -9.459  10.571  68.757  1.00  0.00    -0.180 C  
HETATM   14  O   UNL     1      -8.388  11.124  68.969  1.00  0.00    -0.134 OA 
BRANCH  13  15
HETATM   15  O   UNL     1      -9.942  10.295  67.526  1.00  0.00    -0.177 OA 
HETATM   16  C   UNL     1      -9.040   9.586  66.661  1.00  0.00    -0.148 C  
ENDBRANCH  13  15
ENDBRANCH  11  13
BRANCH  12  17
HETATM   17  C   UNL     1     -10.041   7.677  69.544  1.00  0.00    -0.192 A  
HETATM   18  O   UNL     1      -7.203   8.324  70.306  1.00  0.00    -0.049 OA 
HETATM   19  O   UNL     1      -7.160   6.164  70.691  1.00  0.00    -0.064 OA 
HETATM   20  C   UNL     1     -11.149   7.270  68.769  1.00  0.00     0.048 A  
HETATM   21  C   UNL     1     -11.033   6.268  67.801  1.00  0.00    -0.427 A  
HETATM   22  C   UNL     1      -9.808   5.654  67.564  1.00  0.00    -0.156 A  
HETATM   23  C   UNL     1      -8.700   6.007  68.329  1.00  0.00    -0.113 A  
HETATM   24  C   UNL     1      -8.824   6.990  69.326  1.00  0.00    -0.139 A  
HETATM   25  N   UNL     1      -7.656   7.177  70.176  1.00  0.00    -0.089 N  
ENDBRANCH  12  17
ENDBRANCH   3   5
ENDBRANCH   2   3
TORSDOF 5
ENDMDL
MODEL       32
REMARK 921   NORMALIZED FREE ENERGY PREDICTED BY IDOCK:   -4.77 KCAL/MOL
REMARK 922        TOTAL FREE ENERGY PREDICTED BY IDOCK:   -7.38 KCAL/MOL
REMARK 923 INTER-LIGAND FREE ENERGY PREDICTED BY IDOCK:   -6.06 KCAL/MOL
REMARK 924 INTRA-LIGAND FREE ENERGY PREDICTED BY IDOCK:   -1.31 KCAL/MOL
REMARK 927      BINDING AFFINITY PREDICTED BY RF-SCORE:    0.00 PKD
ROOT
HETATM    1  C   UNL     1     -11.251   5.132  72.832  1.00  0.00    -0.294 C  
HETATM    2  O   UNL     1     -11.827   6.309  72.259  1.00  0.00    -0.311 OA 
ENDROOT
BRANCH   2   3
HETATM    3  C   UNL     1     -11.272   7.473  72.667  1.00  0.00    -0.348 C  
HETATM    4  O   UNL     1     -10.759   7.658  73.760  1.00  0.00    -0.275 OA 
BRANCH   3   5
HETATM    5  C   UNL     1     -11.390   8.512  71.607  1.00  0.00    -0.362 C  
HETATM    6  C   UNL     1     -12.485   9.312  71.599  1.00  0.00    -0.368 C  
HETATM    7  N   UNL     1     -12.527  10.413  70.769  1.00  0.00    -0.341 NA 
HETATM    8  C   UNL     1     -13.742   9.112  72.414  1.00  0.00    -0.543 C  
HETATM    9  C   UNL     1     -11.545  10.775  69.872  1.00  0.00    -0.331 C  
HETATM   10  C   UNL     1     -11.824  12.044  69.098  1.00  0.00    -0.369 C  
HETATM   11  C   UNL     1     -10.438  10.005  69.730  1.00  0.00    -0.291 C  
HETATM   12  C   UNL     1     -10.226   8.745  70.612  1.00  0.00    -0.247 C  
BRANCH  11  13
HETATM   13  C   UNL     1      -9.505  10.317  68.613  1.00  0.00    -0.169 C  
HETATM   14  O   UNL     1      -9.711  10.003  67.448  1.00  0.00    -0.154 OA 
BRANCH  13  15
HETATM   15  O   UNL     1      -8.389  10.944  69.046  1.00  0.00    -0.152 OA 
HETATM   16  C   UNL     1      -8.046  12.141  68.330  1.00  0.00    -0.166 C  
ENDBRANCH  13  15
ENDBRANCH  11  13
BRANCH  12  17
HETATM   17  C   UNL     1      -9.980   7.512  69.726  1.00  0.00    -0.186 A  
HETATM   18  O   UNL     1      -7.195   8.140  70.673  1.00  0.00    -0.050 OA 
HETATM   19  O   UNL     1      -7.272   6.028  71.264  1.00  0.00    -0.075 OA 
HETATM   20  C   UNL     1     -11.032   7.065  68.896  1.00  0.00    -0.162 A  
HETATM   21  C   UNL     1     -10.874   5.970  68.042  1.00  0.00    -0.374 A  
HETATM   22  C   UNL     1      -9.658   5.297  67.975  1.00  0.00    -0.163 A  
HETATM   23  C   UNL     1      -8.608   5.689  68.800  1.00  0.00    -0.104 A  
HETATM   24  C   UNL     1      -8.777   6.768  69.684  1.00  0.00    -0.137 A  
HETATM   25  N   UNL     1      -7.680   7.001  70.613  1.00  0.00    -0.094 N  
ENDBRANCH  12  17
ENDBRANCH   3   5
ENDBRANCH   2   3
TORSDOF 5
ENDMDL
MODEL       33
REMARK 921   NORMALIZED FREE ENERGY PREDICTED BY IDOCK:   -4.75 KCAL/MOL
REMARK 922        TOTAL FREE ENERGY PREDICTED BY IDOCK:   -7.36 KCAL/MOL
REMARK 923 INTER-LIGAND FREE ENERGY PREDICTED BY IDOCK:   -6.23 KCAL/MOL
REMARK 924 INTRA-LIGAND FREE ENERGY PREDICTED BY IDOCK:   -1.13 KCAL/MOL
REMARK 927      BINDING AFFINITY PREDICTED BY RF-SCORE:    0.00 PKD
ROOT
HETATM    1  C   UNL     1      -7.426  15.819  67.851  1.00  0.00    -0.134 C  
HETATM    2  O   UNL     1      -7.791  14.486  68.217  1.00  0.00    -0.116 OA 
ENDROOT
BRANCH   2   3
HETATM    3  C   UNL     1      -9.122  14.258  68.295  1.00  0.00    -0.188 C  
HETATM    4  O   UNL     1      -9.862  14.719  69.150  1.00  0.00    -0.215 OA 
BRANCH   3   5
HETATM    5  C   UNL     1      -9.565  13.348  67.203  1.00  0.00    -0.241 C  
HETATM    6  C   UNL     1     -10.137  13.887  66.098  1.00  0.00    -0.308 C  
HETATM    7  N   UNL     1     -10.365  13.102  64.987  1.00  0.00    -0.329 NA 
HETATM    8  C   UNL     1     -10.607  15.315  65.944  1.00  0.00    -0.345 C  
HETATM    9  C   UNL     1     -10.099  11.752  64.895  1.00  0.00    -0.259 C  
HETATM   10  C   UNL     1     -10.416  11.129  63.554  1.00  0.00    -0.422 C  
HETATM   11  C   UNL     1      -9.602  11.084  65.965  1.00  0.00    -0.249 C  
HETATM   12  C   UNL     1      -9.264  11.830  67.284  1.00  0.00    -0.173 C  
BRANCH  11  13
HETATM   13  C   UNL     1      -9.523   9.599  65.890  1.00  0.00    -0.236 C  
HETATM   14  O   UNL     1      -8.579   8.993  65.401  1.00  0.00    -0.155 OA 
BRANCH  13  15
HETATM   15  O   UNL     1     -10.634   9.007  66.384  1.00  0.00    -0.148 OA 
HETATM   16  C   UNL     1     -10.425   7.718  66.980  1.00  0.00    -0.349 C  
ENDBRANCH  13  15
ENDBRANCH  11  13
BRANCH  12  17
HETATM   17  C   UNL     1      -9.991  11.170  68.468  1.00  0.00    -0.204 A  
HETATM   18  O   UNL     1      -7.396   9.648  68.425  1.00  0.00    -0.074 OA 
HETATM   19  O   UNL     1      -7.372  10.272  70.529  1.00  0.00    -0.281 OA 
HETATM   20  C   UNL     1     -11.361  11.454  68.653  1.00  0.00    -0.327 A  
HETATM   21  C   UNL     1     -12.095  10.868  69.689  1.00  0.00    -0.400 A  
HETATM   22  C   UNL     1     -11.490   9.969  70.562  1.00  0.00    -0.407 A  
HETATM   23  C   UNL     1     -10.133   9.688  70.430  1.00  0.00    -0.336 A  
HETATM   24  C   UNL     1      -9.387  10.303  69.410  1.00  0.00    -0.199 A  
HETATM   25  N   UNL     1      -7.951  10.069  69.451  1.00  0.00    -0.130 N  
ENDBRANCH  12  17
ENDBRANCH   3   5
ENDBRANCH   2   3
TORSDOF 5
ENDMDL
MODEL       34
REMARK 921   NORMALIZED FREE ENERGY PREDICTED BY IDOCK:   -4.74 KCAL/MOL
REMARK 922        TOTAL FREE ENERGY PREDICTED BY IDOCK:   -7.34 KCAL/MOL
REMARK 923 INTER-LIGAND FREE ENERGY PREDICTED BY IDOCK:   -6.19 KCAL/MOL
REMARK 924 INTRA-LIGAND FREE ENERGY PREDICTED BY IDOCK:   -1.15 KCAL/MOL
REMARK 927      BINDING AFFINITY PREDICTED BY RF-SCORE:    0.00 PKD
ROOT
HETATM    1  C   UNL     1     -11.157   7.326  72.565  1.00  0.00    -0.293 C  
HETATM    2  O   UNL     1     -11.038   7.836  71.234  1.00  0.00    -0.240 OA 
ENDROOT
BRANCH   2   3
HETATM    3  C   UNL     1     -10.244   8.923  71.107  1.00  0.00    -0.266 C  
HETATM    4  O   UNL     1      -9.327   9.211  71.860  1.00  0.00    -0.349 OA 
BRANCH   3   5
HETATM    5  C   UNL     1     -10.653   9.739  69.930  1.00  0.00    -0.301 C  
HETATM    6  C   UNL     1     -11.752  10.525  70.034  1.00  0.00    -0.312 C  
HETATM    7  N   UNL     1     -12.037  11.446  69.047  1.00  0.00    -0.421 NA 
HETATM    8  C   UNL     1     -12.773  10.489  71.148  1.00  0.00    -0.518 C  
HETATM    9  C   UNL     1     -11.309  11.626  67.890  1.00  0.00    -0.299 C  
HETATM   10  C   UNL     1     -11.817  12.724  66.981  1.00  0.00    -0.428 C  
HETATM   11  C   UNL     1     -10.234  10.840  67.635  1.00  0.00    -0.221 C  
HETATM   12  C   UNL     1      -9.766   9.773  68.661  1.00  0.00    -0.162 C  
BRANCH  11  13
HETATM   13  C   UNL     1      -9.604  10.929  66.289  1.00  0.00    -0.200 C  
HETATM   14  O   UNL     1      -8.582  11.562  66.058  1.00  0.00    -0.148 OA 
BRANCH  13  15
HETATM   15  O   UNL     1     -10.317  10.267  65.351  1.00  0.00    -0.269 OA 
HETATM   16  C   UNL     1     -10.326  10.875  64.050  1.00  0.00    -0.349 C  
ENDBRANCH  13  15
ENDBRANCH  11  13
BRANCH  12  17
HETATM   17  C   UNL     1      -9.682   8.392  67.989  1.00  0.00    -0.184 A  
HETATM   18  O   UNL     1      -6.805   9.269  67.930  1.00  0.00    -0.070 OA 
HETATM   19  O   UNL     1      -6.532   7.321  68.901  1.00  0.00    -0.037 OA 
HETATM   20  C   UNL     1     -10.886   7.760  67.609  1.00  0.00    -0.149 A  
HETATM   21  C   UNL     1     -10.888   6.518  66.967  1.00  0.00    -0.465 A  
HETATM   22  C   UNL     1      -9.690   5.876  66.668  1.00  0.00    -0.184 A  
HETATM   23  C   UNL     1      -8.484   6.453  67.054  1.00  0.00    -0.112 A  
HETATM   24  C   UNL     1      -8.483   7.686  67.731  1.00  0.00    -0.122 A  
HETATM   25  N   UNL     1      -7.190   8.130  68.231  1.00  0.00    -0.091 N  
ENDBRANCH  12  17
ENDBRANCH   3   5
ENDBRANCH   2   3
TORSDOF 5
ENDMDL
MODEL       35
REMARK 921   NORMALIZED FREE ENERGY PREDICTED BY IDOCK:   -4.70 KCAL/MOL
REMARK 922        TOTAL FREE ENERGY PREDICTED BY IDOCK:   -7.29 KCAL/MOL
REMARK 923 INTER-LIGAND FREE ENERGY PREDICTED BY IDOCK:   -5.91 KCAL/MOL
REMARK 924 INTRA-LIGAND FREE ENERGY PREDICTED BY IDOCK:   -1.38 KCAL/MOL
REMARK 927      BINDING AFFINITY PREDICTED BY RF-SCORE:    0.00 PKD
ROOT
HETATM    1  C   UNL     1      -7.626   9.121  67.138  1.00  0.00    -0.091 C  
HETATM    2  O   UNL     1      -8.378  10.256  67.576  1.00  0.00    -0.114 OA 
ENDROOT
BRANCH   2   3
HETATM    3  C   UNL     1      -9.707  10.187  67.339  1.00  0.00    -0.161 C  
HETATM    4  O   UNL     1     -10.214  10.019  66.240  1.00  0.00    -0.241 OA 
BRANCH   3   5
HETATM    5  C   UNL     1     -10.477  10.366  68.601  1.00  0.00    -0.216 C  
HETATM    6  C   UNL     1     -10.916  11.607  68.925  1.00  0.00    -0.233 C  
HETATM    7  N   UNL     1     -11.804  11.773  69.968  1.00  0.00    -0.341 NA 
HETATM    8  C   UNL     1     -10.501  12.900  68.263  1.00  0.00    -0.250 C  
HETATM    9  C   UNL     1     -12.279  10.765  70.781  1.00  0.00    -0.381 C  
HETATM   10  C   UNL     1     -13.268  11.209  71.836  1.00  0.00    -0.488 C  
HETATM   11  C   UNL     1     -11.847   9.492  70.605  1.00  0.00    -0.301 C  
HETATM   12  C   UNL     1     -10.866   9.134  69.456  1.00  0.00    -0.194 C  
BRANCH  11  13
HETATM   13  C   UNL     1     -12.224   8.477  71.628  1.00  0.00    -0.322 C  
HETATM   14  O   UNL     1     -13.146   7.684  71.489  1.00  0.00    -0.340 OA 
BRANCH  13  15
HETATM   15  O   UNL     1     -11.457   8.566  72.737  1.00  0.00    -0.296 OA 
HETATM   16  C   UNL     1     -10.911   7.322  73.203  1.00  0.00    -0.357 C  
ENDBRANCH  13  15
ENDBRANCH  11  13
BRANCH  12  17
HETATM   17  C   UNL     1      -9.626   8.419  70.020  1.00  0.00    -0.168 A  
HETATM   18  O   UNL     1     -11.299   6.094  69.100  1.00  0.00    -0.399 OA 
HETATM   19  O   UNL     1      -9.441   5.598  68.043  1.00  0.00    -0.107 OA 
HETATM   20  C   UNL     1      -8.706   9.176  70.778  1.00  0.00    -0.285 A  
HETATM   21  C   UNL     1      -7.572   8.589  71.347  1.00  0.00    -0.124 A  
HETATM   22  C   UNL     1      -7.329   7.228  71.194  1.00  0.00    -0.074 A  
HETATM   23  C   UNL     1      -8.197   6.455  70.428  1.00  0.00    -0.121 A  
HETATM   24  C   UNL     1      -9.319   7.052  69.827  1.00  0.00    -0.146 A  
HETATM   25  N   UNL     1     -10.077   6.199  68.921  1.00  0.00    -0.161 N  
ENDBRANCH  12  17
ENDBRANCH   3   5
ENDBRANCH   2   3
TORSDOF 5
ENDMDL
MODEL       36
REMARK 921   NORMALIZED FREE ENERGY PREDICTED BY IDOCK:   -4.65 KCAL/MOL
REMARK 922        TOTAL FREE ENERGY PREDICTED BY IDOCK:   -7.23 KCAL/MOL
REMARK 923 INTER-LIGAND FREE ENERGY PREDICTED BY IDOCK:   -5.90 KCAL/MOL
REMARK 924 INTRA-LIGAND FREE ENERGY PREDICTED BY IDOCK:   -1.32 KCAL/MOL
REMARK 927      BINDING AFFINITY PREDICTED BY RF-SCORE:    0.00 PKD
ROOT
HETATM    1  C   UNL     1     -11.777  14.080  68.623  1.00  0.00    -0.354 C  
HETATM    2  O   UNL     1     -10.894  13.322  67.792  1.00  0.00    -0.244 OA 
ENDROOT
BRANCH   2   3
HETATM    3  C   UNL     1     -11.301  12.060  67.527  1.00  0.00    -0.319 C  
HETATM    4  O   UNL     1     -12.057  11.406  68.230  1.00  0.00    -0.606 OA 
BRANCH   3   5
HETATM    5  C   UNL     1     -10.685  11.561  66.266  1.00  0.00    -0.321 C  
HETATM    6  C   UNL     1     -11.278  11.870  65.087  1.00  0.00    -0.289 C  
HETATM    7  N   UNL     1     -10.626  11.607  63.899  1.00  0.00    -0.351 NA 
HETATM    8  C   UNL     1     -12.653  12.471  64.910  1.00  0.00    -0.469 C  
HETATM    9  C   UNL     1      -9.397  10.993  63.781  1.00  0.00    -0.226 C  
HETATM   10  C   UNL     1      -8.891  10.847  62.364  1.00  0.00    -0.358 C  
HETATM   11  C   UNL     1      -8.745  10.564  64.889  1.00  0.00    -0.192 C  
HETATM   12  C   UNL     1      -9.331  10.809  66.306  1.00  0.00    -0.205 C  
BRANCH  11  13
HETATM   13  C   UNL     1      -7.525   9.728  64.706  1.00  0.00    -0.130 C  
HETATM   14  O   UNL     1      -7.553   8.553  64.368  1.00  0.00    -0.104 OA 
BRANCH  13  15
HETATM   15  O   UNL     1      -6.396  10.410  64.999  1.00  0.00    -0.126 OA 
HETATM   16  C   UNL     1      -5.191   9.864  64.439  1.00  0.00    -0.073 C  
ENDBRANCH  13  15
ENDBRANCH  11  13
BRANCH  12  17
HETATM   17  C   UNL     1      -9.442   9.479  67.071  1.00  0.00    -0.197 A  
HETATM   18  O   UNL     1      -6.980  10.687  68.309  1.00  0.00    -0.070 OA 
HETATM   19  O   UNL     1      -8.108  10.290  70.148  1.00  0.00    -0.089 OA 
HETATM   20  C   UNL     1     -10.350   8.508  66.596  1.00  0.00    -0.303 A  
HETATM   21  C   UNL     1     -10.484   7.265  67.222  1.00  0.00    -0.380 A  
HETATM   22  C   UNL     1      -9.706   6.945  68.329  1.00  0.00    -0.132 A  
HETATM   23  C   UNL     1      -8.822   7.888  68.846  1.00  0.00    -0.142 A  
HETATM   24  C   UNL     1      -8.712   9.151  68.238  1.00  0.00    -0.129 A  
HETATM   25  N   UNL     1      -7.882  10.119  68.941  1.00  0.00    -0.093 N  
ENDBRANCH  12  17
ENDBRANCH   3   5
ENDBRANCH   2   3
TORSDOF 5
ENDMDL
MODEL       37
REMARK 921   NORMALIZED FREE ENERGY PREDICTED BY IDOCK:   -4.65 KCAL/MOL
REMARK 922        TOTAL FREE ENERGY PREDICTED BY IDOCK:   -7.22 KCAL/MOL
REMARK 923 INTER-LIGAND FREE ENERGY PREDICTED BY IDOCK:   -6.34 KCAL/MOL
REMARK 924 INTRA-LIGAND FREE ENERGY PREDICTED BY IDOCK:   -0.89 KCAL/MOL
REMARK 927      BINDING AFFINITY PREDICTED BY RF-SCORE:    0.00 PKD
ROOT
HETATM    1  C   UNL     1     -10.651   5.308  66.463  1.00  0.00    -0.285 C  
HETATM    2  O   UNL     1     -10.945   6.699  66.617  1.00  0.00    -0.274 OA 
ENDROOT
BRANCH   2   3
HETATM    3  C   UNL     1      -9.866   7.515  66.614  1.00  0.00    -0.204 C  
HETATM    4  O   UNL     1      -8.727   7.167  66.341  1.00  0.00    -0.127 OA 
BRANCH   3   5
HETATM    5  C   UNL     1     -10.250   8.898  67.010  1.00  0.00    -0.345 C  
HETATM    6  C   UNL     1     -10.113   9.896  66.102  1.00  0.00    -0.245 C  
HETATM    7  N   UNL     1     -10.651  11.140  66.361  1.00  0.00    -0.260 NA 
HETATM    8  C   UNL     1      -9.376   9.810  64.786  1.00  0.00    -0.327 C  
HETATM    9  C   UNL     1     -11.305  11.502  67.519  1.00  0.00    -0.299 C  
HETATM   10  C   UNL     1     -11.826  12.922  67.540  1.00  0.00    -0.407 C  
HETATM   11  C   UNL     1     -11.431  10.612  68.534  1.00  0.00    -0.333 C  
HETATM   12  C   UNL     1     -10.903   9.159  68.390  1.00  0.00    -0.098 C  
BRANCH  11  13
HETATM   13  C   UNL     1     -11.959  11.104  69.837  1.00  0.00    -0.363 C  
HETATM   14  O   UNL     1     -11.577  12.133  70.379  1.00  0.00    -0.169 OA 
BRANCH  13  15
HETATM   15  O   UNL     1     -12.871  10.258  70.365  1.00  0.00    -0.273 OA 
HETATM   16  C   UNL     1     -13.060  10.375  71.784  1.00  0.00    -0.462 C  
ENDBRANCH  13  15
ENDBRANCH  11  13
BRANCH  12  17
HETATM   17  C   UNL     1      -9.943   8.827  69.545  1.00  0.00    -0.195 A  
HETATM   18  O   UNL     1     -12.235   6.963  70.109  1.00  0.00    -0.185 OA 
HETATM   19  O   UNL     1     -10.609   5.490  70.118  1.00  0.00    -0.285 OA 
HETATM   20  C   UNL     1      -8.841   9.683  69.765  1.00  0.00    -0.224 A  
HETATM   21  C   UNL     1      -7.943   9.462  70.813  1.00  0.00    -0.154 A  
HETATM   22  C   UNL     1      -8.124   8.392  71.684  1.00  0.00    -0.184 A  
HETATM   23  C   UNL     1      -9.180   7.509  71.481  1.00  0.00    -0.149 A  
HETATM   24  C   UNL     1     -10.064   7.711  70.407  1.00  0.00    -0.190 A  
HETATM   25  N   UNL     1     -11.038   6.651  70.183  1.00  0.00    -0.301 N  
ENDBRANCH  12  17
ENDBRANCH   3   5
ENDBRANCH   2   3
TORSDOF 5
ENDMDL
MODEL       38
REMARK 921   NORMALIZED FREE ENERGY PREDICTED BY IDOCK:   -4.61 KCAL/MOL
REMARK 922        TOTAL FREE ENERGY PREDICTED BY IDOCK:   -7.18 KCAL/MOL
REMARK 923 INTER-LIGAND FREE ENERGY PREDICTED BY IDOCK:   -5.98 KCAL/MOL
REMARK 924 INTRA-LIGAND FREE ENERGY PREDICTED BY IDOCK:   -1.21 KCAL/MOL
REMARK 927      BINDING AFFINITY PREDICTED BY RF-SCORE:    0.00 PKD
ROOT
HETATM    1  C   UNL     1      -8.388   8.892  67.282  1.00  0.00    -0.104 C  
HETATM    2  O   UNL     1      -8.582   7.535  67.692  1.00  0.00    -0.119 OA 
ENDROOT
BRANCH   2   3
HETATM    3  C   UNL     1      -9.865   7.192  67.943  1.00  0.00    -0.144 C  
HETATM    4  O   UNL     1     -10.839   7.659  67.372  1.00  0.00    -0.258 OA 
BRANCH   3   5
HETATM    5  C   UNL     1      -9.936   6.176  69.029  1.00  0.00    -0.188 C  
HETATM    6  C   UNL     1      -9.897   4.862  68.695  1.00  0.00    -0.152 C  
HETATM    7  N   UNL     1      -9.749   3.906  69.678  1.00  0.00    -0.189 NA 
HETATM    8  C   UNL     1     -10.036   4.292  67.302  1.00  0.00    -0.136 C  
HETATM    9  C   UNL     1      -9.678   4.156  71.032  1.00  0.00    -0.190 C  
HETATM   10  C   UNL     1      -9.486   2.931  71.898  1.00  0.00    -0.203 C  
HETATM   11  C   UNL     1      -9.788   5.426  71.493  1.00  0.00    -0.221 C  
HETATM   12  C   UNL     1      -9.932   6.621  70.513  1.00  0.00    -0.197 C  
BRANCH  11  13
HETATM   13  C   UNL     1      -9.911   5.630  72.963  1.00  0.00    -0.173 C  
HETATM   14  O   UNL     1     -10.917   5.355  73.605  1.00  0.00    -0.289 OA 
BRANCH  13  15
HETATM   15  O   UNL     1      -8.802   6.192  73.491  1.00  0.00    -0.125 OA 
HETATM   16  C   UNL     1      -8.990   7.501  74.053  1.00  0.00    -0.242 C  
ENDBRANCH  13  15
ENDBRANCH  11  13
BRANCH  12  17
HETATM   17  C   UNL     1     -11.183   7.446  70.862  1.00  0.00    -0.292 A  
HETATM   18  O   UNL     1      -9.012   9.517  71.081  1.00  0.00    -0.249 OA 
HETATM   19  O   UNL     1     -10.341  10.584  69.700  1.00  0.00    -0.231 OA 
HETATM   20  C   UNL     1     -12.391   6.757  71.106  1.00  0.00    -0.386 A  
HETATM   21  C   UNL     1     -13.561   7.436  71.457  1.00  0.00    -0.454 A  
HETATM   22  C   UNL     1     -13.560   8.821  71.592  1.00  0.00    -0.425 A  
HETATM   23  C   UNL     1     -12.396   9.538  71.330  1.00  0.00    -0.451 A  
HETATM   24  C   UNL     1     -11.228   8.858  70.944  1.00  0.00    -0.279 A  
HETATM   25  N   UNL     1     -10.112   9.701  70.540  1.00  0.00    -0.279 N  
ENDBRANCH  12  17
ENDBRANCH   3   5
ENDBRANCH   2   3
TORSDOF 5
ENDMDL
MODEL       39
REMARK 921   NORMALIZED FREE ENERGY PREDICTED BY IDOCK:   -4.61 KCAL/MOL
REMARK 922        TOTAL FREE ENERGY PREDICTED BY IDOCK:   -7.17 KCAL/MOL
REMARK 923 INTER-LIGAND FREE ENERGY PREDICTED BY IDOCK:   -6.17 KCAL/MOL
REMARK 924 INTRA-LIGAND FREE ENERGY PREDICTED BY IDOCK:   -1.00 KCAL/MOL
REMARK 927      BINDING AFFINITY PREDICTED BY RF-SCORE:    0.00 PKD
ROOT
HETATM    1  C   UNL     1      -9.576  10.276  68.069  1.00  0.00    -0.145 C  
HETATM    2  O   UNL     1      -9.072  11.612  68.157  1.00  0.00    -0.170 OA 
ENDROOT
BRANCH   2   3
HETATM    3  C   UNL     1      -8.709  12.164  66.977  1.00  0.00    -0.190 C  
HETATM    4  O   UNL     1      -8.869  11.646  65.883  1.00  0.00    -0.164 OA 
BRANCH   3   5
HETATM    5  C   UNL     1      -8.065  13.490  67.193  1.00  0.00    -0.097 C  
HETATM    6  C   UNL     1      -6.740  13.531  67.478  1.00  0.00    -0.131 C  
HETATM    7  N   UNL     1      -6.072  14.738  67.475  1.00  0.00    -0.343 NA 
HETATM    8  C   UNL     1      -5.871  12.351  67.847  1.00  0.00    -0.086 C  
HETATM    9  C   UNL     1      -6.649  15.969  67.246  1.00  0.00    -0.184 C  
HETATM   10  C   UNL     1      -5.688  17.138  67.271  1.00  0.00    -0.174 C  
HETATM   11  C   UNL     1      -7.984  16.063  67.031  1.00  0.00    -0.262 C  
HETATM   12  C   UNL     1      -8.874  14.793  66.975  1.00  0.00    -0.258 C  
BRANCH  11  13
HETATM   13  C   UNL     1      -8.594  17.422  66.992  1.00  0.00    -0.233 C  
HETATM   14  O   UNL     1      -8.582  18.198  67.938  1.00  0.00    -0.245 OA 
BRANCH  13  15
HETATM   15  O   UNL     1      -9.196  17.672  65.808  1.00  0.00    -0.505 OA 
HETATM   16  C   UNL     1     -10.423  18.414  65.894  1.00  0.00    -0.321 C  
ENDBRANCH  13  15
ENDBRANCH  11  13
BRANCH  12  17
HETATM   17  C   UNL     1     -10.036  14.915  67.977  1.00  0.00    -0.220 A  
HETATM   18  O   UNL     1     -11.511  14.564  65.379  1.00  0.00    -0.332 OA 
HETATM   19  O   UNL     1     -12.472  12.954  66.518  1.00  0.00    -0.396 OA 
HETATM   20  C   UNL     1      -9.743  15.339  69.291  1.00  0.00    -0.254 A  
HETATM   21  C   UNL     1     -10.749  15.501  70.247  1.00  0.00    -0.352 A  
HETATM   22  C   UNL     1     -12.080  15.263  69.919  1.00  0.00    -0.375 A  
HETATM   23  C   UNL     1     -12.405  14.814  68.642  1.00  0.00     0.005 A  
HETATM   24  C   UNL     1     -11.389  14.617  67.691  1.00  0.00    -0.336 A  
HETATM   25  N   UNL     1     -11.808  13.998  66.441  1.00  0.00    -0.397 N  
ENDBRANCH  12  17
ENDBRANCH   3   5
ENDBRANCH   2   3
TORSDOF 5
ENDMDL
MODEL       40
REMARK 921   NORMALIZED FREE ENERGY PREDICTED BY IDOCK:   -4.56 KCAL/MOL
REMARK 922        TOTAL FREE ENERGY PREDICTED BY IDOCK:   -7.12 KCAL/MOL
REMARK 923 INTER-LIGAND FREE ENERGY PREDICTED BY IDOCK:   -6.47 KCAL/MOL
REMARK 924 INTRA-LIGAND FREE ENERGY PREDICTED BY IDOCK:   -0.65 KCAL/MOL
REMARK 927      BINDING AFFINITY PREDICTED BY RF-SCORE:    0.00 PKD
ROOT
HETATM    1  C   UNL     1     -10.621   7.826  70.145  1.00  0.00    -0.237 C  
HETATM    2  O   UNL     1     -10.454   8.450  68.868  1.00  0.00    -0.218 OA 
ENDROOT
BRANCH   2   3
HETATM    3  C   UNL     1      -9.623   9.516  68.858  1.00  0.00    -0.156 C  
HETATM    4  O   UNL     1      -8.901   9.850  69.785  1.00  0.00    -0.196 OA 
BRANCH   3   5
HETATM    5  C   UNL     1      -9.720  10.247  67.564  1.00  0.00    -0.196 C  
HETATM    6  C   UNL     1      -8.774  10.024  66.619  1.00  0.00    -0.129 C  
HETATM    7  N   UNL     1      -8.946  10.518  65.342  1.00  0.00    -0.178 NA 
HETATM    8  C   UNL     1      -7.469   9.288  66.818  1.00  0.00    -0.087 C  
HETATM    9  C   UNL     1     -10.010  11.287  64.920  1.00  0.00    -0.274 C  
HETATM   10  C   UNL     1      -9.975  11.678  63.459  1.00  0.00    -0.429 C  
HETATM   11  C   UNL     1     -10.979  11.644  65.798  1.00  0.00    -0.329 C  
HETATM   12  C   UNL     1     -10.946  11.147  67.268  1.00  0.00    -0.354 C  
BRANCH  11  13
HETATM   13  C   UNL     1     -11.995  12.639  65.354  1.00  0.00    -0.446 C  
HETATM   14  O   UNL     1     -13.141  12.345  65.042  1.00  0.00    -0.678 OA 
BRANCH  13  15
HETATM   15  O   UNL     1     -11.487  13.890  65.297  1.00  0.00    -0.303 OA 
HETATM   16  C   UNL     1     -12.252  14.823  64.518  1.00  0.00    -0.428 C  
ENDBRANCH  13  15
ENDBRANCH  11  13
BRANCH  12  17
HETATM   17  C   UNL     1     -11.020  12.341  68.234  1.00  0.00    -0.268 A  
HETATM   18  O   UNL     1     -13.238  10.591  69.266  1.00  0.00     0.411 OA 
HETATM   19  O   UNL     1     -12.139  10.865  71.145  1.00  0.00    -0.334 OA 
HETATM   20  C   UNL     1     -10.282  13.503  67.918  1.00  0.00    -0.247 A  
HETATM   21  C   UNL     1     -10.324  14.639  68.732  1.00  0.00    -0.248 A  
HETATM   22  C   UNL     1     -11.113  14.658  69.877  1.00  0.00    -0.238 A  
HETATM   23  C   UNL     1     -11.831  13.521  70.239  1.00  0.00    -0.327 A  
HETATM   24  C   UNL     1     -11.763  12.367  69.438  1.00  0.00    -0.322 A  
HETATM   25  N   UNL     1     -12.418  11.185  69.980  1.00  0.00    -0.260 N  
ENDBRANCH  12  17
ENDBRANCH   3   5
ENDBRANCH   2   3
TORSDOF 5
ENDMDL
MODEL       41
REMARK 921   NORMALIZED FREE ENERGY PREDICTED BY IDOCK:   -4.52 KCAL/MOL
REMARK 922        TOTAL FREE ENERGY PREDICTED BY IDOCK:   -7.07 KCAL/MOL
REMARK 923 INTER-LIGAND FREE ENERGY PREDICTED BY IDOCK:   -5.78 KCAL/MOL
REMARK 924 INTRA-LIGAND FREE ENERGY PREDICTED BY IDOCK:   -1.28 KCAL/MOL
REMARK 927      BINDING AFFINITY PREDICTED BY RF-SCORE:    0.00 PKD
ROOT
HETATM    1  C   UNL     1     -12.587  15.379  70.602  1.00  0.00    -0.439 C  
HETATM    2  O   UNL     1     -11.269  15.791  70.231  1.00  0.00    -0.303 OA 
ENDROOT
BRANCH   2   3
HETATM    3  C   UNL     1     -11.044  15.858  68.899  1.00  0.00    -0.316 C  
HETATM    4  O   UNL     1     -11.872  16.193  68.065  1.00  0.00    -0.083 OA 
BRANCH   3   5
HETATM    5  C   UNL     1      -9.650  15.445  68.578  1.00  0.00    -0.201 C  
HETATM    6  C   UNL     1      -8.671  16.383  68.606  1.00  0.00    -0.234 C  
HETATM    7  N   UNL     1      -7.348  16.001  68.523  1.00  0.00    -0.140 NA 
HETATM    8  C   UNL     1      -8.872  17.879  68.691  1.00  0.00    -0.267 C  
HETATM    9  C   UNL     1      -6.899  14.707  68.362  1.00  0.00    -0.102 C  
HETATM   10  C   UNL     1      -5.395  14.554  68.327  1.00  0.00    -0.114 C  
HETATM   11  C   UNL     1      -7.789  13.691  68.238  1.00  0.00    -0.141 C  
HETATM   12  C   UNL     1      -9.316  13.952  68.339  1.00  0.00    -0.201 C  
BRANCH  11  13
HETATM   13  C   UNL     1      -7.269  12.347  67.863  1.00  0.00    -0.110 C  
HETATM   14  O   UNL     1      -7.092  11.986  66.707  1.00  0.00    -0.084 OA 
BRANCH  13  15
HETATM   15  O   UNL     1      -7.062  11.564  68.945  1.00  0.00    -0.097 OA 
HETATM   16  C   UNL     1      -5.982  10.625  68.821  1.00  0.00    -0.040 C  
ENDBRANCH  13  15
ENDBRANCH  11  13
BRANCH  12  17
HETATM   17  C   UNL     1     -10.030  13.403  67.092  1.00  0.00    -0.242 A  
HETATM   18  O   UNL     1     -10.279  11.090  68.999  1.00  0.00    -0.210 OA 
HETATM   19  O   UNL     1     -12.396  11.301  68.466  1.00  0.00    -0.543 OA 
HETATM   20  C   UNL     1      -9.906  14.119  65.881  1.00  0.00    -0.312 A  
HETATM   21  C   UNL     1     -10.502  13.666  64.700  1.00  0.00    -0.442 A  
HETATM   22  C   UNL     1     -11.226  12.478  64.686  1.00  0.00    -0.353 A  
HETATM   23  C   UNL     1     -11.396  11.760  65.866  1.00  0.00    -0.324 A  
HETATM   24  C   UNL     1     -10.825  12.233  67.060  1.00  0.00    -0.250 A  
HETATM   25  N   UNL     1     -11.189  11.501  68.266  1.00  0.00    -0.237 N  
ENDBRANCH  12  17
ENDBRANCH   3   5
ENDBRANCH   2   3
TORSDOF 5
ENDMDL
MODEL       42
REMARK 921   NORMALIZED FREE ENERGY PREDICTED BY IDOCK:   -4.49 KCAL/MOL
REMARK 922        TOTAL FREE ENERGY PREDICTED BY IDOCK:   -7.03 KCAL/MOL
REMARK 923 INTER-LIGAND FREE ENERGY PREDICTED BY IDOCK:   -5.92 KCAL/MOL
REMARK 924 INTRA-LIGAND FREE ENERGY PREDICTED BY IDOCK:   -1.11 KCAL/MOL
REMARK 927      BINDING AFFINITY PREDICTED BY RF-SCORE:    0.00 PKD
ROOT
HETATM    1  C   UNL     1     -10.094  10.619  64.836  1.00  0.00    -0.335 C  
HETATM    2  O   UNL     1     -10.836  10.881  66.031  1.00  0.00    -0.195 OA 
ENDROOT
BRANCH   2   3
HETATM    3  C   UNL     1     -10.148  11.524  67.001  1.00  0.00    -0.210 C  
HETATM    4  O   UNL     1      -9.176  12.241  66.813  1.00  0.00    -0.200 OA 
BRANCH   3   5
HETATM    5  C   UNL     1     -10.723  11.224  68.342  1.00  0.00    -0.238 C  
HETATM    6  C   UNL     1     -11.402  12.201  68.992  1.00  0.00    -0.276 C  
HETATM    7  N   UNL     1     -12.122  11.899  70.129  1.00  0.00    -0.319 NA 
HETATM    8  C   UNL     1     -11.439  13.664  68.614  1.00  0.00    -0.342 C  
HETATM    9  C   UNL     1     -12.190  10.658  70.726  1.00  0.00    -0.375 C  
HETATM   10  C   UNL     1     -13.074  10.586  71.951  1.00  0.00    -0.567 C  
HETATM   11  C   UNL     1     -11.485   9.620  70.213  1.00  0.00    -0.288 C  
HETATM   12  C   UNL     1     -10.645   9.788  68.918  1.00  0.00    -0.240 C  
BRANCH  11  13
HETATM   13  C   UNL     1     -11.423   8.357  71.000  1.00  0.00    -0.268 C  
HETATM   14  O   UNL     1     -12.028   7.337  70.696  1.00  0.00    -0.291 OA 
BRANCH  13  15
HETATM   15  O   UNL     1     -10.659   8.488  72.108  1.00  0.00    -0.304 OA 
HETATM   16  C   UNL     1     -10.901   7.512  73.134  1.00  0.00    -0.395 C  
ENDBRANCH  13  15
ENDBRANCH  11  13
BRANCH  12  17
HETATM   17  C   UNL     1      -9.191   9.354  69.169  1.00  0.00    -0.155 A  
HETATM   18  O   UNL     1     -10.380   6.844  68.014  1.00  0.00    -0.169 OA 
HETATM   19  O   UNL     1      -8.668   7.047  66.656  1.00  0.00    -0.118 OA 
HETATM   20  C   UNL     1      -8.366  10.199  69.943  1.00  0.00    -0.110 A  
HETATM   21  C   UNL     1      -7.043   9.857  70.237  1.00  0.00    -0.155 A  
HETATM   22  C   UNL     1      -6.506   8.656  69.785  1.00  0.00    -0.038 A  
HETATM   23  C   UNL     1      -7.279   7.811  68.993  1.00  0.00    -0.080 A  
HETATM   24  C   UNL     1      -8.598   8.171  68.668  1.00  0.00    -0.127 A  
HETATM   25  N   UNL     1      -9.270   7.304  67.710  1.00  0.00    -0.127 N  
ENDBRANCH  12  17
ENDBRANCH   3   5
ENDBRANCH   2   3
TORSDOF 5
ENDMDL
MODEL       43
REMARK 921   NORMALIZED FREE ENERGY PREDICTED BY IDOCK:   -4.49 KCAL/MOL
REMARK 922        TOTAL FREE ENERGY PREDICTED BY IDOCK:   -7.03 KCAL/MOL
REMARK 923 INTER-LIGAND FREE ENERGY PREDICTED BY IDOCK:   -5.92 KCAL/MOL
REMARK 924 INTRA-LIGAND FREE ENERGY PREDICTED BY IDOCK:   -1.10 KCAL/MOL
REMARK 927      BINDING AFFINITY PREDICTED BY RF-SCORE:    0.00 PKD
ROOT
HETATM    1  C   UNL     1      -8.822   6.038  66.289  1.00  0.00    -0.141 C  
HETATM    2  O   UNL     1      -9.563   7.255  66.159  1.00  0.00    -0.090 OA 
ENDROOT
BRANCH   2   3
HETATM    3  C   UNL     1      -8.885   8.279  65.593  1.00  0.00    -0.132 C  
HETATM    4  O   UNL     1      -7.819   8.173  65.006  1.00  0.00    -0.112 OA 
BRANCH   3   5
HETATM    5  C   UNL     1      -9.606   9.565  65.799  1.00  0.00    -0.337 C  
HETATM    6  C   UNL     1      -9.888  10.333  64.718  1.00  0.00    -0.334 C  
HETATM    7  N   UNL     1     -10.732  11.418  64.845  1.00  0.00    -0.298 NA 
HETATM    8  C   UNL     1      -9.333  10.150  63.325  1.00  0.00    -0.332 C  
HETATM    9  C   UNL     1     -11.309  11.847  66.021  1.00  0.00    -0.316 C  
HETATM   10  C   UNL     1     -12.219  13.048  65.883  1.00  0.00    -0.493 C  
HETATM   11  C   UNL     1     -11.035  11.207  67.184  1.00  0.00    -0.350 C  
HETATM   12  C   UNL     1     -10.125   9.950  67.207  1.00  0.00    -0.264 C  
BRANCH  11  13
HETATM   13  C   UNL     1     -11.514  11.824  68.453  1.00  0.00    -0.294 C  
HETATM   14  O   UNL     1     -11.053  12.856  68.922  1.00  0.00    -0.246 OA 
BRANCH  13  15
HETATM   15  O   UNL     1     -12.480  11.085  69.042  1.00  0.00    -0.449 OA 
HETATM   16  C   UNL     1     -12.396  11.000  70.473  1.00  0.00    -0.373 C  
ENDBRANCH  13  15
ENDBRANCH  11  13
BRANCH  12  17
HETATM   17  C   UNL     1      -8.970  10.150  68.203  1.00  0.00    -0.122 A  
HETATM   18  O   UNL     1     -10.709   8.189  69.679  1.00  0.00    -0.229 OA 
HETATM   19  O   UNL     1      -8.816   7.083  69.776  1.00  0.00    -0.141 OA 
HETATM   20  C   UNL     1      -8.060  11.204  67.968  1.00  0.00    -0.123 A  
HETATM   21  C   UNL     1      -7.003  11.466  68.845  1.00  0.00    -0.098 A  
HETATM   22  C   UNL     1      -6.830  10.697  69.991  1.00  0.00    -0.150 A  
HETATM   23  C   UNL     1      -7.688   9.630  70.241  1.00  0.00    -0.184 A  
HETATM   24  C   UNL     1      -8.731   9.345  69.342  1.00  0.00    -0.157 A  
HETATM   25  N   UNL     1      -9.473   8.120  69.605  1.00  0.00    -0.159 N  
ENDBRANCH  12  17
ENDBRANCH   3   5
ENDBRANCH   2   3
TORSDOF 5
ENDMDL
MODEL       44
REMARK 921   NORMALIZED FREE ENERGY PREDICTED BY IDOCK:   -4.48 KCAL/MOL
REMARK 922        TOTAL FREE ENERGY PREDICTED BY IDOCK:   -7.02 KCAL/MOL
REMARK 923 INTER-LIGAND FREE ENERGY PREDICTED BY IDOCK:   -5.76 KCAL/MOL
REMARK 924 INTRA-LIGAND FREE ENERGY PREDICTED BY IDOCK:   -1.25 KCAL/MOL
REMARK 927      BINDING AFFINITY PREDICTED BY RF-SCORE:    0.00 PKD
ROOT
HETATM    1  C   UNL     1      -5.279  11.051  69.125  1.00  0.00    -0.041 C  
HETATM    2  O   UNL     1      -6.443  11.142  68.299  1.00  0.00    -0.056 OA 
ENDROOT
BRANCH   2   3
HETATM    3  C   UNL     1      -6.432  12.157  67.405  1.00  0.00    -0.149 C  
HETATM    4  O   UNL     1      -5.498  12.430  66.668  1.00  0.00    -0.291 OA 
BRANCH   3   5
HETATM    5  C   UNL     1      -7.712  12.916  67.455  1.00  0.00    -0.174 C  
HETATM    6  C   UNL     1      -7.784  14.020  68.239  1.00  0.00    -0.141 C  
HETATM    7  N   UNL     1      -8.875  14.860  68.149  1.00  0.00    -0.169 NA 
HETATM    8  C   UNL     1      -6.770  14.444  69.277  1.00  0.00    -0.126 C  
HETATM    9  C   UNL     1      -9.971  14.660  67.338  1.00  0.00    -0.231 C  
HETATM   10  C   UNL     1     -11.021  15.747  67.404  1.00  0.00    -0.279 C  
HETATM   11  C   UNL     1     -10.051  13.546  66.568  1.00  0.00    -0.282 C  
HETATM   12  C   UNL     1      -8.892  12.514  66.535  1.00  0.00    -0.090 C  
BRANCH  11  13
HETATM   13  C   UNL     1     -11.336  13.269  65.867  1.00  0.00    -0.311 C  
HETATM   14  O   UNL     1     -12.282  12.693  66.387  1.00  0.00    -0.550 OA 
BRANCH  13  15
HETATM   15  O   UNL     1     -11.313  13.689  64.583  1.00  0.00    -0.340 OA 
HETATM   16  C   UNL     1     -12.028  12.856  63.656  1.00  0.00    -0.541 C  
ENDBRANCH  13  15
ENDBRANCH  11  13
BRANCH  12  17
HETATM   17  C   UNL     1      -9.422  11.110  66.872  1.00  0.00    -0.203 A  
HETATM   18  O   UNL     1      -9.171  10.961  63.878  1.00  0.00    -0.205 OA 
HETATM   19  O   UNL     1      -8.004   9.175  64.392  1.00  0.00    -0.122 OA 
HETATM   20  C   UNL     1      -9.903  10.873  68.178  1.00  0.00    -0.187 A  
HETATM   21  C   UNL     1     -10.428   9.631  68.549  1.00  0.00    -0.241 A  
HETATM   22  C   UNL     1     -10.505   8.593  67.626  1.00  0.00    -0.311 A  
HETATM   23  C   UNL     1     -10.013   8.779  66.337  1.00  0.00    -0.346 A  
HETATM   24  C   UNL     1      -9.454  10.017  65.974  1.00  0.00    -0.197 A  
HETATM   25  N   UNL     1      -8.826  10.064  64.661  1.00  0.00    -0.182 N  
ENDBRANCH  12  17
ENDBRANCH   3   5
ENDBRANCH   2   3
TORSDOF 5
ENDMDL
MODEL       45
REMARK 921   NORMALIZED FREE ENERGY PREDICTED BY IDOCK:   -4.48 KCAL/MOL
REMARK 922        TOTAL FREE ENERGY PREDICTED BY IDOCK:   -7.01 KCAL/MOL
REMARK 923 INTER-LIGAND FREE ENERGY PREDICTED BY IDOCK:   -5.87 KCAL/MOL
REMARK 924 INTRA-LIGAND FREE ENERGY PREDICTED BY IDOCK:   -1.14 KCAL/MOL
REMARK 927      BINDING AFFINITY PREDICTED BY RF-SCORE:    0.00 PKD
ROOT
HETATM    1  C   UNL     1      -9.072  16.169  69.055  1.00  0.00    -0.250 C  
HETATM    2  O   UNL     1      -8.301  14.968  68.956  1.00  0.00    -0.175 OA 
ENDROOT
BRANCH   2   3
HETATM    3  C   UNL     1      -8.299  14.390  67.734  1.00  0.00    -0.169 C  
HETATM    4  O   UNL     1      -8.331  14.995  66.673  1.00  0.00    -0.218 OA 
BRANCH   3   5
HETATM    5  C   UNL     1      -8.272  12.906  67.854  1.00  0.00    -0.165 C  
HETATM    6  C   UNL     1      -7.072  12.282  67.943  1.00  0.00    -0.105 C  
HETATM    7  N   UNL     1      -7.015  10.941  68.264  1.00  0.00    -0.068 NA 
HETATM    8  C   UNL     1      -5.720  12.908  67.687  1.00  0.00    -0.130 C  
HETATM    9  C   UNL     1      -8.104  10.122  68.470  1.00  0.00    -0.106 C  
HETATM   10  C   UNL     1      -7.768   8.694  68.839  1.00  0.00    -0.100 C  
HETATM   11  C   UNL     1      -9.359  10.615  68.327  1.00  0.00    -0.156 C  
HETATM   12  C   UNL     1      -9.596  12.113  67.995  1.00  0.00    -0.204 C  
BRANCH  11  13
HETATM   13  C   UNL     1     -10.497   9.654  68.357  1.00  0.00    -0.223 C  
HETATM   14  O   UNL     1     -10.636   8.741  67.553  1.00  0.00    -0.267 OA 
BRANCH  13  15
HETATM   15  O   UNL     1     -11.375   9.939  69.344  1.00  0.00    -0.193 OA 
HETATM   16  C   UNL     1     -10.880   9.734  70.677  1.00  0.00    -0.329 C  
ENDBRANCH  13  15
ENDBRANCH  11  13
BRANCH  12  17
HETATM   17  C   UNL     1     -10.474  12.245  66.738  1.00  0.00    -0.242 A  
HETATM   18  O   UNL     1     -12.123  13.705  68.787  1.00  0.00    -0.355 OA 
HETATM   19  O   UNL     1     -12.044  15.274  67.256  1.00  0.00     0.018 OA 
HETATM   20  C   UNL     1     -10.145  11.465  65.608  1.00  0.00    -0.293 A  
HETATM   21  C   UNL     1     -10.914  11.510  64.441  1.00  0.00    -0.390 A  
HETATM   22  C   UNL     1     -12.043  12.320  64.371  1.00  0.00    -0.481 A  
HETATM   23  C   UNL     1     -12.381  13.126  65.454  1.00  0.00    -0.532 A  
HETATM   24  C   UNL     1     -11.589  13.107  66.614  1.00  0.00    -0.356 A  
HETATM   25  N   UNL     1     -11.930  14.096  67.627  1.00  0.00    -0.386 N  
ENDBRANCH  12  17
ENDBRANCH   3   5
ENDBRANCH   2   3
TORSDOF 5
ENDMDL
MODEL       46
REMARK 921   NORMALIZED FREE ENERGY PREDICTED BY IDOCK:   -4.41 KCAL/MOL
REMARK 922        TOTAL FREE ENERGY PREDICTED BY IDOCK:   -6.92 KCAL/MOL
REMARK 923 INTER-LIGAND FREE ENERGY PREDICTED BY IDOCK:   -5.72 KCAL/MOL
REMARK 924 INTRA-LIGAND FREE ENERGY PREDICTED BY IDOCK:   -1.20 KCAL/MOL
REMARK 927      BINDING AFFINITY PREDICTED BY RF-SCORE:    0.00 PKD
ROOT
HETATM    1  C   UNL     1      -8.278   8.710  64.524  1.00  0.00    -0.164 C  
HETATM    2  O   UNL     1      -9.165   8.360  65.591  1.00  0.00    -0.154 OA 
ENDROOT
BRANCH   2   3
HETATM    3  C   UNL     1      -8.608   7.623  66.578  1.00  0.00    -0.138 C  
HETATM    4  O   UNL     1      -7.508   7.095  66.522  1.00  0.00    -0.084 OA 
BRANCH   3   5
HETATM    5  C   UNL     1      -9.530   7.521  67.743  1.00  0.00    -0.157 C  
HETATM    6  C   UNL     1     -10.393   6.477  67.800  1.00  0.00    -0.192 C  
HETATM    7  N   UNL     1     -11.108   6.237  68.956  1.00  0.00    -0.371 NA 
HETATM    8  C   UNL     1     -10.704   5.514  66.678  1.00  0.00    -0.332 C  
HETATM    9  C   UNL     1     -11.067   7.012  70.096  1.00  0.00    -0.285 C  
HETATM   10  C   UNL     1     -11.927   6.515  71.236  1.00  0.00    -0.364 C  
HETATM   11  C   UNL     1     -10.301   8.130  70.128  1.00  0.00    -0.215 C  
HETATM   12  C   UNL     1      -9.414   8.525  68.917  1.00  0.00    -0.147 C  
BRANCH  11  13
HETATM   13  C   UNL     1     -10.443   9.043  71.297  1.00  0.00    -0.311 C  
HETATM   14  O   UNL     1     -11.441   9.717  71.515  1.00  0.00    -0.378 OA 
BRANCH  13  15
HETATM   15  O   UNL     1      -9.325   9.070  72.057  1.00  0.00    -0.358 OA 
HETATM   16  C   UNL     1      -9.261   8.066  73.082  1.00  0.00    -0.279 C  
ENDBRANCH  13  15
ENDBRANCH  11  13
BRANCH  12  17
HETATM   17  C   UNL     1      -9.735   9.962  68.470  1.00  0.00    -0.163 A  
HETATM   18  O   UNL     1      -7.170  10.359  69.992  1.00  0.00    -0.154 OA 
HETATM   19  O   UNL     1      -6.591  11.340  68.117  1.00  0.00    -0.056 OA 
HETATM   20  C   UNL     1     -11.012  10.223  67.928  1.00  0.00    -0.350 A  
HETATM   21  C   UNL     1     -11.386  11.509  67.528  1.00  0.00    -0.366 A  
HETATM   22  C   UNL     1     -10.505  12.577  67.671  1.00  0.00    -0.228 A  
HETATM   23  C   UNL     1      -9.227  12.353  68.173  1.00  0.00    -0.205 A  
HETATM   24  C   UNL     1      -8.838  11.054  68.544  1.00  0.00    -0.159 A  
HETATM   25  N   UNL     1      -7.437  10.894  68.907  1.00  0.00    -0.107 N  
ENDBRANCH  12  17
ENDBRANCH   3   5
ENDBRANCH   2   3
TORSDOF 5
ENDMDL
MODEL       47
REMARK 921   NORMALIZED FREE ENERGY PREDICTED BY IDOCK:   -4.40 KCAL/MOL
REMARK 922        TOTAL FREE ENERGY PREDICTED BY IDOCK:   -6.90 KCAL/MOL
REMARK 923 INTER-LIGAND FREE ENERGY PREDICTED BY IDOCK:   -5.89 KCAL/MOL
REMARK 924 INTRA-LIGAND FREE ENERGY PREDICTED BY IDOCK:   -1.02 KCAL/MOL
REMARK 927      BINDING AFFINITY PREDICTED BY RF-SCORE:    0.00 PKD
ROOT
HETATM    1  C   UNL     1     -11.553  13.803  68.943  1.00  0.00    -0.319 C  
HETATM    2  O   UNL     1     -11.291  12.545  69.572  1.00  0.00    -0.241 OA 
ENDROOT
BRANCH   2   3
HETATM    3  C   UNL     1     -11.755  11.465  68.904  1.00  0.00    -0.343 C  
HETATM    4  O   UNL     1     -12.252  11.492  67.788  1.00  0.00    -0.560 OA 
BRANCH   3   5
HETATM    5  C   UNL     1     -11.598  10.231  69.723  1.00  0.00    -0.294 C  
HETATM    6  C   UNL     1     -12.240  10.156  70.915  1.00  0.00    -0.356 C  
HETATM    7  N   UNL     1     -12.287   8.957  71.597  1.00  0.00    -0.324 NA 
HETATM    8  C   UNL     1     -12.920  11.297  71.636  1.00  0.00    -0.537 C  
HETATM    9  C   UNL     1     -11.683   7.785  71.194  1.00  0.00    -0.284 C  
HETATM   10  C   UNL     1     -11.911   6.603  72.110  1.00  0.00    -0.320 C  
HETATM   11  C   UNL     1     -10.942   7.759  70.059  1.00  0.00    -0.218 C  
HETATM   12  C   UNL     1     -10.812   9.019  69.163  1.00  0.00    -0.110 C  
BRANCH  11  13
HETATM   13  C   UNL     1     -10.143   6.535  69.772  1.00  0.00    -0.178 C  
HETATM   14  O   UNL     1     -10.488   5.670  68.978  1.00  0.00    -0.223 OA 
BRANCH  13  15
HETATM   15  O   UNL     1      -9.020   6.476  70.522  1.00  0.00    -0.150 OA 
HETATM   16  C   UNL     1      -7.828   6.113  69.808  1.00  0.00    -0.106 C  
ENDBRANCH  13  15
ENDBRANCH  11  13
BRANCH  12  17
HETATM   17  C   UNL     1      -9.329   9.359  68.936  1.00  0.00    -0.154 A  
HETATM   18  O   UNL     1      -9.992   7.843  66.424  1.00  0.00    -0.217 OA 
HETATM   19  O   UNL     1      -9.157   9.650  65.503  1.00  0.00    -0.174 OA 
HETATM   20  C   UNL     1      -8.586   9.866  70.025  1.00  0.00    -0.196 A  
HETATM   21  C   UNL     1      -7.227  10.169  69.903  1.00  0.00    -0.155 A  
HETATM   22  C   UNL     1      -6.562   9.961  68.699  1.00  0.00    -0.050 A  
HETATM   23  C   UNL     1      -7.267   9.491  67.595  1.00  0.00    -0.082 A  
HETATM   24  C   UNL     1      -8.642   9.219  67.707  1.00  0.00    -0.117 A  
HETATM   25  N   UNL     1      -9.322   8.884  66.464  1.00  0.00    -0.179 N  
ENDBRANCH  12  17
ENDBRANCH   3   5
ENDBRANCH   2   3
TORSDOF 5
ENDMDL
MODEL       48
REMARK 921   NORMALIZED FREE ENERGY PREDICTED BY IDOCK:   -4.39 KCAL/MOL
REMARK 922        TOTAL FREE ENERGY PREDICTED BY IDOCK:   -6.89 KCAL/MOL
REMARK 923 INTER-LIGAND FREE ENERGY PREDICTED BY IDOCK:   -5.99 KCAL/MOL
REMARK 924 INTRA-LIGAND FREE ENERGY PREDICTED BY IDOCK:   -0.91 KCAL/MOL
REMARK 927      BINDING AFFINITY PREDICTED BY RF-SCORE:    0.00 PKD
ROOT
HETATM    1  C   UNL     1      -7.939   8.390  74.314  1.00  0.00    -0.168 C  
HETATM    2  O   UNL     1      -8.594   8.684  73.077  1.00  0.00    -0.395 OA 
ENDROOT
BRANCH   2   3
HETATM    3  C   UNL     1      -8.155   7.972  72.015  1.00  0.00    -0.131 C  
HETATM    4  O   UNL     1      -7.667   6.854  72.076  1.00  0.00    -0.093 OA 
BRANCH   3   5
HETATM    5  C   UNL     1      -8.328   8.745  70.754  1.00  0.00    -0.185 C  
HETATM    6  C   UNL     1      -7.327   9.567  70.352  1.00  0.00    -0.141 C  
HETATM    7  N   UNL     1      -7.363  10.132  69.094  1.00  0.00    -0.081 NA 
HETATM    8  C   UNL     1      -6.130   9.983  71.176  1.00  0.00     0.018 C  
HETATM    9  C   UNL     1      -8.381   9.976  68.177  1.00  0.00    -0.113 C  
HETATM   10  C   UNL     1      -8.163  10.681  66.857  1.00  0.00    -0.123 C  
HETATM   11  C   UNL     1      -9.475   9.243  68.498  1.00  0.00    -0.150 C  
HETATM   12  C   UNL     1      -9.577   8.517  69.866  1.00  0.00    -0.171 C  
BRANCH  11  13
HETATM   13  C   UNL     1     -10.634   9.269  67.563  1.00  0.00    -0.262 C  
HETATM   14  O   UNL     1     -11.288  10.275  67.320  1.00  0.00    -0.280 OA 
BRANCH  13  15
HETATM   15  O   UNL     1     -10.902   8.046  67.054  1.00  0.00    -0.283 OA 
HETATM   16  C   UNL     1      -9.772   7.356  66.497  1.00  0.00    -0.156 C  
ENDBRANCH  13  15
ENDBRANCH  11  13
BRANCH  12  17
HETATM   17  C   UNL     1     -10.871   8.928  70.589  1.00  0.00    -0.286 A  
HETATM   18  O   UNL     1     -11.254   5.958  70.302  1.00  0.00    -0.332 OA 
HETATM   19  O   UNL     1     -11.586   6.121  72.465  1.00  0.00    -0.286 OA 
HETATM   20  C   UNL     1     -11.175  10.303  70.685  1.00  0.00    -0.406 A  
HETATM   21  C   UNL     1     -12.347  10.751  71.302  1.00  0.00    -0.470 A  
HETATM   22  C   UNL     1     -13.260   9.841  71.826  1.00  0.00    -0.532 A  
HETATM   23  C   UNL     1     -12.981   8.479  71.778  1.00  0.00    -0.380 A  
HETATM   24  C   UNL     1     -11.786   8.030  71.189  1.00  0.00    -0.284 A  
HETATM   25  N   UNL     1     -11.510   6.607  71.327  1.00  0.00    -0.295 N  
ENDBRANCH  12  17
ENDBRANCH   3   5
ENDBRANCH   2   3
TORSDOF 5
ENDMDL
MODEL       49
REMARK 921   NORMALIZED FREE ENERGY PREDICTED BY IDOCK:   -4.35 KCAL/MOL
REMARK 922        TOTAL FREE ENERGY PREDICTED BY IDOCK:   -6.84 KCAL/MOL
REMARK 923 INTER-LIGAND FREE ENERGY PREDICTED BY IDOCK:   -6.59 KCAL/MOL
REMARK 924 INTRA-LIGAND FREE ENERGY PREDICTED BY IDOCK:   -0.25 KCAL/MOL
REMARK 927      BINDING AFFINITY PREDICTED BY RF-SCORE:    0.00 PKD
ROOT
HETATM    1  C   UNL     1     -13.281  13.203  71.833  1.00  0.00    -0.431 C  
HETATM    2  O   UNL     1     -12.785  12.284  70.856  1.00  0.00    -0.289 OA 
ENDROOT
BRANCH   2   3
HETATM    3  C   UNL     1     -11.804  12.769  70.061  1.00  0.00    -0.281 C  
HETATM    4  O   UNL     1     -11.416  13.927  70.056  1.00  0.00    -0.229 OA 
BRANCH   3   5
HETATM    5  C   UNL     1     -11.271  11.700  69.171  1.00  0.00    -0.325 C  
HETATM    6  C   UNL     1     -11.211  10.431  69.643  1.00  0.00    -0.277 C  
HETATM    7  N   UNL     1     -10.923   9.390  68.785  1.00  0.00    -0.107 NA 
HETATM    8  C   UNL     1     -11.400  10.004  71.081  1.00  0.00    -0.397 C  
HETATM    9  C   UNL     1     -10.634   9.518  67.443  1.00  0.00    -0.271 C  
HETATM   10  C   UNL     1     -10.382   8.215  66.717  1.00  0.00    -0.361 C  
HETATM   11  C   UNL     1     -10.584  10.748  66.874  1.00  0.00    -0.312 C  
HETATM   12  C   UNL     1     -10.910  12.022  67.699  1.00  0.00    -0.273 C  
BRANCH  11  13
HETATM   13  C   UNL     1     -10.071  10.855  65.480  1.00  0.00    -0.267 C  
HETATM   14  O   UNL     1     -10.779  11.102  64.513  1.00  0.00    -0.336 OA 
BRANCH  13  15
HETATM   15  O   UNL     1      -8.745  10.604  65.408  1.00  0.00    -0.178 OA 
HETATM   16  C   UNL     1      -8.303  10.003  64.181  1.00  0.00    -0.167 C  
ENDBRANCH  13  15
ENDBRANCH  11  13
BRANCH  12  17
HETATM   17  C   UNL     1      -9.748  13.026  67.606  1.00  0.00    -0.212 A  
HETATM   18  O   UNL     1     -11.842  14.361  65.907  1.00  0.00    -0.368 OA 
HETATM   19  O   UNL     1     -11.403  16.033  67.259  1.00  0.00    -0.130 OA 
HETATM   20  C   UNL     1      -8.480  12.627  68.083  1.00  0.00    -0.177 A  
HETATM   21  C   UNL     1      -7.371  13.474  68.004  1.00  0.00    -0.133 A  
HETATM   22  C   UNL     1      -7.487  14.737  67.432  1.00  0.00    -0.221 A  
HETATM   23  C   UNL     1      -8.727  15.178  66.979  1.00  0.00    -0.264 A  
HETATM   24  C   UNL     1      -9.850  14.339  67.089  1.00  0.00    -0.252 A  
HETATM   25  N   UNL     1     -11.126  14.945  66.735  1.00  0.00    -0.331 N  
ENDBRANCH  12  17
ENDBRANCH   3   5
ENDBRANCH   2   3
TORSDOF 5
ENDMDL
MODEL       50
REMARK 921   NORMALIZED FREE ENERGY PREDICTED BY IDOCK:   -4.35 KCAL/MOL
REMARK 922        TOTAL FREE ENERGY PREDICTED BY IDOCK:   -6.84 KCAL/MOL
REMARK 923 INTER-LIGAND FREE ENERGY PREDICTED BY IDOCK:   -6.39 KCAL/MOL
REMARK 924 INTRA-LIGAND FREE ENERGY PREDICTED BY IDOCK:   -0.45 KCAL/MOL
REMARK 927      BINDING AFFINITY PREDICTED BY RF-SCORE:    0.00 PKD
ROOT
HETATM    1  C   UNL     1     -11.851  10.881  70.339  1.00  0.00    -0.357 C  
HETATM    2  O   UNL     1     -11.687  10.383  69.008  1.00  0.00    -0.202 OA 
ENDROOT
BRANCH   2   3
HETATM    3  C   UNL     1     -10.453   9.907  68.725  1.00  0.00    -0.213 C  
HETATM    4  O   UNL     1      -9.708   9.371  69.530  1.00  0.00    -0.167 OA 
BRANCH   3   5
HETATM    5  C   UNL     1     -10.113  10.144  67.294  1.00  0.00    -0.254 C  
HETATM    6  C   UNL     1      -9.545   9.138  66.585  1.00  0.00    -0.203 C  
HETATM    7  N   UNL     1      -9.412   9.250  65.216  1.00  0.00    -0.221 NA 
HETATM    8  C   UNL     1      -8.984   7.854  67.151  1.00  0.00    -0.142 C  
HETATM    9  C   UNL     1      -9.772  10.349  64.466  1.00  0.00    -0.330 C  
HETATM   10  C   UNL     1      -9.548  10.207  62.977  1.00  0.00    -0.216 C  
HETATM   11  C   UNL     1     -10.275  11.451  65.076  1.00  0.00    -0.333 C  
HETATM   12  C   UNL     1     -10.514  11.475  66.609  1.00  0.00    -0.277 C  
BRANCH  11  13
HETATM   13  C   UNL     1     -10.458  12.683  64.258  1.00  0.00    -0.392 C  
HETATM   14  O   UNL     1      -9.813  13.709  64.423  1.00  0.00    -0.165 OA 
BRANCH  13  15
HETATM   15  O   UNL     1     -11.448  12.544  63.348  1.00  0.00    -0.472 OA 
HETATM   16  C   UNL     1     -12.744  12.253  63.896  1.00  0.00    -0.382 C  
ENDBRANCH  13  15
ENDBRANCH  11  13
BRANCH  12  17
HETATM   17  C   UNL     1      -9.792  12.678  67.240  1.00  0.00    -0.206 A  
HETATM   18  O   UNL     1     -12.592  13.738  66.947  1.00  0.00    -0.252 OA 
HETATM   19  O   UNL     1     -12.306  14.161  69.080  1.00  0.00    -0.301 OA 
HETATM   20  C   UNL     1      -8.382  12.652  67.306  1.00  0.00    -0.189 A  
HETATM   21  C   UNL     1      -7.656  13.722  67.837  1.00  0.00    -0.157 A  
HETATM   22  C   UNL     1      -8.311  14.857  68.304  1.00  0.00    -0.148 A  
HETATM   23  C   UNL     1      -9.701  14.907  68.284  1.00  0.00    -0.215 A  
HETATM   24  C   UNL     1     -10.433  13.818  67.781  1.00  0.00    -0.240 A  
HETATM   25  N   UNL     1     -11.878  13.898  67.947  1.00  0.00    -0.363 N  
ENDBRANCH  12  17
ENDBRANCH   3   5
ENDBRANCH   2   3
TORSDOF 5
ENDMDL
MODEL       51
REMARK 921   NORMALIZED FREE ENERGY PREDICTED BY IDOCK:   -4.33 KCAL/MOL
REMARK 922        TOTAL FREE ENERGY PREDICTED BY IDOCK:   -6.82 KCAL/MOL
REMARK 923 INTER-LIGAND FREE ENERGY PREDICTED BY IDOCK:   -5.61 KCAL/MOL
REMARK 924 INTRA-LIGAND FREE ENERGY PREDICTED BY IDOCK:   -1.21 KCAL/MOL
REMARK 927      BINDING AFFINITY PREDICTED BY RF-SCORE:    0.00 PKD
ROOT
HETATM    1  C   UNL     1     -14.314   8.182  71.687  1.00  0.00    -0.469 C  
HETATM    2  O   UNL     1     -13.318   7.253  71.249  1.00  0.00    -0.369 OA 
ENDROOT
BRANCH   2   3
HETATM    3  C   UNL     1     -12.056   7.542  71.639  1.00  0.00    -0.311 C  
HETATM    4  O   UNL     1     -11.741   8.484  72.350  1.00  0.00    -0.375 OA 
BRANCH   3   5
HETATM    5  C   UNL     1     -11.090   6.563  71.067  1.00  0.00    -0.339 C  
HETATM    6  C   UNL     1     -10.855   5.411  71.741  1.00  0.00    -0.174 C  
HETATM    7  N   UNL     1     -10.135   4.397  71.143  1.00  0.00    -0.165 NA 
HETATM    8  C   UNL     1     -11.285   5.103  73.157  1.00  0.00    -0.398 C  
HETATM    9  C   UNL     1      -9.566   4.455  69.889  1.00  0.00    -0.205 C  
HETATM   10  C   UNL     1      -8.851   3.194  69.454  1.00  0.00    -0.154 C  
HETATM   11  C   UNL     1      -9.664   5.588  69.151  1.00  0.00    -0.208 C  
HETATM   12  C   UNL     1     -10.466   6.811  69.671  1.00  0.00    -0.243 C  
BRANCH  11  13
HETATM   13  C   UNL     1      -8.866   5.679  67.897  1.00  0.00    -0.105 C  
HETATM   14  O   UNL     1      -7.723   6.114  67.849  1.00  0.00    -0.099 OA 
BRANCH  13  15
HETATM   15  O   UNL     1      -9.569   5.267  66.818  1.00  0.00    -0.130 OA 
HETATM   16  C   UNL     1      -8.909   5.446  65.555  1.00  0.00    -0.152 C  
ENDBRANCH  13  15
ENDBRANCH  11  13
BRANCH  12  17
HETATM   17  C   UNL     1      -9.581   8.069  69.660  1.00  0.00    -0.168 A  
HETATM   18  O   UNL     1     -10.892   8.229  66.957  1.00  0.00    -0.245 OA 
HETATM   19  O   UNL     1     -11.404  10.234  67.686  1.00  0.00    -0.335 OA 
HETATM   20  C   UNL     1      -8.611   8.213  70.677  1.00  0.00    -0.130 A  
HETATM   21  C   UNL     1      -7.751   9.314  70.715  1.00  0.00    -0.164 A  
HETATM   22  C   UNL     1      -7.818  10.297  69.733  1.00  0.00    -0.151 A  
HETATM   23  C   UNL     1      -8.781  10.206  68.732  1.00  0.00    -0.138 A  
HETATM   24  C   UNL     1      -9.669   9.116  68.712  1.00  0.00    -0.162 A  
HETATM   25  N   UNL     1     -10.736   9.190  67.724  1.00  0.00    -0.223 N  
ENDBRANCH  12  17
ENDBRANCH   3   5
ENDBRANCH   2   3
TORSDOF 5
ENDMDL
MODEL       52
REMARK 921   NORMALIZED FREE ENERGY PREDICTED BY IDOCK:   -4.32 KCAL/MOL
REMARK 922        TOTAL FREE ENERGY PREDICTED BY IDOCK:   -6.81 KCAL/MOL
REMARK 923 INTER-LIGAND FREE ENERGY PREDICTED BY IDOCK:   -5.45 KCAL/MOL
REMARK 924 INTRA-LIGAND FREE ENERGY PREDICTED BY IDOCK:   -1.36 KCAL/MOL
REMARK 927      BINDING AFFINITY PREDICTED BY RF-SCORE:    0.00 PKD
ROOT
HETATM    1  C   UNL     1      -6.187  10.067  68.125  1.00  0.00    -0.053 C  
HETATM    2  O   UNL     1      -6.174   9.331  69.351  1.00  0.00    -0.039 OA 
ENDROOT
BRANCH   2   3
HETATM    3  C   UNL     1      -6.665   9.995  70.422  1.00  0.00    -0.138 C  
HETATM    4  O   UNL     1      -6.310  11.109  70.777  1.00  0.00    -0.344 OA 
BRANCH   3   5
HETATM    5  C   UNL     1      -7.688   9.175  71.127  1.00  0.00    -0.116 C  
HETATM    6  C   UNL     1      -7.295   8.398  72.167  1.00  0.00    -0.098 C  
HETATM    7  N   UNL     1      -8.240   7.793  72.970  1.00  0.00    -0.120 NA 
HETATM    8  C   UNL     1      -5.869   8.076  72.550  1.00  0.00    -0.044 C  
HETATM    9  C   UNL     1      -9.605   7.863  72.789  1.00  0.00    -0.247 C  
HETATM   10  C   UNL     1     -10.424   7.131  73.828  1.00  0.00    -0.371 C  
HETATM   11  C   UNL     1     -10.115   8.544  71.733  1.00  0.00    -0.351 C  
HETATM   12  C   UNL     1      -9.185   9.305  70.750  1.00  0.00    -0.316 C  
BRANCH  11  13
HETATM   13  C   UNL     1     -11.574   8.424  71.461  1.00  0.00    -0.284 C  
HETATM   14  O   UNL     1     -12.095   7.426  70.980  1.00  0.00    -0.312 OA 
BRANCH  13  15
HETATM   15  O   UNL     1     -12.241   9.559  71.765  1.00  0.00    -0.363 OA 
HETATM   16  C   UNL     1     -13.533   9.366  72.361  1.00  0.00    -0.432 C  
ENDBRANCH  13  15
ENDBRANCH  11  13
BRANCH  12  17
HETATM   17  C   UNL     1      -9.450   8.845  69.306  1.00  0.00    -0.161 A  
HETATM   18  O   UNL     1     -11.007  11.417  69.418  1.00  0.00    -0.240 OA 
HETATM   19  O   UNL     1      -9.802  11.843  67.634  1.00  0.00    -0.182 OA 
HETATM   20  C   UNL     1      -9.078   7.532  68.945  1.00  0.00    -0.140 A  
HETATM   21  C   UNL     1      -9.314   7.034  67.660  1.00  0.00    -0.128 A  
HETATM   22  C   UNL     1      -9.942   7.823  66.701  1.00  0.00    -0.299 A  
HETATM   23  C   UNL     1     -10.296   9.133  67.011  1.00  0.00    -0.333 A  
HETATM   24  C   UNL     1     -10.027   9.645  68.292  1.00  0.00    -0.155 A  
HETATM   25  N   UNL     1     -10.288  11.067  68.470  1.00  0.00    -0.182 N  
ENDBRANCH  12  17
ENDBRANCH   3   5
ENDBRANCH   2   3
TORSDOF 5
ENDMDL
MODEL       53
REMARK 921   NORMALIZED FREE ENERGY PREDICTED BY IDOCK:   -4.28 KCAL/MOL
REMARK 922        TOTAL FREE ENERGY PREDICTED BY IDOCK:   -6.75 KCAL/MOL
REMARK 923 INTER-LIGAND FREE ENERGY PREDICTED BY IDOCK:   -5.35 KCAL/MOL
REMARK 924 INTRA-LIGAND FREE ENERGY PREDICTED BY IDOCK:   -1.40 KCAL/MOL
REMARK 927      BINDING AFFINITY PREDICTED BY RF-SCORE:    0.00 PKD
ROOT
HETATM    1  C   UNL     1     -10.038  16.158  68.752  1.00  0.00    -0.237 C  
HETATM    2  O   UNL     1      -9.663  14.955  68.075  1.00  0.00    -0.207 OA 
ENDROOT
BRANCH   2   3
HETATM    3  C   UNL     1     -10.461  13.890  68.318  1.00  0.00    -0.250 C  
HETATM    4  O   UNL     1     -11.116  13.724  69.335  1.00  0.00    -0.231 OA 
BRANCH   3   5
HETATM    5  C   UNL     1     -10.418  12.930  67.180  1.00  0.00    -0.241 C  
HETATM    6  C   UNL     1     -11.289  13.097  66.155  1.00  0.00    -0.312 C  
HETATM    7  N   UNL     1     -11.140  12.361  64.997  1.00  0.00    -0.295 NA 
HETATM    8  C   UNL     1     -12.486  14.020  66.142  1.00  0.00    -0.467 C  
HETATM    9  C   UNL     1     -10.178  11.397  64.783  1.00  0.00    -0.286 C  
HETATM   10  C   UNL     1     -10.213  10.755  63.414  1.00  0.00    -0.287 C  
HETATM   11  C   UNL     1      -9.301  11.083  65.767  1.00  0.00    -0.236 C  
HETATM   12  C   UNL     1      -9.318  11.840  67.123  1.00  0.00    -0.178 C  
BRANCH  11  13
HETATM   13  C   UNL     1      -8.416   9.901  65.568  1.00  0.00    -0.140 C  
HETATM   14  O   UNL     1      -7.242   9.981  65.234  1.00  0.00    -0.124 OA 
BRANCH  13  15
HETATM   15  O   UNL     1      -9.077   8.737  65.756  1.00  0.00    -0.200 OA 
HETATM   16  C   UNL     1      -8.379   7.761  66.545  1.00  0.00    -0.128 C  
ENDBRANCH  13  15
ENDBRANCH  11  13
BRANCH  12  17
HETATM   17  C   UNL     1      -9.446  10.842  68.286  1.00  0.00    -0.168 A  
HETATM   18  O   UNL     1      -6.470  11.266  68.176  1.00  0.00    -0.056 OA 
HETATM   19  O   UNL     1      -6.785  11.717  70.300  1.00  0.00    -0.083 OA 
HETATM   20  C   UNL     1     -10.691  10.207  68.488  1.00  0.00    -0.264 A  
HETATM   21  C   UNL     1     -10.875   9.266  69.506  1.00  0.00    -0.211 A  
HETATM   22  C   UNL     1      -9.820   8.918  70.343  1.00  0.00    -0.224 A  
HETATM   23  C   UNL     1      -8.586   9.545  70.195  1.00  0.00    -0.250 A  
HETATM   24  C   UNL     1      -8.411  10.515  69.193  1.00  0.00    -0.151 A  
HETATM   25  N   UNL     1      -7.139  11.225  69.219  1.00  0.00    -0.120 N  
ENDBRANCH  12  17
ENDBRANCH   3   5
ENDBRANCH   2   3
TORSDOF 5
ENDMDL
MODEL       54
REMARK 921   NORMALIZED FREE ENERGY PREDICTED BY IDOCK:   -4.26 KCAL/MOL
REMARK 922        TOTAL FREE ENERGY PREDICTED BY IDOCK:   -6.73 KCAL/MOL
REMARK 923 INTER-LIGAND FREE ENERGY PREDICTED BY IDOCK:   -5.89 KCAL/MOL
REMARK 924 INTRA-LIGAND FREE ENERGY PREDICTED BY IDOCK:   -0.84 KCAL/MOL
REMARK 927      BINDING AFFINITY PREDICTED BY RF-SCORE:    0.00 PKD
ROOT
HETATM    1  C   UNL     1     -13.388   9.635  71.634  1.00  0.00    -0.402 C  
HETATM    2  O   UNL     1     -12.759   9.972  70.394  1.00  0.00    -0.183 OA 
ENDROOT
BRANCH   2   3
HETATM    3  C   UNL     1     -12.049  11.123  70.407  1.00  0.00    -0.385 C  
HETATM    4  O   UNL     1     -12.341  12.118  71.053  1.00  0.00    -0.351 OA 
BRANCH   3   5
HETATM    5  C   UNL     1     -10.867  11.022  69.506  1.00  0.00    -0.267 C  
HETATM    6  C   UNL     1     -10.789  11.856  68.440  1.00  0.00    -0.228 C  
HETATM    7  N   UNL     1      -9.620  11.936  67.712  1.00  0.00    -0.185 NA 
HETATM    8  C   UNL     1     -11.901  12.732  67.909  1.00  0.00    -0.392 C  
HETATM    9  C   UNL     1      -8.485  11.187  67.941  1.00  0.00    -0.131 C  
HETATM   10  C   UNL     1      -7.326  11.487  67.015  1.00  0.00    -0.145 C  
HETATM   11  C   UNL     1      -8.472  10.259  68.929  1.00  0.00    -0.138 C  
HETATM   12  C   UNL     1      -9.701  10.066  69.858  1.00  0.00    -0.245 C  
BRANCH  11  13
HETATM   13  C   UNL     1      -7.306   9.336  69.009  1.00  0.00    -0.072 C  
HETATM   14  O   UNL     1      -6.444   9.404  69.875  1.00  0.00    -0.041 OA 
BRANCH  13  15
HETATM   15  O   UNL     1      -7.292   8.449  67.989  1.00  0.00    -0.092 OA 
HETATM   16  C   UNL     1      -5.986   8.015  67.577  1.00  0.00    -0.046 C  
ENDBRANCH  13  15
ENDBRANCH  11  13
BRANCH  12  17
HETATM   17  C   UNL     1     -10.149   8.594  69.844  1.00  0.00    -0.197 A  
HETATM   18  O   UNL     1      -8.881   8.817  72.563  1.00  0.00    -0.402 OA 
HETATM   19  O   UNL     1     -10.824   8.002  73.176  1.00  0.00    -0.335 OA 
HETATM   20  C   UNL     1     -10.576   8.037  68.619  1.00  0.00    -0.143 A  
HETATM   21  C   UNL     1     -10.970   6.699  68.524  1.00  0.00    -0.314 A  
HETATM   22  C   UNL     1     -10.933   5.871  69.641  1.00  0.00    -0.447 A  
HETATM   23  C   UNL     1     -10.547   6.392  70.873  1.00  0.00    -0.285 A  
HETATM   24  C   UNL     1     -10.184   7.746  70.976  1.00  0.00    -0.197 A  
HETATM   25  N   UNL     1      -9.949   8.234  72.328  1.00  0.00    -0.266 N  
ENDBRANCH  12  17
ENDBRANCH   3   5
ENDBRANCH   2   3
TORSDOF 5
ENDMDL
MODEL       55
REMARK 921   NORMALIZED FREE ENERGY PREDICTED BY IDOCK:   -4.19 KCAL/MOL
REMARK 922        TOTAL FREE ENERGY PREDICTED BY IDOCK:   -6.63 KCAL/MOL
REMARK 923 INTER-LIGAND FREE ENERGY PREDICTED BY IDOCK:   -5.44 KCAL/MOL
REMARK 924 INTRA-LIGAND FREE ENERGY PREDICTED BY IDOCK:   -1.20 KCAL/MOL
REMARK 927      BINDING AFFINITY PREDICTED BY RF-SCORE:    0.00 PKD
ROOT
HETATM    1  C   UNL     1     -12.096  14.312  69.105  1.00  0.00    -0.302 C  
HETATM    2  O   UNL     1     -11.975  12.896  68.946  1.00  0.00    -0.300 OA 
ENDROOT
BRANCH   2   3
HETATM    3  C   UNL     1     -11.546  12.492  67.729  1.00  0.00    -0.343 C  
HETATM    4  O   UNL     1     -12.270  12.261  66.772  1.00  0.00    -0.558 OA 
BRANCH   3   5
HETATM    5  C   UNL     1     -10.064  12.346  67.715  1.00  0.00    -0.203 C  
HETATM    6  C   UNL     1      -9.328  13.243  67.014  1.00  0.00    -0.242 C  
HETATM    7  N   UNL     1      -7.955  13.264  67.150  1.00  0.00    -0.119 NA 
HETATM    8  C   UNL     1      -9.861  14.256  66.026  1.00  0.00    -0.336 C  
HETATM    9  C   UNL     1      -7.216  12.397  67.927  1.00  0.00    -0.110 C  
HETATM   10  C   UNL     1      -5.725  12.652  67.924  1.00  0.00    -0.110 C  
HETATM   11  C   UNL     1      -7.836  11.404  68.610  1.00  0.00    -0.139 C  
HETATM   12  C   UNL     1      -9.381  11.261  68.585  1.00  0.00    -0.167 C  
BRANCH  11  13
HETATM   13  C   UNL     1      -6.987  10.371  69.268  1.00  0.00    -0.080 C  
HETATM   14  O   UNL     1      -6.733  10.364  70.466  1.00  0.00    -0.265 OA 
BRANCH  13  15
HETATM   15  O   UNL     1      -6.499   9.477  68.381  1.00  0.00    -0.052 OA 
HETATM   16  C   UNL     1      -5.175   8.996  68.665  1.00  0.00    -0.034 C  
ENDBRANCH  13  15
ENDBRANCH  11  13
BRANCH  12  17
HETATM   17  C   UNL     1      -9.775   9.843  68.137  1.00  0.00    -0.161 A  
HETATM   18  O   UNL     1      -9.882   9.583  71.132  1.00  0.00    -0.251 OA 
HETATM   19  O   UNL     1     -11.891   8.834  70.669  1.00  0.00    -0.232 OA 
HETATM   20  C   UNL     1      -9.599   9.498  66.779  1.00  0.00    -0.229 A  
HETATM   21  C   UNL     1      -9.907   8.219  66.304  1.00  0.00    -0.227 A  
HETATM   22  C   UNL     1     -10.383   7.241  67.171  1.00  0.00    -0.367 A  
HETATM   23  C   UNL     1     -10.599   7.552  68.510  1.00  0.00    -0.172 A  
HETATM   24  C   UNL     1     -10.322   8.847  68.981  1.00  0.00    -0.212 A  
HETATM   25  N   UNL     1     -10.727   9.120  70.353  1.00  0.00    -0.223 N  
ENDBRANCH  12  17
ENDBRANCH   3   5
ENDBRANCH   2   3
TORSDOF 5
ENDMDL
MODEL       56
REMARK 921   NORMALIZED FREE ENERGY PREDICTED BY IDOCK:   -4.17 KCAL/MOL
REMARK 922        TOTAL FREE ENERGY PREDICTED BY IDOCK:   -6.61 KCAL/MOL
REMARK 923 INTER-LIGAND FREE ENERGY PREDICTED BY IDOCK:   -5.76 KCAL/MOL
REMARK 924 INTRA-LIGAND FREE ENERGY PREDICTED BY IDOCK:   -0.85 KCAL/MOL
REMARK 927      BINDING AFFINITY PREDICTED BY RF-SCORE:    0.00 PKD
ROOT
HETATM    1  C   UNL     1     -11.564   9.044  71.539  1.00  0.00    -0.343 C  
HETATM    2  O   UNL     1     -11.095  10.263  70.955  1.00  0.00    -0.315 OA 
ENDROOT
BRANCH   2   3
HETATM    3  C   UNL     1     -11.982  10.886  70.145  1.00  0.00    -0.352 C  
HETATM    4  O   UNL     1     -12.885  10.331  69.538  1.00  0.00     0.054 OA 
BRANCH   3   5
HETATM    5  C   UNL     1     -11.695  12.345  70.076  1.00  0.00    -0.307 C  
HETATM    6  C   UNL     1     -12.333  13.175  70.937  1.00  0.00    -0.307 C  
HETATM    7  N   UNL     1     -11.940  14.493  71.043  1.00  0.00    -0.329 NA 
HETATM    8  C   UNL     1     -13.506  12.815  71.820  1.00  0.00    -0.343 C  
HETATM    9  C   UNL     1     -10.948  15.093  70.295  1.00  0.00    -0.251 C  
HETATM   10  C   UNL     1     -10.692  16.547  70.626  1.00  0.00     0.276 C  
HETATM   11  C   UNL     1     -10.295  14.384  69.342  1.00  0.00    -0.047 C  
HETATM   12  C   UNL     1     -10.601  12.879  69.117  1.00  0.00     0.009 C  
BRANCH  11  13
HETATM   13  C   UNL     1      -9.381  15.120  68.424  1.00  0.00    -0.197 C  
HETATM   14  O   UNL     1      -8.181  14.898  68.340  1.00  0.00    -0.138 OA 
BRANCH  13  15
HETATM   15  O   UNL     1     -10.028  16.085  67.733  1.00  0.00    -0.230 OA 
HETATM   16  C   UNL     1      -9.829  16.053  66.311  1.00  0.00    -0.308 C  
ENDBRANCH  13  15
ENDBRANCH  11  13
BRANCH  12  17
HETATM   17  C   UNL     1     -10.964  12.626  67.644  1.00  0.00    -0.275 A  
HETATM   18  O   UNL     1      -8.526  10.895  67.972  1.00  0.00    -0.123 OA 
HETATM   19  O   UNL     1      -9.895   9.380  67.171  1.00  0.00    -0.165 OA 
HETATM   20  C   UNL     1     -11.927  13.464  67.039  1.00  0.00    -0.429 A  
HETATM   21  C   UNL     1     -12.286  13.313  65.697  1.00  0.00    -0.521 A  
HETATM   22  C   UNL     1     -11.685  12.336  64.911  1.00  0.00    -0.409 A  
HETATM   23  C   UNL     1     -10.754  11.471  65.478  1.00  0.00    -0.328 A  
HETATM   24  C   UNL     1     -10.418  11.600  66.837  1.00  0.00    -0.227 A  
HETATM   25  N   UNL     1      -9.558  10.555  67.376  1.00  0.00    -0.157 N  
ENDBRANCH  12  17
ENDBRANCH   3   5
ENDBRANCH   2   3
TORSDOF 5
ENDMDL
MODEL       57
REMARK 921   NORMALIZED FREE ENERGY PREDICTED BY IDOCK:   -4.16 KCAL/MOL
REMARK 922        TOTAL FREE ENERGY PREDICTED BY IDOCK:   -6.59 KCAL/MOL
REMARK 923 INTER-LIGAND FREE ENERGY PREDICTED BY IDOCK:   -5.31 KCAL/MOL
REMARK 924 INTRA-LIGAND FREE ENERGY PREDICTED BY IDOCK:   -1.28 KCAL/MOL
REMARK 927      BINDING AFFINITY PREDICTED BY RF-SCORE:    0.00 PKD
ROOT
HETATM    1  C   UNL     1     -10.163   8.809  66.778  1.00  0.00    -0.284 C  
HETATM    2  O   UNL     1     -10.251   7.660  67.624  1.00  0.00    -0.183 OA 
ENDROOT
BRANCH   2   3
HETATM    3  C   UNL     1      -9.079   7.020  67.842  1.00  0.00    -0.127 C  
HETATM    4  O   UNL     1      -7.983   7.429  67.493  1.00  0.00    -0.110 OA 
BRANCH   3   5
HETATM    5  C   UNL     1      -9.308   5.731  68.553  1.00  0.00    -0.133 C  
HETATM    6  C   UNL     1      -9.580   4.624  67.819  1.00  0.00    -0.159 C  
HETATM    7  N   UNL     1      -9.588   3.383  68.423  1.00  0.00    -0.136 NA 
HETATM    8  C   UNL     1      -9.924   4.591  66.348  1.00  0.00    -0.267 C  
HETATM    9  C   UNL     1      -9.382   3.147  69.766  1.00  0.00    -0.153 C  
HETATM   10  C   UNL     1      -9.414   1.689  70.169  1.00  0.00    -0.146 C  
HETATM   11  C   UNL     1      -9.181   4.185  70.614  1.00  0.00    -0.195 C  
HETATM   12  C   UNL     1      -9.116   5.644  70.088  1.00  0.00    -0.159 C  
BRANCH  11  13
HETATM   13  C   UNL     1      -9.168   3.903  72.076  1.00  0.00    -0.121 C  
HETATM   14  O   UNL     1      -8.148   3.875  72.753  1.00  0.00    -0.089 OA 
BRANCH  13  15
HETATM   15  O   UNL     1     -10.405   3.640  72.552  1.00  0.00    -0.168 OA 
HETATM   16  C   UNL     1     -10.806   4.434  73.680  1.00  0.00    -0.288 C  
ENDBRANCH  13  15
ENDBRANCH  11  13
BRANCH  12  17
HETATM   17  C   UNL     1     -10.131   6.524  70.838  1.00  0.00    -0.210 A  
HETATM   18  O   UNL     1      -7.601   7.075  72.370  1.00  0.00    -0.089 OA 
HETATM   19  O   UNL     1      -8.168   9.147  71.921  1.00  0.00    -0.336 OA 
HETATM   20  C   UNL     1     -11.504   6.346  70.560  1.00  0.00    -0.444 A  
HETATM   21  C   UNL     1     -12.485   7.089  71.223  1.00  0.00    -0.430 A  
HETATM   22  C   UNL     1     -12.130   8.018  72.195  1.00  0.00    -0.391 A  
HETATM   23  C   UNL     1     -10.785   8.244  72.475  1.00  0.00    -0.411 A  
HETATM   24  C   UNL     1      -9.797   7.522  71.784  1.00  0.00    -0.164 A  
HETATM   25  N   UNL     1      -8.423   7.939  72.031  1.00  0.00    -0.122 N  
ENDBRANCH  12  17
ENDBRANCH   3   5
ENDBRANCH   2   3
TORSDOF 5
ENDMDL
MODEL       58
REMARK 921   NORMALIZED FREE ENERGY PREDICTED BY IDOCK:   -4.13 KCAL/MOL
REMARK 922        TOTAL FREE ENERGY PREDICTED BY IDOCK:   -6.55 KCAL/MOL
REMARK 923 INTER-LIGAND FREE ENERGY PREDICTED BY IDOCK:   -7.48 KCAL/MOL
REMARK 924 INTRA-LIGAND FREE ENERGY PREDICTED BY IDOCK:    0.92 KCAL/MOL
REMARK 927      BINDING AFFINITY PREDICTED BY RF-SCORE:    0.00 PKD
ROOT
HETATM    1  C   UNL     1     -10.017  11.221  62.889  1.00  0.00    -0.245 C  
HETATM    2  O   UNL     1     -10.438  12.451  63.488  1.00  0.00    -0.435 OA 
ENDROOT
BRANCH   2   3
HETATM    3  C   UNL     1     -11.670  12.423  64.044  1.00  0.00    -0.420 C  
HETATM    4  O   UNL     1     -12.703  12.169  63.445  1.00  0.00    -0.722 OA 
BRANCH   3   5
HETATM    5  C   UNL     1     -11.601  12.767  65.492  1.00  0.00    -0.400 C  
HETATM    6  C   UNL     1     -11.717  14.067  65.858  1.00  0.00    -0.366 C  
HETATM    7  N   UNL     1     -11.869  14.396  67.189  1.00  0.00    -0.404 NA 
HETATM    8  C   UNL     1     -11.666  15.262  64.934  1.00  0.00    -0.230 C  
HETATM    9  C   UNL     1     -11.870  13.502  68.238  1.00  0.00    -0.366 C  
HETATM   10  C   UNL     1     -12.082  14.119  69.603  1.00  0.00    -0.400 C  
HETATM   11  C   UNL     1     -11.679  12.180  68.003  1.00  0.00    -0.409 C  
HETATM   12  C   UNL     1     -11.521  11.643  66.555  1.00  0.00    -0.260 C  
BRANCH  11  13
HETATM   13  C   UNL     1     -11.484  11.281  69.174  1.00  0.00    -0.297 C  
HETATM   14  O   UNL     1     -10.385  10.966  69.613  1.00  0.00    -0.170 OA 
BRANCH  13  15
HETATM   15  O   UNL     1     -12.658  10.821  69.661  1.00  0.00    -0.246 OA 
HETATM   16  C   UNL     1     -12.604  10.312  71.003  1.00  0.00    -0.390 C  
ENDBRANCH  13  15
ENDBRANCH  11  13
BRANCH  12  17
HETATM   17  C   UNL     1     -10.218  10.834  66.429  1.00  0.00    -0.294 A  
HETATM   18  O   UNL     1      -9.183  13.659  66.396  1.00  0.00    -0.222 OA 
HETATM   19  O   UNL     1      -7.932  12.872  68.018  1.00  0.00    -0.134 OA 
HETATM   20  C   UNL     1     -10.313   9.451  66.161  1.00  0.00    -0.162 A  
HETATM   21  C   UNL     1      -9.173   8.657  66.004  1.00  0.00    -0.276 A  
HETATM   22  C   UNL     1      -7.904   9.220  66.092  1.00  0.00    -0.099 A  
HETATM   23  C   UNL     1      -7.769  10.574  66.386  1.00  0.00    -0.135 A  
HETATM   24  C   UNL     1      -8.915  11.365  66.578  1.00  0.00    -0.189 A  
HETATM   25  N   UNL     1      -8.672  12.727  67.034  1.00  0.00    -0.207 N  
ENDBRANCH  12  17
ENDBRANCH   3   5
ENDBRANCH   2   3
TORSDOF 5
ENDMDL
MODEL       59
REMARK 921   NORMALIZED FREE ENERGY PREDICTED BY IDOCK:   -4.10 KCAL/MOL
REMARK 922        TOTAL FREE ENERGY PREDICTED BY IDOCK:   -6.51 KCAL/MOL
REMARK 923 INTER-LIGAND FREE ENERGY PREDICTED BY IDOCK:   -5.37 KCAL/MOL
REMARK 924 INTRA-LIGAND FREE ENERGY PREDICTED BY IDOCK:   -1.14 KCAL/MOL
REMARK 927      BINDING AFFINITY PREDICTED BY RF-SCORE:    0.00 PKD
ROOT
HETATM    1  C   UNL     1     -10.655  16.087  68.145  1.00  0.00    -0.286 C  
HETATM    2  O   UNL     1      -9.948  14.903  68.525  1.00  0.00    -0.211 OA 
ENDROOT
BRANCH   2   3
HETATM    3  C   UNL     1      -9.074  14.439  67.603  1.00  0.00    -0.194 C  
HETATM    4  O   UNL     1      -8.926  14.903  66.483  1.00  0.00    -0.268 OA 
BRANCH   3   5
HETATM    5  C   UNL     1      -8.325  13.266  68.132  1.00  0.00    -0.161 C  
HETATM    6  C   UNL     1      -7.119  13.474  68.715  1.00  0.00    -0.103 C  
HETATM    7  N   UNL     1      -6.498  12.448  69.398  1.00  0.00    -0.113 NA 
HETATM    8  C   UNL     1      -6.318  14.755  68.677  1.00  0.00    -0.085 C  
HETATM    9  C   UNL     1      -6.979  11.161  69.516  1.00  0.00    -0.111 C  
HETATM   10  C   UNL     1      -6.119  10.231  70.343  1.00  0.00    -0.110 C  
HETATM   11  C   UNL     1      -8.138  10.811  68.904  1.00  0.00    -0.145 C  
HETATM   12  C   UNL     1      -8.972  11.858  68.118  1.00  0.00    -0.185 C  
BRANCH  11  13
HETATM   13  C   UNL     1      -8.514   9.370  68.886  1.00  0.00    -0.122 C  
HETATM   14  O   UNL     1      -7.896   8.516  68.265  1.00  0.00    -0.103 OA 
BRANCH  13  15
HETATM   15  O   UNL     1      -9.638   9.131  69.596  1.00  0.00    -0.165 OA 
HETATM   16  C   UNL     1      -9.510   8.138  70.625  1.00  0.00    -0.162 C  
ENDBRANCH  13  15
ENDBRANCH  11  13
BRANCH  12  17
HETATM   17  C   UNL     1      -9.228  11.364  66.684  1.00  0.00    -0.191 A  
HETATM   18  O   UNL     1     -12.021  11.466  67.797  1.00  0.00    -0.637 OA 
HETATM   19  O   UNL     1     -12.343  12.681  65.998  1.00  0.00    -0.587 OA 
HETATM   20  C   UNL     1      -8.120  10.953  65.911  1.00  0.00    -0.120 A  
HETATM   21  C   UNL     1      -8.278  10.465  64.611  1.00  0.00    -0.137 A  
HETATM   22  C   UNL     1      -9.545  10.355  64.047  1.00  0.00    -0.376 A  
HETATM   23  C   UNL     1     -10.658  10.779  64.766  1.00  0.00    -0.264 A  
HETATM   24  C   UNL     1     -10.497  11.302  66.061  1.00  0.00    -0.257 A  
HETATM   25  N   UNL     1     -11.696  11.863  66.669  1.00  0.00    -0.275 N  
ENDBRANCH  12  17
ENDBRANCH   3   5
ENDBRANCH   2   3
TORSDOF 5
ENDMDL
MODEL       60
REMARK 921   NORMALIZED FREE ENERGY PREDICTED BY IDOCK:   -4.04 KCAL/MOL
REMARK 922        TOTAL FREE ENERGY PREDICTED BY IDOCK:   -6.44 KCAL/MOL
REMARK 923 INTER-LIGAND FREE ENERGY PREDICTED BY IDOCK:   -5.21 KCAL/MOL
REMARK 924 INTRA-LIGAND FREE ENERGY PREDICTED BY IDOCK:   -1.23 KCAL/MOL
REMARK 927      BINDING AFFINITY PREDICTED BY RF-SCORE:    0.00 PKD
ROOT
HETATM    1  C   UNL     1      -9.465  10.312  64.009  1.00  0.00    -0.300 C  
HETATM    2  O   UNL     1      -9.876  11.436  64.791  1.00  0.00    -0.241 OA 
ENDROOT
BRANCH   2   3
HETATM    3  C   UNL     1      -9.822  11.252  66.130  1.00  0.00    -0.225 C  
HETATM    4  O   UNL     1     -10.519  10.469  66.757  1.00  0.00    -0.239 OA 
BRANCH   3   5
HETATM    5  C   UNL     1      -8.808  12.152  66.745  1.00  0.00    -0.198 C  
HETATM    6  C   UNL     1      -7.642  11.615  67.181  1.00  0.00    -0.152 C  
HETATM    7  N   UNL     1      -6.603  12.440  67.560  1.00  0.00    -0.132 NA 
HETATM    8  C   UNL     1      -7.341  10.142  67.338  1.00  0.00    -0.089 C  
HETATM    9  C   UNL     1      -6.646  13.818  67.584  1.00  0.00    -0.168 C  
HETATM   10  C   UNL     1      -5.359  14.489  68.013  1.00  0.00    -0.111 C  
HETATM   11  C   UNL     1      -7.787  14.467  67.248  1.00  0.00    -0.199 C  
HETATM   12  C   UNL     1      -9.040  13.683  66.772  1.00  0.00    -0.230 C  
BRANCH  11  13
HETATM   13  C   UNL     1      -7.854  15.936  67.484  1.00  0.00    -0.153 C  
HETATM   14  O   UNL     1      -7.892  16.444  68.596  1.00  0.00    -0.186 OA 
BRANCH  13  15
HETATM   15  O   UNL     1      -7.912  16.632  66.327  1.00  0.00    -0.305 OA 
HETATM   16  C   UNL     1      -6.861  17.593  66.139  1.00  0.00    -0.293 C  
ENDBRANCH  13  15
ENDBRANCH  11  13
BRANCH  12  17
HETATM   17  C   UNL     1     -10.259  14.058  67.632  1.00  0.00    -0.241 A  
HETATM   18  O   UNL     1     -10.969  15.317  64.993  1.00  0.00    -0.389 OA 
HETATM   19  O   UNL     1     -12.801  14.151  65.301  1.00  0.00    -0.670 OA 
HETATM   20  C   UNL     1     -10.183  13.849  69.026  1.00  0.00    -0.071 A  
HETATM   21  C   UNL     1     -11.240  14.193  69.875  1.00  0.00    -0.163 A  
HETATM   22  C   UNL     1     -12.396  14.771  69.363  1.00  0.00    -0.184 A  
HETATM   23  C   UNL     1     -12.521  14.965  67.990  1.00  0.00     0.434 A  
HETATM   24  C   UNL     1     -11.473  14.588  67.133  1.00  0.00    -0.368 A  
HETATM   25  N   UNL     1     -11.758  14.683  65.708  1.00  0.00    -0.335 N  
ENDBRANCH  12  17
ENDBRANCH   3   5
ENDBRANCH   2   3
TORSDOF 5
ENDMDL
MODEL       61
REMARK 921   NORMALIZED FREE ENERGY PREDICTED BY IDOCK:   -4.02 KCAL/MOL
REMARK 922        TOTAL FREE ENERGY PREDICTED BY IDOCK:   -6.42 KCAL/MOL
REMARK 923 INTER-LIGAND FREE ENERGY PREDICTED BY IDOCK:   -5.46 KCAL/MOL
REMARK 924 INTRA-LIGAND FREE ENERGY PREDICTED BY IDOCK:   -0.95 KCAL/MOL
REMARK 927      BINDING AFFINITY PREDICTED BY RF-SCORE:    0.00 PKD
ROOT
HETATM    1  C   UNL     1      -8.921   5.571  73.340  1.00  0.00    -0.129 C  
HETATM    2  O   UNL     1      -9.658   6.730  72.942  1.00  0.00    -0.147 OA 
ENDROOT
BRANCH   2   3
HETATM    3  C   UNL     1      -8.902   7.789  72.572  1.00  0.00    -0.150 C  
HETATM    4  O   UNL     1      -8.476   8.645  73.332  1.00  0.00    -0.385 OA 
BRANCH   3   5
HETATM    5  C   UNL     1      -8.673   7.783  71.100  1.00  0.00    -0.141 C  
HETATM    6  C   UNL     1      -7.406   7.639  70.640  1.00  0.00    -0.067 C  
HETATM    7  N   UNL     1      -7.182   7.420  69.296  1.00  0.00    -0.078 NA 
HETATM    8  C   UNL     1      -6.142   7.727  71.464  1.00  0.00    -0.035 C  
HETATM    9  C   UNL     1      -8.157   7.374  68.321  1.00  0.00    -0.125 C  
HETATM   10  C   UNL     1      -7.649   7.089  66.925  1.00  0.00    -0.094 C  
HETATM   11  C   UNL     1      -9.455   7.586  68.650  1.00  0.00    -0.146 C  
HETATM   12  C   UNL     1      -9.876   7.820  70.125  1.00  0.00    -0.184 C  
BRANCH  11  13
HETATM   13  C   UNL     1     -10.443   7.731  67.544  1.00  0.00    -0.268 C  
HETATM   14  O   UNL     1     -10.489   8.699  66.797  1.00  0.00    -0.291 OA 
BRANCH  13  15
HETATM   15  O   UNL     1     -11.304   6.690  67.496  1.00  0.00    -0.271 OA 
HETATM   16  C   UNL     1     -10.909   5.610  66.636  1.00  0.00    -0.204 C  
ENDBRANCH  13  15
ENDBRANCH  11  13
BRANCH  12  17
HETATM   17  C   UNL     1     -10.667   9.134  70.249  1.00  0.00    -0.268 A  
HETATM   18  O   UNL     1     -12.669   7.125  71.252  1.00  0.00    -0.371 OA 
HETATM   19  O   UNL     1     -12.714   8.507  72.955  1.00  0.00    -0.259 OA 
HETATM   20  C   UNL     1     -10.140  10.292  69.636  1.00  0.00    -0.257 A  
HETATM   21  C   UNL     1     -10.817  11.514  69.681  1.00  0.00    -0.053 A  
HETATM   22  C   UNL     1     -12.047  11.616  70.322  1.00  0.00    -0.443 A  
HETATM   23  C   UNL     1     -12.585  10.505  70.964  1.00  0.00    -0.499 A  
HETATM   24  C   UNL     1     -11.888   9.284  70.948  1.00  0.00    -0.282 A  
HETATM   25  N   UNL     1     -12.451   8.226  71.776  1.00  0.00    -0.318 N  
ENDBRANCH  12  17
ENDBRANCH   3   5
ENDBRANCH   2   3
TORSDOF 5
ENDMDL
MODEL       62
REMARK 921   NORMALIZED FREE ENERGY PREDICTED BY IDOCK:   -4.01 KCAL/MOL
REMARK 922        TOTAL FREE ENERGY PREDICTED BY IDOCK:   -6.40 KCAL/MOL
REMARK 923 INTER-LIGAND FREE ENERGY PREDICTED BY IDOCK:   -7.56 KCAL/MOL
REMARK 924 INTRA-LIGAND FREE ENERGY PREDICTED BY IDOCK:    1.16 KCAL/MOL
REMARK 927      BINDING AFFINITY PREDICTED BY RF-SCORE:    0.00 PKD
ROOT
HETATM    1  C   UNL     1     -10.872  11.412  63.810  1.00  0.00    -0.395 C  
HETATM    2  O   UNL     1     -11.170  11.707  65.177  1.00  0.00    -0.275 OA 
ENDROOT
BRANCH   2   3
HETATM    3  C   UNL     1     -12.125  12.647  65.363  1.00  0.00    -0.462 C  
HETATM    4  O   UNL     1     -13.223  12.645  64.828  1.00  0.00    -0.846 OA 
BRANCH   3   5
HETATM    5  C   UNL     1     -11.648  13.704  66.298  1.00  0.00    -0.372 C  
HETATM    6  C   UNL     1     -11.115  14.838  65.780  1.00  0.00    -0.338 C  
HETATM    7  N   UNL     1     -10.860  15.916  66.603  1.00  0.00    -0.266 NA 
HETATM    8  C   UNL     1     -10.719  15.060  64.339  1.00  0.00     0.147 C  
HETATM    9  C   UNL     1     -11.058  15.945  67.967  1.00  0.00    -0.334 C  
HETATM   10  C   UNL     1     -10.724  17.262  68.632  1.00  0.00    -0.280 C  
HETATM   11  C   UNL     1     -11.510  14.840  68.610  1.00  0.00    -0.325 C  
HETATM   12  C   UNL     1     -11.871  13.551  67.824  1.00  0.00    -0.398 C  
BRANCH  11  13
HETATM   13  C   UNL     1     -11.514  14.849  70.099  1.00  0.00    -0.279 C  
HETATM   14  O   UNL     1     -10.560  15.203  70.779  1.00  0.00    -0.179 OA 
BRANCH  13  15
HETATM   15  O   UNL     1     -12.676  14.378  70.605  1.00  0.00    -0.338 OA 
HETATM   16  C   UNL     1     -13.499  15.359  71.256  1.00  0.00    -0.519 C  
ENDBRANCH  13  15
ENDBRANCH  11  13
BRANCH  12  17
HETATM   17  C   UNL     1     -11.099  12.348  68.393  1.00  0.00    -0.288 A  
HETATM   18  O   UNL     1      -8.960  13.743  66.804  1.00  0.00    -0.238 OA 
HETATM   19  O   UNL     1      -7.907  13.614  68.724  1.00  0.00    -0.123 OA 
HETATM   20  C   UNL     1     -11.836  11.311  69.005  1.00  0.00    -0.421 A  
HETATM   21  C   UNL     1     -11.207  10.174  69.519  1.00  0.00    -0.288 A  
HETATM   22  C   UNL     1      -9.827  10.026  69.424  1.00  0.00    -0.240 A  
HETATM   23  C   UNL     1      -9.064  11.041  68.854  1.00  0.00    -0.132 A  
HETATM   24  C   UNL     1      -9.692  12.201  68.369  1.00  0.00    -0.193 A  
HETATM   25  N   UNL     1      -8.800  13.268  67.938  1.00  0.00    -0.182 N  
ENDBRANCH  12  17
ENDBRANCH   3   5
ENDBRANCH   2   3
TORSDOF 5
ENDMDL
MODEL       63
REMARK 921   NORMALIZED FREE ENERGY PREDICTED BY IDOCK:   -3.98 KCAL/MOL
REMARK 922        TOTAL FREE ENERGY PREDICTED BY IDOCK:   -6.36 KCAL/MOL
REMARK 923 INTER-LIGAND FREE ENERGY PREDICTED BY IDOCK:   -5.76 KCAL/MOL
REMARK 924 INTRA-LIGAND FREE ENERGY PREDICTED BY IDOCK:   -0.60 KCAL/MOL
REMARK 927      BINDING AFFINITY PREDICTED BY RF-SCORE:    0.00 PKD
ROOT
HETATM    1  C   UNL     1      -6.993  17.993  68.359  1.00  0.00    -0.236 C  
HETATM    2  O   UNL     1      -7.336  16.621  68.577  1.00  0.00    -0.180 OA 
ENDROOT
BRANCH   2   3
HETATM    3  C   UNL     1      -7.455  15.877  67.454  1.00  0.00    -0.186 C  
HETATM    4  O   UNL     1      -7.126  16.242  66.335  1.00  0.00    -0.148 OA 
BRANCH   3   5
HETATM    5  C   UNL     1      -8.063  14.553  67.761  1.00  0.00    -0.166 C  
HETATM    6  C   UNL     1      -7.244  13.517  68.067  1.00  0.00    -0.125 C  
HETATM    7  N   UNL     1      -7.775  12.342  68.559  1.00  0.00    -0.128 NA 
HETATM    8  C   UNL     1      -5.743  13.485  67.895  1.00  0.00    -0.125 C  
HETATM    9  C   UNL     1      -9.117  12.085  68.737  1.00  0.00     0.083 C  
HETATM   10  C   UNL     1      -9.435  10.725  69.319  1.00  0.00    -0.103 C  
HETATM   11  C   UNL     1     -10.038  13.017  68.388  1.00  0.00    -0.225 C  
HETATM   12  C   UNL     1      -9.603  14.404  67.845  1.00  0.00    -0.219 C  
BRANCH  11  13
HETATM   13  C   UNL     1     -11.475  12.624  68.405  1.00  0.00    -0.310 C  
HETATM   14  O   UNL     1     -11.884  11.531  68.037  1.00  0.00    -0.545 OA 
BRANCH  13  15
HETATM   15  O   UNL     1     -12.270  13.630  68.831  1.00  0.00    -0.336 OA 
HETATM   16  C   UNL     1     -12.355  13.777  70.257  1.00  0.00    -0.337 C  
ENDBRANCH  13  15
ENDBRANCH  11  13
BRANCH  12  17
HETATM   17  C   UNL     1     -10.274  14.677  66.488  1.00  0.00    -0.282 A  
HETATM   18  O   UNL     1     -10.855  17.227  67.976  1.00  0.00    -0.381 OA 
HETATM   19  O   UNL     1      -9.943  18.098  66.180  1.00  0.00    -0.440 OA 
HETATM   20  C   UNL     1     -10.428  13.599  65.590  1.00  0.00    -0.304 A  
HETATM   21  C   UNL     1     -11.055  13.765  64.351  1.00  0.00    -0.356 A  
HETATM   22  C   UNL     1     -11.563  15.004  63.977  1.00  0.00     0.117 A  
HETATM   23  C   UNL     1     -11.404  16.098  64.823  1.00  0.00    -0.253 A  
HETATM   24  C   UNL     1     -10.743  15.940  66.053  1.00  0.00    -0.284 A  
HETATM   25  N   UNL     1     -10.486  17.168  66.794  1.00  0.00    -0.297 N  
ENDBRANCH  12  17
ENDBRANCH   3   5
ENDBRANCH   2   3
TORSDOF 5
ENDMDL
MODEL       64
REMARK 921   NORMALIZED FREE ENERGY PREDICTED BY IDOCK:   -3.94 KCAL/MOL
REMARK 922        TOTAL FREE ENERGY PREDICTED BY IDOCK:   -6.32 KCAL/MOL
REMARK 923 INTER-LIGAND FREE ENERGY PREDICTED BY IDOCK:   -5.04 KCAL/MOL
REMARK 924 INTRA-LIGAND FREE ENERGY PREDICTED BY IDOCK:   -1.27 KCAL/MOL
REMARK 927      BINDING AFFINITY PREDICTED BY RF-SCORE:    0.00 PKD
ROOT
HETATM    1  C   UNL     1      -6.348   9.924  67.571  1.00  0.00    -0.063 C  
HETATM    2  O   UNL     1      -6.714   9.203  68.752  1.00  0.00    -0.052 OA 
ENDROOT
BRANCH   2   3
HETATM    3  C   UNL     1      -7.053   9.974  69.810  1.00  0.00    -0.119 C  
HETATM    4  O   UNL     1      -6.308  10.770  70.362  1.00  0.00    -0.167 OA 
BRANCH   3   5
HETATM    5  C   UNL     1      -8.457   9.707  70.228  1.00  0.00    -0.221 C  
HETATM    6  C   UNL     1      -8.690   8.728  71.136  1.00  0.00    -0.212 C  
HETATM    7  N   UNL     1      -9.942   8.595  71.700  1.00  0.00    -0.254 NA 
HETATM    8  C   UNL     1      -7.695   7.691  71.605  1.00  0.00    -0.086 C  
HETATM    9  C   UNL     1     -11.044   9.363  71.388  1.00  0.00    -0.380 C  
HETATM   10  C   UNL     1     -12.295   9.032  72.171  1.00  0.00    -0.442 C  
HETATM   11  C   UNL     1     -10.954  10.321  70.433  1.00  0.00    -0.365 C  
HETATM   12  C   UNL     1      -9.606  10.615  69.722  1.00  0.00     0.142 C  
BRANCH  11  13
HETATM   13  C   UNL     1     -12.210  10.984  69.985  1.00  0.00    -0.343 C  
HETATM   14  O   UNL     1     -13.006  10.475  69.206  1.00  0.00     0.088 OA 
BRANCH  13  15
HETATM   15  O   UNL     1     -12.341  12.225  70.503  1.00  0.00    -0.329 OA 
HETATM   16  C   UNL     1     -13.211  12.321  71.642  1.00  0.00    -0.257 C  
ENDBRANCH  13  15
ENDBRANCH  11  13
BRANCH  12  17
HETATM   17  C   UNL     1      -9.778  10.516  68.197  1.00  0.00    -0.166 A  
HETATM   18  O   UNL     1      -9.921  13.490  68.631  1.00  0.00    -0.219 OA 
HETATM   19  O   UNL     1      -8.346  13.459  67.104  1.00  0.00    -0.187 OA 
HETATM   20  C   UNL     1     -10.011   9.243  67.631  1.00  0.00    -0.245 A  
HETATM   21  C   UNL     1     -10.207   9.080  66.257  1.00  0.00    -0.237 A  
HETATM   22  C   UNL     1     -10.192  10.180  65.406  1.00  0.00    -0.281 A  
HETATM   23  C   UNL     1      -9.935  11.447  65.921  1.00  0.00    -0.274 A  
HETATM   24  C   UNL     1      -9.704  11.607  67.299  1.00  0.00    -0.180 A  
HETATM   25  N   UNL     1      -9.289  12.939  67.717  1.00  0.00    -0.195 N  
ENDBRANCH  12  17
ENDBRANCH   3   5
ENDBRANCH   2   3
TORSDOF 5
ENDMDL
MODEL       65
REMARK 921   NORMALIZED FREE ENERGY PREDICTED BY IDOCK:   -3.93 KCAL/MOL
REMARK 922        TOTAL FREE ENERGY PREDICTED BY IDOCK:   -6.30 KCAL/MOL
REMARK 923 INTER-LIGAND FREE ENERGY PREDICTED BY IDOCK:   -5.33 KCAL/MOL
REMARK 924 INTRA-LIGAND FREE ENERGY PREDICTED BY IDOCK:   -0.97 KCAL/MOL
REMARK 927      BINDING AFFINITY PREDICTED BY RF-SCORE:    0.00 PKD
ROOT
HETATM    1  C   UNL     1      -9.876  19.544  68.925  1.00  0.00    -0.445 C  
HETATM    2  O   UNL     1      -9.146  18.324  68.769  1.00  0.00    -0.300 OA 
ENDROOT
BRANCH   2   3
HETATM    3  C   UNL     1      -9.202  17.779  67.533  1.00  0.00    -0.244 C  
HETATM    4  O   UNL     1      -9.896  18.193  66.616  1.00  0.00    -0.316 OA 
BRANCH   3   5
HETATM    5  C   UNL     1      -8.314  16.587  67.443  1.00  0.00    -0.188 C  
HETATM    6  C   UNL     1      -7.041  16.756  67.009  1.00  0.00    -0.203 C  
HETATM    7  N   UNL     1      -6.135  15.720  67.112  1.00  0.00    -0.320 NA 
HETATM    8  C   UNL     1      -6.475  18.000  66.364  1.00  0.00    -0.251 C  
HETATM    9  C   UNL     1      -6.416  14.458  67.592  1.00  0.00    -0.131 C  
HETATM   10  C   UNL     1      -5.237  13.511  67.626  1.00  0.00     0.018 C  
HETATM   11  C   UNL     1      -7.677  14.145  67.978  1.00  0.00    -0.147 C  
HETATM   12  C   UNL     1      -8.808  15.209  67.950  1.00  0.00    -0.166 C  
BRANCH  11  13
HETATM   13  C   UNL     1      -7.981  12.721  68.294  1.00  0.00    -0.151 C  
HETATM   14  O   UNL     1      -8.618  11.983  67.554  1.00  0.00    -0.152 OA 
BRANCH  13  15
HETATM   15  O   UNL     1      -7.510  12.361  69.508  1.00  0.00     0.282 OA 
HETATM   16  C   UNL     1      -7.278  10.953  69.678  1.00  0.00    -0.095 C  
ENDBRANCH  13  15
ENDBRANCH  11  13
BRANCH  12  17
HETATM   17  C   UNL     1     -10.000  14.694  67.126  1.00  0.00    -0.240 A  
HETATM   18  O   UNL     1     -10.916  14.128  69.935  1.00  0.00    -0.110 OA 
HETATM   19  O   UNL     1     -12.661  15.267  69.247  1.00  0.00    -0.040 OA 
HETATM   20  C   UNL     1      -9.840  14.563  65.729  1.00  0.00    -0.343 A  
HETATM   21  C   UNL     1     -10.870  14.074  64.919  1.00  0.00    -0.421 A  
HETATM   22  C   UNL     1     -12.083  13.685  65.477  1.00  0.00    -0.440 A  
HETATM   23  C   UNL     1     -12.289  13.827  66.846  1.00  0.00    -0.328 A  
HETATM   24  C   UNL     1     -11.266  14.351  67.656  1.00  0.00    -0.313 A  
HETATM   25  N   UNL     1     -11.630  14.609  69.043  1.00  0.00    -0.282 N  
ENDBRANCH  12  17
ENDBRANCH   3   5
ENDBRANCH   2   3
TORSDOF 5
ENDMDL
MODEL       66
REMARK 921   NORMALIZED FREE ENERGY PREDICTED BY IDOCK:   -3.91 KCAL/MOL
REMARK 922        TOTAL FREE ENERGY PREDICTED BY IDOCK:   -6.27 KCAL/MOL
REMARK 923 INTER-LIGAND FREE ENERGY PREDICTED BY IDOCK:   -5.13 KCAL/MOL
REMARK 924 INTRA-LIGAND FREE ENERGY PREDICTED BY IDOCK:   -1.15 KCAL/MOL
REMARK 927      BINDING AFFINITY PREDICTED BY RF-SCORE:    0.00 PKD
ROOT
HETATM    1  C   UNL     1     -12.606  12.046  63.480  1.00  0.00    -0.507 C  
HETATM    2  O   UNL     1     -11.362  12.031  64.185  1.00  0.00    -0.337 OA 
ENDROOT
BRANCH   2   3
HETATM    3  C   UNL     1     -11.444  12.351  65.497  1.00  0.00    -0.361 C  
HETATM    4  O   UNL     1     -12.477  12.364  66.150  1.00  0.00    -0.507 OA 
BRANCH   3   5
HETATM    5  C   UNL     1     -10.103  12.707  66.037  1.00  0.00    -0.274 C  
HETATM    6  C   UNL     1      -9.687  13.994  65.946  1.00  0.00    -0.225 C  
HETATM    7  N   UNL     1      -8.552  14.400  66.618  1.00  0.00    -0.108 NA 
HETATM    8  C   UNL     1     -10.336  15.086  65.128  1.00  0.00    -0.422 C  
HETATM    9  C   UNL     1      -7.735  13.584  67.371  1.00  0.00    -0.137 C  
HETATM   10  C   UNL     1      -6.567  14.283  68.030  1.00  0.00    -0.156 C  
HETATM   11  C   UNL     1      -8.004  12.259  67.468  1.00  0.00    -0.166 C  
HETATM   12  C   UNL     1      -9.262  11.649  66.793  1.00  0.00    -0.190 C  
BRANCH  11  13
HETATM   13  C   UNL     1      -6.990  11.383  68.117  1.00  0.00    -0.069 C  
HETATM   14  O   UNL     1      -6.091  10.818  67.508  1.00  0.00    -0.051 OA 
BRANCH  13  15
HETATM   15  O   UNL     1      -7.208  11.253  69.445  1.00  0.00    -0.118 OA 
HETATM   16  C   UNL     1      -6.074  11.536  70.280  1.00  0.00    -0.140 C  
ENDBRANCH  13  15
ENDBRANCH  11  13
BRANCH  12  17
HETATM   17  C   UNL     1      -8.858  10.483  65.874  1.00  0.00    -0.180 A  
HETATM   18  O   UNL     1      -9.541   9.037  68.422  1.00  0.00    -0.149 OA 
HETATM   19  O   UNL     1     -10.825   7.904  67.050  1.00  0.00    -0.305 OA 
HETATM   20  C   UNL     1      -8.230  10.787  64.646  1.00  0.00     0.069 A  
HETATM   21  C   UNL     1      -7.808   9.780  63.773  1.00  0.00    -0.143 A  
HETATM   22  C   UNL     1      -7.982   8.440  64.104  1.00  0.00    -0.151 A  
HETATM   23  C   UNL     1      -8.625   8.101  65.291  1.00  0.00    -0.132 A  
HETATM   24  C   UNL     1      -9.080   9.114  66.153  1.00  0.00    -0.187 A  
HETATM   25  N   UNL     1      -9.876   8.665  67.288  1.00  0.00    -0.180 N  
ENDBRANCH  12  17
ENDBRANCH   3   5
ENDBRANCH   2   3
TORSDOF 5
ENDMDL
MODEL       67
REMARK 921   NORMALIZED FREE ENERGY PREDICTED BY IDOCK:   -3.90 KCAL/MOL
REMARK 922        TOTAL FREE ENERGY PREDICTED BY IDOCK:   -6.25 KCAL/MOL
REMARK 923 INTER-LIGAND FREE ENERGY PREDICTED BY IDOCK:   -4.98 KCAL/MOL
REMARK 924 INTRA-LIGAND FREE ENERGY PREDICTED BY IDOCK:   -1.28 KCAL/MOL
REMARK 927      BINDING AFFINITY PREDICTED BY RF-SCORE:    0.00 PKD
ROOT
HETATM    1  C   UNL     1      -6.833   6.213  68.873  1.00  0.00    -0.066 C  
HETATM    2  O   UNL     1      -6.388   7.501  69.307  1.00  0.00    -0.034 OA 
ENDROOT
BRANCH   2   3
HETATM    3  C   UNL     1      -7.175   8.096  70.232  1.00  0.00    -0.052 C  
HETATM    4  O   UNL     1      -7.320   7.709  71.381  1.00  0.00    -0.071 OA 
BRANCH   3   5
HETATM    5  C   UNL     1      -7.864   9.282  69.652  1.00  0.00    -0.090 C  
HETATM    6  C   UNL     1      -7.223  10.477  69.664  1.00  0.00    -0.148 C  
HETATM    7  N   UNL     1      -7.738  11.542  68.954  1.00  0.00    -0.118 NA 
HETATM    8  C   UNL     1      -5.963  10.805  70.431  1.00  0.00    -0.128 C  
HETATM    9  C   UNL     1      -8.914  11.528  68.235  1.00  0.00    -0.177 C  
HETATM   10  C   UNL     1      -9.240  12.821  67.521  1.00  0.00    -0.191 C  
HETATM   11  C   UNL     1      -9.684  10.413  68.215  1.00  0.00    -0.162 C  
HETATM   12  C   UNL     1      -9.232   9.118  68.943  1.00  0.00    -0.139 C  
BRANCH  11  13
HETATM   13  C   UNL     1     -11.038  10.506  67.600  1.00  0.00    -0.309 C  
HETATM   14  O   UNL     1     -11.950  11.177  68.064  1.00  0.00    -0.625 OA 
BRANCH  13  15
HETATM   15  O   UNL     1     -11.148   9.728  66.500  1.00  0.00     0.151 OA 
HETATM   16  C   UNL     1     -10.250  10.056  65.429  1.00  0.00    -0.156 C  
ENDBRANCH  13  15
ENDBRANCH  11  13
BRANCH  12  17
HETATM   17  C   UNL     1     -10.324   8.649  69.919  1.00  0.00    -0.213 A  
HETATM   18  O   UNL     1     -10.509   6.566  67.756  1.00  0.00    -0.174 OA 
HETATM   19  O   UNL     1     -10.281   5.227  69.479  1.00  0.00    -0.231 OA 
HETATM   20  C   UNL     1     -10.712   9.522  70.959  1.00  0.00    -0.411 A  
HETATM   21  C   UNL     1     -11.718   9.176  71.865  1.00  0.00    -0.436 A  
HETATM   22  C   UNL     1     -12.381   7.958  71.754  1.00  0.00    -0.352 A  
HETATM   23  C   UNL     1     -12.006   7.058  70.761  1.00  0.00    -0.392 A  
HETATM   24  C   UNL     1     -10.971   7.391  69.870  1.00  0.00    -0.223 A  
HETATM   25  N   UNL     1     -10.546   6.326  68.971  1.00  0.00    -0.235 N  
ENDBRANCH  12  17
ENDBRANCH   3   5
ENDBRANCH   2   3
TORSDOF 5
ENDMDL
MODEL       68
REMARK 921   NORMALIZED FREE ENERGY PREDICTED BY IDOCK:   -3.89 KCAL/MOL
REMARK 922        TOTAL FREE ENERGY PREDICTED BY IDOCK:   -6.25 KCAL/MOL
REMARK 923 INTER-LIGAND FREE ENERGY PREDICTED BY IDOCK:   -4.98 KCAL/MOL
REMARK 924 INTRA-LIGAND FREE ENERGY PREDICTED BY IDOCK:   -1.26 KCAL/MOL
REMARK 927      BINDING AFFINITY PREDICTED BY RF-SCORE:    0.00 PKD
ROOT
HETATM    1  C   UNL     1     -10.133   5.341  66.241  1.00  0.00    -0.207 C  
HETATM    2  O   UNL     1     -10.693   6.624  66.535  1.00  0.00    -0.173 OA 
ENDROOT
BRANCH   2   3
HETATM    3  C   UNL     1      -9.793   7.578  66.866  1.00  0.00    -0.226 C  
HETATM    4  O   UNL     1      -8.721   7.753  66.306  1.00  0.00    -0.140 OA 
BRANCH   3   5
HETATM    5  C   UNL     1     -10.276   8.379  68.024  1.00  0.00    -0.263 C  
HETATM    6  C   UNL     1     -10.660   9.662  67.812  1.00  0.00    -0.264 C  
HETATM    7  N   UNL     1     -11.306  10.362  68.811  1.00  0.00    -0.240 NA 
HETATM    8  C   UNL     1     -10.425  10.468  66.556  1.00  0.00    -0.276 C  
HETATM    9  C   UNL     1     -11.573   9.883  70.077  1.00  0.00    -0.175 C  
HETATM   10  C   UNL     1     -12.319  10.843  70.977  1.00  0.00    -0.498 C  
HETATM   11  C   UNL     1     -11.162   8.641  70.433  1.00  0.00    -0.236 C  
HETATM   12  C   UNL     1     -10.445   7.715  69.413  1.00  0.00    -0.220 C  
BRANCH  11  13
HETATM   13  C   UNL     1     -11.288   8.244  71.863  1.00  0.00    -0.308 C  
HETATM   14  O   UNL     1     -12.248   7.634  72.316  1.00  0.00    -0.285 OA 
BRANCH  13  15
HETATM   15  O   UNL     1     -10.243   8.676  72.602  1.00  0.00    -0.253 OA 
HETATM   16  C   UNL     1      -9.656   7.688  73.464  1.00  0.00    -0.290 C  
ENDBRANCH  13  15
ENDBRANCH  11  13
BRANCH  12  17
HETATM   17  C   UNL     1      -9.098   7.240  69.984  1.00  0.00    -0.148 A  
HETATM   18  O   UNL     1     -10.882   4.902  70.617  1.00  0.00     0.005 OA 
HETATM   19  O   UNL     1      -9.288   3.820  69.566  1.00  0.00    -0.148 OA 
HETATM   20  C   UNL     1      -8.051   8.181  70.097  1.00  0.00    -0.113 A  
HETATM   21  C   UNL     1      -6.809   7.830  70.633  1.00  0.00    -0.042 A  
HETATM   22  C   UNL     1      -6.577   6.536  71.090  1.00  0.00    -0.054 A  
HETATM   23  C   UNL     1      -7.575   5.573  70.968  1.00  0.00    -0.091 A  
HETATM   24  C   UNL     1      -8.812   5.917  70.396  1.00  0.00    -0.143 A  
HETATM   25  N   UNL     1      -9.731   4.810  70.168  1.00  0.00    -0.197 N  
ENDBRANCH  12  17
ENDBRANCH   3   5
ENDBRANCH   2   3
TORSDOF 5
ENDMDL
MODEL       69
REMARK 921   NORMALIZED FREE ENERGY PREDICTED BY IDOCK:   -3.88 KCAL/MOL
REMARK 922        TOTAL FREE ENERGY PREDICTED BY IDOCK:   -6.24 KCAL/MOL
REMARK 923 INTER-LIGAND FREE ENERGY PREDICTED BY IDOCK:   -5.33 KCAL/MOL
REMARK 924 INTRA-LIGAND FREE ENERGY PREDICTED BY IDOCK:   -0.91 KCAL/MOL
REMARK 927      BINDING AFFINITY PREDICTED BY RF-SCORE:    0.00 PKD
ROOT
HETATM    1  C   UNL     1     -12.278  13.657  68.251  1.00  0.00    -0.130 C  
HETATM    2  O   UNL     1     -12.076  12.249  68.396  1.00  0.00    -0.321 OA 
ENDROOT
BRANCH   2   3
HETATM    3  C   UNL     1     -11.789  11.839  69.653  1.00  0.00    -0.339 C  
HETATM    4  O   UNL     1     -11.913  12.523  70.657  1.00  0.00    -0.305 OA 
BRANCH   3   5
HETATM    5  C   UNL     1     -11.279  10.440  69.647  1.00  0.00    -0.333 C  
HETATM    6  C   UNL     1     -11.731   9.579  70.591  1.00  0.00    -0.262 C  
HETATM    7  N   UNL     1     -11.444   8.233  70.489  1.00  0.00    -0.225 NA 
HETATM    8  C   UNL     1     -12.527   9.943  71.823  1.00  0.00    -0.487 C  
HETATM    9  C   UNL     1     -10.673   7.653  69.505  1.00  0.00    -0.209 C  
HETATM   10  C   UNL     1     -10.535   6.150  69.605  1.00  0.00    -0.312 C  
HETATM   11  C   UNL     1     -10.097   8.426  68.551  1.00  0.00    -0.218 C  
HETATM   12  C   UNL     1     -10.344   9.958  68.509  1.00  0.00    -0.221 C  
BRANCH  11  13
HETATM   13  C   UNL     1      -9.111   7.789  67.634  1.00  0.00    -0.133 C  
HETATM   14  O   UNL     1      -8.000   7.416  67.985  1.00  0.00    -0.116 OA 
BRANCH  13  15
HETATM   15  O   UNL     1      -9.573   7.716  66.366  1.00  0.00    -0.200 OA 
HETATM   16  C   UNL     1      -8.611   8.032  65.347  1.00  0.00    -0.114 C  
ENDBRANCH  13  15
ENDBRANCH  11  13
BRANCH  12  17
HETATM   17  C   UNL     1      -9.003  10.712  68.517  1.00  0.00    -0.156 A  
HETATM   18  O   UNL     1      -9.938  11.168  65.694  1.00  0.00    -0.226 OA 
HETATM   19  O   UNL     1      -9.579  13.257  66.260  1.00  0.00    -0.273 OA 
HETATM   20  C   UNL     1      -8.136  10.521  69.615  1.00  0.00    -0.058 A  
HETATM   21  C   UNL     1      -6.889  11.149  69.678  1.00  0.00    -0.117 A  
HETATM   22  C   UNL     1      -6.460  11.972  68.642  1.00  0.00    -0.063 A  
HETATM   23  C   UNL     1      -7.300  12.209  67.557  1.00  0.00    -0.135 A  
HETATM   24  C   UNL     1      -8.568  11.605  67.510  1.00  0.00    -0.149 A  
HETATM   25  N   UNL     1      -9.432  12.036  66.419  1.00  0.00    -0.227 N  
ENDBRANCH  12  17
ENDBRANCH   3   5
ENDBRANCH   2   3
TORSDOF 5
ENDMDL
MODEL       70
REMARK 921   NORMALIZED FREE ENERGY PREDICTED BY IDOCK:   -3.85 KCAL/MOL
REMARK 922        TOTAL FREE ENERGY PREDICTED BY IDOCK:   -6.20 KCAL/MOL
REMARK 923 INTER-LIGAND FREE ENERGY PREDICTED BY IDOCK:   -4.90 KCAL/MOL
REMARK 924 INTRA-LIGAND FREE ENERGY PREDICTED BY IDOCK:   -1.30 KCAL/MOL
REMARK 927      BINDING AFFINITY PREDICTED BY RF-SCORE:    0.00 PKD
ROOT
HETATM    1  C   UNL     1     -10.448   9.151  71.071  1.00  0.00    -0.298 C  
HETATM    2  O   UNL     1     -10.577   7.970  71.868  1.00  0.00    -0.221 OA 
ENDROOT
BRANCH   2   3
HETATM    3  C   UNL     1     -11.391   7.020  71.355  1.00  0.00    -0.265 C  
HETATM    4  O   UNL     1     -12.572   7.182  71.084  1.00  0.00    -0.364 OA 
BRANCH   3   5
HETATM    5  C   UNL     1     -10.657   5.736  71.180  1.00  0.00    -0.315 C  
HETATM    6  C   UNL     1     -10.580   4.884  72.232  1.00  0.00    -0.185 C  
HETATM    7  N   UNL     1     -10.094   3.605  72.047  1.00  0.00    -0.161 NA 
HETATM    8  C   UNL     1     -10.952   5.196  73.662  1.00  0.00    -0.350 C  
HETATM    9  C   UNL     1      -9.617   3.096  70.858  1.00  0.00    -0.155 C  
HETATM   10  C   UNL     1      -9.168   1.653  70.916  1.00  0.00    -0.164 C  
HETATM   11  C   UNL     1      -9.568   3.883  69.755  1.00  0.00    -0.271 C  
HETATM   12  C   UNL     1     -10.102   5.340  69.789  1.00  0.00    -0.334 C  
BRANCH  11  13
HETATM   13  C   UNL     1      -8.860   3.361  68.553  1.00  0.00    -0.115 C  
HETATM   14  O   UNL     1      -9.432   2.895  67.576  1.00  0.00    -0.202 OA 
BRANCH  13  15
HETATM   15  O   UNL     1      -7.517   3.423  68.690  1.00  0.00    -0.050 OA 
HETATM   16  C   UNL     1      -6.789   2.363  68.050  1.00  0.00    -0.043 C  
ENDBRANCH  13  15
ENDBRANCH  11  13
BRANCH  12  17
HETATM   17  C   UNL     1      -9.013   6.316  69.313  1.00  0.00    -0.125 A  
HETATM   18  O   UNL     1     -10.617   5.926  66.799  1.00  0.00    -0.259 OA 
HETATM   19  O   UNL     1     -10.657   8.118  66.873  1.00  0.00    -0.329 OA 
HETATM   20  C   UNL     1      -7.909   6.550  70.161  1.00  0.00    -0.107 A  
HETATM   21  C   UNL     1      -6.866   7.401  69.784  1.00  0.00    -0.052 A  
HETATM   22  C   UNL     1      -6.882   8.031  68.543  1.00  0.00    -0.067 A  
HETATM   23  C   UNL     1      -7.968   7.848  67.692  1.00  0.00    -0.124 A  
HETATM   24  C   UNL     1      -9.034   7.020  68.086  1.00  0.00    -0.127 A  
HETATM   25  N   UNL     1     -10.190   7.017  67.201  1.00  0.00    -0.220 N  
ENDBRANCH  12  17
ENDBRANCH   3   5
ENDBRANCH   2   3
TORSDOF 5
ENDMDL
MODEL       71
REMARK 921   NORMALIZED FREE ENERGY PREDICTED BY IDOCK:   -3.85 KCAL/MOL
REMARK 922        TOTAL FREE ENERGY PREDICTED BY IDOCK:   -6.19 KCAL/MOL
REMARK 923 INTER-LIGAND FREE ENERGY PREDICTED BY IDOCK:   -7.11 KCAL/MOL
REMARK 924 INTRA-LIGAND FREE ENERGY PREDICTED BY IDOCK:    0.92 KCAL/MOL
REMARK 927      BINDING AFFINITY PREDICTED BY RF-SCORE:    0.00 PKD
ROOT
HETATM    1  C   UNL     1     -10.837  16.911  65.048  1.00  0.00    -0.064 C  
HETATM    2  O   UNL     1     -10.707  15.663  64.361  1.00  0.00    -0.302 OA 
ENDROOT
BRANCH   2   3
HETATM    3  C   UNL     1     -11.585  14.707  64.742  1.00  0.00    -0.418 C  
HETATM    4  O   UNL     1     -12.801  14.816  64.698  1.00  0.00    -0.495 OA 
BRANCH   3   5
HETATM    5  C   UNL     1     -10.867  13.503  65.246  1.00  0.00    -0.316 C  
HETATM    6  C   UNL     1     -11.040  12.325  64.598  1.00  0.00    -0.313 C  
HETATM    7  N   UNL     1     -10.236  11.246  64.905  1.00  0.00    -0.267 NA 
HETATM    8  C   UNL     1     -12.085  12.029  63.547  1.00  0.00    -0.628 C  
HETATM    9  C   UNL     1      -9.259  11.230  65.877  1.00  0.00    -0.212 C  
HETATM   10  C   UNL     1      -8.498   9.928  65.994  1.00  0.00    -0.135 C  
HETATM   11  C   UNL     1      -9.050  12.326  66.647  1.00  0.00    -0.203 C  
HETATM   12  C   UNL     1      -9.854  13.632  66.411  1.00  0.00    -0.302 C  
BRANCH  11  13
HETATM   13  C   UNL     1      -8.133  12.198  67.814  1.00  0.00    -0.152 C  
HETATM   14  O   UNL     1      -8.381  11.518  68.801  1.00  0.00    -0.141 OA 
BRANCH  13  15
HETATM   15  O   UNL     1      -7.022  12.955  67.671  1.00  0.00    -0.122 OA 
HETATM   16  C   UNL     1      -6.759  13.863  68.752  1.00  0.00    -0.102 C  
ENDBRANCH  13  15
ENDBRANCH  11  13
BRANCH  12  17
HETATM   17  C   UNL     1     -10.541  14.076  67.714  1.00  0.00    -0.244 A  
HETATM   18  O   UNL     1     -12.154  11.646  66.977  1.00  0.00    -0.547 OA 
HETATM   19  O   UNL     1     -11.628  11.077  69.029  1.00  0.00    -0.271 OA 
HETATM   20  C   UNL     1     -10.215  15.344  68.242  1.00  0.00    -0.229 A  
HETATM   21  C   UNL     1     -10.820  15.827  69.406  1.00  0.00    -0.269 A  
HETATM   22  C   UNL     1     -11.780  15.070  70.070  1.00  0.00    -0.345 A  
HETATM   23  C   UNL     1     -12.105  13.802  69.597  1.00  0.00    -0.392 A  
HETATM   24  C   UNL     1     -11.472  13.301  68.446  1.00  0.00    -0.314 A  
HETATM   25  N   UNL     1     -11.760  11.911  68.122  1.00  0.00    -0.329 N  
ENDBRANCH  12  17
ENDBRANCH   3   5
ENDBRANCH   2   3
TORSDOF 5
ENDMDL
MODEL       72
REMARK 921   NORMALIZED FREE ENERGY PREDICTED BY IDOCK:   -3.84 KCAL/MOL
REMARK 922        TOTAL FREE ENERGY PREDICTED BY IDOCK:   -6.19 KCAL/MOL
REMARK 923 INTER-LIGAND FREE ENERGY PREDICTED BY IDOCK:   -7.31 KCAL/MOL
REMARK 924 INTRA-LIGAND FREE ENERGY PREDICTED BY IDOCK:    1.12 KCAL/MOL
REMARK 927      BINDING AFFINITY PREDICTED BY RF-SCORE:    0.00 PKD
ROOT
HETATM    1  C   UNL     1     -11.706  15.241  72.484  1.00  0.00    -0.434 C  
HETATM    2  O   UNL     1     -11.412  14.802  71.154  1.00  0.00    -0.294 OA 
ENDROOT
BRANCH   2   3
HETATM    3  C   UNL     1     -12.470  14.318  70.465  1.00  0.00    -0.361 C  
HETATM    4  O   UNL     1     -13.635  14.400  70.823  1.00  0.00    -0.223 OA 
BRANCH   3   5
HETATM    5  C   UNL     1     -12.020  13.648  69.213  1.00  0.00    -0.384 C  
HETATM    6  C   UNL     1     -11.898  12.298  69.206  1.00  0.00    -0.306 C  
HETATM    7  N   UNL     1     -11.690  11.632  68.015  1.00  0.00    -0.513 NA 
HETATM    8  C   UNL     1     -11.933  11.393  70.415  1.00  0.00    -0.465 C  
HETATM    9  C   UNL     1     -11.543  12.230  66.781  1.00  0.00    -0.369 C  
HETATM   10  C   UNL     1     -11.353  11.270  65.627  1.00  0.00     0.022 C  
HETATM   11  C   UNL     1     -11.564  13.581  66.675  1.00  0.00    -0.396 C  
HETATM   12  C   UNL     1     -11.816  14.475  67.919  1.00  0.00    -0.370 C  
BRANCH  11  13
HETATM   13  C   UNL     1     -11.199  14.187  65.364  1.00  0.00    -0.325 C  
HETATM   14  O   UNL     1     -10.054  14.485  65.050  1.00  0.00    -0.393 OA 
BRANCH  13  15
HETATM   15  O   UNL     1     -12.283  14.407  64.589  1.00  0.00    -0.444 OA 
HETATM   16  C   UNL     1     -12.347  13.618  63.390  1.00  0.00    -0.101 C  
ENDBRANCH  13  15
ENDBRANCH  11  13
BRANCH  12  17
HETATM   17  C   UNL     1     -10.681  15.501  68.073  1.00  0.00    -0.283 A  
HETATM   18  O   UNL     1      -9.289  12.942  68.820  1.00  0.00    -0.036 OA 
HETATM   19  O   UNL     1      -7.890  13.635  67.278  1.00  0.00    -0.159 OA 
HETATM   20  C   UNL     1     -11.013  16.874  68.044  1.00  0.00    -0.271 A  
HETATM   21  C   UNL     1     -10.039  17.864  68.207  1.00  0.00    -0.376 A  
HETATM   22  C   UNL     1      -8.709  17.517  68.422  1.00  0.00    -0.276 A  
HETATM   23  C   UNL     1      -8.339  16.175  68.427  1.00  0.00    -0.179 A  
HETATM   24  C   UNL     1      -9.312  15.181  68.228  1.00  0.00    -0.193 A  
HETATM   25  N   UNL     1      -8.806  13.822  68.093  1.00  0.00    -0.179 N  
ENDBRANCH  12  17
ENDBRANCH   3   5
ENDBRANCH   2   3
TORSDOF 5
ENDMDL
MODEL       73
REMARK 921   NORMALIZED FREE ENERGY PREDICTED BY IDOCK:   -3.84 KCAL/MOL
REMARK 922        TOTAL FREE ENERGY PREDICTED BY IDOCK:   -6.18 KCAL/MOL
REMARK 923 INTER-LIGAND FREE ENERGY PREDICTED BY IDOCK:   -4.98 KCAL/MOL
REMARK 924 INTRA-LIGAND FREE ENERGY PREDICTED BY IDOCK:   -1.20 KCAL/MOL
REMARK 927      BINDING AFFINITY PREDICTED BY RF-SCORE:    0.00 PKD
ROOT
HETATM    1  C   UNL     1      -9.421   4.714  66.545  1.00  0.00    -0.166 C  
HETATM    2  O   UNL     1      -9.724   6.074  66.222  1.00  0.00    -0.151 OA 
ENDROOT
BRANCH   2   3
HETATM    3  C   UNL     1      -8.676   6.925  66.294  1.00  0.00    -0.142 C  
HETATM    4  O   UNL     1      -7.513   6.591  66.457  1.00  0.00    -0.082 OA 
BRANCH   3   5
HETATM    5  C   UNL     1      -9.135   8.336  66.167  1.00  0.00    -0.238 C  
HETATM    6  C   UNL     1      -8.999   8.960  64.971  1.00  0.00    -0.108 C  
HETATM    7  N   UNL     1      -9.600  10.184  64.760  1.00  0.00    -0.294 NA 
HETATM    8  C   UNL     1      -8.200   8.459  63.790  1.00  0.00    -0.106 C  
HETATM    9  C   UNL     1     -10.320  10.892  65.698  1.00  0.00    -0.242 C  
HETATM   10  C   UNL     1     -10.900  12.199  65.204  1.00  0.00    -0.343 C  
HETATM   11  C   UNL     1     -10.454  10.408  66.957  1.00  0.00    -0.309 C  
HETATM   12  C   UNL     1      -9.861   9.028  67.349  1.00  0.00    -0.244 C  
BRANCH  11  13
HETATM   13  C   UNL     1     -11.061  11.295  67.989  1.00  0.00    -0.266 C  
HETATM   14  O   UNL     1     -12.195  11.152  68.426  1.00  0.00    -0.610 OA 
BRANCH  13  15
HETATM   15  O   UNL     1     -10.227  12.297  68.348  1.00  0.00    -0.212 OA 
HETATM   16  C   UNL     1     -10.873  13.531  68.696  1.00  0.00    -0.259 C  
ENDBRANCH  13  15
ENDBRANCH  11  13
BRANCH  12  17
HETATM   17  C   UNL     1      -8.940   9.174  68.573  1.00  0.00    -0.133 A  
HETATM   18  O   UNL     1     -11.513   8.284  69.852  1.00  0.00    -0.025 OA 
HETATM   19  O   UNL     1     -10.180   6.770  70.715  1.00  0.00    -0.194 OA 
HETATM   20  C   UNL     1      -7.696   9.819  68.400  1.00  0.00    -0.081 A  
HETATM   21  C   UNL     1      -6.821  10.015  69.472  1.00  0.00    -0.071 A  
HETATM   22  C   UNL     1      -7.164   9.590  70.751  1.00  0.00    -0.105 A  
HETATM   23  C   UNL     1      -8.369   8.923  70.955  1.00  0.00    -0.233 A  
HETATM   24  C   UNL     1      -9.234   8.695  69.871  1.00  0.00    -0.155 A  
HETATM   25  N   UNL     1     -10.390   7.855  70.153  1.00  0.00    -0.211 N  
ENDBRANCH  12  17
ENDBRANCH   3   5
ENDBRANCH   2   3
TORSDOF 5
ENDMDL
MODEL       74
REMARK 921   NORMALIZED FREE ENERGY PREDICTED BY IDOCK:   -3.82 KCAL/MOL
REMARK 922        TOTAL FREE ENERGY PREDICTED BY IDOCK:   -6.16 KCAL/MOL
REMARK 923 INTER-LIGAND FREE ENERGY PREDICTED BY IDOCK:   -4.87 KCAL/MOL
REMARK 924 INTRA-LIGAND FREE ENERGY PREDICTED BY IDOCK:   -1.29 KCAL/MOL
REMARK 927      BINDING AFFINITY PREDICTED BY RF-SCORE:    0.00 PKD
ROOT
HETATM    1  C   UNL     1      -5.581   4.645  70.557  1.00  0.00    -0.015 C  
HETATM    2  O   UNL     1      -5.862   5.850  71.274  1.00  0.00    -0.024 OA 
ENDROOT
BRANCH   2   3
HETATM    3  C   UNL     1      -6.642   5.696  72.368  1.00  0.00    -0.066 C  
HETATM    4  O   UNL     1      -6.382   4.971  73.316  1.00  0.00    -0.050 OA 
BRANCH   3   5
HETATM    5  C   UNL     1      -7.880   6.516  72.253  1.00  0.00    -0.101 C  
HETATM    6  C   UNL     1      -7.854   7.797  72.695  1.00  0.00    -0.110 C  
HETATM    7  N   UNL     1      -8.907   8.644  72.414  1.00  0.00    -0.380 NA 
HETATM    8  C   UNL     1      -6.765   8.431  73.529  1.00  0.00    -0.127 C  
HETATM    9  C   UNL     1     -10.056   8.293  71.737  1.00  0.00    -0.224 C  
HETATM   10  C   UNL     1     -11.047   9.418  71.536  1.00  0.00    -0.446 C  
HETATM   11  C   UNL     1     -10.232   7.016  71.317  1.00  0.00    -0.203 C  
HETATM   12  C   UNL     1      -9.127   5.946  71.531  1.00  0.00    -0.150 C  
BRANCH  11  13
HETATM   13  C   UNL     1     -11.565   6.633  70.776  1.00  0.00    -0.376 C  
HETATM   14  O   UNL     1     -11.783   6.430  69.589  1.00  0.00    -0.389 OA 
BRANCH  13  15
HETATM   15  O   UNL     1     -12.509   6.583  71.742  1.00  0.00    -0.345 OA 
HETATM   16  C   UNL     1     -13.797   7.092  71.364  1.00  0.00    -0.251 C  
ENDBRANCH  13  15
ENDBRANCH  11  13
BRANCH  12  17
HETATM   17  C   UNL     1      -9.704   4.728  72.272  1.00  0.00    -0.209 A  
HETATM   18  O   UNL     1      -9.750   3.779  69.418  1.00  0.00    -0.181 OA 
HETATM   19  O   UNL     1      -8.647   2.101  70.301  1.00  0.00    -0.048 OA 
HETATM   20  C   UNL     1     -10.071   4.882  73.627  1.00  0.00    -0.203 A  
HETATM   21  C   UNL     1     -10.630   3.828  74.356  1.00  0.00    -0.238 A  
HETATM   22  C   UNL     1     -10.856   2.595  73.754  1.00  0.00    -0.293 A  
HETATM   23  C   UNL     1     -10.479   2.395  72.429  1.00  0.00    -0.134 A  
HETATM   24  C   UNL     1      -9.886   3.444  71.705  1.00  0.00    -0.159 A  
HETATM   25  N   UNL     1      -9.385   3.094  70.383  1.00  0.00    -0.150 N  
ENDBRANCH  12  17
ENDBRANCH   3   5
ENDBRANCH   2   3
TORSDOF 5
ENDMDL
MODEL       75
REMARK 921   NORMALIZED FREE ENERGY PREDICTED BY IDOCK:   -3.81 KCAL/MOL
REMARK 922        TOTAL FREE ENERGY PREDICTED BY IDOCK:   -6.15 KCAL/MOL
REMARK 923 INTER-LIGAND FREE ENERGY PREDICTED BY IDOCK:   -7.46 KCAL/MOL
REMARK 924 INTRA-LIGAND FREE ENERGY PREDICTED BY IDOCK:    1.31 KCAL/MOL
REMARK 927      BINDING AFFINITY PREDICTED BY RF-SCORE:    0.00 PKD
ROOT
HETATM    1  C   UNL     1      -5.563  12.600  67.641  1.00  0.00    -0.130 C  
HETATM    2  O   UNL     1      -6.762  13.075  67.022  1.00  0.00    -0.096 OA 
ENDROOT
BRANCH   2   3
HETATM    3  C   UNL     1      -7.617  13.716  67.850  1.00  0.00    -0.156 C  
HETATM    4  O   UNL     1      -7.490  13.795  69.063  1.00  0.00    -0.088 OA 
BRANCH   3   5
HETATM    5  C   UNL     1      -8.754  14.299  67.085  1.00  0.00    -0.243 C  
HETATM    6  C   UNL     1      -8.630  15.556  66.594  1.00  0.00    -0.290 C  
HETATM    7  N   UNL     1      -9.569  16.046  65.709  1.00  0.00    -0.393 NA 
HETATM    8  C   UNL     1      -7.545  16.548  66.945  1.00  0.00    -0.272 C  
HETATM    9  C   UNL     1     -10.696  15.373  65.288  1.00  0.00    -0.421 C  
HETATM   10  C   UNL     1     -11.551  16.123  64.290  1.00  0.00    -0.062 C  
HETATM   11  C   UNL     1     -10.970  14.138  65.775  1.00  0.00    -0.301 C  
HETATM   12  C   UNL     1      -9.998  13.435  66.759  1.00  0.00    -0.264 C  
BRANCH  11  13
HETATM   13  C   UNL     1     -12.294  13.536  65.453  1.00  0.00    -0.478 C  
HETATM   14  O   UNL     1     -13.364  14.079  65.694  1.00  0.00    -0.636 OA 
BRANCH  13  15
HETATM   15  O   UNL     1     -12.171  12.305  64.907  1.00  0.00    -0.410 OA 
HETATM   16  C   UNL     1     -12.062  12.281  63.475  1.00  0.00    -0.553 C  
ENDBRANCH  13  15
ENDBRANCH  11  13
BRANCH  12  17
HETATM   17  C   UNL     1     -10.747  13.014  68.035  1.00  0.00    -0.248 A  
HETATM   18  O   UNL     1     -10.104  15.891  68.632  1.00  0.00    -0.207 OA 
HETATM   19  O   UNL     1     -12.266  15.958  68.999  1.00  0.00    -0.253 OA 
HETATM   20  C   UNL     1     -11.001  11.640  68.238  1.00  0.00    -0.273 A  
HETATM   21  C   UNL     1     -11.651  11.179  69.387  1.00  0.00    -0.388 A  
HETATM   22  C   UNL     1     -12.051  12.071  70.377  1.00  0.00    -0.407 A  
HETATM   23  C   UNL     1     -11.845  13.436  70.199  1.00  0.00    -0.342 A  
HETATM   24  C   UNL     1     -11.223  13.903  69.028  1.00  0.00    -0.274 A  
HETATM   25  N   UNL     1     -11.195  15.349  68.862  1.00  0.00    -0.272 N  
ENDBRANCH  12  17
ENDBRANCH   3   5
ENDBRANCH   2   3
TORSDOF 5
ENDMDL
MODEL       76
REMARK 921   NORMALIZED FREE ENERGY PREDICTED BY IDOCK:   -3.76 KCAL/MOL
REMARK 922        TOTAL FREE ENERGY PREDICTED BY IDOCK:   -6.08 KCAL/MOL
REMARK 923 INTER-LIGAND FREE ENERGY PREDICTED BY IDOCK:   -5.00 KCAL/MOL
REMARK 924 INTRA-LIGAND FREE ENERGY PREDICTED BY IDOCK:   -1.08 KCAL/MOL
REMARK 927      BINDING AFFINITY PREDICTED BY RF-SCORE:    0.00 PKD
ROOT
HETATM    1  C   UNL     1      -8.974   9.613  64.152  1.00  0.00    -0.229 C  
HETATM    2  O   UNL     1      -9.810   9.678  65.311  1.00  0.00    -0.310 OA 
ENDROOT
BRANCH   2   3
HETATM    3  C   UNL     1      -9.797  10.866  65.959  1.00  0.00    -0.233 C  
HETATM    4  O   UNL     1      -9.391  11.916  65.485  1.00  0.00    -0.189 OA 
BRANCH   3   5
HETATM    5  C   UNL     1     -10.327  10.717  67.342  1.00  0.00    -0.262 C  
HETATM    6  C   UNL     1     -11.392  11.468  67.715  1.00  0.00    -0.296 C  
HETATM    7  N   UNL     1     -12.036  11.207  68.907  1.00  0.00    -0.519 NA 
HETATM    8  C   UNL     1     -11.967  12.640  66.953  1.00  0.00    -0.345 C  
HETATM    9  C   UNL     1     -11.664  10.245  69.821  1.00  0.00    -0.191 C  
HETATM   10  C   UNL     1     -12.557  10.143  71.038  1.00  0.00    -0.478 C  
HETATM   11  C   UNL     1     -10.564   9.485  69.596  1.00  0.00    -0.245 C  
HETATM   12  C   UNL     1      -9.744   9.636  68.287  1.00  0.00    -0.162 C  
BRANCH  11  13
HETATM   13  C   UNL     1     -10.083   8.605  70.698  1.00  0.00    -0.198 C  
HETATM   14  O   UNL     1      -9.370   8.992  71.614  1.00  0.00    -0.265 OA 
BRANCH  13  15
HETATM   15  O   UNL     1     -10.490   7.326  70.538  1.00  0.00    -0.212 OA 
HETATM   16  C   UNL     1      -9.656   6.338  71.164  1.00  0.00    -0.175 C  
ENDBRANCH  13  15
ENDBRANCH  11  13
BRANCH  12  17
HETATM   17  C   UNL     1      -8.266   9.907  68.615  1.00  0.00    -0.108 A  
HETATM   18  O   UNL     1      -8.247   6.936  68.141  1.00  0.00    -0.117 OA 
HETATM   19  O   UNL     1      -6.646   7.499  66.749  1.00  0.00    -0.054 OA 
HETATM   20  C   UNL     1      -7.919  11.170  69.142  1.00  0.00    -0.046 A  
HETATM   21  C   UNL     1      -6.601  11.479  69.492  1.00  0.00    -0.120 A  
HETATM   22  C   UNL     1      -5.592  10.533  69.344  1.00  0.00    -0.037 A  
HETATM   23  C   UNL     1      -5.889   9.287  68.800  1.00  0.00    -0.040 A  
HETATM   24  C   UNL     1      -7.208   8.988  68.416  1.00  0.00    -0.077 A  
HETATM   25  N   UNL     1      -7.390   7.725  67.714  1.00  0.00    -0.093 N  
ENDBRANCH  12  17
ENDBRANCH   3   5
ENDBRANCH   2   3
TORSDOF 5
ENDMDL
MODEL       77
REMARK 921   NORMALIZED FREE ENERGY PREDICTED BY IDOCK:   -3.76 KCAL/MOL
REMARK 922        TOTAL FREE ENERGY PREDICTED BY IDOCK:   -6.07 KCAL/MOL
REMARK 923 INTER-LIGAND FREE ENERGY PREDICTED BY IDOCK:   -5.91 KCAL/MOL
REMARK 924 INTRA-LIGAND FREE ENERGY PREDICTED BY IDOCK:   -0.17 KCAL/MOL
REMARK 927      BINDING AFFINITY PREDICTED BY RF-SCORE:    0.00 PKD
ROOT
HETATM    1  C   UNL     1     -11.226  18.906  65.492  1.00  0.00     0.816 C  
HETATM    2  O   UNL     1     -10.313  17.876  65.102  1.00  0.00    -0.279 OA 
ENDROOT
BRANCH   2   3
HETATM    3  C   UNL     1     -10.877  16.667  64.880  1.00  0.00    -0.142 C  
HETATM    4  O   UNL     1     -11.739  16.440  64.045  1.00  0.00    -1.044 OA 
BRANCH   3   5
HETATM    5  C   UNL     1     -10.317  15.647  65.810  1.00  0.00    -0.386 C  
HETATM    6  C   UNL     1     -11.011  14.500  66.010  1.00  0.00    -0.324 C  
HETATM    7  N   UNL     1     -10.428  13.453  66.694  1.00  0.00    -0.277 NA 
HETATM    8  C   UNL     1     -12.434  14.231  65.578  1.00  0.00    -0.434 C  
HETATM    9  C   UNL     1      -9.170  13.470  67.258  1.00  0.00    -0.233 C  
HETATM   10  C   UNL     1      -8.755  12.179  67.929  1.00  0.00    -0.176 C  
HETATM   11  C   UNL     1      -8.413  14.592  67.194  1.00  0.00    -0.244 C  
HETATM   12  C   UNL     1      -8.915  15.850  66.435  1.00  0.00    -0.361 C  
BRANCH  11  13
HETATM   13  C   UNL     1      -7.154  14.635  67.988  1.00  0.00    -0.138 C  
HETATM   14  O   UNL     1      -6.045  14.426  67.515  1.00  0.00    -0.327 OA 
BRANCH  13  15
HETATM   15  O   UNL     1      -7.388  14.887  69.295  1.00  0.00    -0.152 OA 
HETATM   16  C   UNL     1      -6.471  15.803  69.914  1.00  0.00    -0.125 C  
ENDBRANCH  13  15
ENDBRANCH  11  13
BRANCH  12  17
HETATM   17  C   UNL     1      -8.878  17.078  67.362  1.00  0.00    -0.210 A  
HETATM   18  O   UNL     1      -6.320  17.411  65.813  1.00  0.00    -0.109 OA 
HETATM   19  O   UNL     1      -7.184  19.394  65.445  1.00  0.00    -0.425 OA 
HETATM   20  C   UNL     1      -9.805  17.141  68.425  1.00  0.00    -0.296 A  
HETATM   21  C   UNL     1      -9.812  18.210  69.325  1.00  0.00    -0.050 A  
HETATM   22  C   UNL     1      -8.886  19.241  69.204  1.00  0.00    -0.164 A  
HETATM   23  C   UNL     1      -7.976  19.230  68.151  1.00  0.00    -0.343 A  
HETATM   24  C   UNL     1      -7.991  18.172  67.225  1.00  0.00    -0.220 A  
HETATM   25  N   UNL     1      -7.111  18.328  66.075  1.00  0.00    -0.266 N  
ENDBRANCH  12  17
ENDBRANCH   3   5
ENDBRANCH   2   3
TORSDOF 5
ENDMDL
MODEL       78
REMARK 921   NORMALIZED FREE ENERGY PREDICTED BY IDOCK:   -3.74 KCAL/MOL
REMARK 922        TOTAL FREE ENERGY PREDICTED BY IDOCK:   -6.06 KCAL/MOL
REMARK 923 INTER-LIGAND FREE ENERGY PREDICTED BY IDOCK:   -5.03 KCAL/MOL
REMARK 924 INTRA-LIGAND FREE ENERGY PREDICTED BY IDOCK:   -1.02 KCAL/MOL
REMARK 927      BINDING AFFINITY PREDICTED BY RF-SCORE:    0.00 PKD
ROOT
HETATM    1  C   UNL     1      -8.054  12.216  68.126  1.00  0.00    -0.161 C  
HETATM    2  O   UNL     1      -7.498  11.534  69.254  1.00  0.00    -0.073 OA 
ENDROOT
BRANCH   2   3
HETATM    3  C   UNL     1      -7.333  10.201  69.091  1.00  0.00    -0.089 C  
HETATM    4  O   UNL     1      -6.956   9.663  68.062  1.00  0.00    -0.076 OA 
BRANCH   3   5
HETATM    5  C   UNL     1      -7.695   9.470  70.337  1.00  0.00    -0.177 C  
HETATM    6  C   UNL     1      -6.744   9.292  71.286  1.00  0.00    -0.041 C  
HETATM    7  N   UNL     1      -7.094   8.810  72.531  1.00  0.00    -0.322 NA 
HETATM    8  C   UNL     1      -5.263   9.542  71.123  1.00  0.00    -0.046 C  
HETATM    9  C   UNL     1      -8.364   8.431  72.912  1.00  0.00    -0.136 C  
HETATM   10  C   UNL     1      -8.487   7.962  74.345  1.00  0.00    -0.233 C  
HETATM   11  C   UNL     1      -9.384   8.487  72.021  1.00  0.00    -0.353 C  
HETATM   12  C   UNL     1      -9.161   9.033  70.586  1.00  0.00    -0.280 C  
BRANCH  11  13
HETATM   13  C   UNL     1     -10.688   7.880  72.410  1.00  0.00    -0.305 C  
HETATM   14  O   UNL     1     -11.721   8.521  72.547  1.00  0.00    -0.380 OA 
BRANCH  13  15
HETATM   15  O   UNL     1     -10.581   6.551  72.633  1.00  0.00    -0.204 OA 
HETATM   16  C   UNL     1     -11.765   5.788  72.352  1.00  0.00    -0.223 C  
ENDBRANCH  13  15
ENDBRANCH  11  13
BRANCH  12  17
HETATM   17  C   UNL     1      -9.630   8.001  69.546  1.00  0.00    -0.164 A  
HETATM   18  O   UNL     1     -11.368  10.364  68.879  1.00  0.00    -0.249 OA 
HETATM   19  O   UNL     1     -10.535   9.999  66.883  1.00  0.00    -0.236 OA 
HETATM   20  C   UNL     1      -9.210   6.661  69.699  1.00  0.00    -0.145 A  
HETATM   21  C   UNL     1      -9.620   5.662  68.811  1.00  0.00    -0.166 A  
HETATM   22  C   UNL     1     -10.473   5.963  67.755  1.00  0.00    -0.300 A  
HETATM   23  C   UNL     1     -10.884   7.278  67.553  1.00  0.00    -0.284 A  
HETATM   24  C   UNL     1     -10.444   8.289  68.426  1.00  0.00    -0.162 A  
HETATM   25  N   UNL     1     -10.797   9.649  68.043  1.00  0.00    -0.228 N  
ENDBRANCH  12  17
ENDBRANCH   3   5
ENDBRANCH   2   3
TORSDOF 5
ENDMDL
MODEL       79
REMARK 921   NORMALIZED FREE ENERGY PREDICTED BY IDOCK:   -3.72 KCAL/MOL
REMARK 922        TOTAL FREE ENERGY PREDICTED BY IDOCK:   -6.03 KCAL/MOL
REMARK 923 INTER-LIGAND FREE ENERGY PREDICTED BY IDOCK:   -4.89 KCAL/MOL
REMARK 924 INTRA-LIGAND FREE ENERGY PREDICTED BY IDOCK:   -1.14 KCAL/MOL
REMARK 927      BINDING AFFINITY PREDICTED BY RF-SCORE:    0.00 PKD
ROOT
HETATM    1  C   UNL     1      -7.857   4.016  68.106  1.00  0.00    -0.073 C  
HETATM    2  O   UNL     1      -8.305   5.340  68.410  1.00  0.00    -0.093 OA 
ENDROOT
BRANCH   2   3
HETATM    3  C   UNL     1      -9.544   5.641  67.962  1.00  0.00    -0.120 C  
HETATM    4  O   UNL     1     -10.483   4.860  67.923  1.00  0.00    -0.044 OA 
BRANCH   3   5
HETATM    5  C   UNL     1      -9.608   7.055  67.500  1.00  0.00    -0.155 C  
HETATM    6  C   UNL     1      -9.154   7.355  66.258  1.00  0.00    -0.156 C  
HETATM    7  N   UNL     1      -9.389   8.604  65.721  1.00  0.00    -0.195 NA 
HETATM    8  C   UNL     1      -8.351   6.444  65.358  1.00  0.00    -0.141 C  
HETATM    9  C   UNL     1     -10.030   9.642  66.365  1.00  0.00    -0.255 C  
HETATM   10  C   UNL     1     -10.185  10.902  65.543  1.00  0.00    -0.332 C  
HETATM   11  C   UNL     1     -10.456   9.487  67.642  1.00  0.00    -0.321 C  
HETATM   12  C   UNL     1     -10.292   8.131  68.380  1.00  0.00    -0.236 C  
BRANCH  11  13
HETATM   13  C   UNL     1     -10.956  10.690  68.365  1.00  0.00    -0.251 C  
HETATM   14  O   UNL     1     -12.133  10.876  68.641  1.00  0.00    -0.527 OA 
BRANCH  13  15
HETATM   15  O   UNL     1      -9.962  11.566  68.637  1.00  0.00    -0.210 OA 
HETATM   16  C   UNL     1     -10.313  12.951  68.488  1.00  0.00    -0.229 C  
ENDBRANCH  13  15
ENDBRANCH  11  13
BRANCH  12  17
HETATM   17  C   UNL     1      -9.544   8.337  69.708  1.00  0.00    -0.171 A  
HETATM   18  O   UNL     1     -12.400   8.166  70.640  1.00  0.00    -0.032 OA 
HETATM   19  O   UNL     1     -11.538   6.627  71.946  1.00  0.00    -0.272 OA 
HETATM   20  C   UNL     1      -8.183   8.710  69.659  1.00  0.00    -0.114 A  
HETATM   21  C   UNL     1      -7.447   8.943  70.824  1.00  0.00    -0.101 A  
HETATM   22  C   UNL     1      -8.048   8.830  72.073  1.00  0.00    -0.060 A  
HETATM   23  C   UNL     1      -9.379   8.435  72.164  1.00  0.00    -0.339 A  
HETATM   24  C   UNL     1     -10.111   8.166  70.994  1.00  0.00    -0.187 A  
HETATM   25  N   UNL     1     -11.441   7.610  71.195  1.00  0.00    -0.270 N  
ENDBRANCH  12  17
ENDBRANCH   3   5
ENDBRANCH   2   3
TORSDOF 5
ENDMDL
MODEL       80
REMARK 921   NORMALIZED FREE ENERGY PREDICTED BY IDOCK:   -3.66 KCAL/MOL
REMARK 922        TOTAL FREE ENERGY PREDICTED BY IDOCK:   -5.95 KCAL/MOL
REMARK 923 INTER-LIGAND FREE ENERGY PREDICTED BY IDOCK:   -7.47 KCAL/MOL
REMARK 924 INTRA-LIGAND FREE ENERGY PREDICTED BY IDOCK:    1.52 KCAL/MOL
REMARK 927      BINDING AFFINITY PREDICTED BY RF-SCORE:    0.00 PKD
ROOT
HETATM    1  C   UNL     1     -11.823   9.856  70.962  1.00  0.00    -0.376 C  
HETATM    2  O   UNL     1     -11.797  10.316  69.608  1.00  0.00    -0.202 OA 
ENDROOT
BRANCH   2   3
HETATM    3  C   UNL     1     -10.572  10.339  69.035  1.00  0.00    -0.224 C  
HETATM    4  O   UNL     1      -9.554   9.894  69.542  1.00  0.00    -0.199 OA 
BRANCH   3   5
HETATM    5  C   UNL     1     -10.626  11.004  67.704  1.00  0.00    -0.255 C  
HETATM    6  C   UNL     1      -9.945  10.448  66.671  1.00  0.00    -0.210 C  
HETATM    7  N   UNL     1     -10.141  10.913  65.387  1.00  0.00    -0.262 NA 
HETATM    8  C   UNL     1      -8.921   9.341  66.771  1.00  0.00    -0.154 C  
HETATM    9  C   UNL     1     -10.962  11.963  65.035  1.00  0.00    -0.312 C  
HETATM   10  C   UNL     1     -11.022  12.257  63.552  1.00  0.00    -0.521 C  
HETATM   11  C   UNL     1     -11.632  12.651  65.992  1.00  0.00    -0.443 C  
HETATM   12  C   UNL     1     -11.540  12.235  67.485  1.00  0.00    -0.422 C  
BRANCH  11  13
HETATM   13  C   UNL     1     -12.341  13.899  65.592  1.00  0.00    -0.482 C  
HETATM   14  O   UNL     1     -13.548  13.961  65.398  1.00  0.00    -0.571 OA 
BRANCH  13  15
HETATM   15  O   UNL     1     -11.489  14.935  65.428  1.00  0.00    -0.346 OA 
HETATM   16  C   UNL     1     -11.821  15.833  64.357  1.00  0.00    -0.148 C  
ENDBRANCH  13  15
ENDBRANCH  11  13
BRANCH  12  17
HETATM   17  C   UNL     1     -11.095  13.433  68.343  1.00  0.00    -0.301 A  
HETATM   18  O   UNL     1      -8.533  12.703  66.946  1.00  0.00    -0.184 OA 
HETATM   19  O   UNL     1      -8.599  14.830  66.414  1.00  0.00    -0.144 OA 
HETATM   20  C   UNL     1     -11.977  13.905  69.339  1.00  0.00    -0.402 A  
HETATM   21  C   UNL     1     -11.630  14.969  70.176  1.00  0.00    -0.326 A  
HETATM   22  C   UNL     1     -10.388  15.584  70.059  1.00  0.00    -0.315 A  
HETATM   23  C   UNL     1      -9.503  15.166  69.068  1.00  0.00    -0.221 A  
HETATM   24  C   UNL     1      -9.866  14.119  68.203  1.00  0.00    -0.229 A  
HETATM   25  N   UNL     1      -8.945  13.861  67.105  1.00  0.00    -0.226 N  
ENDBRANCH  12  17
ENDBRANCH   3   5
ENDBRANCH   2   3
TORSDOF 5
ENDMDL
MODEL       81
REMARK 921   NORMALIZED FREE ENERGY PREDICTED BY IDOCK:   -3.66 KCAL/MOL
REMARK 922        TOTAL FREE ENERGY PREDICTED BY IDOCK:   -5.94 KCAL/MOL
REMARK 923 INTER-LIGAND FREE ENERGY PREDICTED BY IDOCK:   -5.39 KCAL/MOL
REMARK 924 INTRA-LIGAND FREE ENERGY PREDICTED BY IDOCK:   -0.55 KCAL/MOL
REMARK 927      BINDING AFFINITY PREDICTED BY RF-SCORE:    0.00 PKD
ROOT
HETATM    1  C   UNL     1      -9.311   7.472  66.164  1.00  0.00    -0.069 C  
HETATM    2  O   UNL     1      -9.927   8.762  66.131  1.00  0.00    -0.275 OA 
ENDROOT
BRANCH   2   3
HETATM    3  C   UNL     1      -9.107   9.778  65.776  1.00  0.00    -0.177 C  
HETATM    4  O   UNL     1      -7.904   9.674  65.592  1.00  0.00    -0.102 OA 
BRANCH   3   5
HETATM    5  C   UNL     1      -9.869  11.052  65.658  1.00  0.00    -0.287 C  
HETATM    6  C   UNL     1     -10.355  11.409  64.443  1.00  0.00    -0.320 C  
HETATM    7  N   UNL     1     -11.236  12.465  64.338  1.00  0.00    -0.313 NA 
HETATM    8  C   UNL     1     -10.003  10.772  63.119  1.00  0.00    -0.341 C  
HETATM    9  C   UNL     1     -11.658  13.260  65.382  1.00  0.00    -0.321 C  
HETATM   10  C   UNL     1     -12.651  14.337  65.003  1.00  0.00    -0.360 C  
HETATM   11  C   UNL     1     -11.175  13.052  66.632  1.00  0.00    -0.341 C  
HETATM   12  C   UNL     1     -10.195  11.884  66.923  1.00  0.00    -0.233 C  
BRANCH  11  13
HETATM   13  C   UNL     1     -11.497  14.055  67.684  1.00  0.00    -0.334 C  
HETATM   14  O   UNL     1     -11.595  15.256  67.470  1.00  0.00    -0.316 OA 
BRANCH  13  15
HETATM   15  O   UNL     1     -11.622  13.487  68.904  1.00  0.00    -0.276 OA 
HETATM   16  C   UNL     1     -12.469  14.195  69.822  1.00  0.00    -0.216 C  
ENDBRANCH  13  15
ENDBRANCH  11  13
BRANCH  12  17
HETATM   17  C   UNL     1      -8.919  12.418  67.597  1.00  0.00    -0.183 A  
HETATM   18  O   UNL     1      -9.805  10.316  69.558  1.00  0.00    -0.224 OA 
HETATM   19  O   UNL     1      -7.743   9.630  69.256  1.00  0.00    -0.083 OA 
HETATM   20  C   UNL     1      -8.341  13.602  67.089  1.00  0.00    -0.151 A  
HETATM   21  C   UNL     1      -7.199  14.163  67.668  1.00  0.00    -0.195 A  
HETATM   22  C   UNL     1      -6.608  13.572  68.780  1.00  0.00    -0.102 A  
HETATM   23  C   UNL     1      -7.131  12.387  69.290  1.00  0.00     0.075 A  
HETATM   24  C   UNL     1      -8.259  11.804  68.687  1.00  0.00    -0.091 A  
HETATM   25  N   UNL     1      -8.634  10.490  69.191  1.00  0.00    -0.160 N  
ENDBRANCH  12  17
ENDBRANCH   3   5
ENDBRANCH   2   3
TORSDOF 5
ENDMDL
MODEL       82
REMARK 921   NORMALIZED FREE ENERGY PREDICTED BY IDOCK:   -3.60 KCAL/MOL
REMARK 922        TOTAL FREE ENERGY PREDICTED BY IDOCK:   -5.88 KCAL/MOL
REMARK 923 INTER-LIGAND FREE ENERGY PREDICTED BY IDOCK:   -5.03 KCAL/MOL
REMARK 924 INTRA-LIGAND FREE ENERGY PREDICTED BY IDOCK:   -0.85 KCAL/MOL
REMARK 927      BINDING AFFINITY PREDICTED BY RF-SCORE:    0.00 PKD
ROOT
HETATM    1  C   UNL     1     -11.330   5.512  71.634  1.00  0.00     0.008 C  
HETATM    2  O   UNL     1     -11.582   6.102  70.355  1.00  0.00    -0.343 OA 
ENDROOT
BRANCH   2   3
HETATM    3  C   UNL     1     -10.730   5.727  69.375  1.00  0.00    -0.326 C  
HETATM    4  O   UNL     1     -10.301   4.594  69.217  1.00  0.00    -0.102 OA 
BRANCH   3   5
HETATM    5  C   UNL     1     -10.365   6.890  68.520  1.00  0.00    -0.204 C  
HETATM    6  C   UNL     1     -10.317   6.720  67.176  1.00  0.00    -0.258 C  
HETATM    7  N   UNL     1     -10.191   7.816  66.347  1.00  0.00    -0.105 NA 
HETATM    8  C   UNL     1     -10.356   5.400  66.442  1.00  0.00    -0.298 C  
HETATM    9  C   UNL     1     -10.058   9.123  66.766  1.00  0.00    -0.271 C  
HETATM   10  C   UNL     1      -9.964  10.143  65.653  1.00  0.00    -0.348 C  
HETATM   11  C   UNL     1     -10.009   9.409  68.090  1.00  0.00    -0.202 C  
HETATM   12  C   UNL     1     -10.165   8.290  69.154  1.00  0.00    -0.223 C  
BRANCH  11  13
HETATM   13  C   UNL     1      -9.661  10.799  68.495  1.00  0.00    -0.183 C  
HETATM   14  O   UNL     1      -8.529  11.261  68.434  1.00  0.00    -0.141 OA 
BRANCH  13  15
HETATM   15  O   UNL     1     -10.731  11.470  68.976  1.00  0.00    -0.208 OA 
HETATM   16  C   UNL     1     -10.880  12.812  68.486  1.00  0.00    -0.253 C  
ENDBRANCH  13  15
ENDBRANCH  11  13
BRANCH  12  17
HETATM   17  C   UNL     1      -8.971   8.309  70.124  1.00  0.00    -0.142 A  
HETATM   18  O   UNL     1     -11.100   9.664  71.760  1.00  0.00    -0.298 OA 
HETATM   19  O   UNL     1     -10.519   8.115  73.201  1.00  0.00    -0.285 OA 
HETATM   20  C   UNL     1      -7.695   7.973  69.619  1.00  0.00    -0.102 A  
HETATM   21  C   UNL     1      -6.559   7.997  70.432  1.00  0.00    -0.037 A  
HETATM   22  C   UNL     1      -6.655   8.372  71.768  1.00  0.00    -0.070 A  
HETATM   23  C   UNL     1      -7.899   8.680  72.310  1.00  0.00    -0.062 A  
HETATM   24  C   UNL     1      -9.048   8.623  71.501  1.00  0.00    -0.239 A  
HETATM   25  N   UNL     1     -10.316   8.807  72.193  1.00  0.00    -0.332 N  
ENDBRANCH  12  17
ENDBRANCH   3   5
ENDBRANCH   2   3
TORSDOF 5
ENDMDL
MODEL       83
REMARK 921   NORMALIZED FREE ENERGY PREDICTED BY IDOCK:   -3.56 KCAL/MOL
REMARK 922        TOTAL FREE ENERGY PREDICTED BY IDOCK:   -5.82 KCAL/MOL
REMARK 923 INTER-LIGAND FREE ENERGY PREDICTED BY IDOCK:   -6.74 KCAL/MOL
REMARK 924 INTRA-LIGAND FREE ENERGY PREDICTED BY IDOCK:    0.92 KCAL/MOL
REMARK 927      BINDING AFFINITY PREDICTED BY RF-SCORE:    0.00 PKD
ROOT
HETATM    1  C   UNL     1     -10.366  17.296  67.441  1.00  0.00    -0.338 C  
HETATM    2  O   UNL     1      -9.772  16.057  67.839  1.00  0.00    -0.219 OA 
ENDROOT
BRANCH   2   3
HETATM    3  C   UNL     1      -9.450  15.225  66.823  1.00  0.00    -0.245 C  
HETATM    4  O   UNL     1      -9.324  15.562  65.655  1.00  0.00    -0.302 OA 
BRANCH   3   5
HETATM    5  C   UNL     1      -9.287  13.829  67.316  1.00  0.00    -0.239 C  
HETATM    6  C   UNL     1      -8.069  13.436  67.764  1.00  0.00    -0.173 C  
HETATM    7  N   UNL     1      -7.934  12.228  68.418  1.00  0.00    -0.156 NA 
HETATM    8  C   UNL     1      -6.770  14.188  67.594  1.00  0.00    -0.188 C  
HETATM    9  C   UNL     1      -8.947  11.319  68.635  1.00  0.00    -0.147 C  
HETATM   10  C   UNL     1      -8.540  10.082  69.404  1.00  0.00    -0.182 C  
HETATM   11  C   UNL     1     -10.193  11.566  68.160  1.00  0.00    -0.205 C  
HETATM   12  C   UNL     1     -10.517  12.894  67.424  1.00  0.00    -0.235 C  
BRANCH  11  13
HETATM   13  C   UNL     1     -11.201  10.473  68.236  1.00  0.00    -0.291 C  
HETATM   14  O   UNL     1     -11.025   9.353  67.774  1.00  0.00    -0.219 OA 
BRANCH  13  15
HETATM   15  O   UNL     1     -12.344  10.879  68.832  1.00  0.00    -0.486 OA 
HETATM   16  C   UNL     1     -12.282  10.982  70.264  1.00  0.00    -0.363 C  
ENDBRANCH  13  15
ENDBRANCH  11  13
BRANCH  12  17
HETATM   17  C   UNL     1     -11.130  12.600  66.044  1.00  0.00    -0.321 A  
HETATM   18  O   UNL     1      -8.302  11.647  65.666  1.00  0.00     0.142 OA 
HETATM   19  O   UNL     1      -9.348   9.828  65.024  1.00  0.00    -0.232 OA 
HETATM   20  C   UNL     1     -12.401  13.141  65.749  1.00  0.00    -0.496 A  
HETATM   21  C   UNL     1     -13.008  12.941  64.505  1.00  0.00    -0.168 A  
HETATM   22  C   UNL     1     -12.361  12.212  63.513  1.00  0.00    -0.682 A  
HETATM   23  C   UNL     1     -11.122  11.637  63.777  1.00  0.00    -0.499 A  
HETATM   24  C   UNL     1     -10.526  11.808  65.039  1.00  0.00    -0.285 A  
HETATM   25  N   UNL     1      -9.310  11.042  65.272  1.00  0.00    -0.211 N  
ENDBRANCH  12  17
ENDBRANCH   3   5
ENDBRANCH   2   3
TORSDOF 5
ENDMDL
MODEL       84
REMARK 921   NORMALIZED FREE ENERGY PREDICTED BY IDOCK:   -3.55 KCAL/MOL
REMARK 922        TOTAL FREE ENERGY PREDICTED BY IDOCK:   -5.81 KCAL/MOL
REMARK 923 INTER-LIGAND FREE ENERGY PREDICTED BY IDOCK:   -6.48 KCAL/MOL
REMARK 924 INTRA-LIGAND FREE ENERGY PREDICTED BY IDOCK:    0.67 KCAL/MOL
REMARK 927      BINDING AFFINITY PREDICTED BY RF-SCORE:    0.00 PKD
ROOT
HETATM    1  C   UNL     1      -7.220  10.888  68.963  1.00  0.00    -0.101 C  
HETATM    2  O   UNL     1      -7.317  12.300  68.750  1.00  0.00    -0.109 OA 
ENDROOT
BRANCH   2   3
HETATM    3  C   UNL     1      -7.097  12.702  67.478  1.00  0.00    -0.152 C  
HETATM    4  O   UNL     1      -6.131  12.384  66.801  1.00  0.00    -0.210 OA 
BRANCH   3   5
HETATM    5  C   UNL     1      -8.186  13.606  67.016  1.00  0.00    -0.056 C  
HETATM    6  C   UNL     1      -7.996  14.946  67.097  1.00  0.00    -0.195 C  
HETATM    7  N   UNL     1      -8.888  15.806  66.489  1.00  0.00    -0.282 NA 
HETATM    8  C   UNL     1      -6.882  15.646  67.840  1.00  0.00    -0.159 C  
HETATM    9  C   UNL     1     -10.029  15.427  65.814  1.00  0.00    -0.362 C  
HETATM   10  C   UNL     1     -10.823  16.566  65.214  1.00  0.00    -0.233 C  
HETATM   11  C   UNL     1     -10.368  14.117  65.738  1.00  0.00    -0.338 C  
HETATM   12  C   UNL     1      -9.454  13.020  66.347  1.00  0.00    -0.228 C  
BRANCH  11  13
HETATM   13  C   UNL     1     -11.705  13.770  65.182  1.00  0.00    -0.343 C  
HETATM   14  O   UNL     1     -12.754  13.916  65.795  1.00  0.00    -0.504 OA 
BRANCH  13  15
HETATM   15  O   UNL     1     -11.615  13.236  63.943  1.00  0.00    -0.405 OA 
HETATM   16  C   UNL     1     -12.242  11.953  63.785  1.00  0.00    -0.444 C  
ENDBRANCH  13  15
ENDBRANCH  11  13
BRANCH  12  17
HETATM   17  C   UNL     1     -10.257  12.143  67.323  1.00  0.00    -0.216 A  
HETATM   18  O   UNL     1      -9.950  14.684  68.904  1.00  0.00    -0.232 OA 
HETATM   19  O   UNL     1     -12.130  14.478  69.038  1.00  0.00    -0.306 OA 
HETATM   20  C   UNL     1     -10.390  10.767  67.032  1.00  0.00    -0.275 A  
HETATM   21  C   UNL     1     -11.079   9.903  67.887  1.00  0.00    -0.216 A  
HETATM   22  C   UNL     1     -11.642  10.378  69.067  1.00  0.00    -0.220 A  
HETATM   23  C   UNL     1     -11.559  11.733  69.374  1.00  0.00    -0.386 A  
HETATM   24  C   UNL     1     -10.895  12.609  68.497  1.00  0.00    -0.252 A  
HETATM   25  N   UNL     1     -10.997  14.024  68.823  1.00  0.00    -0.255 N  
ENDBRANCH  12  17
ENDBRANCH   3   5
ENDBRANCH   2   3
TORSDOF 5
ENDMDL
MODEL       85
REMARK 921   NORMALIZED FREE ENERGY PREDICTED BY IDOCK:   -3.55 KCAL/MOL
REMARK 922        TOTAL FREE ENERGY PREDICTED BY IDOCK:   -5.81 KCAL/MOL
REMARK 923 INTER-LIGAND FREE ENERGY PREDICTED BY IDOCK:   -4.54 KCAL/MOL
REMARK 924 INTRA-LIGAND FREE ENERGY PREDICTED BY IDOCK:   -1.26 KCAL/MOL
REMARK 927      BINDING AFFINITY PREDICTED BY RF-SCORE:    0.00 PKD
ROOT
HETATM    1  C   UNL     1      -6.894   4.443  70.972  1.00  0.00    -0.036 C  
HETATM    2  O   UNL     1      -6.435   5.793  71.084  1.00  0.00    -0.038 OA 
ENDROOT
BRANCH   2   3
HETATM    3  C   UNL     1      -7.191   6.590  71.873  1.00  0.00    -0.086 C  
HETATM    4  O   UNL     1      -7.679   6.256  72.942  1.00  0.00    -0.102 OA 
BRANCH   3   5
HETATM    5  C   UNL     1      -7.367   7.931  71.251  1.00  0.00    -0.068 C  
HETATM    6  C   UNL     1      -6.514   8.926  71.598  1.00  0.00    -0.076 C  
HETATM    7  N   UNL     1      -6.515  10.112  70.892  1.00  0.00    -0.320 NA 
HETATM    8  C   UNL     1      -5.533   8.899  72.747  1.00  0.00    -0.075 C  
HETATM    9  C   UNL     1      -7.364  10.420  69.851  1.00  0.00    -0.142 C  
HETATM   10  C   UNL     1      -7.140  11.780  69.226  1.00  0.00    -0.032 C  
HETATM   11  C   UNL     1      -8.316   9.535  69.467  1.00  0.00    -0.145 C  
HETATM   12  C   UNL     1      -8.429   8.142  70.143  1.00  0.00    -0.127 C  
BRANCH  11  13
HETATM   13  C   UNL     1      -9.338   9.987  68.481  1.00  0.00    -0.145 C  
HETATM   14  O   UNL     1     -10.355  10.595  68.788  1.00  0.00    -0.174 OA 
BRANCH  13  15
HETATM   15  O   UNL     1      -9.028   9.608  67.222  1.00  0.00    -0.134 OA 
HETATM   16  C   UNL     1     -10.096   8.981  66.494  1.00  0.00    -0.283 C  
ENDBRANCH  13  15
ENDBRANCH  11  13
BRANCH  12  17
HETATM   17  C   UNL     1      -9.856   7.925  70.675  1.00  0.00    -0.187 A  
HETATM   18  O   UNL     1      -9.745   5.943  68.415  1.00  0.00    -0.121 OA 
HETATM   19  O   UNL     1     -10.387   4.581  70.012  1.00  0.00    -0.144 OA 
HETATM   20  C   UNL     1     -10.375   8.860  71.598  1.00  0.00    -0.416 A  
HETATM   21  C   UNL     1     -11.673   8.745  72.103  1.00  0.00    -0.433 A  
HETATM   22  C   UNL     1     -12.501   7.706  71.690  1.00  0.00    -0.362 A  
HETATM   23  C   UNL     1     -12.016   6.747  70.805  1.00  0.00    -0.433 A  
HETATM   24  C   UNL     1     -10.698   6.843  70.324  1.00  0.00    -0.242 A  
HETATM   25  N   UNL     1     -10.232   5.714  69.532  1.00  0.00    -0.225 N  
ENDBRANCH  12  17
ENDBRANCH   3   5
ENDBRANCH   2   3
TORSDOF 5
ENDMDL
MODEL       86
REMARK 921   NORMALIZED FREE ENERGY PREDICTED BY IDOCK:   -3.53 KCAL/MOL
REMARK 922        TOTAL FREE ENERGY PREDICTED BY IDOCK:   -5.79 KCAL/MOL
REMARK 923 INTER-LIGAND FREE ENERGY PREDICTED BY IDOCK:   -4.56 KCAL/MOL
REMARK 924 INTRA-LIGAND FREE ENERGY PREDICTED BY IDOCK:   -1.22 KCAL/MOL
REMARK 927      BINDING AFFINITY PREDICTED BY RF-SCORE:    0.00 PKD
ROOT
HETATM    1  C   UNL     1     -10.808   3.233  73.993  1.00  0.00    -0.189 C  
HETATM    2  O   UNL     1     -10.706   3.631  72.623  1.00  0.00    -0.112 OA 
ENDROOT
BRANCH   2   3
HETATM    3  C   UNL     1      -9.518   4.174  72.273  1.00  0.00    -0.133 C  
HETATM    4  O   UNL     1      -8.674   4.578  73.059  1.00  0.00    -0.111 OA 
BRANCH   3   5
HETATM    5  C   UNL     1      -9.382   4.233  70.791  1.00  0.00    -0.222 C  
HETATM    6  C   UNL     1      -8.820   3.181  70.147  1.00  0.00    -0.084 C  
HETATM    7  N   UNL     1      -8.869   3.110  68.770  1.00  0.00    -0.103 NA 
HETATM    8  C   UNL     1      -8.079   2.032  70.792  1.00  0.00    -0.059 C  
HETATM    9  C   UNL     1      -9.418   4.065  67.940  1.00  0.00    -0.173 C  
HETATM   10  C   UNL     1      -9.369   3.733  66.465  1.00  0.00    -0.204 C  
HETATM   11  C   UNL     1      -9.937   5.202  68.465  1.00  0.00    -0.221 C  
HETATM   12  C   UNL     1      -9.983   5.423  70.001  1.00  0.00    -0.303 C  
BRANCH  11  13
HETATM   13  C   UNL     1     -10.331   6.291  67.529  1.00  0.00    -0.200 C  
HETATM   14  O   UNL     1     -11.488   6.522  67.204  1.00  0.00    -0.221 OA 
BRANCH  13  15
HETATM   15  O   UNL     1      -9.258   6.958  67.049  1.00  0.00    -0.133 OA 
HETATM   16  C   UNL     1      -9.417   8.383  66.955  1.00  0.00    -0.174 C  
ENDBRANCH  13  15
ENDBRANCH  11  13
BRANCH  12  17
HETATM   17  C   UNL     1      -9.299   6.751  70.367  1.00  0.00    -0.163 A  
HETATM   18  O   UNL     1     -12.198   7.424  70.802  1.00  0.00    -0.266 OA 
HETATM   19  O   UNL     1     -11.424   8.038  72.761  1.00  0.00    -0.402 OA 
HETATM   20  C   UNL     1      -7.932   6.908  70.050  1.00  0.00    -0.116 A  
HETATM   21  C   UNL     1      -7.250   8.097  70.325  1.00  0.00    -0.052 A  
HETATM   22  C   UNL     1      -7.913   9.172  70.908  1.00  0.00    -0.192 A  
HETATM   23  C   UNL     1      -9.253   9.045  71.263  1.00  0.00    -0.314 A  
HETATM   24  C   UNL     1      -9.930   7.837  71.018  1.00  0.00    -0.177 A  
HETATM   25  N   UNL     1     -11.276   7.747  71.565  1.00  0.00    -0.240 N  
ENDBRANCH  12  17
ENDBRANCH   3   5
ENDBRANCH   2   3
TORSDOF 5
ENDMDL
MODEL       87
REMARK 921   NORMALIZED FREE ENERGY PREDICTED BY IDOCK:   -3.52 KCAL/MOL
REMARK 922        TOTAL FREE ENERGY PREDICTED BY IDOCK:   -5.77 KCAL/MOL
REMARK 923 INTER-LIGAND FREE ENERGY PREDICTED BY IDOCK:   -6.63 KCAL/MOL
REMARK 924 INTRA-LIGAND FREE ENERGY PREDICTED BY IDOCK:    0.86 KCAL/MOL
REMARK 927      BINDING AFFINITY PREDICTED BY RF-SCORE:    0.00 PKD
ROOT
HETATM    1  C   UNL     1      -7.872  10.821  68.399  1.00  0.00    -0.120 C  
HETATM    2  O   UNL     1      -9.093  10.815  69.144  1.00  0.00    -0.167 OA 
ENDROOT
BRANCH   2   3
HETATM    3  C   UNL     1     -10.213  10.984  68.406  1.00  0.00    -0.185 C  
HETATM    4  O   UNL     1     -10.905  10.079  67.965  1.00  0.00    -0.244 OA 
BRANCH   3   5
HETATM    5  C   UNL     1     -10.483  12.432  68.183  1.00  0.00    -0.228 C  
HETATM    6  C   UNL     1     -11.232  13.102  69.094  1.00  0.00    -0.247 C  
HETATM    7  N   UNL     1     -11.325  14.477  69.031  1.00  0.00    -0.257 NA 
HETATM    8  C   UNL     1     -12.043  12.484  70.209  1.00  0.00    -0.373 C  
HETATM    9  C   UNL     1     -10.744  15.273  68.067  1.00  0.00    -0.268 C  
HETATM   10  C   UNL     1     -10.976  16.758  68.242  1.00  0.00    -0.327 C  
HETATM   11  C   UNL     1     -10.039  14.709  67.056  1.00  0.00    -0.249 C  
HETATM   12  C   UNL     1      -9.818  13.174  66.997  1.00  0.00    -0.244 C  
BRANCH  11  13
HETATM   13  C   UNL     1      -9.606  15.584  65.930  1.00  0.00    -0.348 C  
HETATM   14  O   UNL     1     -10.351  15.954  65.033  1.00  0.00    -0.508 OA 
BRANCH  13  15
HETATM   15  O   UNL     1      -8.288  15.879  65.997  1.00  0.00    -0.202 OA 
HETATM   16  C   UNL     1      -7.982  17.276  66.126  1.00  0.00    -0.257 C  
ENDBRANCH  13  15
ENDBRANCH  11  13
BRANCH  12  17
HETATM   17  C   UNL     1     -10.293  12.621  65.642  1.00  0.00    -0.293 A  
HETATM   18  O   UNL     1     -12.907  13.275  66.980  1.00  0.00     0.194 OA 
HETATM   19  O   UNL     1     -13.211  14.385  65.111  1.00  0.00    -0.602 OA 
HETATM   20  C   UNL     1      -9.349  11.971  64.818  1.00  0.00     0.205 A  
HETATM   21  C   UNL     1      -9.713  11.417  63.587  1.00  0.00    -0.337 A  
HETATM   22  C   UNL     1     -11.032  11.479  63.148  1.00  0.00    -0.195 A  
HETATM   23  C   UNL     1     -11.985  12.138  63.919  1.00  0.00    -0.581 A  
HETATM   24  C   UNL     1     -11.612  12.725  65.140  1.00  0.00    -0.338 A  
HETATM   25  N   UNL     1     -12.638  13.524  65.796  1.00  0.00    -0.458 N  
ENDBRANCH  12  17
ENDBRANCH   3   5
ENDBRANCH   2   3
TORSDOF 5
ENDMDL
MODEL       88
REMARK 921   NORMALIZED FREE ENERGY PREDICTED BY IDOCK:   -3.51 KCAL/MOL
REMARK 922        TOTAL FREE ENERGY PREDICTED BY IDOCK:   -5.75 KCAL/MOL
REMARK 923 INTER-LIGAND FREE ENERGY PREDICTED BY IDOCK:   -4.40 KCAL/MOL
REMARK 924 INTRA-LIGAND FREE ENERGY PREDICTED BY IDOCK:   -1.35 KCAL/MOL
REMARK 927      BINDING AFFINITY PREDICTED BY RF-SCORE:    0.00 PKD
ROOT
HETATM    1  C   UNL     1      -5.146  10.546  65.277  1.00  0.00    -0.115 C  
HETATM    2  O   UNL     1      -6.373  10.964  65.883  1.00  0.00    -0.126 OA 
ENDROOT
BRANCH   2   3
HETATM    3  C   UNL     1      -6.467  10.720  67.209  1.00  0.00    -0.070 C  
HETATM    4  O   UNL     1      -5.778   9.920  67.824  1.00  0.00    -0.040 OA 
BRANCH   3   5
HETATM    5  C   UNL     1      -7.543  11.547  67.822  1.00  0.00    -0.111 C  
HETATM    6  C   UNL     1      -7.261  12.826  68.171  1.00  0.00    -0.115 C  
HETATM    7  N   UNL     1      -8.281  13.679  68.542  1.00  0.00    -0.140 NA 
HETATM    8  C   UNL     1      -5.887  13.451  68.235  1.00  0.00    -0.097 C  
HETATM    9  C   UNL     1      -9.612  13.337  68.642  1.00  0.00    -0.048 C  
HETATM   10  C   UNL     1     -10.533  14.468  69.043  1.00  0.00    -0.241 C  
HETATM   11  C   UNL     1     -10.005  12.062  68.397  1.00  0.00    -0.209 C  
HETATM   12  C   UNL     1      -8.983  10.987  67.941  1.00  0.00    -0.144 C  
BRANCH  11  13
HETATM   13  C   UNL     1     -11.412  11.689  68.714  1.00  0.00    -0.285 C  
HETATM   14  O   UNL     1     -12.273  11.508  67.864  1.00  0.00    -0.586 OA 
BRANCH  13  15
HETATM   15  O   UNL     1     -11.629  11.619  70.046  1.00  0.00    -0.295 OA 
HETATM   16  C   UNL     1     -12.353  10.459  70.485  1.00  0.00    -0.322 C  
ENDBRANCH  13  15
ENDBRANCH  11  13
BRANCH  12  17
HETATM   17  C   UNL     1      -9.042   9.768  68.878  1.00  0.00    -0.148 A  
HETATM   18  O   UNL     1     -10.600   8.781  66.502  1.00  0.00    -0.196 OA 
HETATM   19  O   UNL     1      -9.158   7.135  66.652  1.00  0.00    -0.138 OA 
HETATM   20  C   UNL     1      -8.623   9.933  70.216  1.00  0.00    -0.066 A  
HETATM   21  C   UNL     1      -8.676   8.879  71.133  1.00  0.00    -0.280 A  
HETATM   22  C   UNL     1      -9.164   7.634  70.750  1.00  0.00    -0.157 A  
HETATM   23  C   UNL     1      -9.558   7.424  69.432  1.00  0.00    -0.155 A  
HETATM   24  C   UNL     1      -9.472   8.474  68.501  1.00  0.00    -0.142 A  
HETATM   25  N   UNL     1      -9.756   8.115  67.118  1.00  0.00    -0.181 N  
ENDBRANCH  12  17
ENDBRANCH   3   5
ENDBRANCH   2   3
TORSDOF 5
ENDMDL
MODEL       89
REMARK 921   NORMALIZED FREE ENERGY PREDICTED BY IDOCK:   -3.50 KCAL/MOL
REMARK 922        TOTAL FREE ENERGY PREDICTED BY IDOCK:   -5.75 KCAL/MOL
REMARK 923 INTER-LIGAND FREE ENERGY PREDICTED BY IDOCK:   -4.68 KCAL/MOL
REMARK 924 INTRA-LIGAND FREE ENERGY PREDICTED BY IDOCK:   -1.07 KCAL/MOL
REMARK 927      BINDING AFFINITY PREDICTED BY RF-SCORE:    0.00 PKD
ROOT
HETATM    1  C   UNL     1      -9.602  10.773  62.735  1.00  0.00    -0.305 C  
HETATM    2  O   UNL     1      -8.972  11.089  63.980  1.00  0.00    -0.146 OA 
ENDROOT
BRANCH   2   3
HETATM    3  C   UNL     1      -9.628  10.652  65.079  1.00  0.00    -0.265 C  
HETATM    4  O   UNL     1     -10.841  10.653  65.216  1.00  0.00    -0.104 OA 
BRANCH   3   5
HETATM    5  C   UNL     1      -8.665  10.187  66.116  1.00  0.00    -0.154 C  
HETATM    6  C   UNL     1      -7.987   9.032  65.901  1.00  0.00    -0.103 C  
HETATM    7  N   UNL     1      -6.943   8.683  66.733  1.00  0.00    -0.076 NA 
HETATM    8  C   UNL     1      -8.275   8.016  64.821  1.00  0.00    -0.124 C  
HETATM    9  C   UNL     1      -6.528   9.396  67.837  1.00  0.00    -0.062 C  
HETATM   10  C   UNL     1      -5.339   8.810  68.566  1.00  0.00    -0.037 C  
HETATM   11  C   UNL     1      -7.184  10.526  68.200  1.00  0.00    -0.087 C  
HETATM   12  C   UNL     1      -8.364  11.071  67.352  1.00  0.00    -0.126 C  
BRANCH  11  13
HETATM   13  C   UNL     1      -6.835  11.150  69.507  1.00  0.00    -0.127 C  
HETATM   14  O   UNL     1      -6.932  10.573  70.582  1.00  0.00    -0.300 OA 
BRANCH  13  15
HETATM   15  O   UNL     1      -6.444  12.436  69.366  1.00  0.00    -0.108 OA 
HETATM   16  C   UNL     1      -5.170  12.620  68.729  1.00  0.00    -0.055 C  
ENDBRANCH  13  15
ENDBRANCH  11  13
BRANCH  12  17
HETATM   17  C   UNL     1      -9.611  11.256  68.235  1.00  0.00    -0.193 A  
HETATM   18  O   UNL     1      -8.972  14.098  67.484  1.00  0.00    -0.180 OA 
HETATM   19  O   UNL     1     -11.075  14.061  66.859  1.00  0.00    -0.294 OA 
HETATM   20  C   UNL     1     -10.068  10.151  68.985  1.00  0.00    -0.216 A  
HETATM   21  C   UNL     1     -11.176  10.252  69.832  1.00  0.00    -0.360 A  
HETATM   22  C   UNL     1     -11.851  11.460  69.970  1.00  0.00    -0.440 A  
HETATM   23  C   UNL     1     -11.449  12.563  69.224  1.00  0.00    -0.353 A  
HETATM   24  C   UNL     1     -10.356  12.453  68.346  1.00  0.00    -0.229 A  
HETATM   25  N   UNL     1     -10.111  13.610  67.495  1.00  0.00    -0.235 N  
ENDBRANCH  12  17
ENDBRANCH   3   5
ENDBRANCH   2   3
TORSDOF 5
ENDMDL
MODEL       90
REMARK 921   NORMALIZED FREE ENERGY PREDICTED BY IDOCK:   -3.49 KCAL/MOL
REMARK 922        TOTAL FREE ENERGY PREDICTED BY IDOCK:   -5.72 KCAL/MOL
REMARK 923 INTER-LIGAND FREE ENERGY PREDICTED BY IDOCK:   -5.13 KCAL/MOL
REMARK 924 INTRA-LIGAND FREE ENERGY PREDICTED BY IDOCK:   -0.60 KCAL/MOL
REMARK 927      BINDING AFFINITY PREDICTED BY RF-SCORE:    0.00 PKD
ROOT
HETATM    1  C   UNL     1     -10.946  11.725  65.279  1.00  0.00    -0.295 C  
HETATM    2  O   UNL     1     -10.596  13.109  65.361  1.00  0.00    -0.286 OA 
ENDROOT
BRANCH   2   3
HETATM    3  C   UNL     1     -11.530  13.902  65.934  1.00  0.00    -0.325 C  
HETATM    4  O   UNL     1     -12.604  13.515  66.369  1.00  0.00    -0.333 OA 
BRANCH   3   5
HETATM    5  C   UNL     1     -11.080  15.321  65.947  1.00  0.00    -0.287 C  
HETATM    6  C   UNL     1     -11.305  16.085  64.849  1.00  0.00    -0.229 C  
HETATM    7  N   UNL     1     -11.094  17.447  64.903  1.00  0.00    -0.810 NA 
HETATM    8  C   UNL     1     -11.753  15.589  63.494  1.00  0.00     1.307 C  
HETATM    9  C   UNL     1     -10.614  18.138  65.995  1.00  0.00    -0.264 C  
HETATM   10  C   UNL     1     -10.501  19.635  65.804  1.00  0.00    -0.540 C  
HETATM   11  C   UNL     1     -10.275  17.470  67.125  1.00  0.00    -0.323 C  
HETATM   12  C   UNL     1     -10.478  15.935  67.236  1.00  0.00    -0.310 C  
BRANCH  11  13
HETATM   13  C   UNL     1      -9.572  18.223  68.201  1.00  0.00    -0.304 C  
HETATM   14  O   UNL     1     -10.102  18.559  69.252  1.00  0.00    -0.279 OA 
BRANCH  13  15
HETATM   15  O   UNL     1      -8.301  18.528  67.858  1.00  0.00    -0.255 OA 
HETATM   16  C   UNL     1      -7.765  19.704  68.485  1.00  0.00    -0.334 C  
ENDBRANCH  13  15
ENDBRANCH  11  13
BRANCH  12  17
HETATM   17  C   UNL     1      -9.157  15.252  67.627  1.00  0.00    -0.184 A  
HETATM   18  O   UNL     1     -11.047  14.137  69.685  1.00  0.00    -0.227 OA 
HETATM   19  O   UNL     1     -10.241  12.244  68.924  1.00  0.00    -0.148 OA 
HETATM   20  C   UNL     1      -7.963  15.717  67.033  1.00  0.00    -0.268 A  
HETATM   21  C   UNL     1      -6.721  15.165  67.361  1.00  0.00    -0.134 A  
HETATM   22  C   UNL     1      -6.628  14.145  68.303  1.00  0.00    -0.114 A  
HETATM   23  C   UNL     1      -7.786  13.640  68.887  1.00  0.00     0.035 A  
HETATM   24  C   UNL     1      -9.038  14.171  68.532  1.00  0.00    -0.176 A  
HETATM   25  N   UNL     1     -10.196  13.474  69.075  1.00  0.00    -0.043 N  
ENDBRANCH  12  17
ENDBRANCH   3   5
ENDBRANCH   2   3
TORSDOF 5
ENDMDL
MODEL       91
REMARK 921   NORMALIZED FREE ENERGY PREDICTED BY IDOCK:   -3.47 KCAL/MOL
REMARK 922        TOTAL FREE ENERGY PREDICTED BY IDOCK:   -5.71 KCAL/MOL
REMARK 923 INTER-LIGAND FREE ENERGY PREDICTED BY IDOCK:   -6.43 KCAL/MOL
REMARK 924 INTRA-LIGAND FREE ENERGY PREDICTED BY IDOCK:    0.72 KCAL/MOL
REMARK 927      BINDING AFFINITY PREDICTED BY RF-SCORE:    0.00 PKD
ROOT
HETATM    1  C   UNL     1     -10.121  12.925  64.355  1.00  0.00    -0.240 C  
HETATM    2  O   UNL     1     -10.657  13.253  65.640  1.00  0.00    -0.274 OA 
ENDROOT
BRANCH   2   3
HETATM    3  C   UNL     1     -11.706  12.496  66.032  1.00  0.00    -0.417 C  
HETATM    4  O   UNL     1     -12.781  12.438  65.454  1.00  0.00    -0.582 OA 
BRANCH   3   5
HETATM    5  C   UNL     1     -11.383  11.754  67.281  1.00  0.00    -0.379 C  
HETATM    6  C   UNL     1     -11.639  12.345  68.474  1.00  0.00    -0.313 C  
HETATM    7  N   UNL     1     -11.550  11.612  69.640  1.00  0.00    -0.313 NA 
HETATM    8  C   UNL     1     -11.998  13.797  68.691  1.00  0.00    -0.401 C  
HETATM    9  C   UNL     1     -11.166  10.290  69.724  1.00  0.00    -0.282 C  
HETATM   10  C   UNL     1     -11.178   9.711  71.122  1.00  0.00    -0.454 C  
HETATM   11  C   UNL     1     -10.806   9.616  68.605  1.00  0.00    -0.203 C  
HETATM   12  C   UNL     1     -10.878  10.291  67.209  1.00  0.00    -0.312 C  
BRANCH  11  13
HETATM   13  C   UNL     1     -10.206   8.262  68.765  1.00  0.00    -0.210 C  
HETATM   14  O   UNL     1      -9.029   8.068  69.035  1.00  0.00    -0.144 OA 
BRANCH  13  15
HETATM   15  O   UNL     1     -11.105   7.279  68.532  1.00  0.00    -0.039 OA 
HETATM   16  C   UNL     1     -10.919   6.561  67.302  1.00  0.00    -0.400 C  
ENDBRANCH  13  15
ENDBRANCH  11  13
BRANCH  12  17
HETATM   17  C   UNL     1      -9.515  10.195  66.502  1.00  0.00    -0.214 A  
HETATM   18  O   UNL     1      -9.015  12.401  68.485  1.00  0.00    -0.155 OA 
HETATM   19  O   UNL     1      -7.323  11.105  69.007  1.00  0.00    -0.105 OA 
HETATM   20  C   UNL     1      -9.426   9.423  65.323  1.00  0.00    -0.296 A  
HETATM   21  C   UNL     1      -8.229   9.313  64.610  1.00  0.00    -0.148 A  
HETATM   22  C   UNL     1      -7.088   9.982  65.041  1.00  0.00    -0.136 A  
HETATM   23  C   UNL     1      -7.127  10.728  66.216  1.00  0.00    -0.134 A  
HETATM   24  C   UNL     1      -8.322  10.810  66.951  1.00  0.00    -0.132 A  
HETATM   25  N   UNL     1      -8.224  11.479  68.241  1.00  0.00    -0.145 N  
ENDBRANCH  12  17
ENDBRANCH   3   5
ENDBRANCH   2   3
TORSDOF 5
ENDMDL
MODEL       92
REMARK 921   NORMALIZED FREE ENERGY PREDICTED BY IDOCK:   -3.46 KCAL/MOL
REMARK 922        TOTAL FREE ENERGY PREDICTED BY IDOCK:   -5.69 KCAL/MOL
REMARK 923 INTER-LIGAND FREE ENERGY PREDICTED BY IDOCK:   -4.39 KCAL/MOL
REMARK 924 INTRA-LIGAND FREE ENERGY PREDICTED BY IDOCK:   -1.30 KCAL/MOL
REMARK 927      BINDING AFFINITY PREDICTED BY RF-SCORE:    0.00 PKD
ROOT
HETATM    1  C   UNL     1     -10.123   4.457  65.859  1.00  0.00    -0.243 C  
HETATM    2  O   UNL     1     -10.077   5.837  66.235  1.00  0.00    -0.150 OA 
ENDROOT
BRANCH   2   3
HETATM    3  C   UNL     1      -8.839   6.378  66.273  1.00  0.00    -0.145 C  
HETATM    4  O   UNL     1      -7.895   5.923  66.902  1.00  0.00    -0.100 OA 
BRANCH   3   5
HETATM    5  C   UNL     1      -8.782   7.622  65.456  1.00  0.00    -0.079 C  
HETATM    6  C   UNL     1      -8.303   7.548  64.190  1.00  0.00     0.124 C  
HETATM    7  N   UNL     1      -8.431   8.628  63.341  1.00  0.00    -0.129 NA 
HETATM    8  C   UNL     1      -7.578   6.371  63.578  1.00  0.00    -0.088 C  
HETATM    9  C   UNL     1      -8.982   9.846  63.676  1.00  0.00    -0.251 C  
HETATM   10  C   UNL     1      -9.029  10.856  62.551  1.00  0.00    -0.360 C  
HETATM   11  C   UNL     1      -9.422  10.067  64.939  1.00  0.00    -0.355 C  
HETATM   12  C   UNL     1      -9.374   8.943  66.009  1.00  0.00    -0.306 C  
BRANCH  11  13
HETATM   13  C   UNL     1      -9.819  11.454  65.311  1.00  0.00    -0.248 C  
HETATM   14  O   UNL     1      -9.042  12.282  65.768  1.00  0.00    -0.057 OA 
BRANCH  13  15
HETATM   15  O   UNL     1     -11.140  11.669  65.126  1.00  0.00    -0.291 OA 
HETATM   16  C   UNL     1     -11.689  12.767  65.872  1.00  0.00    -0.414 C  
ENDBRANCH  13  15
ENDBRANCH  11  13
BRANCH  12  17
HETATM   17  C   UNL     1      -8.613   9.428  67.255  1.00  0.00    -0.129 A  
HETATM   18  O   UNL     1     -11.465   9.994  68.027  1.00  0.00    -0.178 OA 
HETATM   19  O   UNL     1     -10.880   8.817  69.783  1.00  0.00    -0.235 OA 
HETATM   20  C   UNL     1      -7.209   9.553  67.174  1.00  0.00    -0.087 A  
HETATM   21  C   UNL     1      -6.454  10.016  68.256  1.00  0.00    -0.054 A  
HETATM   22  C   UNL     1      -7.075  10.385  69.444  1.00  0.00    -0.102 A  
HETATM   23  C   UNL     1      -8.454  10.247  69.572  1.00  0.00    -0.156 A  
HETATM   24  C   UNL     1      -9.210   9.749  68.497  1.00  0.00    -0.134 A  
HETATM   25  N   UNL     1     -10.616   9.494  68.779  1.00  0.00    -0.219 N  
ENDBRANCH  12  17
ENDBRANCH   3   5
ENDBRANCH   2   3
TORSDOF 5
ENDMDL
MODEL       93
REMARK 921   NORMALIZED FREE ENERGY PREDICTED BY IDOCK:   -3.35 KCAL/MOL
REMARK 922        TOTAL FREE ENERGY PREDICTED BY IDOCK:   -5.55 KCAL/MOL
REMARK 923 INTER-LIGAND FREE ENERGY PREDICTED BY IDOCK:   -4.57 KCAL/MOL
REMARK 924 INTRA-LIGAND FREE ENERGY PREDICTED BY IDOCK:   -0.98 KCAL/MOL
REMARK 927      BINDING AFFINITY PREDICTED BY RF-SCORE:    0.00 PKD
ROOT
HETATM    1  C   UNL     1      -5.742  11.473  68.647  1.00  0.00    -0.042 C  
HETATM    2  O   UNL     1      -6.858  10.597  68.824  1.00  0.00    -0.056 OA 
ENDROOT
BRANCH   2   3
HETATM    3  C   UNL     1      -6.971  10.058  70.060  1.00  0.00    -0.135 C  
HETATM    4  O   UNL     1      -6.596  10.591  71.093  1.00  0.00    -0.282 OA 
BRANCH   3   5
HETATM    5  C   UNL     1      -7.599   8.709  69.991  1.00  0.00    -0.068 C  
HETATM    6  C   UNL     1      -6.822   7.619  70.202  1.00  0.00    -0.050 C  
HETATM    7  N   UNL     1      -7.405   6.377  70.353  1.00  0.00    -0.086 NA 
HETATM    8  C   UNL     1      -5.312   7.597  70.262  1.00  0.00    -0.023 C  
HETATM    9  C   UNL     1      -8.755   6.112  70.263  1.00  0.00    -0.145 C  
HETATM   10  C   UNL     1      -9.139   4.668  70.497  1.00  0.00    -0.174 C  
HETATM   11  C   UNL     1      -9.624   7.111  69.973  1.00  0.00    -0.164 C  
HETATM   12  C   UNL     1      -9.131   8.573  69.801  1.00  0.00    -0.153 C  
BRANCH  11  13
HETATM   13  C   UNL     1     -11.040   6.748  69.685  1.00  0.00    -0.292 C  
HETATM   14  O   UNL     1     -11.386   6.083  68.718  1.00  0.00    -0.284 OA 
BRANCH  13  15
HETATM   15  O   UNL     1     -11.892   7.275  70.591  1.00  0.00    -0.303 OA 
HETATM   16  C   UNL     1     -12.039   6.519  71.804  1.00  0.00    -0.342 C  
ENDBRANCH  13  15
ENDBRANCH  11  13
BRANCH  12  17
HETATM   17  C   UNL     1      -9.587   9.130  68.441  1.00  0.00    -0.162 A  
HETATM   18  O   UNL     1     -11.594  10.370  70.307  1.00  0.00    -0.278 OA 
HETATM   19  O   UNL     1     -10.905  12.198  69.308  1.00  0.00    -0.169 OA 
HETATM   20  C   UNL     1      -9.029   8.572  67.270  1.00  0.00    -0.141 A  
HETATM   21  C   UNL     1      -9.416   9.006  65.999  1.00  0.00    -0.323 A  
HETATM   22  C   UNL     1     -10.383   9.996  65.855  1.00  0.00    -0.202 A  
HETATM   23  C   UNL     1     -10.933  10.592  66.986  1.00  0.00    -0.247 A  
HETATM   24  C   UNL     1     -10.519  10.180  68.265  1.00  0.00    -0.211 A  
HETATM   25  N   UNL     1     -11.031  10.967  69.378  1.00  0.00    -0.237 N  
ENDBRANCH  12  17
ENDBRANCH   3   5
ENDBRANCH   2   3
TORSDOF 5
ENDMDL
MODEL       94
REMARK 921   NORMALIZED FREE ENERGY PREDICTED BY IDOCK:   -3.35 KCAL/MOL
REMARK 922        TOTAL FREE ENERGY PREDICTED BY IDOCK:   -5.54 KCAL/MOL
REMARK 923 INTER-LIGAND FREE ENERGY PREDICTED BY IDOCK:   -4.59 KCAL/MOL
REMARK 924 INTRA-LIGAND FREE ENERGY PREDICTED BY IDOCK:   -0.96 KCAL/MOL
REMARK 927      BINDING AFFINITY PREDICTED BY RF-SCORE:    0.00 PKD
ROOT
HETATM    1  C   UNL     1      -9.212   8.542  66.016  1.00  0.00    -0.202 C  
HETATM    2  O   UNL     1      -8.819   7.327  66.660  1.00  0.00    -0.127 OA 
ENDROOT
BRANCH   2   3
HETATM    3  C   UNL     1      -9.809   6.682  67.318  1.00  0.00    -0.146 C  
HETATM    4  O   UNL     1     -10.948   6.539  66.901  1.00  0.00    -0.373 OA 
BRANCH   3   5
HETATM    5  C   UNL     1      -9.328   6.185  68.636  1.00  0.00    -0.121 C  
HETATM    6  C   UNL     1      -9.074   4.861  68.779  1.00  0.00    -0.112 C  
HETATM    7  N   UNL     1      -8.433   4.400  69.911  1.00  0.00    -0.062 NA 
HETATM    8  C   UNL     1      -9.458   3.769  67.807  1.00  0.00    -0.231 C  
HETATM    9  C   UNL     1      -8.046   5.178  70.981  1.00  0.00    -0.103 C  
HETATM   10  C   UNL     1      -7.333   4.432  72.088  1.00  0.00    -0.064 C  
HETATM   11  C   UNL     1      -8.321   6.506  70.990  1.00  0.00    -0.126 C  
HETATM   12  C   UNL     1      -9.014   7.184  69.778  1.00  0.00    -0.142 C  
BRANCH  11  13
HETATM   13  C   UNL     1      -8.071   7.265  72.246  1.00  0.00    -0.100 C  
HETATM   14  O   UNL     1      -7.204   8.121  72.361  1.00  0.00    -0.088 OA 
BRANCH  13  15
HETATM   15  O   UNL     1      -8.884   6.865  73.250  1.00  0.00    -0.124 OA 
HETATM   16  C   UNL     1      -8.298   6.906  74.561  1.00  0.00    -0.160 C  
ENDBRANCH  13  15
ENDBRANCH  11  13
BRANCH  12  17
HETATM   17  C   UNL     1     -10.276   7.934  70.239  1.00  0.00    -0.200 A  
HETATM   18  O   UNL     1      -8.491  10.208  69.404  1.00  0.00    -0.149 OA 
HETATM   19  O   UNL     1     -10.257  10.723  68.208  1.00  0.00    -0.157 OA 
HETATM   20  C   UNL     1     -11.264   7.210  70.941  1.00  0.00    -0.305 A  
HETATM   21  C   UNL     1     -12.423   7.830  71.417  1.00  0.00    -0.342 A  
HETATM   22  C   UNL     1     -12.625   9.193  71.225  1.00  0.00    -0.351 A  
HETATM   23  C   UNL     1     -11.687   9.934  70.511  1.00  0.00    -0.373 A  
HETATM   24  C   UNL     1     -10.538   9.304  70.002  1.00  0.00    -0.228 A  
HETATM   25  N   UNL     1      -9.699  10.124  69.139  1.00  0.00    -0.204 N  
ENDBRANCH  12  17
ENDBRANCH   3   5
ENDBRANCH   2   3
TORSDOF 5
ENDMDL
MODEL       95
REMARK 921   NORMALIZED FREE ENERGY PREDICTED BY IDOCK:   -3.30 KCAL/MOL
REMARK 922        TOTAL FREE ENERGY PREDICTED BY IDOCK:   -5.49 KCAL/MOL
REMARK 923 INTER-LIGAND FREE ENERGY PREDICTED BY IDOCK:   -6.41 KCAL/MOL
REMARK 924 INTRA-LIGAND FREE ENERGY PREDICTED BY IDOCK:    0.92 KCAL/MOL
REMARK 927      BINDING AFFINITY PREDICTED BY RF-SCORE:    0.00 PKD
ROOT
HETATM    1  C   UNL     1      -8.472  11.660  67.458  1.00  0.00    -0.150 C  
HETATM    2  O   UNL     1      -7.925  12.640  68.345  1.00  0.00    -0.142 OA 
ENDROOT
BRANCH   2   3
HETATM    3  C   UNL     1      -6.951  13.412  67.812  1.00  0.00    -0.156 C  
HETATM    4  O   UNL     1      -6.014  12.997  67.147  1.00  0.00    -0.326 OA 
BRANCH   3   5
HETATM    5  C   UNL     1      -7.163  14.844  68.163  1.00  0.00    -0.124 C  
HETATM    6  C   UNL     1      -6.640  15.314  69.322  1.00  0.00    -0.141 C  
HETATM    7  N   UNL     1      -6.636  16.671  69.575  1.00  0.00    -0.225 NA 
HETATM    8  C   UNL     1      -6.059  14.481  70.441  1.00  0.00    -0.176 C  
HETATM    9  C   UNL     1      -7.174  17.638  68.753  1.00  0.00    -0.268 C  
HETATM   10  C   UNL     1      -7.013  19.058  69.249  1.00  0.00    -0.302 C  
HETATM   11  C   UNL     1      -7.798  17.281  67.604  1.00  0.00    -0.192 C  
HETATM   12  C   UNL     1      -7.865  15.795  67.161  1.00  0.00    -0.247 C  
BRANCH  11  13
HETATM   13  C   UNL     1      -8.540  18.332  66.853  1.00  0.00    -0.263 C  
HETATM   14  O   UNL     1      -9.553  18.878  67.271  1.00  0.00    -0.299 OA 
BRANCH  13  15
HETATM   15  O   UNL     1      -7.987  18.576  65.644  1.00  0.00    -0.468 OA 
HETATM   16  C   UNL     1      -6.610  18.981  65.674  1.00  0.00    -0.269 C  
ENDBRANCH  13  15
ENDBRANCH  11  13
BRANCH  12  17
HETATM   17  C   UNL     1      -9.325  15.381  66.911  1.00  0.00    -0.255 A  
HETATM   18  O   UNL     1      -9.207  15.401  69.917  1.00  0.00    -0.201 OA 
HETATM   19  O   UNL     1     -10.945  16.713  69.650  1.00  0.00    -0.318 OA 
HETATM   20  C   UNL     1      -9.702  15.021  65.599  1.00  0.00    -0.344 A  
HETATM   21  C   UNL     1     -11.004  14.605  65.302  1.00  0.00    -0.374 A  
HETATM   22  C   UNL     1     -11.964  14.519  66.304  1.00  0.00    -0.335 A  
HETATM   23  C   UNL     1     -11.638  14.894  67.604  1.00  0.00    -0.357 A  
HETATM   24  C   UNL     1     -10.339  15.345  67.897  1.00  0.00    -0.247 A  
HETATM   25  N   UNL     1     -10.140  15.863  69.244  1.00  0.00    -0.232 N  
ENDBRANCH  12  17
ENDBRANCH   3   5
ENDBRANCH   2   3
TORSDOF 5
ENDMDL
MODEL       96
REMARK 921   NORMALIZED FREE ENERGY PREDICTED BY IDOCK:   -3.30 KCAL/MOL
REMARK 922        TOTAL FREE ENERGY PREDICTED BY IDOCK:   -5.49 KCAL/MOL
REMARK 923 INTER-LIGAND FREE ENERGY PREDICTED BY IDOCK:   -5.11 KCAL/MOL
REMARK 924 INTRA-LIGAND FREE ENERGY PREDICTED BY IDOCK:   -0.38 KCAL/MOL
REMARK 927      BINDING AFFINITY PREDICTED BY RF-SCORE:    0.00 PKD
ROOT
HETATM    1  C   UNL     1      -6.046  16.158  67.786  1.00  0.00    -0.139 C  
HETATM    2  O   UNL     1      -7.415  16.497  68.024  1.00  0.00    -0.149 OA 
ENDROOT
BRANCH   2   3
HETATM    3  C   UNL     1      -8.159  15.514  68.581  1.00  0.00    -0.159 C  
HETATM    4  O   UNL     1      -8.026  15.096  69.721  1.00  0.00    -0.192 OA 
BRANCH   3   5
HETATM    5  C   UNL     1      -9.154  14.990  67.605  1.00  0.00    -0.182 C  
HETATM    6  C   UNL     1     -10.209  15.772  67.268  1.00  0.00    -0.268 C  
HETATM    7  N   UNL     1     -11.029  15.409  66.219  1.00  0.00    -0.311 NA 
HETATM    8  C   UNL     1     -10.633  17.045  67.964  1.00  0.00    -0.373 C  
HETATM    9  C   UNL     1     -10.906  14.257  65.472  1.00  0.00    -0.322 C  
HETATM   10  C   UNL     1     -11.919  14.109  64.357  1.00  0.00    -0.478 C  
HETATM   11  C   UNL     1      -9.938  13.356  65.768  1.00  0.00    -0.264 C  
HETATM   12  C   UNL     1      -8.915  13.629  66.904  1.00  0.00    -0.229 C  
BRANCH  11  13
HETATM   13  C   UNL     1      -9.969  12.039  65.073  1.00  0.00    -0.233 C  
HETATM   14  O   UNL     1      -9.395  11.816  64.015  1.00  0.00    -0.054 OA 
BRANCH  13  15
HETATM   15  O   UNL     1     -10.739  11.140  65.726  1.00  0.00    -0.250 OA 
HETATM   16  C   UNL     1     -10.257   9.788  65.695  1.00  0.00    -0.108 C  
ENDBRANCH  13  15
ENDBRANCH  11  13
BRANCH  12  17
HETATM   17  C   UNL     1      -8.916  12.464  67.909  1.00  0.00    -0.184 A  
HETATM   18  O   UNL     1      -6.029  12.533  67.065  1.00  0.00    -0.283 OA 
HETATM   19  O   UNL     1      -5.736  12.638  69.237  1.00  0.00    -0.072 OA 
HETATM   20  C   UNL     1     -10.160  11.961  68.348  1.00  0.00    -0.206 A  
HETATM   21  C   UNL     1     -10.240  10.885  69.237  1.00  0.00    -0.190 A  
HETATM   22  C   UNL     1      -9.084  10.268  69.704  1.00  0.00    -0.149 A  
HETATM   23  C   UNL     1      -7.839  10.755  69.318  1.00  0.00    -0.124 A  
HETATM   24  C   UNL     1      -7.758  11.859  68.451  1.00  0.00    -0.131 A  
HETATM   25  N   UNL     1      -6.420  12.392  68.233  1.00  0.00    -0.057 N  
ENDBRANCH  12  17
ENDBRANCH   3   5
ENDBRANCH   2   3
TORSDOF 5
ENDMDL
MODEL       97
REMARK 921   NORMALIZED FREE ENERGY PREDICTED BY IDOCK:   -3.29 KCAL/MOL
REMARK 922        TOTAL FREE ENERGY PREDICTED BY IDOCK:   -5.47 KCAL/MOL
REMARK 923 INTER-LIGAND FREE ENERGY PREDICTED BY IDOCK:   -4.28 KCAL/MOL
REMARK 924 INTRA-LIGAND FREE ENERGY PREDICTED BY IDOCK:   -1.19 KCAL/MOL
REMARK 927      BINDING AFFINITY PREDICTED BY RF-SCORE:    0.00 PKD
ROOT
HETATM    1  C   UNL     1     -10.695   5.100  66.396  1.00  0.00    -0.210 C  
HETATM    2  O   UNL     1     -10.794   5.925  67.560  1.00  0.00    -0.276 OA 
ENDROOT
BRANCH   2   3
HETATM    3  C   UNL     1      -9.904   5.643  68.538  1.00  0.00    -0.143 C  
HETATM    4  O   UNL     1     -10.012   4.729  69.341  1.00  0.00    -0.204 OA 
BRANCH   3   5
HETATM    5  C   UNL     1      -8.775   6.615  68.518  1.00  0.00    -0.123 C  
HETATM    6  C   UNL     1      -7.680   6.325  67.773  1.00  0.00    -0.102 C  
HETATM    7  N   UNL     1      -6.715   7.288  67.565  1.00  0.00    -0.063 NA 
HETATM    8  C   UNL     1      -7.362   4.992  67.137  1.00  0.00    -0.082 C  
HETATM    9  C   UNL     1      -6.727   8.560  68.097  1.00  0.00    -0.065 C  
HETATM   10  C   UNL     1      -5.561   9.433  67.690  1.00  0.00    -0.037 C  
HETATM   11  C   UNL     1      -7.731   8.938  68.926  1.00  0.00    -0.095 C  
HETATM   12  C   UNL     1      -8.910   7.979  69.240  1.00  0.00    -0.141 C  
BRANCH  11  13
HETATM   13  C   UNL     1      -7.600  10.240  69.637  1.00  0.00    -0.164 C  
HETATM   14  O   UNL     1      -6.850  10.422  70.588  1.00  0.00    -0.328 OA 
BRANCH  13  15
HETATM   15  O   UNL     1      -8.436  11.177  69.137  1.00  0.00    -0.089 OA 
HETATM   16  C   UNL     1      -7.797  12.238  68.409  1.00  0.00    -0.151 C  
ENDBRANCH  13  15
ENDBRANCH  11  13
BRANCH  12  17
HETATM   17  C   UNL     1      -9.062   7.805  70.761  1.00  0.00    -0.149 A  
HETATM   18  O   UNL     1     -11.195   9.841  70.170  1.00  0.00    -0.247 OA 
HETATM   19  O   UNL     1     -12.432   8.374  71.234  1.00  0.00    -0.302 OA 
HETATM   20  C   UNL     1      -8.056   7.097  71.456  1.00  0.00    -0.103 A  
HETATM   21  C   UNL     1      -8.110   6.924  72.842  1.00  0.00    -0.115 A  
HETATM   22  C   UNL     1      -9.158   7.464  73.580  1.00  0.00    -0.273 A  
HETATM   23  C   UNL     1     -10.184   8.142  72.927  1.00  0.00    -0.341 A  
HETATM   24  C   UNL     1     -10.148   8.286  71.530  1.00  0.00    -0.208 A  
HETATM   25  N   UNL     1     -11.338   8.868  70.925  1.00  0.00    -0.273 N  
ENDBRANCH  12  17
ENDBRANCH   3   5
ENDBRANCH   2   3
TORSDOF 5
ENDMDL
MODEL       98
REMARK 921   NORMALIZED FREE ENERGY PREDICTED BY IDOCK:   -3.27 KCAL/MOL
REMARK 922        TOTAL FREE ENERGY PREDICTED BY IDOCK:   -5.45 KCAL/MOL
REMARK 923 INTER-LIGAND FREE ENERGY PREDICTED BY IDOCK:   -4.19 KCAL/MOL
REMARK 924 INTRA-LIGAND FREE ENERGY PREDICTED BY IDOCK:   -1.26 KCAL/MOL
REMARK 927      BINDING AFFINITY PREDICTED BY RF-SCORE:    0.00 PKD
ROOT
HETATM    1  C   UNL     1     -10.789   6.117  73.405  1.00  0.00    -0.221 C  
HETATM    2  O   UNL     1     -10.108   6.758  72.322  1.00  0.00    -0.174 OA 
ENDROOT
BRANCH   2   3
HETATM    3  C   UNL     1     -10.836   6.900  71.192  1.00  0.00    -0.240 C  
HETATM    4  O   UNL     1     -11.844   6.263  70.924  1.00  0.00    -0.308 OA 
BRANCH   3   5
HETATM    5  C   UNL     1     -10.232   7.929  70.302  1.00  0.00    -0.200 C  
HETATM    6  C   UNL     1     -10.667   9.210  70.398  1.00  0.00    -0.238 C  
HETATM    7  N   UNL     1      -9.989  10.218  69.745  1.00  0.00    -0.215 NA 
HETATM    8  C   UNL     1     -11.888   9.682  71.152  1.00  0.00    -0.448 C  
HETATM    9  C   UNL     1      -8.890  10.045  68.930  1.00  0.00    -0.148 C  
HETATM   10  C   UNL     1      -8.315  11.320  68.355  1.00  0.00    -0.152 C  
HETATM   11  C   UNL     1      -8.413   8.798  68.691  1.00  0.00    -0.129 C  
HETATM   12  C   UNL     1      -9.048   7.557  69.374  1.00  0.00    -0.142 C  
BRANCH  11  13
HETATM   13  C   UNL     1      -7.360   8.638  67.650  1.00  0.00    -0.089 C  
HETATM   14  O   UNL     1      -6.180   8.437  67.904  1.00  0.00    -0.050 OA 
BRANCH  13  15
HETATM   15  O   UNL     1      -7.856   8.787  66.402  1.00  0.00    -0.097 OA 
HETATM   16  C   UNL     1      -6.917   9.265  65.426  1.00  0.00    -0.085 C  
ENDBRANCH  13  15
ENDBRANCH  11  13
BRANCH  12  17
HETATM   17  C   UNL     1      -9.461   6.522  68.314  1.00  0.00    -0.118 A  
HETATM   18  O   UNL     1      -6.837   5.400  69.265  1.00  0.00    -0.050 OA 
HETATM   19  O   UNL     1      -8.077   3.613  69.549  1.00  0.00    -0.054 OA 
HETATM   20  C   UNL     1     -10.540   6.836  67.458  1.00  0.00    -0.348 A  
HETATM   21  C   UNL     1     -10.953   5.958  66.452  1.00  0.00    -0.023 A  
HETATM   22  C   UNL     1     -10.294   4.749  66.256  1.00  0.00    -0.329 A  
HETATM   23  C   UNL     1      -9.246   4.390  67.098  1.00  0.00    -0.157 A  
HETATM   24  C   UNL     1      -8.852   5.258  68.132  1.00  0.00    -0.105 A  
HETATM   25  N   UNL     1      -7.857   4.728  69.055  1.00  0.00    -0.071 N  
ENDBRANCH  12  17
ENDBRANCH   3   5
ENDBRANCH   2   3
TORSDOF 5
ENDMDL
MODEL       99
REMARK 921   NORMALIZED FREE ENERGY PREDICTED BY IDOCK:   -3.24 KCAL/MOL
REMARK 922        TOTAL FREE ENERGY PREDICTED BY IDOCK:   -5.41 KCAL/MOL
REMARK 923 INTER-LIGAND FREE ENERGY PREDICTED BY IDOCK:   -4.18 KCAL/MOL
REMARK 924 INTRA-LIGAND FREE ENERGY PREDICTED BY IDOCK:   -1.23 KCAL/MOL
REMARK 927      BINDING AFFINITY PREDICTED BY RF-SCORE:    0.00 PKD
ROOT
HETATM    1  C   UNL     1      -5.238   6.469  69.590  1.00  0.00    -0.014 C  
HETATM    2  O   UNL     1      -5.303   7.107  70.869  1.00  0.00    -0.026 OA 
ENDROOT
BRANCH   2   3
HETATM    3  C   UNL     1      -6.133   6.517  71.760  1.00  0.00    -0.038 C  
HETATM    4  O   UNL     1      -5.814   5.621  72.527  1.00  0.00    -0.025 OA 
BRANCH   3   5
HETATM    5  C   UNL     1      -7.502   7.095  71.666  1.00  0.00    -0.086 C  
HETATM    6  C   UNL     1      -7.839   8.108  72.502  1.00  0.00    -0.136 C  
HETATM    7  N   UNL     1      -9.015   8.802  72.303  1.00  0.00    -0.392 NA 
HETATM    8  C   UNL     1      -7.052   8.569  73.707  1.00  0.00    -0.084 C  
HETATM    9  C   UNL     1      -9.947   8.530  71.324  1.00  0.00    -0.221 C  
HETATM   10  C   UNL     1     -11.140   9.460  71.304  1.00  0.00    -0.446 C  
HETATM   11  C   UNL     1      -9.759   7.487  70.480  1.00  0.00    -0.179 C  
HETATM   12  C   UNL     1      -8.472   6.622  70.554  1.00  0.00    -0.138 C  
BRANCH  11  13
HETATM   13  C   UNL     1     -10.880   7.105  69.576  1.00  0.00    -0.225 C  
HETATM   14  O   UNL     1     -11.823   6.406  69.923  1.00  0.00    -0.384 OA 
BRANCH  13  15
HETATM   15  O   UNL     1     -10.707   7.584  68.325  1.00  0.00    -0.167 OA 
HETATM   16  C   UNL     1     -11.150   6.713  67.272  1.00  0.00    -0.345 C  
ENDBRANCH  13  15
ENDBRANCH  11  13
BRANCH  12  17
HETATM   17  C   UNL     1      -8.839   5.137  70.713  1.00  0.00    -0.154 A  
HETATM   18  O   UNL     1      -8.227   5.298  67.772  1.00  0.00    -0.099 OA 
HETATM   19  O   UNL     1      -6.892   3.636  68.292  1.00  0.00    -0.045 OA 
HETATM   20  C   UNL     1      -9.429   4.721  71.926  1.00  0.00    -0.192 A  
HETATM   21  C   UNL     1      -9.816   3.393  72.132  1.00  0.00    -0.236 A  
HETATM   22  C   UNL     1      -9.643   2.444  71.130  1.00  0.00    -0.215 A  
HETATM   23  C   UNL     1      -9.036   2.809  69.932  1.00  0.00    -0.190 A  
HETATM   24  C   UNL     1      -8.616   4.136  69.737  1.00  0.00    -0.064 A  
HETATM   25  N   UNL     1      -7.853   4.384  68.522  1.00  0.00    -0.074 N  
ENDBRANCH  12  17
ENDBRANCH   3   5
ENDBRANCH   2   3
TORSDOF 5
ENDMDL
MODEL      100
REMARK 921   NORMALIZED FREE ENERGY PREDICTED BY IDOCK:   -3.24 KCAL/MOL
REMARK 922        TOTAL FREE ENERGY PREDICTED BY IDOCK:   -5.41 KCAL/MOL
REMARK 923 INTER-LIGAND FREE ENERGY PREDICTED BY IDOCK:   -4.51 KCAL/MOL
REMARK 924 INTRA-LIGAND FREE ENERGY PREDICTED BY IDOCK:   -0.89 KCAL/MOL
REMARK 927      BINDING AFFINITY PREDICTED BY RF-SCORE:    0.00 PKD
ROOT
HETATM    1  C   UNL     1      -9.027   8.626  72.054  1.00  0.00    -0.216 C  
HETATM    2  O   UNL     1      -9.698   9.463  71.107  1.00  0.00    -0.270 OA 
ENDROOT
BRANCH   2   3
HETATM    3  C   UNL     1     -10.599   8.830  70.323  1.00  0.00    -0.216 C  
HETATM    4  O   UNL     1     -11.725   8.509  70.670  1.00  0.00    -0.249 OA 
BRANCH   3   5
HETATM    5  C   UNL     1     -10.025   8.557  68.976  1.00  0.00    -0.197 C  
HETATM    6  C   UNL     1      -9.495   7.334  68.731  1.00  0.00    -0.142 C  
HETATM    7  N   UNL     1      -9.148   6.979  67.443  1.00  0.00    -0.123 NA 
HETATM    8  C   UNL     1      -9.194   6.269  69.761  1.00  0.00    -0.150 C  
HETATM    9  C   UNL     1      -9.249   7.794  66.336  1.00  0.00    -0.180 C  
HETATM   10  C   UNL     1      -8.828   7.152  65.032  1.00  0.00     0.317 C  
HETATM   11  C   UNL     1      -9.689   9.069  66.470  1.00  0.00    -0.311 C  
HETATM   12  C   UNL     1     -10.145   9.614  67.850  1.00  0.00    -0.222 C  
BRANCH  11  13
HETATM   13  C   UNL     1      -9.588   9.973  65.291  1.00  0.00    -0.291 C  
HETATM   14  O   UNL     1     -10.557  10.390  64.671  1.00  0.00    -0.173 OA 
BRANCH  13  15
HETATM   15  O   UNL     1      -8.304  10.237  64.964  1.00  0.00    -0.159 OA 
HETATM   16  C   UNL     1      -8.061  10.441  63.563  1.00  0.00    -0.116 C  
ENDBRANCH  13  15
ENDBRANCH  11  13
BRANCH  12  17
HETATM   17  C   UNL     1      -9.373  10.900  68.193  1.00  0.00    -0.165 A  
HETATM   18  O   UNL     1     -12.008  12.008  67.254  1.00  0.00    -0.591 OA 
HETATM   19  O   UNL     1     -11.899  13.028  69.194  1.00  0.00    -0.297 OA 
HETATM   20  C   UNL     1      -7.987  10.801  68.443  1.00  0.00    -0.124 A  
HETATM   21  C   UNL     1      -7.214  11.930  68.732  1.00  0.00    -0.112 A  
HETATM   22  C   UNL     1      -7.795  13.193  68.764  1.00  0.00     0.018 A  
HETATM   23  C   UNL     1      -9.165  13.328  68.554  1.00  0.00    -0.073 A  
HETATM   24  C   UNL     1      -9.948  12.189  68.297  1.00  0.00    -0.212 A  
HETATM   25  N   UNL     1     -11.386  12.411  68.248  1.00  0.00    -0.261 N  
ENDBRANCH  12  17
ENDBRANCH   3   5
ENDBRANCH   2   3
TORSDOF 5
ENDMDL
MODEL      101
REMARK 921   NORMALIZED FREE ENERGY PREDICTED BY IDOCK:   -3.21 KCAL/MOL
REMARK 922        TOTAL FREE ENERGY PREDICTED BY IDOCK:   -5.37 KCAL/MOL
REMARK 923 INTER-LIGAND FREE ENERGY PREDICTED BY IDOCK:   -4.26 KCAL/MOL
REMARK 924 INTRA-LIGAND FREE ENERGY PREDICTED BY IDOCK:   -1.12 KCAL/MOL
REMARK 927      BINDING AFFINITY PREDICTED BY RF-SCORE:    0.00 PKD
ROOT
HETATM    1  C   UNL     1      -9.917   6.369  74.516  1.00  0.00    -0.351 C  
HETATM    2  O   UNL     1     -10.019   6.451  73.091  1.00  0.00    -0.164 OA 
ENDROOT
BRANCH   2   3
HETATM    3  C   UNL     1     -10.925   5.617  72.534  1.00  0.00    -0.264 C  
HETATM    4  O   UNL     1     -12.113   5.585  72.815  1.00  0.00    -0.192 OA 
BRANCH   3   5
HETATM    5  C   UNL     1     -10.273   4.720  71.540  1.00  0.00    -0.246 C  
HETATM    6  C   UNL     1     -10.027   3.433  71.888  1.00  0.00    -0.140 C  
HETATM    7  N   UNL     1      -9.621   2.526  70.930  1.00  0.00    -0.145 NA 
HETATM    8  C   UNL     1     -10.119   2.852  73.280  1.00  0.00    -0.196 C  
HETATM    9  C   UNL     1      -9.387   2.817  69.603  1.00  0.00    -0.128 C  
HETATM   10  C   UNL     1      -8.976   1.635  68.753  1.00  0.00    -0.151 C  
HETATM   11  C   UNL     1      -9.520   4.089  69.154  1.00  0.00    -0.249 C  
HETATM   12  C   UNL     1      -9.996   5.224  70.101  1.00  0.00    -0.313 C  
BRANCH  11  13
HETATM   13  C   UNL     1      -9.061   4.396  67.771  1.00  0.00    -0.127 C  
HETATM   14  O   UNL     1      -7.893   4.610  67.474  1.00  0.00    -0.089 OA 
BRANCH  13  15
HETATM   15  O   UNL     1     -10.091   4.453  66.897  1.00  0.00    -0.209 OA 
HETATM   16  C   UNL     1      -9.757   4.951  65.592  1.00  0.00    -0.145 C  
ENDBRANCH  13  15
ENDBRANCH  11  13
BRANCH  12  17
HETATM   17  C   UNL     1      -8.986   6.384  70.089  1.00  0.00    -0.154 A  
HETATM   18  O   UNL     1     -11.007   7.321  68.068  1.00  0.00    -0.127 OA 
HETATM   19  O   UNL     1     -10.990   9.096  69.358  1.00  0.00    -0.197 OA 
HETATM   20  C   UNL     1      -7.748   6.198  70.742  1.00  0.00    -0.102 A  
HETATM   21  C   UNL     1      -6.769   7.196  70.749  1.00  0.00    -0.052 A  
HETATM   22  C   UNL     1      -6.986   8.402  70.091  1.00  0.00    -0.042 A  
HETATM   23  C   UNL     1      -8.206   8.634  69.462  1.00  0.00    -0.115 A  
HETATM   24  C   UNL     1      -9.204   7.644  69.485  1.00  0.00    -0.150 A  
HETATM   25  N   UNL     1     -10.496   8.038  68.940  1.00  0.00    -0.213 N  
ENDBRANCH  12  17
ENDBRANCH   3   5
ENDBRANCH   2   3
TORSDOF 5
ENDMDL
MODEL      102
REMARK 921   NORMALIZED FREE ENERGY PREDICTED BY IDOCK:   -3.19 KCAL/MOL
REMARK 922        TOTAL FREE ENERGY PREDICTED BY IDOCK:   -5.34 KCAL/MOL
REMARK 923 INTER-LIGAND FREE ENERGY PREDICTED BY IDOCK:   -4.18 KCAL/MOL
REMARK 924 INTRA-LIGAND FREE ENERGY PREDICTED BY IDOCK:   -1.16 KCAL/MOL
REMARK 927      BINDING AFFINITY PREDICTED BY RF-SCORE:    0.00 PKD
ROOT
HETATM    1  C   UNL     1      -9.932   8.523  66.815  1.00  0.00    -0.281 C  
HETATM    2  O   UNL     1      -9.657   7.625  67.893  1.00  0.00    -0.141 OA 
ENDROOT
BRANCH   2   3
HETATM    3  C   UNL     1     -10.638   6.734  68.160  1.00  0.00    -0.230 C  
HETATM    4  O   UNL     1     -11.510   6.397  67.374  1.00  0.00    -0.157 OA 
BRANCH   3   5
HETATM    5  C   UNL     1     -10.527   6.231  69.558  1.00  0.00    -0.293 C  
HETATM    6  C   UNL     1     -10.996   7.005  70.567  1.00  0.00    -0.265 C  
HETATM    7  N   UNL     1     -11.101   6.486  71.841  1.00  0.00    -0.249 NA 
HETATM    8  C   UNL     1     -11.410   8.455  70.461  1.00  0.00    -0.228 C  
HETATM    9  C   UNL     1     -10.718   5.217  72.221  1.00  0.00    -0.223 C  
HETATM   10  C   UNL     1     -10.965   4.885  73.676  1.00  0.00    -0.387 C  
HETATM   11  C   UNL     1     -10.158   4.378  71.315  1.00  0.00    -0.202 C  
HETATM   12  C   UNL     1      -9.995   4.801  69.830  1.00  0.00    -0.308 C  
BRANCH  11  13
HETATM   13  C   UNL     1      -9.575   3.100  71.809  1.00  0.00    -0.157 C  
HETATM   14  O   UNL     1     -10.125   2.013  71.692  1.00  0.00    -0.151 OA 
BRANCH  13  15
HETATM   15  O   UNL     1      -8.395   3.292  72.439  1.00  0.00    -0.076 OA 
HETATM   16  C   UNL     1      -8.213   2.526  73.640  1.00  0.00    -0.063 C  
ENDBRANCH  13  15
ENDBRANCH  11  13
BRANCH  12  17
HETATM   17  C   UNL     1      -8.529   4.648  69.393  1.00  0.00    -0.094 A  
HETATM   18  O   UNL     1      -9.728   2.072  68.404  1.00  0.00    -0.165 OA 
HETATM   19  O   UNL     1      -8.812   2.746  66.528  1.00  0.00    -0.132 OA 
HETATM   20  C   UNL     1      -7.581   5.563  69.900  1.00  0.00    -0.074 A  
HETATM   21  C   UNL     1      -6.225   5.469  69.570  1.00  0.00    -0.029 A  
HETATM   22  C   UNL     1      -5.770   4.450  68.740  1.00  0.00    -0.017 A  
HETATM   23  C   UNL     1      -6.679   3.546  68.196  1.00  0.00    -0.046 A  
HETATM   24  C   UNL     1      -8.046   3.662  68.499  1.00  0.00    -0.070 A  
HETATM   25  N   UNL     1      -8.933   2.773  67.761  1.00  0.00    -0.143 N  
ENDBRANCH  12  17
ENDBRANCH   3   5
ENDBRANCH   2   3
TORSDOF 5
ENDMDL
MODEL      103
REMARK 921   NORMALIZED FREE ENERGY PREDICTED BY IDOCK:   -3.18 KCAL/MOL
REMARK 922        TOTAL FREE ENERGY PREDICTED BY IDOCK:   -5.33 KCAL/MOL
REMARK 923 INTER-LIGAND FREE ENERGY PREDICTED BY IDOCK:   -4.50 KCAL/MOL
REMARK 924 INTRA-LIGAND FREE ENERGY PREDICTED BY IDOCK:   -0.83 KCAL/MOL
REMARK 927      BINDING AFFINITY PREDICTED BY RF-SCORE:    0.00 PKD
ROOT
HETATM    1  C   UNL     1     -11.424  15.851  64.015  1.00  0.00     0.153 C  
HETATM    2  O   UNL     1     -11.104  15.645  65.394  1.00  0.00    -0.325 OA 
ENDROOT
BRANCH   2   3
HETATM    3  C   UNL     1     -11.364  14.402  65.861  1.00  0.00    -0.332 C  
HETATM    4  O   UNL     1     -12.450  13.847  65.804  1.00  0.00    -0.457 OA 
BRANCH   3   5
HETATM    5  C   UNL     1     -10.146  13.806  66.477  1.00  0.00    -0.286 C  
HETATM    6  C   UNL     1      -9.787  12.548  66.121  1.00  0.00    -0.258 C  
HETATM    7  N   UNL     1      -8.561  12.046  66.507  1.00  0.00    -0.147 NA 
HETATM    8  C   UNL     1     -10.630  11.568  65.338  1.00  0.00    -0.336 C  
HETATM    9  C   UNL     1      -7.639  12.707  67.291  1.00  0.00    -0.120 C  
HETATM   10  C   UNL     1      -6.357  11.946  67.547  1.00  0.00    -0.105 C  
HETATM   11  C   UNL     1      -7.921  13.941  67.776  1.00  0.00    -0.174 C  
HETATM   12  C   UNL     1      -9.250  14.657  67.411  1.00  0.00    -0.201 C  
BRANCH  11  13
HETATM   13  C   UNL     1      -6.991  14.530  68.779  1.00  0.00    -0.104 C  
HETATM   14  O   UNL     1      -6.219  15.447  68.533  1.00  0.00    -0.090 OA 
BRANCH  13  15
HETATM   15  O   UNL     1      -7.071  13.902  69.973  1.00  0.00     0.168 OA 
HETATM   16  C   UNL     1      -5.810  13.556  70.566  1.00  0.00    -0.164 C  
ENDBRANCH  13  15
ENDBRANCH  11  13
BRANCH  12  17
HETATM   17  C   UNL     1      -9.996  15.075  68.689  1.00  0.00    -0.220 A  
HETATM   18  O   UNL     1      -8.570  17.622  67.961  1.00  0.00    -0.235 OA 
HETATM   19  O   UNL     1     -10.606  18.423  68.123  1.00  0.00    -0.356 OA 
HETATM   20  C   UNL     1     -10.593  14.065  69.474  1.00  0.00     0.063 A  
HETATM   21  C   UNL     1     -11.263  14.365  70.664  1.00  0.00     0.031 A  
HETATM   22  C   UNL     1     -11.342  15.678  71.117  1.00  0.00    -0.446 A  
HETATM   23  C   UNL     1     -10.792  16.705  70.355  1.00  0.00     0.021 A  
HETATM   24  C   UNL     1     -10.149  16.407  69.141  1.00  0.00    -0.278 A  
HETATM   25  N   UNL     1      -9.747  17.556  68.342  1.00  0.00    -0.301 N  
ENDBRANCH  12  17
ENDBRANCH   3   5
ENDBRANCH   2   3
TORSDOF 5
ENDMDL
MODEL      104
REMARK 921   NORMALIZED FREE ENERGY PREDICTED BY IDOCK:   -3.18 KCAL/MOL
REMARK 922        TOTAL FREE ENERGY PREDICTED BY IDOCK:   -5.33 KCAL/MOL
REMARK 923 INTER-LIGAND FREE ENERGY PREDICTED BY IDOCK:   -4.40 KCAL/MOL
REMARK 924 INTRA-LIGAND FREE ENERGY PREDICTED BY IDOCK:   -0.93 KCAL/MOL
REMARK 927      BINDING AFFINITY PREDICTED BY RF-SCORE:    0.00 PKD
ROOT
HETATM    1  C   UNL     1     -10.926  10.457  69.860  1.00  0.00    -0.305 C  
HETATM    2  O   UNL     1     -10.071  10.681  68.736  1.00  0.00    -0.174 OA 
ENDROOT
BRANCH   2   3
HETATM    3  C   UNL     1      -8.905   9.997  68.759  1.00  0.00    -0.137 C  
HETATM    4  O   UNL     1      -7.875  10.386  69.289  1.00  0.00    -0.122 OA 
BRANCH   3   5
HETATM    5  C   UNL     1      -9.038   8.705  68.030  1.00  0.00    -0.144 C  
HETATM    6  C   UNL     1      -9.282   8.733  66.697  1.00  0.00    -0.177 C  
HETATM    7  N   UNL     1      -9.202   7.570  65.958  1.00  0.00    -0.104 NA 
HETATM    8  C   UNL     1      -9.682   9.945  65.888  1.00  0.00    -0.326 C  
HETATM    9  C   UNL     1      -8.931   6.317  66.467  1.00  0.00    -0.144 C  
HETATM   10  C   UNL     1      -8.873   5.210  65.438  1.00  0.00    -0.153 C  
HETATM   11  C   UNL     1      -8.751   6.151  67.800  1.00  0.00    -0.112 C  
HETATM   12  C   UNL     1      -8.782   7.366  68.767  1.00  0.00    -0.128 C  
BRANCH  11  13
HETATM   13  C   UNL     1      -8.665   4.762  68.328  1.00  0.00    -0.102 C  
HETATM   14  O   UNL     1      -9.621   4.000  68.394  1.00  0.00    -0.161 OA 
BRANCH  13  15
HETATM   15  O   UNL     1      -7.422   4.462  68.765  1.00  0.00    -0.059 OA 
HETATM   16  C   UNL     1      -6.668   3.589  67.908  1.00  0.00    -0.046 C  
ENDBRANCH  13  15
ENDBRANCH  11  13
BRANCH  12  17
HETATM   17  C   UNL     1      -9.810   7.127  69.886  1.00  0.00    -0.174 A  
HETATM   18  O   UNL     1      -7.262   7.429  71.457  1.00  0.00    -0.069 OA 
HETATM   19  O   UNL     1      -8.472   8.928  72.508  1.00  0.00    -0.395 OA 
HETATM   20  C   UNL     1     -11.103   6.693  69.524  1.00  0.00    -0.378 A  
HETATM   21  C   UNL     1     -12.081   6.427  70.487  1.00  0.00    -0.094 A  
HETATM   22  C   UNL     1     -11.795   6.569  71.841  1.00  0.00    -0.381 A  
HETATM   23  C   UNL     1     -10.540   7.025  72.236  1.00  0.00    -0.242 A  
HETATM   24  C   UNL     1      -9.568   7.325  71.266  1.00  0.00    -0.162 A  
HETATM   25  N   UNL     1      -8.347   7.942  71.767  1.00  0.00    -0.111 N  
ENDBRANCH  12  17
ENDBRANCH   3   5
ENDBRANCH   2   3
TORSDOF 5
ENDMDL
MODEL      105
REMARK 921   NORMALIZED FREE ENERGY PREDICTED BY IDOCK:   -3.18 KCAL/MOL
REMARK 922        TOTAL FREE ENERGY PREDICTED BY IDOCK:   -5.33 KCAL/MOL
REMARK 923 INTER-LIGAND FREE ENERGY PREDICTED BY IDOCK:   -6.18 KCAL/MOL
REMARK 924 INTRA-LIGAND FREE ENERGY PREDICTED BY IDOCK:    0.85 KCAL/MOL
REMARK 927      BINDING AFFINITY PREDICTED BY RF-SCORE:    0.00 PKD
ROOT
HETATM    1  C   UNL     1     -11.324  12.098  63.577  1.00  0.00    -0.453 C  
HETATM    2  O   UNL     1     -10.702  13.300  64.039  1.00  0.00    -0.377 OA 
ENDROOT
BRANCH   2   3
HETATM    3  C   UNL     1     -11.191  13.785  65.203  1.00  0.00    -0.316 C  
HETATM    4  O   UNL     1     -12.291  14.297  65.341  1.00  0.00    -0.417 OA 
BRANCH   3   5
HETATM    5  C   UNL     1     -10.193  13.630  66.297  1.00  0.00    -0.296 C  
HETATM    6  C   UNL     1     -10.197  12.485  67.023  1.00  0.00    -0.221 C  
HETATM    7  N   UNL     1      -9.163  12.220  67.898  1.00  0.00    -0.183 NA 
HETATM    8  C   UNL     1     -11.274  11.425  67.010  1.00  0.00    -0.350 C  
HETATM    9  C   UNL     1      -8.099  13.059  68.154  1.00  0.00    -0.155 C  
HETATM   10  C   UNL     1      -7.083  12.519  69.136  1.00  0.00     0.020 C  
HETATM   11  C   UNL     1      -8.029  14.270  67.548  1.00  0.00    -0.203 C  
HETATM   12  C   UNL     1      -9.102  14.708  66.514  1.00  0.00    -0.267 C  
BRANCH  11  13
HETATM   13  C   UNL     1      -6.980  15.223  68.005  1.00  0.00    -0.133 C  
HETATM   14  O   UNL     1      -7.008  15.798  69.085  1.00  0.00    -0.148 OA 
BRANCH  13  15
HETATM   15  O   UNL     1      -6.022  15.408  67.069  1.00  0.00    -0.238 OA 
HETATM   16  C   UNL     1      -5.318  16.657  67.156  1.00  0.00    -0.123 C  
ENDBRANCH  13  15
ENDBRANCH  11  13
BRANCH  12  17
HETATM   17  C   UNL     1      -9.711  16.060  66.923  1.00  0.00    -0.244 A  
HETATM   18  O   UNL     1     -10.992  14.194  68.905  1.00  0.00    -0.244 OA 
HETATM   19  O   UNL     1     -10.176  15.659  70.319  1.00  0.00    -0.287 OA 
HETATM   20  C   UNL     1      -9.536  17.161  66.057  1.00  0.00    -0.167 A  
HETATM   21  C   UNL     1     -10.086  18.413  66.348  1.00  0.00    -0.420 A  
HETATM   22  C   UNL     1     -10.842  18.602  67.500  1.00  0.00    -0.373 A  
HETATM   23  C   UNL     1     -11.012  17.548  68.393  1.00  0.00    -0.057 A  
HETATM   24  C   UNL     1     -10.430  16.298  68.119  1.00  0.00    -0.289 A  
HETATM   25  N   UNL     1     -10.529  15.309  69.183  1.00  0.00    -0.236 N  
ENDBRANCH  12  17
ENDBRANCH   3   5
ENDBRANCH   2   3
TORSDOF 5
ENDMDL
MODEL      106
REMARK 921   NORMALIZED FREE ENERGY PREDICTED BY IDOCK:   -3.16 KCAL/MOL
REMARK 922        TOTAL FREE ENERGY PREDICTED BY IDOCK:   -5.30 KCAL/MOL
REMARK 923 INTER-LIGAND FREE ENERGY PREDICTED BY IDOCK:   -6.20 KCAL/MOL
REMARK 924 INTRA-LIGAND FREE ENERGY PREDICTED BY IDOCK:    0.90 KCAL/MOL
REMARK 927      BINDING AFFINITY PREDICTED BY RF-SCORE:    0.00 PKD
ROOT
HETATM    1  C   UNL     1     -11.772  15.084  64.659  1.00  0.00    -0.382 C  
HETATM    2  O   UNL     1     -11.083  13.861  64.379  1.00  0.00    -0.376 OA 
ENDROOT
BRANCH   2   3
HETATM    3  C   UNL     1     -11.427  12.818  65.168  1.00  0.00    -0.321 C  
HETATM    4  O   UNL     1     -12.574  12.494  65.439  1.00  0.00    -0.656 OA 
BRANCH   3   5
HETATM    5  C   UNL     1     -10.214  12.125  65.682  1.00  0.00    -0.285 C  
HETATM    6  C   UNL     1      -9.599  11.215  64.887  1.00  0.00    -0.239 C  
HETATM    7  N   UNL     1      -8.364  10.713  65.243  1.00  0.00    -0.155 NA 
HETATM    8  C   UNL     1     -10.148  10.634  63.605  1.00  0.00    -0.311 C  
HETATM    9  C   UNL     1      -7.680  11.021  66.400  1.00  0.00    -0.146 C  
HETATM   10  C   UNL     1      -6.329  10.355  66.539  1.00  0.00    -0.083 C  
HETATM   11  C   UNL     1      -8.234  11.856  67.313  1.00  0.00    -0.170 C  
HETATM   12  C   UNL     1      -9.608  12.528  67.049  1.00  0.00    -0.216 C  
BRANCH  11  13
HETATM   13  C   UNL     1      -7.558  12.000  68.633  1.00  0.00    -0.112 C  
HETATM   14  O   UNL     1      -7.351  11.064  69.394  1.00  0.00    -0.124 OA 
BRANCH  13  15
HETATM   15  O   UNL     1      -7.244  13.286  68.904  1.00  0.00    -0.102 OA 
HETATM   16  C   UNL     1      -6.368  13.913  67.954  1.00  0.00    -0.161 C  
ENDBRANCH  13  15
ENDBRANCH  11  13
BRANCH  12  17
HETATM   17  C   UNL     1     -10.574  12.232  68.209  1.00  0.00    -0.243 A  
HETATM   18  O   UNL     1     -10.435   9.558  66.839  1.00  0.00    -0.240 OA 
HETATM   19  O   UNL     1      -9.929   8.909  68.873  1.00  0.00    -0.179 OA 
HETATM   20  C   UNL     1     -11.087  13.322  68.947  1.00  0.00    -0.304 A  
HETATM   21  C   UNL     1     -11.992  13.133  69.995  1.00  0.00    -0.391 A  
HETATM   22  C   UNL     1     -12.428  11.855  70.329  1.00  0.00    -0.199 A  
HETATM   23  C   UNL     1     -11.923  10.753  69.645  1.00  0.00    -0.385 A  
HETATM   24  C   UNL     1     -10.986  10.940  68.614  1.00  0.00    -0.227 A  
HETATM   25  N   UNL     1     -10.399   9.725  68.067  1.00  0.00    -0.194 N  
ENDBRANCH  12  17
ENDBRANCH   3   5
ENDBRANCH   2   3
TORSDOF 5
ENDMDL
MODEL      107
REMARK 921   NORMALIZED FREE ENERGY PREDICTED BY IDOCK:   -3.15 KCAL/MOL
REMARK 922        TOTAL FREE ENERGY PREDICTED BY IDOCK:   -5.30 KCAL/MOL
REMARK 923 INTER-LIGAND FREE ENERGY PREDICTED BY IDOCK:   -4.17 KCAL/MOL
REMARK 924 INTRA-LIGAND FREE ENERGY PREDICTED BY IDOCK:   -1.12 KCAL/MOL
REMARK 927      BINDING AFFINITY PREDICTED BY RF-SCORE:    0.00 PKD
ROOT
HETATM    1  C   UNL     1      -5.888   6.019  66.923  1.00  0.00    -0.017 C  
HETATM    2  O   UNL     1      -7.144   5.604  67.466  1.00  0.00    -0.070 OA 
ENDROOT
BRANCH   2   3
HETATM    3  C   UNL     1      -7.217   5.624  68.817  1.00  0.00    -0.081 C  
HETATM    4  O   UNL     1      -6.305   5.321  69.571  1.00  0.00    -0.031 OA 
BRANCH   3   5
HETATM    5  C   UNL     1      -8.573   6.046  69.264  1.00  0.00    -0.118 C  
HETATM    6  C   UNL     1      -9.522   5.096  69.450  1.00  0.00    -0.140 C  
HETATM    7  N   UNL     1     -10.715   5.424  70.061  1.00  0.00    -0.287 NA 
HETATM    8  C   UNL     1      -9.435   3.651  69.016  1.00  0.00    -0.226 C  
HETATM    9  C   UNL     1     -11.076   6.687  70.481  1.00  0.00    -0.307 C  
HETATM   10  C   UNL     1     -12.431   6.774  71.149  1.00  0.00    -0.351 C  
HETATM   11  C   UNL     1     -10.242   7.735  70.274  1.00  0.00    -0.199 C  
HETATM   12  C   UNL     1      -8.848   7.528  69.623  1.00  0.00    -0.141 C  
BRANCH  11  13
HETATM   13  C   UNL     1     -10.754   9.105  70.555  1.00  0.00    -0.238 C  
HETATM   14  O   UNL     1     -10.614   9.675  71.629  1.00  0.00    -0.199 OA 
BRANCH  13  15
HETATM   15  O   UNL     1     -11.427   9.620  69.502  1.00  0.00    -0.108 OA 
HETATM   16  C   UNL     1     -12.083  10.873  69.752  1.00  0.00    -0.338 C  
ENDBRANCH  13  15
ENDBRANCH  11  13
BRANCH  12  17
HETATM   17  C   UNL     1      -8.692   8.447  68.399  1.00  0.00    -0.136 A  
HETATM   18  O   UNL     1      -7.340  10.064  70.546  1.00  0.00    -0.261 OA 
HETATM   19  O   UNL     1      -5.719  10.064  69.068  1.00  0.00    -0.035 OA 
HETATM   20  C   UNL     1      -9.426   8.137  67.233  1.00  0.00    -0.196 A  
HETATM   21  C   UNL     1      -9.358   8.942  66.092  1.00  0.00    -0.301 A  
HETATM   22  C   UNL     1      -8.572  10.089  66.084  1.00  0.00    -0.142 A  
HETATM   23  C   UNL     1      -7.811  10.412  67.203  1.00  0.00    -0.110 A  
HETATM   24  C   UNL     1      -7.852   9.584  68.338  1.00  0.00    -0.086 A  
HETATM   25  N   UNL     1      -6.905   9.915  69.395  1.00  0.00    -0.055 N  
ENDBRANCH  12  17
ENDBRANCH   3   5
ENDBRANCH   2   3
TORSDOF 5
ENDMDL
MODEL      108
REMARK 921   NORMALIZED FREE ENERGY PREDICTED BY IDOCK:   -3.14 KCAL/MOL
REMARK 922        TOTAL FREE ENERGY PREDICTED BY IDOCK:   -5.27 KCAL/MOL
REMARK 923 INTER-LIGAND FREE ENERGY PREDICTED BY IDOCK:   -4.02 KCAL/MOL
REMARK 924 INTRA-LIGAND FREE ENERGY PREDICTED BY IDOCK:   -1.25 KCAL/MOL
REMARK 927      BINDING AFFINITY PREDICTED BY RF-SCORE:    0.00 PKD
ROOT
HETATM    1  C   UNL     1     -12.626   9.428  71.782  1.00  0.00    -0.387 C  
HETATM    2  O   UNL     1     -11.402   8.692  71.703  1.00  0.00    -0.265 OA 
ENDROOT
BRANCH   2   3
HETATM    3  C   UNL     1     -11.528   7.416  71.272  1.00  0.00    -0.272 C  
HETATM    4  O   UNL     1     -12.573   6.904  70.901  1.00  0.00    -0.357 OA 
BRANCH   3   5
HETATM    5  C   UNL     1     -10.220   6.708  71.330  1.00  0.00    -0.220 C  
HETATM    6  C   UNL     1      -9.859   6.103  72.488  1.00  0.00    -0.167 C  
HETATM    7  N   UNL     1      -8.761   5.267  72.515  1.00  0.00    -0.121 NA 
HETATM    8  C   UNL     1     -10.534   6.268  73.830  1.00  0.00    -0.304 C  
HETATM    9  C   UNL     1      -7.929   5.007  71.447  1.00  0.00    -0.111 C  
HETATM   10  C   UNL     1      -6.810   4.029  71.733  1.00  0.00    -0.030 C  
HETATM   11  C   UNL     1      -8.141   5.620  70.257  1.00  0.00    -0.104 C  
HETATM   12  C   UNL     1      -9.352   6.570  70.054  1.00  0.00    -0.160 C  
BRANCH  11  13
HETATM   13  C   UNL     1      -7.106   5.471  69.197  1.00  0.00    -0.064 C  
HETATM   14  O   UNL     1      -6.073   6.126  69.160  1.00  0.00    -0.026 OA 
BRANCH  13  15
HETATM   15  O   UNL     1      -7.465   4.562  68.262  1.00  0.00    -0.064 OA 
HETATM   16  C   UNL     1      -6.562   4.440  67.152  1.00  0.00    -0.046 C  
ENDBRANCH  13  15
ENDBRANCH  11  13
BRANCH  12  17
HETATM   17  C   UNL     1      -8.872   7.940  69.543  1.00  0.00    -0.142 A  
HETATM   18  O   UNL     1      -9.709   6.597  66.984  1.00  0.00    -0.143 OA 
HETATM   19  O   UNL     1     -10.883   8.440  66.784  1.00  0.00    -0.172 OA 
HETATM   20  C   UNL     1      -8.166   8.776  70.435  1.00  0.00    -0.127 A  
HETATM   21  C   UNL     1      -7.673  10.021  70.033  1.00  0.00    -0.181 A  
HETATM   22  C   UNL     1      -7.853  10.463  68.727  1.00  0.00    -0.108 A  
HETATM   23  C   UNL     1      -8.571   9.681  67.827  1.00  0.00    -0.125 A  
HETATM   24  C   UNL     1      -9.096   8.444  68.240  1.00  0.00    -0.139 A  
HETATM   25  N   UNL     1      -9.962   7.774  67.279  1.00  0.00    -0.189 N  
ENDBRANCH  12  17
ENDBRANCH   3   5
ENDBRANCH   2   3
TORSDOF 5
ENDMDL
MODEL      109
REMARK 921   NORMALIZED FREE ENERGY PREDICTED BY IDOCK:   -3.06 KCAL/MOL
REMARK 922        TOTAL FREE ENERGY PREDICTED BY IDOCK:   -5.18 KCAL/MOL
REMARK 923 INTER-LIGAND FREE ENERGY PREDICTED BY IDOCK:   -4.03 KCAL/MOL
REMARK 924 INTRA-LIGAND FREE ENERGY PREDICTED BY IDOCK:   -1.15 KCAL/MOL
REMARK 927      BINDING AFFINITY PREDICTED BY RF-SCORE:    0.00 PKD
ROOT
HETATM    1  C   UNL     1      -8.605  13.447  67.596  1.00  0.00    -0.193 C  
HETATM    2  O   UNL     1      -8.796  12.094  68.017  1.00  0.00    -0.167 OA 
ENDROOT
BRANCH   2   3
HETATM    3  C   UNL     1      -7.703  11.304  67.916  1.00  0.00    -0.110 C  
HETATM    4  O   UNL     1      -6.883  11.357  67.012  1.00  0.00    -0.115 OA 
BRANCH   3   5
HETATM    5  C   UNL     1      -7.643  10.340  69.050  1.00  0.00    -0.102 C  
HETATM    6  C   UNL     1      -6.857  10.637  70.114  1.00  0.00    -0.113 C  
HETATM    7  N   UNL     1      -6.938   9.877  71.263  1.00  0.00    -0.265 NA 
HETATM    8  C   UNL     1      -5.825  11.739  70.181  1.00  0.00    -0.156 C  
HETATM    9  C   UNL     1      -7.742   8.770  71.433  1.00  0.00    -0.114 C  
HETATM   10  C   UNL     1      -7.666   8.131  72.802  1.00  0.00    -0.184 C  
HETATM   11  C   UNL     1      -8.513   8.328  70.409  1.00  0.00    -0.129 C  
HETATM   12  C   UNL     1      -8.556   9.089  69.057  1.00  0.00    -0.134 C  
BRANCH  11  13
HETATM   13  C   UNL     1      -9.205   7.018  70.568  1.00  0.00    -0.159 C  
HETATM   14  O   UNL     1      -8.618   5.952  70.700  1.00  0.00    -0.129 OA 
BRANCH  13  15
HETATM   15  O   UNL     1     -10.549   7.145  70.502  1.00  0.00    -0.217 OA 
HETATM   16  C   UNL     1     -11.191   6.322  69.516  1.00  0.00    -0.430 C  
ENDBRANCH  13  15
ENDBRANCH  11  13
BRANCH  12  17
HETATM   17  C   UNL     1      -8.218   8.133  67.900  1.00  0.00    -0.129 A  
HETATM   18  O   UNL     1     -10.961   9.086  67.116  1.00  0.00    -0.119 OA 
HETATM   19  O   UNL     1      -9.907   9.559  65.251  1.00  0.00    -0.282 OA 
HETATM   20  C   UNL     1      -7.092   7.291  68.036  1.00  0.00    -0.081 A  
HETATM   21  C   UNL     1      -6.741   6.375  67.039  1.00  0.00    -0.060 A  
HETATM   22  C   UNL     1      -7.508   6.259  65.885  1.00  0.00    -0.082 A  
HETATM   23  C   UNL     1      -8.607   7.093  65.701  1.00  0.00    -0.119 A  
HETATM   24  C   UNL     1      -8.941   8.038  66.687  1.00  0.00    -0.150 A  
HETATM   25  N   UNL     1     -10.006   8.967  66.336  1.00  0.00    -0.294 N  
ENDBRANCH  12  17
ENDBRANCH   3   5
ENDBRANCH   2   3
TORSDOF 5
ENDMDL
MODEL      110
REMARK 921   NORMALIZED FREE ENERGY PREDICTED BY IDOCK:   -3.04 KCAL/MOL
REMARK 922        TOTAL FREE ENERGY PREDICTED BY IDOCK:   -5.15 KCAL/MOL
REMARK 923 INTER-LIGAND FREE ENERGY PREDICTED BY IDOCK:   -6.45 KCAL/MOL
REMARK 924 INTRA-LIGAND FREE ENERGY PREDICTED BY IDOCK:    1.29 KCAL/MOL
REMARK 927      BINDING AFFINITY PREDICTED BY RF-SCORE:    0.00 PKD
ROOT
HETATM    1  C   UNL     1     -12.814  13.187  71.209  1.00  0.00    -0.296 C  
HETATM    2  O   UNL     1     -11.889  12.549  70.324  1.00  0.00    -0.317 OA 
ENDROOT
BRANCH   2   3
HETATM    3  C   UNL     1     -12.218  11.287  69.967  1.00  0.00    -0.314 C  
HETATM    4  O   UNL     1     -13.124  10.634  70.461  1.00  0.00    -0.295 OA 
BRANCH   3   5
HETATM    5  C   UNL     1     -11.310  10.788  68.897  1.00  0.00    -0.349 C  
HETATM    6  C   UNL     1     -10.518   9.720  69.162  1.00  0.00    -0.215 C  
HETATM    7  N   UNL     1      -9.826   9.106  68.139  1.00  0.00    -0.159 NA 
HETATM    8  C   UNL     1     -10.268   9.110  70.522  1.00  0.00    -0.288 C  
HETATM    9  C   UNL     1      -9.820   9.512  66.821  1.00  0.00    -0.216 C  
HETATM   10  C   UNL     1      -9.000   8.648  65.890  1.00  0.00    -0.245 C  
HETATM   11  C   UNL     1     -10.510  10.619  66.450  1.00  0.00    -0.276 C  
HETATM   12  C   UNL     1     -11.364  11.409  67.478  1.00  0.00    -0.362 C  
BRANCH  11  13
HETATM   13  C   UNL     1     -10.313  11.137  65.068  1.00  0.00    -0.301 C  
HETATM   14  O   UNL     1      -9.216  11.390  64.588  1.00  0.00    -0.145 OA 
BRANCH  13  15
HETATM   15  O   UNL     1     -11.487  11.335  64.429  1.00  0.00    -0.165 OA 
HETATM   16  C   UNL     1     -11.541  12.508  63.601  1.00  0.00    -0.504 C  
ENDBRANCH  13  15
ENDBRANCH  11  13
BRANCH  12  17
HETATM   17  C   UNL     1     -10.947  12.889  67.489  1.00  0.00    -0.283 A  
HETATM   18  O   UNL     1      -8.578  11.582  68.806  1.00  0.00    -0.139 OA 
HETATM   19  O   UNL     1      -7.511  12.685  67.238  1.00  0.00    -0.149 OA 
HETATM   20  C   UNL     1     -11.920  13.860  67.170  1.00  0.00    -0.455 A  
HETATM   21  C   UNL     1     -11.623  15.226  67.187  1.00  0.00    -0.130 A  
HETATM   22  C   UNL     1     -10.352  15.667  67.541  1.00  0.00    -0.277 A  
HETATM   23  C   UNL     1      -9.356  14.739  67.833  1.00  0.00    -0.193 A  
HETATM   24  C   UNL     1      -9.646  13.364  67.781  1.00  0.00    -0.213 A  
HETATM   25  N   UNL     1      -8.506  12.473  67.947  1.00  0.00    -0.161 N  
ENDBRANCH  12  17
ENDBRANCH   3   5
ENDBRANCH   2   3
TORSDOF 5
ENDMDL
MODEL      111
REMARK 921   NORMALIZED FREE ENERGY PREDICTED BY IDOCK:   -3.01 KCAL/MOL
REMARK 922        TOTAL FREE ENERGY PREDICTED BY IDOCK:   -5.11 KCAL/MOL
REMARK 923 INTER-LIGAND FREE ENERGY PREDICTED BY IDOCK:   -3.98 KCAL/MOL
REMARK 924 INTRA-LIGAND FREE ENERGY PREDICTED BY IDOCK:   -1.13 KCAL/MOL
REMARK 927      BINDING AFFINITY PREDICTED BY RF-SCORE:    0.00 PKD
ROOT
HETATM    1  C   UNL     1      -8.359   5.354  64.521  1.00  0.00    -0.138 C  
HETATM    2  O   UNL     1      -9.109   5.868  65.625  1.00  0.00    -0.136 OA 
ENDROOT
BRANCH   2   3
HETATM    3  C   UNL     1      -8.379   6.156  66.727  1.00  0.00    -0.110 C  
HETATM    4  O   UNL     1      -7.318   5.627  67.021  1.00  0.00    -0.077 OA 
BRANCH   3   5
HETATM    5  C   UNL     1      -9.056   7.197  67.549  1.00  0.00    -0.123 C  
HETATM    6  C   UNL     1     -10.068   6.822  68.369  1.00  0.00    -0.162 C  
HETATM    7  N   UNL     1     -10.573   7.714  69.292  1.00  0.00    -0.220 NA 
HETATM    8  C   UNL     1     -10.766   5.482  68.369  1.00  0.00    -0.156 C  
HETATM    9  C   UNL     1     -10.165   9.023  69.444  1.00  0.00    -0.204 C  
HETATM   10  C   UNL     1     -10.861   9.783  70.552  1.00  0.00    -0.387 C  
HETATM   11  C   UNL     1      -9.216   9.537  68.624  1.00  0.00    -0.135 C  
HETATM   12  C   UNL     1      -8.527   8.654  67.549  1.00  0.00    -0.124 C  
BRANCH  11  13
HETATM   13  C   UNL     1      -8.954  11.002  68.687  1.00  0.00    -0.167 C  
HETATM   14  O   UNL     1      -9.752  11.851  68.313  1.00  0.00    -0.192 OA 
BRANCH  13  15
HETATM   15  O   UNL     1      -7.718  11.275  69.162  1.00  0.00    -0.120 OA 
HETATM   16  C   UNL     1      -7.011  12.311  68.462  1.00  0.00    -0.092 C  
ENDBRANCH  13  15
ENDBRANCH  11  13
BRANCH  12  17
HETATM   17  C   UNL     1      -8.660   9.307  66.162  1.00  0.00    -0.146 A  
HETATM   18  O   UNL     1      -5.682   9.383  66.586  1.00  0.00    -0.052 OA 
HETATM   19  O   UNL     1      -5.708   8.385  64.632  1.00  0.00    -0.047 OA 
HETATM   20  C   UNL     1      -9.948   9.676  65.718  1.00  0.00    -0.342 A  
HETATM   21  C   UNL     1     -10.143  10.300  64.482  1.00  0.00    -0.286 A  
HETATM   22  C   UNL     1      -9.060  10.592  63.660  1.00  0.00    -0.259 A  
HETATM   23  C   UNL     1      -7.778  10.216  64.050  1.00  0.00    -0.136 A  
HETATM   24  C   UNL     1      -7.585   9.557  65.277  1.00  0.00    -0.111 A  
HETATM   25  N   UNL     1      -6.236   9.065  65.524  1.00  0.00    -0.062 N  
ENDBRANCH  12  17
ENDBRANCH   3   5
ENDBRANCH   2   3
TORSDOF 5
ENDMDL
MODEL      112
REMARK 921   NORMALIZED FREE ENERGY PREDICTED BY IDOCK:   -2.99 KCAL/MOL
REMARK 922        TOTAL FREE ENERGY PREDICTED BY IDOCK:   -5.08 KCAL/MOL
REMARK 923 INTER-LIGAND FREE ENERGY PREDICTED BY IDOCK:   -4.41 KCAL/MOL
REMARK 924 INTRA-LIGAND FREE ENERGY PREDICTED BY IDOCK:   -0.67 KCAL/MOL
REMARK 927      BINDING AFFINITY PREDICTED BY RF-SCORE:    0.00 PKD
ROOT
HETATM    1  C   UNL     1     -11.003   6.545  66.907  1.00  0.00    -0.338 C  
HETATM    2  O   UNL     1      -9.974   6.827  67.860  1.00  0.00    -0.133 OA 
ENDROOT
BRANCH   2   3
HETATM    3  C   UNL     1      -9.497   5.749  68.522  1.00  0.00    -0.123 C  
HETATM    4  O   UNL     1      -9.852   4.596  68.328  1.00  0.00    -0.150 OA 
BRANCH   3   5
HETATM    5  C   UNL     1      -8.492   6.159  69.541  1.00  0.00    -0.120 C  
HETATM    6  C   UNL     1      -7.183   6.190  69.187  1.00  0.00    -0.083 C  
HETATM    7  N   UNL     1      -6.254   6.761  70.033  1.00  0.00    -0.034 NA 
HETATM    8  C   UNL     1      -6.587   5.614  67.924  1.00  0.00    -0.053 C  
HETATM    9  C   UNL     1      -6.526   7.289  71.277  1.00  0.00    -0.040 C  
HETATM   10  C   UNL     1      -5.332   7.882  71.993  1.00  0.00    -0.035 C  
HETATM   11  C   UNL     1      -7.786   7.240  71.774  1.00  0.00    -0.091 C  
HETATM   12  C   UNL     1      -8.953   6.653  70.935  1.00  0.00    -0.147 C  
BRANCH  11  13
HETATM   13  C   UNL     1      -7.995   7.632  73.196  1.00  0.00    -0.117 C  
HETATM   14  O   UNL     1      -7.974   8.791  73.591  1.00  0.00    -0.404 OA 
BRANCH  13  15
HETATM   15  O   UNL     1      -8.164   6.558  73.998  1.00  0.00    -0.116 OA 
HETATM   16  C   UNL     1      -6.951   5.969  74.493  1.00  0.00    -0.090 C  
ENDBRANCH  13  15
ENDBRANCH  11  13
BRANCH  12  17
HETATM   17  C   UNL     1      -9.667   5.542  71.724  1.00  0.00    -0.202 A  
HETATM   18  O   UNL     1     -11.342   7.945  72.409  1.00  0.00    -0.314 OA 
HETATM   19  O   UNL     1     -12.944   6.621  71.707  1.00  0.00    -0.319 OA 
HETATM   20  C   UNL     1      -9.023   4.292  71.850  1.00  0.00    -0.152 A  
HETATM   21  C   UNL     1      -9.597   3.245  72.577  1.00  0.00    -0.189 A  
HETATM   22  C   UNL     1     -10.822   3.416  73.214  1.00  0.00    -0.287 A  
HETATM   23  C   UNL     1     -11.502   4.624  73.087  1.00  0.00    -0.317 A  
HETATM   24  C   UNL     1     -10.941   5.666  72.327  1.00  0.00    -0.258 A  
HETATM   25  N   UNL     1     -11.795   6.827  72.123  1.00  0.00    -0.300 N  
ENDBRANCH  12  17
ENDBRANCH   3   5
ENDBRANCH   2   3
TORSDOF 5
ENDMDL
MODEL      113
REMARK 921   NORMALIZED FREE ENERGY PREDICTED BY IDOCK:   -2.98 KCAL/MOL
REMARK 922        TOTAL FREE ENERGY PREDICTED BY IDOCK:   -5.08 KCAL/MOL
REMARK 923 INTER-LIGAND FREE ENERGY PREDICTED BY IDOCK:   -4.16 KCAL/MOL
REMARK 924 INTRA-LIGAND FREE ENERGY PREDICTED BY IDOCK:   -0.92 KCAL/MOL
REMARK 927      BINDING AFFINITY PREDICTED BY RF-SCORE:    0.00 PKD
ROOT
HETATM    1  C   UNL     1      -5.859   8.229  72.935  1.00  0.00    -0.064 C  
HETATM    2  O   UNL     1      -6.884   8.158  71.939  1.00  0.00    -0.064 OA 
ENDROOT
BRANCH   2   3
HETATM    3  C   UNL     1      -6.958   6.980  71.278  1.00  0.00    -0.061 C  
HETATM    4  O   UNL     1      -6.618   5.899  71.735  1.00  0.00    -0.051 OA 
BRANCH   3   5
HETATM    5  C   UNL     1      -7.494   7.181  69.904  1.00  0.00    -0.086 C  
HETATM    6  C   UNL     1      -6.785   7.942  69.034  1.00  0.00    -0.049 C  
HETATM    7  N   UNL     1      -7.140   7.976  67.701  1.00  0.00    -0.081 NA 
HETATM    8  C   UNL     1      -5.609   8.827  69.376  1.00  0.00    -0.035 C  
HETATM    9  C   UNL     1      -8.219   7.321  67.145  1.00  0.00    -0.118 C  
HETATM   10  C   UNL     1      -8.373   7.500  65.651  1.00  0.00    -0.144 C  
HETATM   11  C   UNL     1      -9.051   6.595  67.932  1.00  0.00    -0.114 C  
HETATM   12  C   UNL     1      -8.773   6.434  69.450  1.00  0.00    -0.129 C  
BRANCH  11  13
HETATM   13  C   UNL     1     -10.310   6.077  67.329  1.00  0.00    -0.223 C  
HETATM   14  O   UNL     1     -11.271   6.783  67.052  1.00  0.00    -0.393 OA 
BRANCH  13  15
HETATM   15  O   UNL     1     -10.280   4.735  67.170  1.00  0.00    -0.188 OA 
HETATM   16  C   UNL     1     -10.389   4.280  65.812  1.00  0.00    -0.153 C  
ENDBRANCH  13  15
ENDBRANCH  11  13
BRANCH  12  17
HETATM   17  C   UNL     1     -10.004   6.870  70.264  1.00  0.00    -0.189 A  
HETATM   18  O   UNL     1      -9.986   3.900  70.739  1.00  0.00    -0.179 OA 
HETATM   19  O   UNL     1     -10.045   4.564  72.829  1.00  0.00    -0.153 OA 
HETATM   20  C   UNL     1     -10.490   8.184  70.088  1.00  0.00    -0.225 A  
HETATM   21  C   UNL     1     -11.621   8.642  70.770  1.00  0.00    -0.273 A  
HETATM   22  C   UNL     1     -12.313   7.800  71.634  1.00  0.00    -0.348 A  
HETATM   23  C   UNL     1     -11.847   6.508  71.857  1.00  0.00    -0.381 A  
HETATM   24  C   UNL     1     -10.690   6.058  71.198  1.00  0.00    -0.264 A  
HETATM   25  N   UNL     1     -10.194   4.753  71.613  1.00  0.00    -0.195 N  
ENDBRANCH  12  17
ENDBRANCH   3   5
ENDBRANCH   2   3
TORSDOF 5
ENDMDL
MODEL      114
REMARK 921   NORMALIZED FREE ENERGY PREDICTED BY IDOCK:   -2.97 KCAL/MOL
REMARK 922        TOTAL FREE ENERGY PREDICTED BY IDOCK:   -5.06 KCAL/MOL
REMARK 923 INTER-LIGAND FREE ENERGY PREDICTED BY IDOCK:   -6.15 KCAL/MOL
REMARK 924 INTRA-LIGAND FREE ENERGY PREDICTED BY IDOCK:    1.09 KCAL/MOL
REMARK 927      BINDING AFFINITY PREDICTED BY RF-SCORE:    0.00 PKD
ROOT
HETATM    1  C   UNL     1     -10.475  12.312  65.920  1.00  0.00    -0.256 C  
HETATM    2  O   UNL     1     -10.076  13.610  66.372  1.00  0.00    -0.279 OA 
ENDROOT
BRANCH   2   3
HETATM    3  C   UNL     1     -11.087  14.404  66.791  1.00  0.00    -0.323 C  
HETATM    4  O   UNL     1     -12.155  14.005  67.230  1.00  0.00    -0.409 OA 
BRANCH   3   5
HETATM    5  C   UNL     1     -10.731  15.841  66.627  1.00  0.00    -0.287 C  
HETATM    6  C   UNL     1     -11.015  16.451  65.450  1.00  0.00    -0.160 C  
HETATM    7  N   UNL     1     -10.893  17.820  65.337  1.00  0.00    -0.491 NA 
HETATM    8  C   UNL     1     -11.442  15.767  64.171  1.00  0.00    -0.079 C  
HETATM    9  C   UNL     1     -10.449  18.667  66.330  1.00  0.00    -0.418 C  
HETATM   10  C   UNL     1     -10.435  20.134  65.959  1.00  0.00    -0.446 C  
HETATM   11  C   UNL     1     -10.056  18.163  67.526  1.00  0.00    -0.358 C  
HETATM   12  C   UNL     1     -10.158  16.642  67.822  1.00  0.00    -0.275 C  
BRANCH  11  13
HETATM   13  C   UNL     1      -9.394  19.083  68.492  1.00  0.00    -0.375 C  
HETATM   14  O   UNL     1      -9.971  19.605  69.436  1.00  0.00    -0.401 OA 
BRANCH  13  15
HETATM   15  O   UNL     1      -8.099  19.305  68.173  1.00  0.00    -0.291 OA 
HETATM   16  C   UNL     1      -7.224  19.519  69.292  1.00  0.00    -0.310 C  
ENDBRANCH  13  15
ENDBRANCH  11  13
BRANCH  12  17
HETATM   17  C   UNL     1      -8.791  16.097  68.270  1.00  0.00    -0.188 A  
HETATM   18  O   UNL     1      -8.320  16.580  65.338  1.00  0.00     0.277 OA 
HETATM   19  O   UNL     1      -6.619  17.715  66.133  1.00  0.00    -0.233 OA 
HETATM   20  C   UNL     1      -8.691  15.517  69.554  1.00  0.00    -0.223 A  
HETATM   21  C   UNL     1      -7.489  14.974  70.018  1.00  0.00     0.096 A  
HETATM   22  C   UNL     1      -6.356  14.975  69.211  1.00  0.00    -0.116 A  
HETATM   23  C   UNL     1      -6.407  15.565  67.951  1.00  0.00    -0.169 A  
HETATM   24  C   UNL     1      -7.606  16.142  67.498  1.00  0.00    -0.148 A  
HETATM   25  N   UNL     1      -7.519  16.870  66.239  1.00  0.00    -0.284 N  
ENDBRANCH  12  17
ENDBRANCH   3   5
ENDBRANCH   2   3
TORSDOF 5
ENDMDL
MODEL      115
REMARK 921   NORMALIZED FREE ENERGY PREDICTED BY IDOCK:   -2.95 KCAL/MOL
REMARK 922        TOTAL FREE ENERGY PREDICTED BY IDOCK:   -5.04 KCAL/MOL
REMARK 923 INTER-LIGAND FREE ENERGY PREDICTED BY IDOCK:   -3.73 KCAL/MOL
REMARK 924 INTRA-LIGAND FREE ENERGY PREDICTED BY IDOCK:   -1.31 KCAL/MOL
REMARK 927      BINDING AFFINITY PREDICTED BY RF-SCORE:    0.00 PKD
ROOT
HETATM    1  C   UNL     1     -11.669   6.564  70.844  1.00  0.00    -0.356 C  
HETATM    2  O   UNL     1     -11.398   5.931  69.590  1.00  0.00    -0.370 OA 
ENDROOT
BRANCH   2   3
HETATM    3  C   UNL     1     -10.157   5.409  69.470  1.00  0.00    -0.240 C  
HETATM    4  O   UNL     1      -9.691   4.539  70.190  1.00  0.00    -0.182 OA 
BRANCH   3   5
HETATM    5  C   UNL     1      -9.421   6.054  68.348  1.00  0.00    -0.124 C  
HETATM    6  C   UNL     1      -9.340   5.401  67.163  1.00  0.00    -0.117 C  
HETATM    7  N   UNL     1      -8.852   6.054  66.049  1.00  0.00    -0.152 NA 
HETATM    8  C   UNL     1      -9.711   3.958  66.912  1.00  0.00    -0.189 C  
HETATM    9  C   UNL     1      -8.376   7.347  66.026  1.00  0.00    -0.143 C  
HETATM   10  C   UNL     1      -7.924   7.836  64.667  1.00  0.00    -0.136 C  
HETATM   11  C   UNL     1      -8.330   8.073  67.169  1.00  0.00    -0.121 C  
HETATM   12  C   UNL     1      -8.867   7.493  68.505  1.00  0.00    -0.126 C  
BRANCH  11  13
HETATM   13  C   UNL     1      -7.623   9.384  67.140  1.00  0.00    -0.091 C  
HETATM   14  O   UNL     1      -8.197  10.464  67.104  1.00  0.00    -0.120 OA 
BRANCH  13  15
HETATM   15  O   UNL     1      -6.280   9.234  67.112  1.00  0.00    -0.057 OA 
HETATM   16  C   UNL     1      -5.529  10.392  67.509  1.00  0.00    -0.040 C  
ENDBRANCH  13  15
ENDBRANCH  11  13
BRANCH  12  17
HETATM   17  C   UNL     1      -7.780   7.568  69.591  1.00  0.00    -0.100 A  
HETATM   18  O   UNL     1      -9.522   9.912  70.315  1.00  0.00    -0.232 OA 
HETATM   19  O   UNL     1      -9.504   8.905  72.264  1.00  0.00    -0.327 OA 
HETATM   20  C   UNL     1      -6.628   6.765  69.440  1.00  0.00    -0.048 A  
HETATM   21  C   UNL     1      -5.586   6.802  70.371  1.00  0.00    -0.023 A  
HETATM   22  C   UNL     1      -5.651   7.651  71.471  1.00  0.00    -0.035 A  
HETATM   23  C   UNL     1      -6.784   8.435  71.670  1.00  0.00    -0.073 A  
HETATM   24  C   UNL     1      -7.847   8.373  70.753  1.00  0.00    -0.089 A  
HETATM   25  N   UNL     1      -9.048   9.106  71.129  1.00  0.00    -0.236 N  
ENDBRANCH  12  17
ENDBRANCH   3   5
ENDBRANCH   2   3
TORSDOF 5
ENDMDL
MODEL      116
REMARK 921   NORMALIZED FREE ENERGY PREDICTED BY IDOCK:   -2.92 KCAL/MOL
REMARK 922        TOTAL FREE ENERGY PREDICTED BY IDOCK:   -4.99 KCAL/MOL
REMARK 923 INTER-LIGAND FREE ENERGY PREDICTED BY IDOCK:   -4.04 KCAL/MOL
REMARK 924 INTRA-LIGAND FREE ENERGY PREDICTED BY IDOCK:   -0.96 KCAL/MOL
REMARK 927      BINDING AFFINITY PREDICTED BY RF-SCORE:    0.00 PKD
ROOT
HETATM    1  C   UNL     1      -8.194   8.753  65.469  1.00  0.00    -0.132 C  
HETATM    2  O   UNL     1      -8.733   8.416  66.751  1.00  0.00    -0.121 OA 
ENDROOT
BRANCH   2   3
HETATM    3  C   UNL     1      -7.860   7.835  67.604  1.00  0.00    -0.123 C  
HETATM    4  O   UNL     1      -6.761   7.401  67.292  1.00  0.00    -0.064 OA 
BRANCH   3   5
HETATM    5  C   UNL     1      -8.428   7.775  68.979  1.00  0.00    -0.132 C  
HETATM    6  C   UNL     1      -7.878   8.552  69.944  1.00  0.00    -0.096 C  
HETATM    7  N   UNL     1      -8.506   8.679  71.167  1.00  0.00    -0.155 NA 
HETATM    8  C   UNL     1      -6.575   9.311  69.844  1.00  0.00    -0.049 C  
HETATM    9  C   UNL     1      -9.664   8.032  71.541  1.00  0.00    -0.167 C  
HETATM   10  C   UNL     1     -10.162   8.366  72.930  1.00  0.00    -0.154 C  
HETATM   11  C   UNL     1     -10.261   7.163  70.688  1.00  0.00    -0.205 C  
HETATM   12  C   UNL     1      -9.695   6.929  69.261  1.00  0.00    -0.156 C  
BRANCH  11  13
HETATM   13  C   UNL     1     -11.388   6.336  71.204  1.00  0.00    -0.303 C  
HETATM   14  O   UNL     1     -11.251   5.441  72.027  1.00  0.00    -0.196 OA 
BRANCH  13  15
HETATM   15  O   UNL     1     -12.563   6.663  70.623  1.00  0.00    -0.223 OA 
HETATM   16  C   UNL     1     -13.478   7.386  71.461  1.00  0.00    -0.372 C  
ENDBRANCH  13  15
ENDBRANCH  11  13
BRANCH  12  17
HETATM   17  C   UNL     1      -9.441   5.430  69.031  1.00  0.00    -0.176 A  
HETATM   18  O   UNL     1     -11.308   6.082  66.764  1.00  0.00    -0.134 OA 
HETATM   19  O   UNL     1      -9.692   5.160  65.601  1.00  0.00    -0.143 OA 
HETATM   20  C   UNL     1      -8.794   4.697  70.050  1.00  0.00    -0.125 A  
HETATM   21  C   UNL     1      -8.555   3.326  69.925  1.00  0.00    -0.108 A  
HETATM   22  C   UNL     1      -8.969   2.638  68.789  1.00  0.00    -0.176 A  
HETATM   23  C   UNL     1      -9.582   3.331  67.749  1.00  0.00    -0.144 A  
HETATM   24  C   UNL     1      -9.791   4.717  67.860  1.00  0.00    -0.134 A  
HETATM   25  N   UNL     1     -10.294   5.377  66.663  1.00  0.00    -0.248 N  
ENDBRANCH  12  17
ENDBRANCH   3   5
ENDBRANCH   2   3
TORSDOF 5
ENDMDL
MODEL      117
REMARK 921   NORMALIZED FREE ENERGY PREDICTED BY IDOCK:   -2.90 KCAL/MOL
REMARK 922        TOTAL FREE ENERGY PREDICTED BY IDOCK:   -4.96 KCAL/MOL
REMARK 923 INTER-LIGAND FREE ENERGY PREDICTED BY IDOCK:   -3.72 KCAL/MOL
REMARK 924 INTRA-LIGAND FREE ENERGY PREDICTED BY IDOCK:   -1.24 KCAL/MOL
REMARK 927      BINDING AFFINITY PREDICTED BY RF-SCORE:    0.00 PKD
ROOT
HETATM    1  C   UNL     1     -11.541   1.701  73.664  1.00  0.00    -0.203 C  
HETATM    2  O   UNL     1     -10.972   2.413  72.562  1.00  0.00     0.015 OA 
ENDROOT
BRANCH   2   3
HETATM    3  C   UNL     1      -9.993   3.286  72.890  1.00  0.00    -0.145 C  
HETATM    4  O   UNL     1      -9.884   3.841  73.973  1.00  0.00    -0.106 OA 
BRANCH   3   5
HETATM    5  C   UNL     1      -9.071   3.500  71.741  1.00  0.00    -0.168 C  
HETATM    6  C   UNL     1      -8.025   2.653  71.580  1.00  0.00    -0.051 C  
HETATM    7  N   UNL     1      -7.280   2.691  70.419  1.00  0.00    -0.033 NA 
HETATM    8  C   UNL     1      -7.535   1.639  72.588  1.00  0.00    -0.035 C  
HETATM    9  C   UNL     1      -7.470   3.573  69.377  1.00  0.00    -0.048 C  
HETATM   10  C   UNL     1      -6.533   3.387  68.204  1.00  0.00    -0.037 C  
HETATM   11  C   UNL     1      -8.434   4.522  69.459  1.00  0.00    -0.093 C  
HETATM   12  C   UNL     1      -9.378   4.596  70.689  1.00  0.00    -0.220 C  
BRANCH  11  13
HETATM   13  C   UNL     1      -8.471   5.577  68.409  1.00  0.00    -0.101 C  
HETATM   14  O   UNL     1      -7.573   6.389  68.230  1.00  0.00    -0.099 OA 
BRANCH  13  15
HETATM   15  O   UNL     1      -9.629   5.558  67.712  1.00  0.00    -0.116 OA 
HETATM   16  C   UNL     1      -9.751   4.487  66.762  1.00  0.00    -0.206 C  
ENDBRANCH  13  15
ENDBRANCH  11  13
BRANCH  12  17
HETATM   17  C   UNL     1      -9.336   6.004  71.307  1.00  0.00    -0.170 A  
HETATM   18  O   UNL     1     -11.911   6.101  69.755  1.00  0.00    -0.219 OA 
HETATM   19  O   UNL     1     -12.685   6.731  71.709  1.00  0.00    -0.362 OA 
HETATM   20  C   UNL     1      -8.136   6.429  71.918  1.00  0.00    -0.109 A  
HETATM   21  C   UNL     1      -8.013   7.706  72.475  1.00  0.00    -0.131 A  
HETATM   22  C   UNL     1      -9.075   8.603  72.425  1.00  0.00    -0.228 A  
HETATM   23  C   UNL     1     -10.283   8.210  71.858  1.00  0.00    -0.289 A  
HETATM   24  C   UNL     1     -10.419   6.914  71.329  1.00  0.00    -0.208 A  
HETATM   25  N   UNL     1     -11.761   6.544  70.903  1.00  0.00    -0.363 N  
ENDBRANCH  12  17
ENDBRANCH   3   5
ENDBRANCH   2   3
TORSDOF 5
ENDMDL
MODEL      118
REMARK 921   NORMALIZED FREE ENERGY PREDICTED BY IDOCK:   -2.87 KCAL/MOL
REMARK 922        TOTAL FREE ENERGY PREDICTED BY IDOCK:   -4.93 KCAL/MOL
REMARK 923 INTER-LIGAND FREE ENERGY PREDICTED BY IDOCK:   -3.61 KCAL/MOL
REMARK 924 INTRA-LIGAND FREE ENERGY PREDICTED BY IDOCK:   -1.32 KCAL/MOL
REMARK 927      BINDING AFFINITY PREDICTED BY RF-SCORE:    0.00 PKD
ROOT
HETATM    1  C   UNL     1     -10.868   5.675  70.734  1.00  0.00    -0.224 C  
HETATM    2  O   UNL     1     -10.320   5.409  69.439  1.00  0.00    -0.242 OA 
ENDROOT
BRANCH   2   3
HETATM    3  C   UNL     1      -8.982   5.573  69.340  1.00  0.00    -0.106 C  
HETATM    4  O   UNL     1      -8.187   5.408  70.253  1.00  0.00    -0.097 OA 
BRANCH   3   5
HETATM    5  C   UNL     1      -8.605   6.006  67.966  1.00  0.00    -0.114 C  
HETATM    6  C   UNL     1      -8.162   5.072  67.089  1.00  0.00    -0.107 C  
HETATM    7  N   UNL     1      -8.006   5.397  65.757  1.00  0.00    -0.104 NA 
HETATM    8  C   UNL     1      -7.770   3.651  67.421  1.00  0.00    -0.078 C  
HETATM    9  C   UNL     1      -8.221   6.644  65.209  1.00  0.00    -0.133 C  
HETATM   10  C   UNL     1      -8.005   6.729  63.714  1.00  0.00    -0.065 C  
HETATM   11  C   UNL     1      -8.587   7.680  66.003  1.00  0.00    -0.165 C  
HETATM   12  C   UNL     1      -8.831   7.473  67.522  1.00  0.00    -0.127 C  
BRANCH  11  13
HETATM   13  C   UNL     1      -8.609   9.045  65.409  1.00  0.00    -0.177 C  
HETATM   14  O   UNL     1      -7.601   9.685  65.140  1.00  0.00    -0.106 OA 
BRANCH  13  15
HETATM   15  O   UNL     1      -9.869   9.506  65.244  1.00  0.00    -0.282 OA 
HETATM   16  C   UNL     1      -9.995  10.936  65.208  1.00  0.00    -0.273 C  
ENDBRANCH  13  15
ENDBRANCH  11  13
BRANCH  12  17
HETATM   17  C   UNL     1      -7.969   8.452  68.336  1.00  0.00    -0.118 A  
HETATM   18  O   UNL     1     -10.695   9.703  68.574  1.00  0.00    -0.219 OA 
HETATM   19  O   UNL     1     -10.199   9.596  70.709  1.00  0.00    -0.290 OA 
HETATM   20  C   UNL     1      -6.565   8.334  68.254  1.00  0.00    -0.060 A  
HETATM   21  C   UNL     1      -5.717   9.207  68.942  1.00  0.00    -0.040 A  
HETATM   22  C   UNL     1      -6.241  10.234  69.719  1.00  0.00    -0.060 A  
HETATM   23  C   UNL     1      -7.621  10.364  69.850  1.00  0.00    -0.112 A  
HETATM   24  C   UNL     1      -8.474   9.466  69.186  1.00  0.00    -0.134 A  
HETATM   25  N   UNL     1      -9.889   9.584  69.508  1.00  0.00    -0.182 N  
ENDBRANCH  12  17
ENDBRANCH   3   5
ENDBRANCH   2   3
TORSDOF 5
ENDMDL
MODEL      119
REMARK 921   NORMALIZED FREE ENERGY PREDICTED BY IDOCK:   -2.87 KCAL/MOL
REMARK 922        TOTAL FREE ENERGY PREDICTED BY IDOCK:   -4.93 KCAL/MOL
REMARK 923 INTER-LIGAND FREE ENERGY PREDICTED BY IDOCK:   -3.91 KCAL/MOL
REMARK 924 INTRA-LIGAND FREE ENERGY PREDICTED BY IDOCK:   -1.02 KCAL/MOL
REMARK 927      BINDING AFFINITY PREDICTED BY RF-SCORE:    0.00 PKD
ROOT
HETATM    1  C   UNL     1     -10.538   9.395  69.360  1.00  0.00    -0.221 C  
HETATM    2  O   UNL     1      -9.850   8.296  69.964  1.00  0.00    -0.179 OA 
ENDROOT
BRANCH   2   3
HETATM    3  C   UNL     1     -10.580   7.165  70.090  1.00  0.00    -0.230 C  
HETATM    4  O   UNL     1     -11.744   7.121  70.457  1.00  0.00    -0.306 OA 
BRANCH   3   5
HETATM    5  C   UNL     1      -9.764   5.970  69.740  1.00  0.00    -0.194 C  
HETATM    6  C   UNL     1      -9.818   5.494  68.472  1.00  0.00    -0.146 C  
HETATM    7  N   UNL     1      -8.924   4.527  68.060  1.00  0.00    -0.111 NA 
HETATM    8  C   UNL     1     -10.816   5.897  67.410  1.00  0.00    -0.341 C  
HETATM    9  C   UNL     1      -7.965   3.936  68.854  1.00  0.00    -0.059 C  
HETATM   10  C   UNL     1      -7.091   2.922  68.150  1.00  0.00    -0.049 C  
HETATM   11  C   UNL     1      -7.869   4.272  70.164  1.00  0.00    -0.052 C  
HETATM   12  C   UNL     1      -8.785   5.365  70.777  1.00  0.00    -0.139 C  
BRANCH  11  13
HETATM   13  C   UNL     1      -6.962   3.466  71.029  1.00  0.00    -0.033 C  
HETATM   14  O   UNL     1      -7.017   2.247  71.121  1.00  0.00    -0.031 OA 
BRANCH  13  15
HETATM   15  O   UNL     1      -6.107   4.245  71.729  1.00  0.00    -0.016 OA 
HETATM   16  C   UNL     1      -5.997   3.927  73.126  1.00  0.00    -0.011 C  
ENDBRANCH  13  15
ENDBRANCH  11  13
BRANCH  12  17
HETATM   17  C   UNL     1      -9.529   4.807  72.003  1.00  0.00    -0.186 A  
HETATM   18  O   UNL     1      -8.174   7.228  73.166  1.00  0.00    -0.102 OA 
HETATM   19  O   UNL     1     -10.228   7.668  73.801  1.00  0.00    -0.289 OA 
HETATM   20  C   UNL     1     -10.093   3.516  71.912  1.00  0.00    -0.168 A  
HETATM   21  C   UNL     1     -10.758   2.932  72.994  1.00  0.00    -0.222 A  
HETATM   22  C   UNL     1     -10.866   3.608  74.204  1.00  0.00    -0.215 A  
HETATM   23  C   UNL     1     -10.349   4.895  74.323  1.00  0.00    -0.317 A  
HETATM   24  C   UNL     1      -9.711   5.497  73.225  1.00  0.00    -0.150 A  
HETATM   25  N   UNL     1      -9.346   6.896  73.396  1.00  0.00    -0.143 N  
ENDBRANCH  12  17
ENDBRANCH   3   5
ENDBRANCH   2   3
TORSDOF 5
ENDMDL
MODEL      120
REMARK 921   NORMALIZED FREE ENERGY PREDICTED BY IDOCK:   -2.87 KCAL/MOL
REMARK 922        TOTAL FREE ENERGY PREDICTED BY IDOCK:   -4.93 KCAL/MOL
REMARK 923 INTER-LIGAND FREE ENERGY PREDICTED BY IDOCK:   -5.82 KCAL/MOL
REMARK 924 INTRA-LIGAND FREE ENERGY PREDICTED BY IDOCK:    0.89 KCAL/MOL
REMARK 927      BINDING AFFINITY PREDICTED BY RF-SCORE:    0.00 PKD
ROOT
HETATM    1  C   UNL     1      -6.837  16.215  67.334  1.00  0.00    -0.182 C  
HETATM    2  O   UNL     1      -8.237  16.361  67.592  1.00  0.00    -0.151 OA 
ENDROOT
BRANCH   2   3
HETATM    3  C   UNL     1      -8.775  15.403  68.379  1.00  0.00    -0.171 C  
HETATM    4  O   UNL     1      -8.498  15.226  69.556  1.00  0.00    -0.247 OA 
BRANCH   3   5
HETATM    5  C   UNL     1      -9.744  14.573  67.611  1.00  0.00    -0.215 C  
HETATM    6  C   UNL     1     -11.054  14.923  67.623  1.00  0.00    -0.311 C  
HETATM    7  N   UNL     1     -11.939  14.308  66.762  1.00  0.00    -0.431 NA 
HETATM    8  C   UNL     1     -11.697  15.938  68.539  1.00  0.00    -0.297 C  
HETATM    9  C   UNL     1     -11.623  13.296  65.880  1.00  0.00    -0.347 C  
HETATM   10  C   UNL     1     -12.773  12.813  65.025  1.00  0.00    -0.455 C  
HETATM   11  C   UNL     1     -10.360  12.805  65.836  1.00  0.00    -0.298 C  
HETATM   12  C   UNL     1      -9.238  13.408  66.724  1.00  0.00    -0.242 C  
BRANCH  11  13
HETATM   13  C   UNL     1     -10.112  11.582  65.023  1.00  0.00    -0.270 C  
HETATM   14  O   UNL     1      -9.620  11.601  63.902  1.00  0.00    -0.224 OA 
BRANCH  13  15
HETATM   15  O   UNL     1     -10.534  10.462  65.650  1.00  0.00    -0.214 OA 
HETATM   16  C   UNL     1      -9.579   9.390  65.692  1.00  0.00    -0.274 C  
ENDBRANCH  13  15
ENDBRANCH  11  13
BRANCH  12  17
HETATM   17  C   UNL     1      -8.573  12.303  67.562  1.00  0.00    -0.174 A  
HETATM   18  O   UNL     1     -11.200  12.645  68.987  1.00  0.00    -0.256 OA 
HETATM   19  O   UNL     1     -11.288  10.478  68.659  1.00  0.00    -0.263 OA 
HETATM   20  C   UNL     1      -7.204  12.033  67.346  1.00  0.00    -0.144 A  
HETATM   21  C   UNL     1      -6.524  11.064  68.090  1.00  0.00    -0.057 A  
HETATM   22  C   UNL     1      -7.183  10.346  69.083  1.00  0.00    -0.089 A  
HETATM   23  C   UNL     1      -8.540  10.562  69.304  1.00  0.00    -0.136 A  
HETATM   24  C   UNL     1      -9.232  11.512  68.532  1.00  0.00    -0.167 A  
HETATM   25  N   UNL     1     -10.675  11.553  68.728  1.00  0.00    -0.204 N  
ENDBRANCH  12  17
ENDBRANCH   3   5
ENDBRANCH   2   3
TORSDOF 5
ENDMDL
MODEL      121
REMARK 921   NORMALIZED FREE ENERGY PREDICTED BY IDOCK:   -2.83 KCAL/MOL
REMARK 922        TOTAL FREE ENERGY PREDICTED BY IDOCK:   -4.87 KCAL/MOL
REMARK 923 INTER-LIGAND FREE ENERGY PREDICTED BY IDOCK:   -5.88 KCAL/MOL
REMARK 924 INTRA-LIGAND FREE ENERGY PREDICTED BY IDOCK:    1.01 KCAL/MOL
REMARK 927      BINDING AFFINITY PREDICTED BY RF-SCORE:    0.00 PKD
ROOT
HETATM    1  C   UNL     1     -11.388   2.571  73.754  1.00  0.00    -0.161 C  
HETATM    2  O   UNL     1     -10.646   3.289  72.764  1.00  0.00    -0.152 OA 
ENDROOT
BRANCH   2   3
HETATM    3  C   UNL     1     -10.542   4.619  72.982  1.00  0.00    -0.213 C  
HETATM    4  O   UNL     1     -10.910   5.193  73.995  1.00  0.00    -0.291 OA 
BRANCH   3   5
HETATM    5  C   UNL     1      -9.932   5.299  71.805  1.00  0.00    -0.245 C  
HETATM    6  C   UNL     1      -8.582   5.316  71.691  1.00  0.00    -0.134 C  
HETATM    7  N   UNL     1      -7.994   5.748  70.520  1.00  0.00    -0.103 NA 
HETATM    8  C   UNL     1      -7.591   4.927  72.764  1.00  0.00    -0.092 C  
HETATM    9  C   UNL     1      -8.670   6.228  69.418  1.00  0.00    -0.128 C  
HETATM   10  C   UNL     1      -7.791   6.611  68.248  1.00  0.00    -0.110 C  
HETATM   11  C   UNL     1     -10.021   6.336  69.445  1.00  0.00    -0.192 C  
HETATM   12  C   UNL     1     -10.834   5.866  70.680  1.00  0.00    -0.363 C  
BRANCH  11  13
HETATM   13  C   UNL     1     -10.690   7.046  68.319  1.00  0.00    -0.182 C  
HETATM   14  O   UNL     1     -11.228   6.474  67.380  1.00  0.00    -0.359 OA 
BRANCH  13  15
HETATM   15  O   UNL     1     -10.591   8.388  68.438  1.00  0.00    -0.190 OA 
HETATM   16  C   UNL     1     -10.301   9.089  67.218  1.00  0.00    -0.273 C  
ENDBRANCH  13  15
ENDBRANCH  11  13
BRANCH  12  17
HETATM   17  C   UNL     1     -11.730   7.008  71.191  1.00  0.00    -0.366 A  
HETATM   18  O   UNL     1      -9.038   7.826  72.256  1.00  0.00    -0.131 OA 
HETATM   19  O   UNL     1      -9.558   9.688  71.218  1.00  0.00    -0.151 OA 
HETATM   20  C   UNL     1     -13.130   6.851  71.098  1.00  0.00    -0.202 A  
HETATM   21  C   UNL     1     -14.007   7.833  71.569  1.00  0.00    -0.468 A  
HETATM   22  C   UNL     1     -13.517   8.992  72.161  1.00  0.00    -0.514 A  
HETATM   23  C   UNL     1     -12.143   9.196  72.244  1.00  0.00    -0.311 A  
HETATM   24  C   UNL     1     -11.260   8.225  71.740  1.00  0.00    -0.283 A  
HETATM   25  N   UNL     1      -9.852   8.597  71.728  1.00  0.00    -0.267 N  
ENDBRANCH  12  17
ENDBRANCH   3   5
ENDBRANCH   2   3
TORSDOF 5
ENDMDL
MODEL      122
REMARK 921   NORMALIZED FREE ENERGY PREDICTED BY IDOCK:   -2.79 KCAL/MOL
REMARK 922        TOTAL FREE ENERGY PREDICTED BY IDOCK:   -4.82 KCAL/MOL
REMARK 923 INTER-LIGAND FREE ENERGY PREDICTED BY IDOCK:   -4.32 KCAL/MOL
REMARK 924 INTRA-LIGAND FREE ENERGY PREDICTED BY IDOCK:   -0.50 KCAL/MOL
REMARK 927      BINDING AFFINITY PREDICTED BY RF-SCORE:    0.00 PKD
ROOT
HETATM    1  C   UNL     1      -8.338   3.354  67.816  1.00  0.00    -0.085 C  
HETATM    2  O   UNL     1      -8.645   4.629  68.388  1.00  0.00    -0.096 OA 
ENDROOT
BRANCH   2   3
HETATM    3  C   UNL     1      -9.774   5.208  67.920  1.00  0.00    -0.145 C  
HETATM    4  O   UNL     1     -10.532   4.705  67.104  1.00  0.00    -0.099 OA 
BRANCH   3   5
HETATM    5  C   UNL     1      -9.961   6.558  68.520  1.00  0.00    -0.148 C  
HETATM    6  C   UNL     1     -10.043   7.630  67.695  1.00  0.00    -0.192 C  
HETATM    7  N   UNL     1     -10.423   8.858  68.197  1.00  0.00    -0.219 NA 
HETATM    8  C   UNL     1      -9.719   7.647  66.219  1.00  0.00    -0.126 C  
HETATM    9  C   UNL     1     -10.699   9.129  69.520  1.00  0.00    -0.215 C  
HETATM   10  C   UNL     1     -11.122  10.553  69.805  1.00  0.00    -0.354 C  
HETATM   11  C   UNL     1     -10.571   8.153  70.453  1.00  0.00    -0.226 C  
HETATM   12  C   UNL     1     -10.177   6.708  70.046  1.00  0.00    -0.215 C  
BRANCH  11  13
HETATM   13  C   UNL     1     -10.678   8.537  71.888  1.00  0.00    -0.324 C  
HETATM   14  O   UNL     1      -9.743   8.974  72.546  1.00  0.00    -0.144 OA 
BRANCH  13  15
HETATM   15  O   UNL     1     -11.914   8.304  72.383  1.00  0.00    -0.361 OA 
HETATM   16  C   UNL     1     -12.776   9.451  72.436  1.00  0.00    -0.278 C  
ENDBRANCH  13  15
ENDBRANCH  11  13
BRANCH  12  17
HETATM   17  C   UNL     1      -8.943   6.250  70.843  1.00  0.00    -0.147 A  
HETATM   18  O   UNL     1     -11.177   4.974  72.401  1.00  0.00    -0.159 OA 
HETATM   19  O   UNL     1      -9.951   3.185  72.064  1.00  0.00    -0.165 OA 
HETATM   20  C   UNL     1      -7.701   6.857  70.556  1.00  0.00    -0.096 A  
HETATM   21  C   UNL     1      -6.542   6.514  71.259  1.00  0.00    -0.051 A  
HETATM   22  C   UNL     1      -6.588   5.570  72.279  1.00  0.00    -0.058 A  
HETATM   23  C   UNL     1      -7.788   4.928  72.570  1.00  0.00    -0.093 A  
HETATM   24  C   UNL     1      -8.946   5.247  71.840  1.00  0.00    -0.135 A  
HETATM   25  N   UNL     1     -10.110   4.414  72.109  1.00  0.00    -0.191 N  
ENDBRANCH  12  17
ENDBRANCH   3   5
ENDBRANCH   2   3
TORSDOF 5
ENDMDL
MODEL      123
REMARK 921   NORMALIZED FREE ENERGY PREDICTED BY IDOCK:   -2.78 KCAL/MOL
REMARK 922        TOTAL FREE ENERGY PREDICTED BY IDOCK:   -4.81 KCAL/MOL
REMARK 923 INTER-LIGAND FREE ENERGY PREDICTED BY IDOCK:   -5.64 KCAL/MOL
REMARK 924 INTRA-LIGAND FREE ENERGY PREDICTED BY IDOCK:    0.82 KCAL/MOL
REMARK 927      BINDING AFFINITY PREDICTED BY RF-SCORE:    0.00 PKD
ROOT
HETATM    1  C   UNL     1     -11.737  13.417  69.139  1.00  0.00    -0.326 C  
HETATM    2  O   UNL     1     -10.722  12.442  68.884  1.00  0.00    -0.222 OA 
ENDROOT
BRANCH   2   3
HETATM    3  C   UNL     1     -11.176  11.186  68.672  1.00  0.00    -0.255 C  
HETATM    4  O   UNL     1     -12.351  10.853  68.700  1.00  0.00    -0.501 OA 
BRANCH   3   5
HETATM    5  C   UNL     1     -10.044  10.253  68.420  1.00  0.00    -0.178 C  
HETATM    6  C   UNL     1      -9.592  10.107  67.150  1.00  0.00    -0.169 C  
HETATM    7  N   UNL     1      -8.420   9.419  66.910  1.00  0.00    -0.126 NA 
HETATM    8  C   UNL     1     -10.273  10.609  65.898  1.00  0.00    -0.314 C  
HETATM    9  C   UNL     1      -7.649   8.797  67.869  1.00  0.00    -0.097 C  
HETATM   10  C   UNL     1      -6.393   8.134  67.347  1.00  0.00    -0.056 C  
HETATM   11  C   UNL     1      -8.043   8.805  69.166  1.00  0.00    -0.118 C  
HETATM   12  C   UNL     1      -9.326   9.560  69.606  1.00  0.00    -0.213 C  
BRANCH  11  13
HETATM   13  C   UNL     1      -7.294   7.953  70.132  1.00  0.00    -0.070 C  
HETATM   14  O   UNL     1      -6.479   8.391  70.933  1.00  0.00    -0.036 OA 
BRANCH  13  15
HETATM   15  O   UNL     1      -7.589   6.642  69.986  1.00  0.00    -0.095 OA 
HETATM   16  C   UNL     1      -7.834   5.932  71.210  1.00  0.00    -0.112 C  
ENDBRANCH  13  15
ENDBRANCH  11  13
BRANCH  12  17
HETATM   17  C   UNL     1     -10.269   8.609  70.362  1.00  0.00    -0.218 A  
HETATM   18  O   UNL     1     -10.740   7.784  67.508  1.00  0.00    -0.250 OA 
HETATM   19  O   UNL     1     -10.265   5.811  68.343  1.00  0.00    -0.160 OA 
HETATM   20  C   UNL     1     -10.513   8.859  71.730  1.00  0.00    -0.431 A  
HETATM   21  C   UNL     1     -11.381   8.055  72.476  1.00  0.00    -0.469 A  
HETATM   22  C   UNL     1     -12.045   6.989  71.878  1.00  0.00    -0.358 A  
HETATM   23  C   UNL     1     -11.806   6.693  70.539  1.00  0.00    -0.430 A  
HETATM   24  C   UNL     1     -10.908   7.479  69.798  1.00  0.00    -0.225 A  
HETATM   25  N   UNL     1     -10.605   6.998  68.457  1.00  0.00    -0.206 N  
ENDBRANCH  12  17
ENDBRANCH   3   5
ENDBRANCH   2   3
TORSDOF 5
ENDMDL
MODEL      124
REMARK 921   NORMALIZED FREE ENERGY PREDICTED BY IDOCK:   -2.75 KCAL/MOL
REMARK 922        TOTAL FREE ENERGY PREDICTED BY IDOCK:   -4.77 KCAL/MOL
REMARK 923 INTER-LIGAND FREE ENERGY PREDICTED BY IDOCK:   -3.48 KCAL/MOL
REMARK 924 INTRA-LIGAND FREE ENERGY PREDICTED BY IDOCK:   -1.30 KCAL/MOL
REMARK 927      BINDING AFFINITY PREDICTED BY RF-SCORE:    0.00 PKD
ROOT
HETATM    1  C   UNL     1      -8.940   8.770  71.365  1.00  0.00    -0.238 C  
HETATM    2  O   UNL     1      -9.082   7.536  70.655  1.00  0.00    -0.154 OA 
ENDROOT
BRANCH   2   3
HETATM    3  C   UNL     1     -10.034   7.536  69.695  1.00  0.00    -0.184 C  
HETATM    4  O   UNL     1     -11.212   7.804  69.877  1.00  0.00    -0.190 OA 
BRANCH   3   5
HETATM    5  C   UNL     1      -9.455   7.143  68.380  1.00  0.00    -0.138 C  
HETATM    6  C   UNL     1      -9.313   5.824  68.100  1.00  0.00    -0.109 C  
HETATM    7  N   UNL     1      -8.981   5.423  66.822  1.00  0.00    -0.112 NA 
HETATM    8  C   UNL     1      -9.454   4.683  69.082  1.00  0.00    -0.224 C  
HETATM    9  C   UNL     1      -8.723   6.266  65.763  1.00  0.00    -0.139 C  
HETATM   10  C   UNL     1      -8.408   5.571  64.456  1.00  0.00    -0.127 C  
HETATM   11  C   UNL     1      -8.753   7.610  65.942  1.00  0.00    -0.176 C  
HETATM   12  C   UNL     1      -9.137   8.222  67.315  1.00  0.00    -0.157 C  
BRANCH  11  13
HETATM   13  C   UNL     1      -8.270   8.476  64.831  1.00  0.00    -0.165 C  
HETATM   14  O   UNL     1      -7.091   8.588  64.520  1.00  0.00    -0.076 OA 
BRANCH  13  15
HETATM   15  O   UNL     1      -9.280   9.154  64.242  1.00  0.00    -0.059 OA 
HETATM   16  C   UNL     1      -8.876  10.277  63.444  1.00  0.00    -0.221 C  
ENDBRANCH  13  15
ENDBRANCH  11  13
BRANCH  12  17
HETATM   17  C   UNL     1      -8.037   9.185  67.794  1.00  0.00    -0.105 A  
HETATM   18  O   UNL     1     -10.036  11.093  66.603  1.00  0.00    -0.197 OA 
HETATM   19  O   UNL     1      -9.836  12.023  68.580  1.00  0.00    -0.209 OA 
HETATM   20  C   UNL     1      -6.799   8.639  68.196  1.00  0.00    -0.069 A  
HETATM   21  C   UNL     1      -5.743   9.453  68.614  1.00  0.00    -0.040 A  
HETATM   22  C   UNL     1      -5.881  10.837  68.628  1.00  0.00    -0.039 A  
HETATM   23  C   UNL     1      -7.097  11.412  68.268  1.00  0.00    -0.078 A  
HETATM   24  C   UNL     1      -8.170  10.592  67.880  1.00  0.00    -0.107 A  
HETATM   25  N   UNL     1      -9.442  11.272  67.676  1.00  0.00    -0.165 N  
ENDBRANCH  12  17
ENDBRANCH   3   5
ENDBRANCH   2   3
TORSDOF 5
ENDMDL
MODEL      125
REMARK 921   NORMALIZED FREE ENERGY PREDICTED BY IDOCK:   -2.73 KCAL/MOL
REMARK 922        TOTAL FREE ENERGY PREDICTED BY IDOCK:   -4.74 KCAL/MOL
REMARK 923 INTER-LIGAND FREE ENERGY PREDICTED BY IDOCK:   -5.46 KCAL/MOL
REMARK 924 INTRA-LIGAND FREE ENERGY PREDICTED BY IDOCK:    0.71 KCAL/MOL
REMARK 927      BINDING AFFINITY PREDICTED BY RF-SCORE:    0.00 PKD
ROOT
HETATM    1  C   UNL     1      -6.249   6.605  70.879  1.00  0.00    -0.039 C  
HETATM    2  O   UNL     1      -7.393   6.831  71.707  1.00  0.00    -0.083 OA 
ENDROOT
BRANCH   2   3
HETATM    3  C   UNL     1      -7.609   8.123  72.043  1.00  0.00    -0.106 C  
HETATM    4  O   UNL     1      -6.814   8.833  72.642  1.00  0.00    -0.274 OA 
BRANCH   3   5
HETATM    5  C   UNL     1      -8.961   8.564  71.602  1.00  0.00    -0.285 C  
HETATM    6  C   UNL     1     -10.028   8.270  72.384  1.00  0.00    -0.309 C  
HETATM    7  N   UNL     1     -11.256   8.839  72.116  1.00  0.00    -0.362 NA 
HETATM    8  C   UNL     1     -10.039   7.319  73.558  1.00  0.00    -0.387 C  
HETATM    9  C   UNL     1     -11.533   9.680  71.058  1.00  0.00    -0.371 C  
HETATM   10  C   UNL     1     -12.956  10.191  71.005  1.00  0.00    -0.473 C  
HETATM   11  C   UNL     1     -10.563   9.980  70.159  1.00  0.00    -0.350 C  
HETATM   12  C   UNL     1      -9.118   9.442  70.335  1.00  0.00    -0.302 C  
BRANCH  11  13
HETATM   13  C   UNL     1     -10.954  10.721  68.928  1.00  0.00    -0.241 C  
HETATM   14  O   UNL     1     -11.513  10.200  67.971  1.00  0.00    -0.256 OA 
BRANCH  13  15
HETATM   15  O   UNL     1     -10.579  12.018  68.976  1.00  0.00    -0.190 OA 
HETATM   16  C   UNL     1     -11.659  12.966  68.980  1.00  0.00    -0.322 C  
ENDBRANCH  13  15
ENDBRANCH  11  13
BRANCH  12  17
HETATM   17  C   UNL     1      -8.673   8.694  69.066  1.00  0.00    -0.134 A  
HETATM   18  O   UNL     1     -10.560   6.708  70.310  1.00  0.00    -0.204 OA 
HETATM   19  O   UNL     1     -11.460   6.805  68.311  1.00  0.00    -0.039 OA 
HETATM   20  C   UNL     1      -7.583   9.212  68.333  1.00  0.00    -0.083 A  
HETATM   21  C   UNL     1      -7.103   8.570  67.187  1.00  0.00    -0.076 A  
HETATM   22  C   UNL     1      -7.684   7.386  66.746  1.00  0.00    -0.109 A  
HETATM   23  C   UNL     1      -8.780   6.861  67.425  1.00  0.00    -0.119 A  
HETATM   24  C   UNL     1      -9.284   7.523  68.557  1.00  0.00    -0.143 A  
HETATM   25  N   UNL     1     -10.523   6.986  69.103  1.00  0.00    -0.201 N  
ENDBRANCH  12  17
ENDBRANCH   3   5
ENDBRANCH   2   3
TORSDOF 5
ENDMDL
MODEL      126
REMARK 921   NORMALIZED FREE ENERGY PREDICTED BY IDOCK:   -2.71 KCAL/MOL
REMARK 922        TOTAL FREE ENERGY PREDICTED BY IDOCK:   -4.72 KCAL/MOL
REMARK 923 INTER-LIGAND FREE ENERGY PREDICTED BY IDOCK:   -5.46 KCAL/MOL
REMARK 924 INTRA-LIGAND FREE ENERGY PREDICTED BY IDOCK:    0.74 KCAL/MOL
REMARK 927      BINDING AFFINITY PREDICTED BY RF-SCORE:    0.00 PKD
ROOT
HETATM    1  C   UNL     1     -12.678   9.856  71.809  1.00  0.00    -0.428 C  
HETATM    2  O   UNL     1     -11.989   8.622  72.030  1.00  0.00    -0.323 OA 
ENDROOT
BRANCH   2   3
HETATM    3  C   UNL     1     -12.561   7.538  71.459  1.00  0.00    -0.355 C  
HETATM    4  O   UNL     1     -13.758   7.291  71.471  1.00  0.00    -0.390 OA 
BRANCH   3   5
HETATM    5  C   UNL     1     -11.530   6.669  70.828  1.00  0.00    -0.407 C  
HETATM    6  C   UNL     1     -11.073   5.595  71.518  1.00  0.00    -0.165 C  
HETATM    7  N   UNL     1     -10.281   4.658  70.887  1.00  0.00    -0.186 NA 
HETATM    8  C   UNL     1     -11.317   5.306  72.981  1.00  0.00    -0.376 C  
HETATM    9  C   UNL     1      -9.850   4.726  69.579  1.00  0.00    -0.222 C  
HETATM   10  C   UNL     1      -9.013   3.553  69.121  1.00  0.00    -0.179 C  
HETATM   11  C   UNL     1     -10.175   5.797  68.813  1.00  0.00    -0.255 C  
HETATM   12  C   UNL     1     -11.084   6.927  69.366  1.00  0.00    -0.249 C  
BRANCH  11  13
HETATM   13  C   UNL     1      -9.522   5.929  67.481  1.00  0.00    -0.110 C  
HETATM   14  O   UNL     1      -8.386   6.356  67.321  1.00  0.00    -0.112 OA 
BRANCH  13  15
HETATM   15  O   UNL     1     -10.348   5.566  66.475  1.00  0.00    -0.222 OA 
HETATM   16  C   UNL     1      -9.750   4.740  65.463  1.00  0.00    -0.152 C  
ENDBRANCH  13  15
ENDBRANCH  11  13
BRANCH  12  17
HETATM   17  C   UNL     1     -10.387   8.290  69.217  1.00  0.00    -0.223 A  
HETATM   18  O   UNL     1      -8.892   7.096  71.539  1.00  0.00    -0.127 OA 
HETATM   19  O   UNL     1      -7.175   7.590  70.265  1.00  0.00    -0.062 OA 
HETATM   20  C   UNL     1     -10.979   9.255  68.373  1.00  0.00    -0.038 A  
HETATM   21  C   UNL     1     -10.419  10.525  68.211  1.00  0.00    -0.211 A  
HETATM   22  C   UNL     1      -9.262  10.879  68.897  1.00  0.00    -0.168 A  
HETATM   23  C   UNL     1      -8.632   9.945  69.714  1.00  0.00    -0.219 A  
HETATM   24  C   UNL     1      -9.176   8.656  69.851  1.00  0.00    -0.155 A  
HETATM   25  N   UNL     1      -8.364   7.705  70.597  1.00  0.00    -0.123 N  
ENDBRANCH  12  17
ENDBRANCH   3   5
ENDBRANCH   2   3
TORSDOF 5
ENDMDL
MODEL      127
REMARK 921   NORMALIZED FREE ENERGY PREDICTED BY IDOCK:   -2.67 KCAL/MOL
REMARK 922        TOTAL FREE ENERGY PREDICTED BY IDOCK:   -4.67 KCAL/MOL
REMARK 923 INTER-LIGAND FREE ENERGY PREDICTED BY IDOCK:   -5.78 KCAL/MOL
REMARK 924 INTRA-LIGAND FREE ENERGY PREDICTED BY IDOCK:    1.11 KCAL/MOL
REMARK 927      BINDING AFFINITY PREDICTED BY RF-SCORE:    0.00 PKD
ROOT
HETATM    1  C   UNL     1     -12.483  15.099  63.842  1.00  0.00     0.313 C  
HETATM    2  O   UNL     1     -12.473  13.883  64.595  1.00  0.00    -0.560 OA 
ENDROOT
BRANCH   2   3
HETATM    3  C   UNL     1     -11.265  13.525  65.086  1.00  0.00    -0.309 C  
HETATM    4  O   UNL     1     -10.271  13.308  64.409  1.00  0.00    -0.392 OA 
BRANCH   3   5
HETATM    5  C   UNL     1     -11.313  13.410  66.570  1.00  0.00    -0.346 C  
HETATM    6  C   UNL     1     -11.306  14.545  67.311  1.00  0.00    -0.350 C  
HETATM    7  N   UNL     1     -11.559  14.484  68.666  1.00  0.00    -0.298 NA 
HETATM    8  C   UNL     1     -11.006  15.937  66.806  1.00  0.00    -0.151 C  
HETATM    9  C   UNL     1     -11.786  13.330  69.385  1.00  0.00    -0.325 C  
HETATM   10  C   UNL     1     -12.067  13.540  70.856  1.00  0.00    -0.301 C  
HETATM   11  C   UNL     1     -11.736  12.125  68.766  1.00  0.00    -0.374 C  
HETATM   12  C   UNL     1     -11.489  12.023  67.237  1.00  0.00    -0.403 C  
BRANCH  11  13
HETATM   13  C   UNL     1     -11.783  10.900  69.612  1.00  0.00    -0.331 C  
HETATM   14  O   UNL     1     -10.789  10.360  70.081  1.00  0.00    -0.283 OA 
BRANCH  13  15
HETATM   15  O   UNL     1     -13.043  10.435  69.761  1.00  0.00    -0.015 OA 
HETATM   16  C   UNL     1     -13.391  10.032  71.096  1.00  0.00    -0.305 C  
ENDBRANCH  13  15
ENDBRANCH  11  13
BRANCH  12  17
HETATM   17  C   UNL     1     -10.291  11.100  66.954  1.00  0.00    -0.272 A  
HETATM   18  O   UNL     1      -8.914  13.649  67.764  1.00  0.00    -0.176 OA 
HETATM   19  O   UNL     1      -7.916  12.282  69.160  1.00  0.00     0.156 OA 
HETATM   20  C   UNL     1     -10.533   9.870  66.305  1.00  0.00    -0.171 A  
HETATM   21  C   UNL     1      -9.491   8.993  65.989  1.00  0.00    -0.323 A  
HETATM   22  C   UNL     1      -8.175   9.323  66.293  1.00  0.00    -0.107 A  
HETATM   23  C   UNL     1      -7.899  10.513  66.960  1.00  0.00    -0.114 A  
HETATM   24  C   UNL     1      -8.949  11.379  67.309  1.00  0.00    -0.159 A  
HETATM   25  N   UNL     1      -8.579  12.516  68.140  1.00  0.00    -0.184 N  
ENDBRANCH  12  17
ENDBRANCH   3   5
ENDBRANCH   2   3
TORSDOF 5
ENDMDL
MODEL      128
REMARK 921   NORMALIZED FREE ENERGY PREDICTED BY IDOCK:   -2.66 KCAL/MOL
REMARK 922        TOTAL FREE ENERGY PREDICTED BY IDOCK:   -4.65 KCAL/MOL
REMARK 923 INTER-LIGAND FREE ENERGY PREDICTED BY IDOCK:   -5.82 KCAL/MOL
REMARK 924 INTRA-LIGAND FREE ENERGY PREDICTED BY IDOCK:    1.17 KCAL/MOL
REMARK 927      BINDING AFFINITY PREDICTED BY RF-SCORE:    0.00 PKD
ROOT
HETATM    1  C   UNL     1     -11.001  16.887  69.663  1.00  0.00    -0.001 C  
HETATM    2  O   UNL     1     -11.953  15.938  69.172  1.00  0.00    -0.380 OA 
ENDROOT
BRANCH   2   3
HETATM    3  C   UNL     1     -12.735  15.373  70.119  1.00  0.00    -0.227 C  
HETATM    4  O   UNL     1     -13.620  15.950  70.731  1.00  0.00    -0.346 OA 
BRANCH   3   5
HETATM    5  C   UNL     1     -12.359  13.948  70.331  1.00  0.00    -0.433 C  
HETATM    6  C   UNL     1     -12.472  13.424  71.576  1.00  0.00    -0.154 C  
HETATM    7  N   UNL     1     -12.335  12.064  71.766  1.00  0.00     0.175 NA 
HETATM    8  C   UNL     1     -12.711  14.198  72.851  1.00  0.00    -0.347 C  
HETATM    9  C   UNL     1     -12.038  11.146  70.781  1.00  0.00    -0.357 C  
HETATM   10  C   UNL     1     -11.971   9.709  71.248  1.00  0.00    -0.462 C  
HETATM   11  C   UNL     1     -11.821  11.562  69.509  1.00  0.00    -0.419 C  
HETATM   12  C   UNL     1     -11.964  13.059  69.125  1.00  0.00    -0.320 C  
BRANCH  11  13
HETATM   13  C   UNL     1     -11.304  10.570  68.526  1.00  0.00    -0.257 C  
HETATM   14  O   UNL     1     -11.771  10.419  67.405  1.00  0.00    -0.177 OA 
BRANCH  13  15
HETATM   15  O   UNL     1     -10.293   9.832  69.035  1.00  0.00    -0.190 OA 
HETATM   16  C   UNL     1      -9.136  10.581  69.441  1.00  0.00    -0.104 C  
ENDBRANCH  13  15
ENDBRANCH  11  13
BRANCH  12  17
HETATM   17  C   UNL     1     -10.675  13.559  68.449  1.00  0.00    -0.273 A  
HETATM   18  O   UNL     1     -12.385  12.885  66.068  1.00  0.00    -0.504 OA 
HETATM   19  O   UNL     1     -11.870  14.948  65.525  1.00  0.00    -0.279 OA 
HETATM   20  C   UNL     1      -9.528  13.742  69.252  1.00  0.00     0.501 A  
HETATM   21  C   UNL     1      -8.314  14.165  68.703  1.00  0.00    -0.123 A  
HETATM   22  C   UNL     1      -8.200  14.402  67.337  1.00  0.00    -0.215 A  
HETATM   23  C   UNL     1      -9.317  14.262  66.519  1.00  0.00    -0.292 A  
HETATM   24  C   UNL     1     -10.547  13.870  67.075  1.00  0.00    -0.279 A  
HETATM   25  N   UNL     1     -11.688  13.905  66.170  1.00  0.00    -0.359 N  
ENDBRANCH  12  17
ENDBRANCH   3   5
ENDBRANCH   2   3
TORSDOF 5
ENDMDL
MODEL      129
REMARK 921   NORMALIZED FREE ENERGY PREDICTED BY IDOCK:   -2.64 KCAL/MOL
REMARK 922        TOTAL FREE ENERGY PREDICTED BY IDOCK:   -4.64 KCAL/MOL
REMARK 923 INTER-LIGAND FREE ENERGY PREDICTED BY IDOCK:   -3.61 KCAL/MOL
REMARK 924 INTRA-LIGAND FREE ENERGY PREDICTED BY IDOCK:   -1.02 KCAL/MOL
REMARK 927      BINDING AFFINITY PREDICTED BY RF-SCORE:    0.00 PKD
ROOT
HETATM    1  C   UNL     1     -11.058   3.560  73.422  1.00  0.00    -0.191 C  
HETATM    2  O   UNL     1     -10.165   3.932  72.369  1.00  0.00    -0.171 OA 
ENDROOT
BRANCH   2   3
HETATM    3  C   UNL     1      -9.769   5.225  72.385  1.00  0.00    -0.152 C  
HETATM    4  O   UNL     1      -9.382   5.826  73.376  1.00  0.00    -0.135 OA 
BRANCH   3   5
HETATM    5  C   UNL     1      -9.889   5.830  71.029  1.00  0.00    -0.227 C  
HETATM    6  C   UNL     1     -10.985   6.575  70.744  1.00  0.00    -0.276 C  
HETATM    7  N   UNL     1     -11.030   7.318  69.582  1.00  0.00    -0.219 NA 
HETATM    8  C   UNL     1     -12.242   6.669  71.579  1.00  0.00    -0.391 C  
HETATM    9  C   UNL     1     -10.048   7.346  68.615  1.00  0.00    -0.179 C  
HETATM   10  C   UNL     1     -10.330   8.266  67.447  1.00  0.00    -0.350 C  
HETATM   11  C   UNL     1      -8.940   6.577  68.750  1.00  0.00    -0.124 C  
HETATM   12  C   UNL     1      -8.725   5.704  70.015  1.00  0.00    -0.132 C  
BRANCH  11  13
HETATM   13  C   UNL     1      -8.007   6.481  67.593  1.00  0.00    -0.114 C  
HETATM   14  O   UNL     1      -8.351   6.138  66.470  1.00  0.00    -0.109 OA 
BRANCH  13  15
HETATM   15  O   UNL     1      -6.735   6.776  67.943  1.00  0.00    -0.062 OA 
HETATM   16  C   UNL     1      -5.723   6.049  67.229  1.00  0.00    -0.016 C  
ENDBRANCH  13  15
ENDBRANCH  11  13
BRANCH  12  17
HETATM   17  C   UNL     1      -8.477   4.239  69.614  1.00  0.00    -0.091 A  
HETATM   18  O   UNL     1      -5.905   4.926  71.014  1.00  0.00    -0.015 OA 
HETATM   19  O   UNL     1      -6.421   3.120  72.148  1.00  0.00    -0.014 OA 
HETATM   20  C   UNL     1      -9.377   3.633  68.710  1.00  0.00    -0.231 A  
HETATM   21  C   UNL     1      -9.200   2.316  68.277  1.00  0.00    -0.243 A  
HETATM   22  C   UNL     1      -8.113   1.568  68.716  1.00  0.00    -0.060 A  
HETATM   23  C   UNL     1      -7.221   2.121  69.631  1.00  0.00    -0.039 A  
HETATM   24  C   UNL     1      -7.418   3.434  70.094  1.00  0.00    -0.044 A  
HETATM   25  N   UNL     1      -6.528   3.865  71.163  1.00  0.00    -0.025 N  
ENDBRANCH  12  17
ENDBRANCH   3   5
ENDBRANCH   2   3
TORSDOF 5
ENDMDL
MODEL      130
REMARK 921   NORMALIZED FREE ENERGY PREDICTED BY IDOCK:   -2.64 KCAL/MOL
REMARK 922        TOTAL FREE ENERGY PREDICTED BY IDOCK:   -4.63 KCAL/MOL
REMARK 923 INTER-LIGAND FREE ENERGY PREDICTED BY IDOCK:   -3.48 KCAL/MOL
REMARK 924 INTRA-LIGAND FREE ENERGY PREDICTED BY IDOCK:   -1.15 KCAL/MOL
REMARK 927      BINDING AFFINITY PREDICTED BY RF-SCORE:    0.00 PKD
ROOT
HETATM    1  C   UNL     1      -8.190   3.962  73.515  1.00  0.00    -0.088 C  
HETATM    2  O   UNL     1      -8.342   4.285  72.130  1.00  0.00    -0.099 OA 
ENDROOT
BRANCH   2   3
HETATM    3  C   UNL     1      -9.304   5.195  71.857  1.00  0.00    -0.142 C  
HETATM    4  O   UNL     1     -10.504   5.002  71.979  1.00  0.00    -0.212 OA 
BRANCH   3   5
HETATM    5  C   UNL     1      -8.704   6.465  71.364  1.00  0.00    -0.131 C  
HETATM    6  C   UNL     1      -8.659   7.531  72.201  1.00  0.00    -0.114 C  
HETATM    7  N   UNL     1      -7.928   8.649  71.855  1.00  0.00    -0.270 NA 
HETATM    8  C   UNL     1      -9.380   7.658  73.523  1.00  0.00    -0.339 C  
HETATM    9  C   UNL     1      -7.241   8.818  70.671  1.00  0.00    -0.066 C  
HETATM   10  C   UNL     1      -6.494  10.128  70.550  1.00  0.00    -0.116 C  
HETATM   11  C   UNL     1      -7.280   7.853  69.720  1.00  0.00    -0.066 C  
HETATM   12  C   UNL     1      -8.038   6.521  69.966  1.00  0.00    -0.121 C  
BRANCH  11  13
HETATM   13  C   UNL     1      -6.699   8.161  68.384  1.00  0.00    -0.064 C  
HETATM   14  O   UNL     1      -7.278   8.813  67.526  1.00  0.00    -0.079 OA 
BRANCH  13  15
HETATM   15  O   UNL     1      -5.481   7.599  68.220  1.00  0.00    -0.025 OA 
HETATM   16  C   UNL     1      -5.412   6.576  67.214  1.00  0.00    -0.012 C  
ENDBRANCH  13  15
ENDBRANCH  11  13
BRANCH  12  17
HETATM   17  C   UNL     1      -9.058   6.275  68.841  1.00  0.00    -0.124 A  
HETATM   18  O   UNL     1      -7.180   3.954  68.473  1.00  0.00    -0.054 OA 
HETATM   19  O   UNL     1      -9.063   2.834  68.593  1.00  0.00    -0.125 OA 
HETATM   20  C   UNL     1      -9.974   7.305  68.533  1.00  0.00    -0.168 A  
HETATM   21  C   UNL     1     -10.910   7.165  67.504  1.00  0.00    -0.311 A  
HETATM   22  C   UNL     1     -10.951   6.004  66.740  1.00  0.00    -0.305 A  
HETATM   23  C   UNL     1     -10.085   4.954  67.034  1.00  0.00    -0.243 A  
HETATM   24  C   UNL     1      -9.167   5.081  68.090  1.00  0.00    -0.120 A  
HETATM   25  N   UNL     1      -8.416   3.877  68.420  1.00  0.00    -0.090 N  
ENDBRANCH  12  17
ENDBRANCH   3   5
ENDBRANCH   2   3
TORSDOF 5
ENDMDL
MODEL      131
REMARK 921   NORMALIZED FREE ENERGY PREDICTED BY IDOCK:   -2.58 KCAL/MOL
REMARK 922        TOTAL FREE ENERGY PREDICTED BY IDOCK:   -4.55 KCAL/MOL
REMARK 923 INTER-LIGAND FREE ENERGY PREDICTED BY IDOCK:   -3.63 KCAL/MOL
REMARK 924 INTRA-LIGAND FREE ENERGY PREDICTED BY IDOCK:   -0.92 KCAL/MOL
REMARK 927      BINDING AFFINITY PREDICTED BY RF-SCORE:    0.00 PKD
ROOT
HETATM    1  C   UNL     1     -10.408   4.723  65.786  1.00  0.00    -0.237 C  
HETATM    2  O   UNL     1     -10.076   5.382  67.011  1.00  0.00    -0.161 OA 
ENDROOT
BRANCH   2   3
HETATM    3  C   UNL     1      -8.765   5.350  67.341  1.00  0.00    -0.107 C  
HETATM    4  O   UNL     1      -7.857   5.072  66.572  1.00  0.00    -0.098 OA 
BRANCH   3   5
HETATM    5  C   UNL     1      -8.575   5.682  68.780  1.00  0.00    -0.104 C  
HETATM    6  C   UNL     1      -8.736   4.699  69.700  1.00  0.00    -0.081 C  
HETATM    7  N   UNL     1      -8.366   4.917  71.011  1.00  0.00    -0.106 NA 
HETATM    8  C   UNL     1      -9.334   3.334  69.452  1.00  0.00    -0.232 C  
HETATM    9  C   UNL     1      -7.868   6.099  71.515  1.00  0.00    -0.102 C  
HETATM   10  C   UNL     1      -7.511   6.067  72.985  1.00  0.00    -0.094 C  
HETATM   11  C   UNL     1      -7.739   7.180  70.706  1.00  0.00    -0.094 C  
HETATM   12  C   UNL     1      -8.087   7.092  69.196  1.00  0.00    -0.121 C  
BRANCH  11  13
HETATM   13  C   UNL     1      -7.393   8.487  71.332  1.00  0.00    -0.095 C  
HETATM   14  O   UNL     1      -8.067   9.022  72.202  1.00  0.00    -0.359 OA 
BRANCH  13  15
HETATM   15  O   UNL     1      -6.277   9.026  70.794  1.00  0.00    -0.037 OA 
HETATM   16  C   UNL     1      -6.444  10.335  70.228  1.00  0.00    -0.137 C  
ENDBRANCH  13  15
ENDBRANCH  11  13
BRANCH  12  17
HETATM   17  C   UNL     1      -9.109   8.180  68.823  1.00  0.00    -0.144 A  
HETATM   18  O   UNL     1      -6.927   8.682  66.813  1.00  0.00    -0.074 OA 
HETATM   19  O   UNL     1      -8.617   8.513  65.424  1.00  0.00    -0.168 OA 
HETATM   20  C   UNL     1     -10.179   8.425  69.711  1.00  0.00    -0.207 A  
HETATM   21  C   UNL     1     -11.129   9.418  69.453  1.00  0.00    -0.098 A  
HETATM   22  C   UNL     1     -11.032  10.208  68.313  1.00  0.00    -0.299 A  
HETATM   23  C   UNL     1     -10.009   9.976  67.398  1.00  0.00    -0.242 A  
HETATM   24  C   UNL     1      -9.073   8.955  67.639  1.00  0.00    -0.134 A  
HETATM   25  N   UNL     1      -8.140   8.686  66.555  1.00  0.00    -0.102 N  
ENDBRANCH  12  17
ENDBRANCH   3   5
ENDBRANCH   2   3
TORSDOF 5
ENDMDL
MODEL      132
REMARK 921   NORMALIZED FREE ENERGY PREDICTED BY IDOCK:   -2.55 KCAL/MOL
REMARK 922        TOTAL FREE ENERGY PREDICTED BY IDOCK:   -4.52 KCAL/MOL
REMARK 923 INTER-LIGAND FREE ENERGY PREDICTED BY IDOCK:   -6.63 KCAL/MOL
REMARK 924 INTRA-LIGAND FREE ENERGY PREDICTED BY IDOCK:    2.12 KCAL/MOL
REMARK 927      BINDING AFFINITY PREDICTED BY RF-SCORE:    0.00 PKD
ROOT
HETATM    1  C   UNL     1     -10.910  19.451  65.591  1.00  0.00    -0.230 C  
HETATM    2  O   UNL     1      -9.946  18.450  65.931  1.00  0.00    -0.526 OA 
ENDROOT
BRANCH   2   3
HETATM    3  C   UNL     1     -10.398  17.177  65.866  1.00  0.00    -0.284 C  
HETATM    4  O   UNL     1     -10.772  16.618  64.846  1.00  0.00    -0.710 OA 
BRANCH   3   5
HETATM    5  C   UNL     1     -10.398  16.549  67.216  1.00  0.00    -0.296 C  
HETATM    6  C   UNL     1      -9.493  16.975  68.132  1.00  0.00    -0.262 C  
HETATM    7  N   UNL     1      -9.600  16.569  69.446  1.00  0.00    -0.164 NA 
HETATM    8  C   UNL     1      -8.300  17.862  67.861  1.00  0.00    -0.247 C  
HETATM    9  C   UNL     1     -10.551  15.700  69.939  1.00  0.00    -0.321 C  
HETATM   10  C   UNL     1     -10.467  15.440  71.426  1.00  0.00     0.591 C  
HETATM   11  C   UNL     1     -11.460  15.144  69.101  1.00  0.00    -0.322 C  
HETATM   12  C   UNL     1     -11.491  15.519  67.595  1.00  0.00    -0.211 C  
BRANCH  11  13
HETATM   13  C   UNL     1     -12.333  14.061  69.633  1.00  0.00    -0.260 C  
HETATM   14  O   UNL     1     -12.095  12.868  69.496  1.00  0.00    -0.285 OA 
BRANCH  13  15
HETATM   15  O   UNL     1     -13.435  14.552  70.243  1.00  0.00     0.079 OA 
HETATM   16  C   UNL     1     -13.724  13.983  71.530  1.00  0.00    -0.280 C  
ENDBRANCH  13  15
ENDBRANCH  11  13
BRANCH  12  17
HETATM   17  C   UNL     1     -11.400  14.250  66.730  1.00  0.00    -0.357 A  
HETATM   18  O   UNL     1      -8.551  14.569  67.641  1.00  0.00    -0.160 OA 
HETATM   19  O   UNL     1      -8.863  12.492  68.273  1.00  0.00    -0.186 OA 
HETATM   20  C   UNL     1     -12.505  13.913  65.919  1.00  0.00    -0.519 A  
HETATM   21  C   UNL     1     -12.484  12.791  65.085  1.00  0.00    -0.565 A  
HETATM   22  C   UNL     1     -11.355  11.981  65.020  1.00  0.00    -0.365 A  
HETATM   23  C   UNL     1     -10.257  12.264  65.828  1.00  0.00    -0.281 A  
HETATM   24  C   UNL     1     -10.291  13.372  66.692  1.00  0.00    -0.269 A  
HETATM   25  N   UNL     1      -9.164  13.493  67.607  1.00  0.00    -0.204 N  
ENDBRANCH  12  17
ENDBRANCH   3   5
ENDBRANCH   2   3
TORSDOF 5
ENDMDL
MODEL      133
REMARK 921   NORMALIZED FREE ENERGY PREDICTED BY IDOCK:   -2.54 KCAL/MOL
REMARK 922        TOTAL FREE ENERGY PREDICTED BY IDOCK:   -4.50 KCAL/MOL
REMARK 923 INTER-LIGAND FREE ENERGY PREDICTED BY IDOCK:   -5.51 KCAL/MOL
REMARK 924 INTRA-LIGAND FREE ENERGY PREDICTED BY IDOCK:    1.01 KCAL/MOL
REMARK 927      BINDING AFFINITY PREDICTED BY RF-SCORE:    0.00 PKD
ROOT
HETATM    1  C   UNL     1     -10.114   6.086  67.523  1.00  0.00    -0.159 C  
HETATM    2  O   UNL     1     -10.499   7.111  66.602  1.00  0.00    -0.235 OA 
ENDROOT
BRANCH   2   3
HETATM    3  C   UNL     1      -9.531   8.008  66.308  1.00  0.00    -0.172 C  
HETATM    4  O   UNL     1      -8.415   7.725  65.899  1.00  0.00    -0.129 OA 
BRANCH   3   5
HETATM    5  C   UNL     1     -10.002   9.396  66.569  1.00  0.00    -0.339 C  
HETATM    6  C   UNL     1     -10.037  10.276  65.538  1.00  0.00    -0.281 C  
HETATM    7  N   UNL     1     -10.660  11.497  65.695  1.00  0.00    -0.267 NA 
HETATM    8  C   UNL     1      -9.413  10.079  64.176  1.00  0.00    -0.314 C  
HETATM    9  C   UNL     1     -11.240  11.953  66.860  1.00  0.00    -0.325 C  
HETATM   10  C   UNL     1     -11.884  13.319  66.759  1.00  0.00    -0.448 C  
HETATM   11  C   UNL     1     -11.195  11.195  67.982  1.00  0.00    -0.359 C  
HETATM   12  C   UNL     1     -10.553   9.782  67.965  1.00  0.00    -0.291 C  
BRANCH  11  13
HETATM   13  C   UNL     1     -11.649  11.808  69.262  1.00  0.00    -0.315 C  
HETATM   14  O   UNL     1     -11.105  12.773  69.782  1.00  0.00    -0.012 OA 
BRANCH  13  15
HETATM   15  O   UNL     1     -12.699  11.146  69.796  1.00  0.00    -0.147 OA 
HETATM   16  C   UNL     1     -12.744  11.131  71.231  1.00  0.00    -0.426 C  
ENDBRANCH  13  15
ENDBRANCH  11  13
BRANCH  12  17
HETATM   17  C   UNL     1      -9.468   9.678  69.051  1.00  0.00    -0.168 A  
HETATM   18  O   UNL     1      -8.076  11.335  66.962  1.00  0.00    -0.136 OA 
HETATM   19  O   UNL     1      -7.773  12.661  68.683  1.00  0.00    -0.125 OA 
HETATM   20  C   UNL     1      -9.663   8.758  70.104  1.00  0.00    -0.188 A  
HETATM   21  C   UNL     1      -8.709   8.588  71.111  1.00  0.00    -0.215 A  
HETATM   22  C   UNL     1      -7.523   9.316  71.091  1.00  0.00    -0.045 A  
HETATM   23  C   UNL     1      -7.309  10.255  70.086  1.00  0.00    -0.115 A  
HETATM   24  C   UNL     1      -8.284  10.451  69.092  1.00  0.00    -0.157 A  
HETATM   25  N   UNL     1      -8.040  11.560  68.180  1.00  0.00    -0.138 N  
ENDBRANCH  12  17
ENDBRANCH   3   5
ENDBRANCH   2   3
TORSDOF 5
ENDMDL
MODEL      134
REMARK 921   NORMALIZED FREE ENERGY PREDICTED BY IDOCK:   -2.51 KCAL/MOL
REMARK 922        TOTAL FREE ENERGY PREDICTED BY IDOCK:   -4.47 KCAL/MOL
REMARK 923 INTER-LIGAND FREE ENERGY PREDICTED BY IDOCK:   -5.23 KCAL/MOL
REMARK 924 INTRA-LIGAND FREE ENERGY PREDICTED BY IDOCK:    0.76 KCAL/MOL
REMARK 927      BINDING AFFINITY PREDICTED BY RF-SCORE:    0.00 PKD
ROOT
HETATM    1  C   UNL     1     -12.957  10.708  70.993  1.00  0.00    -0.363 C  
HETATM    2  O   UNL     1     -12.004   9.846  71.622  1.00  0.00    -0.393 OA 
ENDROOT
BRANCH   2   3
HETATM    3  C   UNL     1     -12.193   8.526  71.401  1.00  0.00    -0.304 C  
HETATM    4  O   UNL     1     -13.259   7.941  71.526  1.00  0.00    -0.332 OA 
BRANCH   3   5
HETATM    5  C   UNL     1     -10.917   7.870  71.001  1.00  0.00    -0.262 C  
HETATM    6  C   UNL     1     -10.167   7.271  71.958  1.00  0.00    -0.190 C  
HETATM    7  N   UNL     1      -9.096   6.479  71.597  1.00  0.00    -0.143 NA 
HETATM    8  C   UNL     1     -10.357   7.399  73.451  1.00  0.00    -0.411 C  
HETATM    9  C   UNL     1      -8.663   6.261  70.306  1.00  0.00    -0.142 C  
HETATM   10  C   UNL     1      -7.480   5.327  70.180  1.00  0.00    -0.068 C  
HETATM   11  C   UNL     1      -9.285   6.875  69.270  1.00  0.00    -0.139 C  
HETATM   12  C   UNL     1     -10.526   7.777  69.505  1.00  0.00    -0.225 C  
BRANCH  11  13
HETATM   13  C   UNL     1      -8.662   6.775  67.920  1.00  0.00    -0.120 C  
HETATM   14  O   UNL     1      -7.546   7.200  67.655  1.00  0.00    -0.105 OA 
BRANCH  13  15
HETATM   15  O   UNL     1      -9.492   6.202  67.021  1.00  0.00    -0.122 OA 
HETATM   16  C   UNL     1      -9.530   4.767  67.053  1.00  0.00    -0.152 C  
ENDBRANCH  13  15
ENDBRANCH  11  13
BRANCH  12  17
HETATM   17  C   UNL     1     -10.294   9.168  68.890  1.00  0.00    -0.232 A  
HETATM   18  O   UNL     1      -8.556   9.292  71.342  1.00  0.00    -0.326 OA 
HETATM   19  O   UNL     1      -7.053   9.864  69.849  1.00  0.00    -0.083 OA 
HETATM   20  C   UNL     1     -11.141   9.584  67.840  1.00  0.00    -0.053 A  
HETATM   21  C   UNL     1     -11.010  10.846  67.253  1.00  0.00    -0.355 A  
HETATM   22  C   UNL     1     -10.043  11.738  67.704  1.00  0.00    -0.206 A  
HETATM   23  C   UNL     1      -9.170  11.353  68.717  1.00  0.00    -0.108 A  
HETATM   24  C   UNL     1      -9.279  10.071  69.285  1.00  0.00    -0.203 A  
HETATM   25  N   UNL     1      -8.225   9.705  70.221  1.00  0.00    -0.190 N  
ENDBRANCH  12  17
ENDBRANCH   3   5
ENDBRANCH   2   3
TORSDOF 5
ENDMDL
MODEL      135
REMARK 921   NORMALIZED FREE ENERGY PREDICTED BY IDOCK:   -2.51 KCAL/MOL
REMARK 922        TOTAL FREE ENERGY PREDICTED BY IDOCK:   -4.46 KCAL/MOL
REMARK 923 INTER-LIGAND FREE ENERGY PREDICTED BY IDOCK:   -5.37 KCAL/MOL
REMARK 924 INTRA-LIGAND FREE ENERGY PREDICTED BY IDOCK:    0.91 KCAL/MOL
REMARK 927      BINDING AFFINITY PREDICTED BY RF-SCORE:    0.00 PKD
ROOT
HETATM    1  C   UNL     1      -6.060   9.882  68.064  1.00  0.00    -0.053 C  
HETATM    2  O   UNL     1      -6.398   9.122  69.227  1.00  0.00    -0.041 OA 
ENDROOT
BRANCH   2   3
HETATM    3  C   UNL     1      -6.883   9.845  70.262  1.00  0.00    -0.138 C  
HETATM    4  O   UNL     1      -6.574  11.000  70.514  1.00  0.00    -0.299 OA 
BRANCH   3   5
HETATM    5  C   UNL     1      -7.834   9.034  71.071  1.00  0.00    -0.174 C  
HETATM    6  C   UNL     1      -7.353   8.323  72.121  1.00  0.00    -0.102 C  
HETATM    7  N   UNL     1      -8.227   7.734  73.012  1.00  0.00    -0.120 NA 
HETATM    8  C   UNL     1      -5.897   8.061  72.428  1.00  0.00    -0.043 C  
HETATM    9  C   UNL     1      -9.602   7.758  72.915  1.00  0.00    -0.242 C  
HETATM   10  C   UNL     1     -10.332   7.058  74.040  1.00  0.00    -0.310 C  
HETATM   11  C   UNL     1     -10.198   8.369  71.862  1.00  0.00    -0.340 C  
HETATM   12  C   UNL     1      -9.355   9.103  70.785  1.00  0.00    -0.325 C  
BRANCH  11  13
HETATM   13  C   UNL     1     -11.667   8.195  71.690  1.00  0.00    -0.287 C  
HETATM   14  O   UNL     1     -12.180   7.195  71.206  1.00  0.00    -0.328 OA 
BRANCH  13  15
HETATM   15  O   UNL     1     -12.356   9.287  72.089  1.00  0.00    -0.363 OA 
HETATM   16  C   UNL     1     -13.777   9.105  72.198  1.00  0.00    -0.471 C  
ENDBRANCH  13  15
ENDBRANCH  11  13
BRANCH  12  17
HETATM   17  C   UNL     1      -9.695   8.563  69.385  1.00  0.00    -0.177 A  
HETATM   18  O   UNL     1      -7.888   6.404  70.445  1.00  0.00    -0.102 OA 
HETATM   19  O   UNL     1      -9.593   5.148  69.872  1.00  0.00    -0.146 OA 
HETATM   20  C   UNL     1     -10.338   9.428  68.473  1.00  0.00    -0.236 A  
HETATM   21  C   UNL     1     -10.652   9.016  67.174  1.00  0.00    -0.291 A  
HETATM   22  C   UNL     1     -10.319   7.738  66.739  1.00  0.00    -0.348 A  
HETATM   23  C   UNL     1      -9.712   6.846  67.619  1.00  0.00    -0.151 A  
HETATM   24  C   UNL     1      -9.428   7.248  68.936  1.00  0.00    -0.143 A  
HETATM   25  N   UNL     1      -8.940   6.201  69.823  1.00  0.00    -0.138 N  
ENDBRANCH  12  17
ENDBRANCH   3   5
ENDBRANCH   2   3
TORSDOF 5
ENDMDL
MODEL      136
REMARK 921   NORMALIZED FREE ENERGY PREDICTED BY IDOCK:   -2.48 KCAL/MOL
REMARK 922        TOTAL FREE ENERGY PREDICTED BY IDOCK:   -4.42 KCAL/MOL
REMARK 923 INTER-LIGAND FREE ENERGY PREDICTED BY IDOCK:   -3.34 KCAL/MOL
REMARK 924 INTRA-LIGAND FREE ENERGY PREDICTED BY IDOCK:   -1.08 KCAL/MOL
REMARK 927      BINDING AFFINITY PREDICTED BY RF-SCORE:    0.00 PKD
ROOT
HETATM    1  C   UNL     1     -10.757   9.220  66.506  1.00  0.00     0.080 C  
HETATM    2  O   UNL     1     -10.050   8.005  66.239  1.00  0.00    -0.173 OA 
ENDROOT
BRANCH   2   3
HETATM    3  C   UNL     1      -8.706   8.088  66.360  1.00  0.00    -0.151 C  
HETATM    4  O   UNL     1      -7.991   8.843  65.719  1.00  0.00    -0.096 OA 
BRANCH   3   5
HETATM    5  C   UNL     1      -8.208   7.116  67.372  1.00  0.00    -0.116 C  
HETATM    6  C   UNL     1      -7.900   5.858  66.969  1.00  0.00    -0.102 C  
HETATM    7  N   UNL     1      -7.242   5.001  67.827  1.00  0.00    -0.069 NA 
HETATM    8  C   UNL     1      -8.238   5.243  65.631  1.00  0.00    -0.121 C  
HETATM    9  C   UNL     1      -6.889   5.290  69.128  1.00  0.00    -0.054 C  
HETATM   10  C   UNL     1      -6.148   4.185  69.848  1.00  0.00    -0.023 C  
HETATM   11  C   UNL     1      -7.217   6.489  69.670  1.00  0.00    -0.078 C  
HETATM   12  C   UNL     1      -7.935   7.576  68.826  1.00  0.00    -0.126 C  
BRANCH  11  13
HETATM   13  C   UNL     1      -7.000   6.681  71.131  1.00  0.00    -0.071 C  
HETATM   14  O   UNL     1      -6.133   7.407  71.598  1.00  0.00    -0.037 OA 
BRANCH  13  15
HETATM   15  O   UNL     1      -7.842   5.926  71.871  1.00  0.00    -0.103 OA 
HETATM   16  C   UNL     1      -7.392   5.641  73.205  1.00  0.00    -0.095 C  
ENDBRANCH  13  15
ENDBRANCH  11  13
BRANCH  12  17
HETATM   17  C   UNL     1      -9.227   8.027  69.530  1.00  0.00    -0.152 A  
HETATM   18  O   UNL     1      -7.538  10.510  69.711  1.00  0.00    -0.151 OA 
HETATM   19  O   UNL     1      -9.324  11.397  68.795  1.00  0.00    -0.179 OA 
HETATM   20  C   UNL     1     -10.184   7.045  69.863  1.00  0.00    -0.213 A  
HETATM   21  C   UNL     1     -11.368   7.375  70.530  1.00  0.00    -0.295 A  
HETATM   22  C   UNL     1     -11.625   8.691  70.900  1.00  0.00    -0.307 A  
HETATM   23  C   UNL     1     -10.720   9.692  70.562  1.00  0.00    -0.374 A  
HETATM   24  C   UNL     1      -9.546   9.365  69.861  1.00  0.00    -0.212 A  
HETATM   25  N   UNL     1      -8.742  10.495  69.416  1.00  0.00    -0.124 N  
ENDBRANCH  12  17
ENDBRANCH   3   5
ENDBRANCH   2   3
TORSDOF 5
ENDMDL
MODEL      137
REMARK 921   NORMALIZED FREE ENERGY PREDICTED BY IDOCK:   -2.48 KCAL/MOL
REMARK 922        TOTAL FREE ENERGY PREDICTED BY IDOCK:   -4.42 KCAL/MOL
REMARK 923 INTER-LIGAND FREE ENERGY PREDICTED BY IDOCK:   -5.37 KCAL/MOL
REMARK 924 INTRA-LIGAND FREE ENERGY PREDICTED BY IDOCK:    0.96 KCAL/MOL
REMARK 927      BINDING AFFINITY PREDICTED BY RF-SCORE:    0.00 PKD
ROOT
HETATM    1  C   UNL     1      -9.253   3.019  67.318  1.00  0.00    -0.182 C  
HETATM    2  O   UNL     1      -9.383   4.416  67.598  1.00  0.00    -0.134 OA 
ENDROOT
BRANCH   2   3
HETATM    3  C   UNL     1     -10.051   5.127  66.661  1.00  0.00    -0.237 C  
HETATM    4  O   UNL     1     -10.834   4.654  65.850  1.00  0.00    -0.274 OA 
BRANCH   3   5
HETATM    5  C   UNL     1      -9.687   6.569  66.736  1.00  0.00    -0.208 C  
HETATM    6  C   UNL     1      -8.744   7.046  65.887  1.00  0.00    -0.126 C  
HETATM    7  N   UNL     1      -8.535   8.406  65.784  1.00  0.00    -0.147 NA 
HETATM    8  C   UNL     1      -7.826   6.219  65.017  1.00  0.00    -0.111 C  
HETATM    9  C   UNL     1      -9.185   9.372  66.523  1.00  0.00    -0.159 C  
HETATM   10  C   UNL     1      -8.792  10.796  66.198  1.00  0.00    -0.187 C  
HETATM   11  C   UNL     1     -10.092   9.010  67.463  1.00  0.00    -0.285 C  
HETATM   12  C   UNL     1     -10.461   7.519  67.683  1.00  0.00    -0.319 C  
BRANCH  11  13
HETATM   13  C   UNL     1     -10.616  10.066  68.374  1.00  0.00    -0.220 C  
HETATM   14  O   UNL     1     -10.119  10.334  69.460  1.00  0.00    -0.221 OA 
BRANCH  13  15
HETATM   15  O   UNL     1     -11.727  10.655  67.879  1.00  0.00    -0.506 OA 
HETATM   16  C   UNL     1     -11.760  12.087  67.992  1.00  0.00    -0.331 C  
ENDBRANCH  13  15
ENDBRANCH  11  13
BRANCH  12  17
HETATM   17  C   UNL     1     -10.262   7.135  69.160  1.00  0.00    -0.196 A  
HETATM   18  O   UNL     1      -7.419   7.328  68.195  1.00  0.00    -0.097 OA 
HETATM   19  O   UNL     1      -7.269   8.674  69.921  1.00  0.00    -0.049 OA 
HETATM   20  C   UNL     1     -11.388   6.710  69.898  1.00  0.00    -0.422 A  
HETATM   21  C   UNL     1     -11.279   6.318  71.235  1.00  0.00    -0.355 A  
HETATM   22  C   UNL     1     -10.043   6.319  71.873  1.00  0.00    -0.205 A  
HETATM   23  C   UNL     1      -8.915   6.760  71.187  1.00  0.00    -0.147 A  
HETATM   24  C   UNL     1      -9.029   7.188  69.853  1.00  0.00    -0.142 A  
HETATM   25  N   UNL     1      -7.830   7.777  69.274  1.00  0.00    -0.114 N  
ENDBRANCH  12  17
ENDBRANCH   3   5
ENDBRANCH   2   3
TORSDOF 5
ENDMDL
MODEL      138
REMARK 921   NORMALIZED FREE ENERGY PREDICTED BY IDOCK:   -2.47 KCAL/MOL
REMARK 922        TOTAL FREE ENERGY PREDICTED BY IDOCK:   -4.41 KCAL/MOL
REMARK 923 INTER-LIGAND FREE ENERGY PREDICTED BY IDOCK:   -5.15 KCAL/MOL
REMARK 924 INTRA-LIGAND FREE ENERGY PREDICTED BY IDOCK:    0.74 KCAL/MOL
REMARK 927      BINDING AFFINITY PREDICTED BY RF-SCORE:    0.00 PKD
ROOT
HETATM    1  C   UNL     1      -7.193   9.434  65.183  1.00  0.00    -0.101 C  
HETATM    2  O   UNL     1      -7.394  10.810  65.517  1.00  0.00    -0.098 OA 
ENDROOT
BRANCH   2   3
HETATM    3  C   UNL     1      -8.570  11.084  66.127  1.00  0.00    -0.175 C  
HETATM    4  O   UNL     1      -9.579  10.402  66.039  1.00  0.00    -0.181 OA 
BRANCH   3   5
HETATM    5  C   UNL     1      -8.475  12.347  66.910  1.00  0.00    -0.147 C  
HETATM    6  C   UNL     1      -7.955  12.299  68.161  1.00  0.00    -0.155 C  
HETATM    7  N   UNL     1      -7.659  13.470  68.829  1.00  0.00    -0.103 NA 
HETATM    8  C   UNL     1      -7.677  11.050  68.965  1.00  0.00    -0.132 C  
HETATM    9  C   UNL     1      -7.889  14.742  68.351  1.00  0.00    -0.128 C  
HETATM   10  C   UNL     1      -7.447  15.859  69.271  1.00  0.00    -0.219 C  
HETATM   11  C   UNL     1      -8.481  14.916  67.144  1.00  0.00    -0.244 C  
HETATM   12  C   UNL     1      -8.852  13.699  66.254  1.00  0.00     0.232 C  
BRANCH  11  13
HETATM   13  C   UNL     1      -8.896  16.294  66.758  1.00  0.00    -0.232 C  
HETATM   14  O   UNL     1      -9.854  16.877  67.248  1.00  0.00    -0.253 OA 
BRANCH  13  15
HETATM   15  O   UNL     1      -8.116  16.801  65.777  1.00  0.00    -0.358 OA 
HETATM   16  C   UNL     1      -7.306  17.923  66.160  1.00  0.00    -0.292 C  
ENDBRANCH  13  15
ENDBRANCH  11  13
BRANCH  12  17
HETATM   17  C   UNL     1     -10.342  13.751  65.878  1.00  0.00    -0.315 A  
HETATM   18  O   UNL     1     -10.480  13.033  68.795  1.00  0.00    -0.235 OA 
HETATM   19  O   UNL     1     -11.810  14.778  68.827  1.00  0.00    -0.308 OA 
HETATM   20  C   UNL     1     -10.683  13.822  64.509  1.00  0.00    -0.405 A  
HETATM   21  C   UNL     1     -12.017  13.843  64.089  1.00  0.00    -0.464 A  
HETATM   22  C   UNL     1     -13.050  13.777  65.018  1.00  0.00    -0.058 A  
HETATM   23  C   UNL     1     -12.754  13.737  66.377  1.00  0.00    -0.172 A  
HETATM   24  C   UNL     1     -11.414  13.751  66.801  1.00  0.00    -0.348 A  
HETATM   25  N   UNL     1     -11.209  13.867  68.239  1.00  0.00    -0.259 N  
ENDBRANCH  12  17
ENDBRANCH   3   5
ENDBRANCH   2   3
TORSDOF 5
ENDMDL
MODEL      139
REMARK 921   NORMALIZED FREE ENERGY PREDICTED BY IDOCK:   -2.47 KCAL/MOL
REMARK 922        TOTAL FREE ENERGY PREDICTED BY IDOCK:   -4.41 KCAL/MOL
REMARK 923 INTER-LIGAND FREE ENERGY PREDICTED BY IDOCK:   -3.96 KCAL/MOL
REMARK 924 INTRA-LIGAND FREE ENERGY PREDICTED BY IDOCK:   -0.45 KCAL/MOL
REMARK 927      BINDING AFFINITY PREDICTED BY RF-SCORE:    0.00 PKD
ROOT
HETATM    1  C   UNL     1      -9.881  19.140  69.139  1.00  0.00    -0.298 C  
HETATM    2  O   UNL     1     -10.899  18.156  68.935  1.00  0.00     0.150 OA 
ENDROOT
BRANCH   2   3
HETATM    3  C   UNL     1     -10.927  17.164  69.853  1.00  0.00     0.435 C  
HETATM    4  O   UNL     1     -10.893  17.329  71.063  1.00  0.00     0.697 OA 
BRANCH   3   5
HETATM    5  C   UNL     1     -10.984  15.833  69.188  1.00  0.00    -0.265 C  
HETATM    6  C   UNL     1     -11.861  14.910  69.655  1.00  0.00    -0.318 C  
HETATM    7  N   UNL     1     -12.090  13.753  68.939  1.00  0.00    -0.350 NA 
HETATM    8  C   UNL     1     -12.635  14.990  70.951  1.00  0.00    -0.419 C  
HETATM    9  C   UNL     1     -11.456  13.401  67.766  1.00  0.00    -0.316 C  
HETATM   10  C   UNL     1     -11.909  12.089  67.164  1.00  0.00    -0.251 C  
HETATM   11  C   UNL     1     -10.498  14.207  67.245  1.00  0.00    -0.272 C  
HETATM   12  C   UNL     1     -10.143  15.561  67.916  1.00  0.00    -0.224 C  
BRANCH  11  13
HETATM   13  C   UNL     1      -9.700  13.695  66.097  1.00  0.00    -0.255 C  
HETATM   14  O   UNL     1     -10.076  13.744  64.933  1.00  0.00    -0.356 OA 
BRANCH  13  15
HETATM   15  O   UNL     1      -8.538  13.133  66.498  1.00  0.00    -0.020 OA 
HETATM   16  C   UNL     1      -8.612  11.732  66.804  1.00  0.00    -0.185 C  
ENDBRANCH  13  15
ENDBRANCH  11  13
BRANCH  12  17
HETATM   17  C   UNL     1      -8.634  15.628  68.209  1.00  0.00    -0.158 A  
HETATM   18  O   UNL     1      -8.783  16.921  65.497  1.00  0.00    -0.326 OA 
HETATM   19  O   UNL     1      -7.692  18.505  66.553  1.00  0.00    -0.235 OA 
HETATM   20  C   UNL     1      -8.132  14.889  69.302  1.00  0.00    -0.135 A  
HETATM   21  C   UNL     1      -6.768  14.878  69.611  1.00  0.00    -0.172 A  
HETATM   22  C   UNL     1      -5.862  15.587  68.830  1.00  0.00    -0.102 A  
HETATM   23  C   UNL     1      -6.322  16.352  67.763  1.00  0.00    -0.160 A  
HETATM   24  C   UNL     1      -7.697  16.391  67.472  1.00  0.00    -0.142 A  
HETATM   25  N   UNL     1      -8.097  17.339  66.441  1.00  0.00    -0.277 N  
ENDBRANCH  12  17
ENDBRANCH   3   5
ENDBRANCH   2   3
TORSDOF 5
ENDMDL
MODEL      140
REMARK 921   NORMALIZED FREE ENERGY PREDICTED BY IDOCK:   -2.45 KCAL/MOL
REMARK 922        TOTAL FREE ENERGY PREDICTED BY IDOCK:   -4.39 KCAL/MOL
REMARK 923 INTER-LIGAND FREE ENERGY PREDICTED BY IDOCK:   -3.98 KCAL/MOL
REMARK 924 INTRA-LIGAND FREE ENERGY PREDICTED BY IDOCK:   -0.41 KCAL/MOL
REMARK 927      BINDING AFFINITY PREDICTED BY RF-SCORE:    0.00 PKD
ROOT
HETATM    1  C   UNL     1      -6.366  10.770  67.891  1.00  0.00    -0.061 C  
HETATM    2  O   UNL     1      -7.771  10.886  68.134  1.00  0.00    -0.097 OA 
ENDROOT
BRANCH   2   3
HETATM    3  C   UNL     1      -8.230  10.171  69.186  1.00  0.00    -0.145 C  
HETATM    4  O   UNL     1      -7.979  10.410  70.357  1.00  0.00    -0.013 OA 
BRANCH   3   5
HETATM    5  C   UNL     1      -9.071   9.033  68.722  1.00  0.00    -0.137 C  
HETATM    6  C   UNL     1      -9.925   9.234  67.688  1.00  0.00    -0.196 C  
HETATM    7  N   UNL     1     -10.559   8.159  67.100  1.00  0.00    -0.324 NA 
HETATM    8  C   UNL     1     -10.307  10.569  67.094  1.00  0.00    -0.285 C  
HETATM    9  C   UNL     1     -10.443   6.845  67.503  1.00  0.00    -0.247 C  
HETATM   10  C   UNL     1     -11.223   5.852  66.670  1.00  0.00     0.080 C  
HETATM   11  C   UNL     1      -9.681   6.530  68.578  1.00  0.00    -0.129 C  
HETATM   12  C   UNL     1      -8.879   7.623  69.335  1.00  0.00    -0.139 C  
BRANCH  11  13
HETATM   13  C   UNL     1      -9.746   5.137  69.100  1.00  0.00    -0.163 C  
HETATM   14  O   UNL     1     -10.468   4.792  70.027  1.00  0.00    -0.194 OA 
BRANCH  13  15
HETATM   15  O   UNL     1      -8.885   4.315  68.460  1.00  0.00    -0.094 OA 
HETATM   16  C   UNL     1      -9.389   2.999  68.182  1.00  0.00    -0.198 C  
ENDBRANCH  13  15
ENDBRANCH  11  13
BRANCH  12  17
HETATM   17  C   UNL     1      -9.233   7.601  70.832  1.00  0.00    -0.150 A  
HETATM   18  O   UNL     1      -6.850   5.767  70.747  1.00  0.00    -0.050 OA 
HETATM   19  O   UNL     1      -6.150   7.138  72.310  1.00  0.00    -0.041 OA 
HETATM   20  C   UNL     1     -10.466   8.160  71.234  1.00  0.00    -0.254 A  
HETATM   21  C   UNL     1     -10.869   8.149  72.573  1.00  0.00    -0.431 A  
HETATM   22  C   UNL     1     -10.066   7.567  73.548  1.00  0.00    -0.378 A  
HETATM   23  C   UNL     1      -8.830   7.033  73.194  1.00  0.00    -0.151 A  
HETATM   24  C   UNL     1      -8.409   7.074  71.854  1.00  0.00    -0.106 A  
HETATM   25  N   UNL     1      -7.041   6.636  71.609  1.00  0.00    -0.078 N  
ENDBRANCH  12  17
ENDBRANCH   3   5
ENDBRANCH   2   3
TORSDOF 5
ENDMDL
MODEL      141
REMARK 921   NORMALIZED FREE ENERGY PREDICTED BY IDOCK:   -2.44 KCAL/MOL
REMARK 922        TOTAL FREE ENERGY PREDICTED BY IDOCK:   -4.37 KCAL/MOL
REMARK 923 INTER-LIGAND FREE ENERGY PREDICTED BY IDOCK:   -3.29 KCAL/MOL
REMARK 924 INTRA-LIGAND FREE ENERGY PREDICTED BY IDOCK:   -1.08 KCAL/MOL
REMARK 927      BINDING AFFINITY PREDICTED BY RF-SCORE:    0.00 PKD
ROOT
HETATM    1  C   UNL     1      -9.056  12.818  66.655  1.00  0.00    -0.187 C  
HETATM    2  O   UNL     1     -10.199  12.276  67.323  1.00  0.00    -0.209 OA 
ENDROOT
BRANCH   2   3
HETATM    3  C   UNL     1     -10.381  10.946  67.155  1.00  0.00    -0.220 C  
HETATM    4  O   UNL     1     -10.722  10.413  66.110  1.00  0.00    -0.131 OA 
BRANCH   3   5
HETATM    5  C   UNL     1     -10.130  10.216  68.428  1.00  0.00    -0.184 C  
HETATM    6  C   UNL     1     -11.089  10.231  69.387  1.00  0.00    -0.252 C  
HETATM    7  N   UNL     1     -10.980   9.399  70.482  1.00  0.00    -0.253 NA 
HETATM    8  C   UNL     1     -12.310  11.120  69.413  1.00  0.00    -0.224 C  
HETATM    9  C   UNL     1      -9.927   8.547  70.737  1.00  0.00    -0.191 C  
HETATM   10  C   UNL     1     -10.065   7.720  71.996  1.00  0.00    -0.244 C  
HETATM   11  C   UNL     1      -8.869   8.505  69.890  1.00  0.00    -0.137 C  
HETATM   12  C   UNL     1      -8.849   9.360  68.595  1.00  0.00    -0.132 C  
BRANCH  11  13
HETATM   13  C   UNL     1      -7.668   7.728  70.307  1.00  0.00    -0.089 C  
HETATM   14  O   UNL     1      -7.059   7.927  71.350  1.00  0.00    -0.055 OA 
BRANCH  13  15
HETATM   15  O   UNL     1      -7.309   6.815  69.377  1.00  0.00    -0.086 OA 
HETATM   16  C   UNL     1      -8.343   5.894  68.995  1.00  0.00    -0.106 C  
ENDBRANCH  13  15
ENDBRANCH  11  13
BRANCH  12  17
HETATM   17  C   UNL     1      -7.578  10.226  68.550  1.00  0.00    -0.089 A  
HETATM   18  O   UNL     1      -7.029   8.231  66.367  1.00  0.00    -0.065 OA 
HETATM   19  O   UNL     1      -6.701  10.071  65.217  1.00  0.00    -0.103 OA 
HETATM   20  C   UNL     1      -7.352  11.136  69.606  1.00  0.00     0.034 A  
HETATM   21  C   UNL     1      -6.205  11.934  69.649  1.00  0.00    -0.129 A  
HETATM   22  C   UNL     1      -5.241  11.839  68.651  1.00  0.00    -0.046 A  
HETATM   23  C   UNL     1      -5.443  10.976  67.578  1.00  0.00    -0.041 A  
HETATM   24  C   UNL     1      -6.612  10.198  67.516  1.00  0.00    -0.068 A  
HETATM   25  N   UNL     1      -6.807   9.448  66.283  1.00  0.00    -0.084 N  
ENDBRANCH  12  17
ENDBRANCH   3   5
ENDBRANCH   2   3
TORSDOF 5
ENDMDL
MODEL      142
REMARK 921   NORMALIZED FREE ENERGY PREDICTED BY IDOCK:   -2.43 KCAL/MOL
REMARK 922        TOTAL FREE ENERGY PREDICTED BY IDOCK:   -4.36 KCAL/MOL
REMARK 923 INTER-LIGAND FREE ENERGY PREDICTED BY IDOCK:   -3.63 KCAL/MOL
REMARK 924 INTRA-LIGAND FREE ENERGY PREDICTED BY IDOCK:   -0.72 KCAL/MOL
REMARK 927      BINDING AFFINITY PREDICTED BY RF-SCORE:    0.00 PKD
ROOT
HETATM    1  C   UNL     1      -9.168  10.251  69.540  1.00  0.00    -0.170 C  
HETATM    2  O   UNL     1      -9.722   8.987  69.165  1.00  0.00    -0.162 OA 
ENDROOT
BRANCH   2   3
HETATM    3  C   UNL     1      -8.891   8.184  68.463  1.00  0.00    -0.134 C  
HETATM    4  O   UNL     1      -8.091   8.568  67.624  1.00  0.00    -0.106 OA 
BRANCH   3   5
HETATM    5  C   UNL     1      -9.097   6.757  68.838  1.00  0.00    -0.133 C  
HETATM    6  C   UNL     1      -9.972   6.015  68.116  1.00  0.00    -0.147 C  
HETATM    7  N   UNL     1     -10.031   4.649  68.299  1.00  0.00    -0.105 NA 
HETATM    8  C   UNL     1     -10.966   6.540  67.106  1.00  0.00    -0.480 C  
HETATM    9  C   UNL     1      -9.288   3.933  69.213  1.00  0.00    -0.172 C  
HETATM   10  C   UNL     1      -9.520   2.438  69.193  1.00  0.00    -0.144 C  
HETATM   11  C   UNL     1      -8.437   4.577  70.048  1.00  0.00    -0.088 C  
HETATM   12  C   UNL     1      -8.234   6.113  69.952  1.00  0.00    -0.120 C  
BRANCH  11  13
HETATM   13  C   UNL     1      -7.811   3.795  71.151  1.00  0.00    -0.059 C  
HETATM   14  O   UNL     1      -6.635   3.456  71.160  1.00  0.00    -0.029 OA 
BRANCH  13  15
HETATM   15  O   UNL     1      -8.704   3.471  72.112  1.00  0.00    -0.085 OA 
HETATM   16  C   UNL     1      -8.161   3.361  73.437  1.00  0.00    -0.075 C  
ENDBRANCH  13  15
ENDBRANCH  11  13
BRANCH  12  17
HETATM   17  C   UNL     1      -8.491   6.769  71.320  1.00  0.00    -0.124 A  
HETATM   18  O   UNL     1      -5.669   7.641  70.751  1.00  0.00    -0.030 OA 
HETATM   19  O   UNL     1      -6.545   9.613  71.148  1.00  0.00    -0.238 OA 
HETATM   20  C   UNL     1      -9.643   6.383  72.040  1.00  0.00    -0.157 A  
HETATM   21  C   UNL     1      -9.926   6.913  73.302  1.00  0.00    -0.243 A  
HETATM   22  C   UNL     1      -9.063   7.831  73.892  1.00  0.00    -0.298 A  
HETATM   23  C   UNL     1      -7.934   8.259  73.200  1.00  0.00    -0.199 A  
HETATM   24  C   UNL     1      -7.667   7.752  71.917  1.00  0.00    -0.091 A  
HETATM   25  N   UNL     1      -6.555   8.375  71.212  1.00  0.00    -0.048 N  
ENDBRANCH  12  17
ENDBRANCH   3   5
ENDBRANCH   2   3
TORSDOF 5
ENDMDL
MODEL      143
REMARK 921   NORMALIZED FREE ENERGY PREDICTED BY IDOCK:   -2.43 KCAL/MOL
REMARK 922        TOTAL FREE ENERGY PREDICTED BY IDOCK:   -4.36 KCAL/MOL
REMARK 923 INTER-LIGAND FREE ENERGY PREDICTED BY IDOCK:   -5.29 KCAL/MOL
REMARK 924 INTRA-LIGAND FREE ENERGY PREDICTED BY IDOCK:    0.94 KCAL/MOL
REMARK 927      BINDING AFFINITY PREDICTED BY RF-SCORE:    0.00 PKD
ROOT
HETATM    1  C   UNL     1     -10.317   4.539  65.664  1.00  0.00    -0.247 C  
HETATM    2  O   UNL     1     -10.749   5.235  66.837  1.00  0.00    -0.253 OA 
ENDROOT
BRANCH   2   3
HETATM    3  C   UNL     1      -9.757   5.616  67.673  1.00  0.00    -0.124 C  
HETATM    4  O   UNL     1      -8.737   4.978  67.886  1.00  0.00    -0.103 OA 
BRANCH   3   5
HETATM    5  C   UNL     1     -10.084   6.917  68.321  1.00  0.00    -0.182 C  
HETATM    6  C   UNL     1      -9.833   8.063  67.641  1.00  0.00    -0.167 C  
HETATM    7  N   UNL     1     -10.314   9.265  68.117  1.00  0.00    -0.206 NA 
HETATM    8  C   UNL     1      -9.021   8.188  66.372  1.00  0.00    -0.207 C  
HETATM    9  C   UNL     1     -11.016   9.436  69.291  1.00  0.00    -0.117 C  
HETATM   10  C   UNL     1     -11.454  10.856  69.572  1.00  0.00    -0.372 C  
HETATM   11  C   UNL     1     -11.256   8.373  70.098  1.00  0.00    -0.136 C  
HETATM   12  C   UNL     1     -10.806   6.944  69.691  1.00  0.00    -0.294 C  
BRANCH  11  13
HETATM   13  C   UNL     1     -11.835   8.633  71.446  1.00  0.00    -0.297 C  
HETATM   14  O   UNL     1     -11.161   8.803  72.453  1.00  0.00    -0.327 OA 
BRANCH  13  15
HETATM   15  O   UNL     1     -13.186   8.613  71.429  1.00  0.00    -0.310 OA 
HETATM   16  C   UNL     1     -13.778   7.306  71.509  1.00  0.00    -0.351 C  
ENDBRANCH  13  15
ENDBRANCH  11  13
BRANCH  12  17
HETATM   17  C   UNL     1      -9.940   6.325  70.802  1.00  0.00    -0.220 A  
HETATM   18  O   UNL     1      -8.081   8.403  69.673  1.00  0.00    -0.110 OA 
HETATM   19  O   UNL     1      -7.985   8.993  71.784  1.00  0.00    -0.343 OA 
HETATM   20  C   UNL     1     -10.386   5.130  71.408  1.00  0.00    -0.273 A  
HETATM   21  C   UNL     1      -9.638   4.494  72.403  1.00  0.00    -0.193 A  
HETATM   22  C   UNL     1      -8.416   5.017  72.812  1.00  0.00    -0.116 A  
HETATM   23  C   UNL     1      -7.958   6.210  72.259  1.00  0.00    -0.105 A  
HETATM   24  C   UNL     1      -8.725   6.869  71.283  1.00  0.00    -0.134 A  
HETATM   25  N   UNL     1      -8.242   8.182  70.882  1.00  0.00    -0.104 N  
ENDBRANCH  12  17
ENDBRANCH   3   5
ENDBRANCH   2   3
TORSDOF 5
ENDMDL
MODEL      144
REMARK 921   NORMALIZED FREE ENERGY PREDICTED BY IDOCK:   -2.42 KCAL/MOL
REMARK 922        TOTAL FREE ENERGY PREDICTED BY IDOCK:   -4.35 KCAL/MOL
REMARK 923 INTER-LIGAND FREE ENERGY PREDICTED BY IDOCK:   -3.48 KCAL/MOL
REMARK 924 INTRA-LIGAND FREE ENERGY PREDICTED BY IDOCK:   -0.87 KCAL/MOL
REMARK 927      BINDING AFFINITY PREDICTED BY RF-SCORE:    0.00 PKD
ROOT
HETATM    1  C   UNL     1      -9.359  10.033  69.397  1.00  0.00    -0.223 C  
HETATM    2  O   UNL     1      -8.047   9.617  69.004  1.00  0.00    -0.095 OA 
ENDROOT
BRANCH   2   3
HETATM    3  C   UNL     1      -7.428   8.786  69.873  1.00  0.00    -0.053 C  
HETATM    4  O   UNL     1      -6.748   9.147  70.822  1.00  0.00    -0.063 OA 
BRANCH   3   5
HETATM    5  C   UNL     1      -7.668   7.364  69.503  1.00  0.00    -0.108 C  
HETATM    6  C   UNL     1      -7.352   6.955  68.250  1.00  0.00    -0.097 C  
HETATM    7  N   UNL     1      -7.363   5.610  67.941  1.00  0.00    -0.072 NA 
HETATM    8  C   UNL     1      -7.000   7.848  67.083  1.00  0.00    -0.074 C  
HETATM    9  C   UNL     1      -7.723   4.596  68.803  1.00  0.00    -0.072 C  
HETATM   10  C   UNL     1      -7.622   3.202  68.224  1.00  0.00    -0.052 C  
HETATM   11  C   UNL     1      -8.138   4.889  70.059  1.00  0.00    -0.073 C  
HETATM   12  C   UNL     1      -8.156   6.354  70.572  1.00  0.00    -0.117 C  
BRANCH  11  13
HETATM   13  C   UNL     1      -8.709   3.788  70.884  1.00  0.00    -0.074 C  
HETATM   14  O   UNL     1      -9.714   3.162  70.577  1.00  0.00    -0.161 OA 
BRANCH  13  15
HETATM   15  O   UNL     1      -8.011   3.596  72.026  1.00  0.00    -0.065 OA 
HETATM   16  C   UNL     1      -6.849   2.762  71.897  1.00  0.00    -0.022 C  
ENDBRANCH  13  15
ENDBRANCH  11  13
BRANCH  12  17
HETATM   17  C   UNL     1      -9.556   6.715  71.097  1.00  0.00    -0.177 A  
HETATM   18  O   UNL     1      -8.031   6.323  73.660  1.00  0.00    -0.101 OA 
HETATM   19  O   UNL     1      -8.837   8.324  74.063  1.00  0.00    -0.192 OA 
HETATM   20  C   UNL     1     -10.630   6.734  70.180  1.00  0.00    -0.254 A  
HETATM   21  C   UNL     1     -11.935   7.024  70.588  1.00  0.00    -0.361 A  
HETATM   22  C   UNL     1     -12.214   7.287  71.926  1.00  0.00    -0.348 A  
HETATM   23  C   UNL     1     -11.177   7.307  72.855  1.00  0.00    -0.336 A  
HETATM   24  C   UNL     1      -9.860   7.049  72.438  1.00  0.00    -0.153 A  
HETATM   25  N   UNL     1      -8.829   7.248  73.448  1.00  0.00    -0.141 N  
ENDBRANCH  12  17
ENDBRANCH   3   5
ENDBRANCH   2   3
TORSDOF 5
ENDMDL
MODEL      145
REMARK 921   NORMALIZED FREE ENERGY PREDICTED BY IDOCK:   -2.41 KCAL/MOL
REMARK 922        TOTAL FREE ENERGY PREDICTED BY IDOCK:   -4.33 KCAL/MOL
REMARK 923 INTER-LIGAND FREE ENERGY PREDICTED BY IDOCK:   -3.21 KCAL/MOL
REMARK 924 INTRA-LIGAND FREE ENERGY PREDICTED BY IDOCK:   -1.12 KCAL/MOL
REMARK 927      BINDING AFFINITY PREDICTED BY RF-SCORE:    0.00 PKD
ROOT
HETATM    1  C   UNL     1      -9.033   3.915  64.071  1.00  0.00    -0.125 C  
HETATM    2  O   UNL     1      -9.077   4.501  65.375  1.00  0.00    -0.134 OA 
ENDROOT
BRANCH   2   3
HETATM    3  C   UNL     1      -7.991   4.265  66.144  1.00  0.00    -0.098 C  
HETATM    4  O   UNL     1      -6.919   3.847  65.733  1.00  0.00    -0.059 OA 
BRANCH   3   5
HETATM    5  C   UNL     1      -8.282   4.565  67.573  1.00  0.00    -0.100 C  
HETATM    6  C   UNL     1      -8.851   3.600  68.337  1.00  0.00    -0.114 C  
HETATM    7  N   UNL     1      -8.941   3.768  69.704  1.00  0.00    -0.096 NA 
HETATM    8  C   UNL     1      -9.458   2.309  67.838  1.00  0.00    -0.172 C  
HETATM    9  C   UNL     1      -8.534   4.886  70.400  1.00  0.00    -0.096 C  
HETATM   10  C   UNL     1      -8.717   4.806  71.899  1.00  0.00    -0.133 C  
HETATM   11  C   UNL     1      -8.025   5.951  69.734  1.00  0.00    -0.101 C  
HETATM   12  C   UNL     1      -7.831   5.911  68.194  1.00  0.00    -0.105 C  
BRANCH  11  13
HETATM   13  C   UNL     1      -7.790   7.208  70.497  1.00  0.00    -0.100 C  
HETATM   14  O   UNL     1      -6.677   7.631  70.784  1.00  0.00    -0.042 OA 
BRANCH  13  15
HETATM   15  O   UNL     1      -8.947   7.798  70.870  1.00  0.00    -0.144 OA 
HETATM   16  C   UNL     1      -8.896   8.508  72.117  1.00  0.00    -0.216 C  
ENDBRANCH  13  15
ENDBRANCH  11  13
BRANCH  12  17
HETATM   17  C   UNL     1      -8.544   7.106  67.538  1.00  0.00    -0.122 A  
HETATM   18  O   UNL     1      -5.660   7.938  67.339  1.00  0.00    -0.034 OA 
HETATM   19  O   UNL     1      -6.214   8.175  65.230  1.00  0.00    -0.045 OA 
HETATM   20  C   UNL     1      -9.948   7.198  67.664  1.00  0.00    -0.201 A  
HETATM   21  C   UNL     1     -10.661   8.270  67.120  1.00  0.00    -0.340 A  
HETATM   22  C   UNL     1      -9.997   9.292  66.450  1.00  0.00    -0.356 A  
HETATM   23  C   UNL     1      -8.617   9.222  66.280  1.00  0.00    -0.139 A  
HETATM   24  C   UNL     1      -7.904   8.126  66.796  1.00  0.00    -0.095 A  
HETATM   25  N   UNL     1      -6.495   8.063  66.432  1.00  0.00    -0.047 N  
ENDBRANCH  12  17
ENDBRANCH   3   5
ENDBRANCH   2   3
TORSDOF 5
ENDMDL
MODEL      146
REMARK 921   NORMALIZED FREE ENERGY PREDICTED BY IDOCK:   -2.38 KCAL/MOL
REMARK 922        TOTAL FREE ENERGY PREDICTED BY IDOCK:   -4.30 KCAL/MOL
REMARK 923 INTER-LIGAND FREE ENERGY PREDICTED BY IDOCK:   -5.28 KCAL/MOL
REMARK 924 INTRA-LIGAND FREE ENERGY PREDICTED BY IDOCK:    0.98 KCAL/MOL
REMARK 927      BINDING AFFINITY PREDICTED BY RF-SCORE:    0.00 PKD
ROOT
HETATM    1  C   UNL     1     -11.946  15.107  72.272  1.00  0.00    -0.396 C  
HETATM    2  O   UNL     1     -11.096  15.897  71.434  1.00  0.00    -0.272 OA 
ENDROOT
BRANCH   2   3
HETATM    3  C   UNL     1     -11.344  15.794  70.109  1.00  0.00    -0.355 C  
HETATM    4  O   UNL     1     -12.457  15.722  69.609  1.00  0.00    -0.233 OA 
BRANCH   3   5
HETATM    5  C   UNL     1     -10.072  15.759  69.336  1.00  0.00    -0.268 C  
HETATM    6  C   UNL     1      -9.558  16.927  68.877  1.00  0.00    -0.251 C  
HETATM    7  N   UNL     1      -8.285  16.956  68.345  1.00  0.00    -0.223 NA 
HETATM    8  C   UNL     1     -10.263  18.263  68.850  1.00  0.00    -0.299 C  
HETATM    9  C   UNL     1      -7.461  15.863  68.184  1.00  0.00    -0.127 C  
HETATM   10  C   UNL     1      -6.100  16.170  67.600  1.00  0.00    -0.176 C  
HETATM   11  C   UNL     1      -7.898  14.627  68.531  1.00  0.00    -0.133 C  
HETATM   12  C   UNL     1      -9.299  14.427  69.170  1.00  0.00     0.057 C  
BRANCH  11  13
HETATM   13  C   UNL     1      -7.061  13.455  68.152  1.00  0.00    -0.116 C  
HETATM   14  O   UNL     1      -6.760  13.180  66.998  1.00  0.00    -0.088 OA 
BRANCH  13  15
HETATM   15  O   UNL     1      -6.713  12.713  69.227  1.00  0.00    -0.101 OA 
HETATM   16  C   UNL     1      -5.741  13.316  70.096  1.00  0.00    -0.137 C  
ENDBRANCH  13  15
ENDBRANCH  11  13
BRANCH  12  17
HETATM   17  C   UNL     1     -10.108  13.397  68.364  1.00  0.00    -0.244 A  
HETATM   18  O   UNL     1     -10.405  15.863  66.667  1.00  0.00    -0.287 OA 
HETATM   19  O   UNL     1      -9.666  14.492  65.122  1.00  0.00    -0.202 OA 
HETATM   20  C   UNL     1     -10.410  12.159  68.973  1.00  0.00    -0.014 A  
HETATM   21  C   UNL     1     -11.166  11.186  68.313  1.00  0.00    -0.343 A  
HETATM   22  C   UNL     1     -11.659  11.422  67.034  1.00  0.00    -0.135 A  
HETATM   23  C   UNL     1     -11.357  12.618  66.389  1.00  0.00    -0.381 A  
HETATM   24  C   UNL     1     -10.567  13.583  67.038  1.00  0.00    -0.269 A  
HETATM   25  N   UNL     1     -10.175  14.727  66.227  1.00  0.00    -0.286 N  
ENDBRANCH  12  17
ENDBRANCH   3   5
ENDBRANCH   2   3
TORSDOF 5
ENDMDL
MODEL      147
REMARK 921   NORMALIZED FREE ENERGY PREDICTED BY IDOCK:   -2.38 KCAL/MOL
REMARK 922        TOTAL FREE ENERGY PREDICTED BY IDOCK:   -4.29 KCAL/MOL
REMARK 923 INTER-LIGAND FREE ENERGY PREDICTED BY IDOCK:   -3.96 KCAL/MOL
REMARK 924 INTRA-LIGAND FREE ENERGY PREDICTED BY IDOCK:   -0.34 KCAL/MOL
REMARK 927      BINDING AFFINITY PREDICTED BY RF-SCORE:    0.00 PKD
ROOT
HETATM    1  C   UNL     1     -10.010  15.019  65.770  1.00  0.00    -0.346 C  
HETATM    2  O   UNL     1      -9.568  15.126  67.126  1.00  0.00    -0.213 OA 
ENDROOT
BRANCH   2   3
HETATM    3  C   UNL     1      -9.903  14.084  67.920  1.00  0.00    -0.233 C  
HETATM    4  O   UNL     1     -10.408  14.182  69.028  1.00  0.00    -0.223 OA 
BRANCH   3   5
HETATM    5  C   UNL     1      -9.553  12.791  67.267  1.00  0.00    -0.208 C  
HETATM    6  C   UNL     1     -10.556  11.999  66.815  1.00  0.00    -0.227 C  
HETATM    7  N   UNL     1     -10.267  10.905  66.025  1.00  0.00    -0.247 NA 
HETATM    8  C   UNL     1     -12.028  12.163  67.117  1.00  0.00    -0.149 C  
HETATM    9  C   UNL     1      -9.001  10.491  65.668  1.00  0.00    -0.180 C  
HETATM   10  C   UNL     1      -8.958   9.275  64.768  1.00  0.00    -0.217 C  
HETATM   11  C   UNL     1      -7.914  11.157  66.128  1.00  0.00    -0.090 C  
HETATM   12  C   UNL     1      -8.070  12.427  67.007  1.00  0.00    -0.124 C  
BRANCH  11  13
HETATM   13  C   UNL     1      -6.572  10.558  65.889  1.00  0.00    -0.129 C  
HETATM   14  O   UNL     1      -5.644  11.160  65.363  1.00  0.00    -0.149 OA 
BRANCH  13  15
HETATM   15  O   UNL     1      -6.516   9.266  66.279  1.00  0.00    -0.064 OA 
HETATM   16  C   UNL     1      -5.327   8.561  65.890  1.00  0.00    -0.031 C  
ENDBRANCH  13  15
ENDBRANCH  11  13
BRANCH  12  17
HETATM   17  C   UNL     1      -7.287  12.262  68.321  1.00  0.00    -0.108 A  
HETATM   18  O   UNL     1      -6.122  14.816  67.239  1.00  0.00    -0.306 OA 
HETATM   19  O   UNL     1      -6.686  15.535  69.234  1.00  0.00    -0.132 OA 
HETATM   20  C   UNL     1      -7.383  11.031  69.006  1.00  0.00    -0.123 A  
HETATM   21  C   UNL     1      -6.677  10.797  70.190  1.00  0.00    -0.116 A  
HETATM   22  C   UNL     1      -5.842  11.776  70.719  1.00  0.00    -0.004 A  
HETATM   23  C   UNL     1      -5.745  13.013  70.089  1.00  0.00    -0.145 A  
HETATM   24  C   UNL     1      -6.482  13.261  68.917  1.00  0.00    -0.100 A  
HETATM   25  N   UNL     1      -6.438  14.630  68.423  1.00  0.00    -0.096 N  
ENDBRANCH  12  17
ENDBRANCH   3   5
ENDBRANCH   2   3
TORSDOF 5
ENDMDL
MODEL      148
REMARK 921   NORMALIZED FREE ENERGY PREDICTED BY IDOCK:   -2.32 KCAL/MOL
REMARK 922        TOTAL FREE ENERGY PREDICTED BY IDOCK:   -4.21 KCAL/MOL
REMARK 923 INTER-LIGAND FREE ENERGY PREDICTED BY IDOCK:   -4.94 KCAL/MOL
REMARK 924 INTRA-LIGAND FREE ENERGY PREDICTED BY IDOCK:    0.73 KCAL/MOL
REMARK 927      BINDING AFFINITY PREDICTED BY RF-SCORE:    0.00 PKD
ROOT
HETATM    1  C   UNL     1     -11.963  13.284  68.443  1.00  0.00    -0.301 C  
HETATM    2  O   UNL     1     -11.600  12.018  69.001  1.00  0.00    -0.264 OA 
ENDROOT
BRANCH   2   3
HETATM    3  C   UNL     1     -10.919  11.200  68.166  1.00  0.00    -0.238 C  
HETATM    4  O   UNL     1     -11.345  10.774  67.103  1.00  0.00    -0.372 OA 
BRANCH   3   5
HETATM    5  C   UNL     1      -9.581  10.868  68.730  1.00  0.00    -0.195 C  
HETATM    6  C   UNL     1      -8.526  11.654  68.405  1.00  0.00    -0.157 C  
HETATM    7  N   UNL     1      -7.325  11.503  69.068  1.00  0.00    -0.113 NA 
HETATM    8  C   UNL     1      -8.499  12.709  67.324  1.00  0.00    -0.193 C  
HETATM    9  C   UNL     1      -7.063  10.562  70.042  1.00  0.00    -0.127 C  
HETATM   10  C   UNL     1      -5.672  10.627  70.633  1.00  0.00    -0.111 C  
HETATM   11  C   UNL     1      -8.018   9.666  70.393  1.00  0.00    -0.191 C  
HETATM   12  C   UNL     1      -9.434   9.719  69.758  1.00  0.00    -0.253 C  
BRANCH  11  13
HETATM   13  C   UNL     1      -7.630   8.545  71.294  1.00  0.00    -0.101 C  
HETATM   14  O   UNL     1      -7.091   7.517  70.906  1.00  0.00    -0.057 OA 
BRANCH  13  15
HETATM   15  O   UNL     1      -7.984   8.781  72.577  1.00  0.00    -0.373 OA 
HETATM   16  C   UNL     1      -9.021   7.930  73.090  1.00  0.00    -0.243 C  
ENDBRANCH  13  15
ENDBRANCH  11  13
BRANCH  12  17
HETATM   17  C   UNL     1      -9.790   8.355  69.142  1.00  0.00    -0.183 A  
HETATM   18  O   UNL     1      -7.883   9.464  67.097  1.00  0.00    -0.098 OA 
HETATM   19  O   UNL     1      -6.898   7.536  67.449  1.00  0.00    -0.067 OA 
HETATM   20  C   UNL     1     -10.866   7.630  69.700  1.00  0.00    -0.195 A  
HETATM   21  C   UNL     1     -11.266   6.398  69.175  1.00  0.00    -0.421 A  
HETATM   22  C   UNL     1     -10.619   5.858  68.068  1.00  0.00    -0.321 A  
HETATM   23  C   UNL     1      -9.535   6.529  67.509  1.00  0.00    -0.131 A  
HETATM   24  C   UNL     1      -9.110   7.751  68.058  1.00  0.00    -0.128 A  
HETATM   25  N   UNL     1      -7.876   8.294  67.507  1.00  0.00    -0.105 N  
ENDBRANCH  12  17
ENDBRANCH   3   5
ENDBRANCH   2   3
TORSDOF 5
ENDMDL
MODEL      149
REMARK 921   NORMALIZED FREE ENERGY PREDICTED BY IDOCK:   -2.32 KCAL/MOL
REMARK 922        TOTAL FREE ENERGY PREDICTED BY IDOCK:   -4.21 KCAL/MOL
REMARK 923 INTER-LIGAND FREE ENERGY PREDICTED BY IDOCK:   -5.11 KCAL/MOL
REMARK 924 INTRA-LIGAND FREE ENERGY PREDICTED BY IDOCK:    0.90 KCAL/MOL
REMARK 927      BINDING AFFINITY PREDICTED BY RF-SCORE:    0.00 PKD
ROOT
HETATM    1  C   UNL     1      -5.903  10.949  68.785  1.00  0.00    -0.039 C  
HETATM    2  O   UNL     1      -7.180  10.541  69.286  1.00  0.00    -0.079 OA 
ENDROOT
BRANCH   2   3
HETATM    3  C   UNL     1      -7.137   9.750  70.381  1.00  0.00    -0.141 C  
HETATM    4  O   UNL     1      -6.521  10.004  71.405  1.00  0.00    -0.323 OA 
BRANCH   3   5
HETATM    5  C   UNL     1      -7.931   8.508  70.165  1.00  0.00    -0.105 C  
HETATM    6  C   UNL     1      -7.303   7.413  69.672  1.00  0.00    -0.091 C  
HETATM    7  N   UNL     1      -7.952   6.195  69.657  1.00  0.00    -0.105 NA 
HETATM    8  C   UNL     1      -5.915   7.373  69.076  1.00  0.00    -0.030 C  
HETATM    9  C   UNL     1      -9.249   5.977  70.071  1.00  0.00    -0.149 C  
HETATM   10  C   UNL     1      -9.715   4.540  69.978  1.00  0.00    -0.283 C  
HETATM   11  C   UNL     1     -10.006   7.014  70.508  1.00  0.00    -0.191 C  
HETATM   12  C   UNL     1      -9.413   8.445  70.611  1.00  0.00    -0.191 C  
BRANCH  11  13
HETATM   13  C   UNL     1     -11.455   6.771  70.749  1.00  0.00    -0.342 C  
HETATM   14  O   UNL     1     -12.265   6.556  69.857  1.00  0.00    -0.097 OA 
BRANCH  13  15
HETATM   15  O   UNL     1     -11.773   6.863  72.060  1.00  0.00    -0.278 OA 
HETATM   16  C   UNL     1     -11.651   5.640  72.803  1.00  0.00    -0.232 C  
ENDBRANCH  13  15
ENDBRANCH  11  13
BRANCH  12  17
HETATM   17  C   UNL     1     -10.286   9.438  69.825  1.00  0.00    -0.240 A  
HETATM   18  O   UNL     1      -8.784   8.067  67.609  1.00  0.00    -0.126 OA 
HETATM   19  O   UNL     1     -10.822   7.758  66.860  1.00  0.00    -0.311 OA 
HETATM   20  C   UNL     1     -10.965  10.446  70.544  1.00  0.00    -0.270 A  
HETATM   21  C   UNL     1     -11.752  11.402  69.896  1.00  0.00    -0.424 A  
HETATM   22  C   UNL     1     -11.874  11.394  68.510  1.00  0.00    -0.364 A  
HETATM   23  C   UNL     1     -11.244  10.398  67.769  1.00  0.00    -0.309 A  
HETATM   24  C   UNL     1     -10.481   9.416  68.424  1.00  0.00    -0.218 A  
HETATM   25  N   UNL     1      -9.994   8.331  67.583  1.00  0.00    -0.177 N  
ENDBRANCH  12  17
ENDBRANCH   3   5
ENDBRANCH   2   3
TORSDOF 5
ENDMDL
MODEL      150
REMARK 921   NORMALIZED FREE ENERGY PREDICTED BY IDOCK:   -2.30 KCAL/MOL
REMARK 922        TOTAL FREE ENERGY PREDICTED BY IDOCK:   -4.19 KCAL/MOL
REMARK 923 INTER-LIGAND FREE ENERGY PREDICTED BY IDOCK:   -2.99 KCAL/MOL
REMARK 924 INTRA-LIGAND FREE ENERGY PREDICTED BY IDOCK:   -1.20 KCAL/MOL
REMARK 927      BINDING AFFINITY PREDICTED BY RF-SCORE:    0.00 PKD
ROOT
HETATM    1  C   UNL     1      -6.556  11.844  67.322  1.00  0.00    -0.141 C  
HETATM    2  O   UNL     1      -6.705  10.534  67.877  1.00  0.00    -0.064 OA 
ENDROOT
BRANCH   2   3
HETATM    3  C   UNL     1      -7.818   9.872  67.487  1.00  0.00    -0.098 C  
HETATM    4  O   UNL     1      -8.954  10.318  67.543  1.00  0.00    -0.134 OA 
BRANCH   3   5
HETATM    5  C   UNL     1      -7.474   8.509  66.995  1.00  0.00    -0.084 C  
HETATM    6  C   UNL     1      -7.130   8.355  65.692  1.00  0.00    -0.075 C  
HETATM    7  N   UNL     1      -6.606   7.156  65.255  1.00  0.00    -0.046 NA 
HETATM    8  C   UNL     1      -7.289   9.387  64.600  1.00  0.00    -0.104 C  
HETATM    9  C   UNL     1      -6.431   6.031  66.033  1.00  0.00    -0.046 C  
HETATM   10  C   UNL     1      -5.810   4.852  65.317  1.00  0.00    -0.018 C  
HETATM   11  C   UNL     1      -6.816   6.038  67.333  1.00  0.00    -0.063 C  
HETATM   12  C   UNL     1      -7.398   7.320  67.985  1.00  0.00    -0.097 C  
BRANCH  11  13
HETATM   13  C   UNL     1      -6.798   4.747  68.076  1.00  0.00    -0.056 C  
HETATM   14  O   UNL     1      -5.955   4.457  68.914  1.00  0.00    -0.024 OA 
BRANCH  13  15
HETATM   15  O   UNL     1      -7.795   3.923  67.683  1.00  0.00    -0.081 OA 
HETATM   16  C   UNL     1      -7.934   2.721  68.458  1.00  0.00    -0.053 C  
ENDBRANCH  13  15
ENDBRANCH  11  13
BRANCH  12  17
HETATM   17  C   UNL     1      -8.768   7.019  68.617  1.00  0.00    -0.123 A  
HETATM   18  O   UNL     1      -7.016   7.248  71.051  1.00  0.00    -0.058 OA 
HETATM   19  O   UNL     1      -8.570   8.685  71.632  1.00  0.00    -0.170 OA 
HETATM   20  C   UNL     1      -9.817   6.598  67.770  1.00  0.00    -0.144 A  
HETATM   21  C   UNL     1     -11.080   6.278  68.275  1.00  0.00    -0.364 A  
HETATM   22  C   UNL     1     -11.333   6.350  69.641  1.00  0.00    -0.479 A  
HETATM   23  C   UNL     1     -10.334   6.790  70.505  1.00  0.00    -0.226 A  
HETATM   24  C   UNL     1      -9.073   7.145  69.993  1.00  0.00    -0.145 A  
HETATM   25  N   UNL     1      -8.149   7.740  70.948  1.00  0.00    -0.100 N  
ENDBRANCH  12  17
ENDBRANCH   3   5
ENDBRANCH   2   3
TORSDOF 5
ENDMDL
MODEL      151
REMARK 921   NORMALIZED FREE ENERGY PREDICTED BY IDOCK:   -2.28 KCAL/MOL
REMARK 922        TOTAL FREE ENERGY PREDICTED BY IDOCK:   -4.17 KCAL/MOL
REMARK 923 INTER-LIGAND FREE ENERGY PREDICTED BY IDOCK:   -3.25 KCAL/MOL
REMARK 924 INTRA-LIGAND FREE ENERGY PREDICTED BY IDOCK:   -0.92 KCAL/MOL
REMARK 927      BINDING AFFINITY PREDICTED BY RF-SCORE:    0.00 PKD
ROOT
HETATM    1  C   UNL     1     -10.189   4.041  65.292  1.00  0.00    -0.139 C  
HETATM    2  O   UNL     1     -10.275   5.310  65.947  1.00  0.00    -0.138 OA 
ENDROOT
BRANCH   2   3
HETATM    3  C   UNL     1      -9.086   5.878  66.250  1.00  0.00    -0.149 C  
HETATM    4  O   UNL     1      -7.995   5.366  66.051  1.00  0.00    -0.102 OA 
BRANCH   3   5
HETATM    5  C   UNL     1      -9.286   7.212  66.880  1.00  0.00    -0.174 C  
HETATM    6  C   UNL     1      -9.368   8.304  66.081  1.00  0.00    -0.188 C  
HETATM    7  N   UNL     1      -9.760   9.517  66.609  1.00  0.00    -0.195 NA 
HETATM    8  C   UNL     1      -9.034   8.358  64.608  1.00  0.00     0.271 C  
HETATM    9  C   UNL     1     -10.046   9.754  67.937  1.00  0.00    -0.173 C  
HETATM   10  C   UNL     1     -10.481  11.168  68.252  1.00  0.00    -0.215 C  
HETATM   11  C   UNL     1      -9.919   8.758  68.847  1.00  0.00    -0.200 C  
HETATM   12  C   UNL     1      -9.513   7.325  68.409  1.00  0.00    -0.142 C  
BRANCH  11  13
HETATM   13  C   UNL     1     -10.038   9.106  70.290  1.00  0.00    -0.206 C  
HETATM   14  O   UNL     1      -9.105   9.510  70.970  1.00  0.00    -0.224 OA 
BRANCH  13  15
HETATM   15  O   UNL     1     -11.284   8.882  70.763  1.00  0.00    -0.256 OA 
HETATM   16  C   UNL     1     -11.733   9.810  71.764  1.00  0.00    -0.204 C  
ENDBRANCH  13  15
ENDBRANCH  11  13
BRANCH  12  17
HETATM   17  C   UNL     1      -8.282   6.856  69.202  1.00  0.00    -0.121 A  
HETATM   18  O   UNL     1     -10.298   4.738  69.907  1.00  0.00    -0.238 OA 
HETATM   19  O   UNL     1      -8.678   3.429  69.218  1.00  0.00    -0.066 OA 
HETATM   20  C   UNL     1      -7.187   7.740  69.321  1.00  0.00    -0.081 A  
HETATM   21  C   UNL     1      -6.046   7.396  70.051  1.00  0.00    -0.027 A  
HETATM   22  C   UNL     1      -5.967   6.167  70.700  1.00  0.00    -0.026 A  
HETATM   23  C   UNL     1      -7.013   5.257  70.581  1.00  0.00    -0.052 A  
HETATM   24  C   UNL     1      -8.146   5.589  69.818  1.00  0.00    -0.101 A  
HETATM   25  N   UNL     1      -9.112   4.517  69.624  1.00  0.00    -0.100 N  
ENDBRANCH  12  17
ENDBRANCH   3   5
ENDBRANCH   2   3
TORSDOF 5
ENDMDL
MODEL      152
REMARK 921   NORMALIZED FREE ENERGY PREDICTED BY IDOCK:   -2.28 KCAL/MOL
REMARK 922        TOTAL FREE ENERGY PREDICTED BY IDOCK:   -4.17 KCAL/MOL
REMARK 923 INTER-LIGAND FREE ENERGY PREDICTED BY IDOCK:   -5.36 KCAL/MOL
REMARK 924 INTRA-LIGAND FREE ENERGY PREDICTED BY IDOCK:    1.20 KCAL/MOL
REMARK 927      BINDING AFFINITY PREDICTED BY RF-SCORE:    0.00 PKD
ROOT
HETATM    1  C   UNL     1     -10.129   6.005  74.422  1.00  0.00    -0.304 C  
HETATM    2  O   UNL     1     -10.312   6.669  73.167  1.00  0.00    -0.199 OA 
ENDROOT
BRANCH   2   3
HETATM    3  C   UNL     1      -9.696   7.868  73.060  1.00  0.00    -0.283 C  
HETATM    4  O   UNL     1      -8.867   8.302  73.846  1.00  0.00    -0.224 OA 
BRANCH   3   5
HETATM    5  C   UNL     1     -10.179   8.602  71.858  1.00  0.00    -0.404 C  
HETATM    6  C   UNL     1     -11.490   8.943  71.788  1.00  0.00    -0.353 C  
HETATM    7  N   UNL     1     -11.926   9.800  70.799  1.00  0.00    -0.296 NA 
HETATM    8  C   UNL     1     -12.591   8.444  72.695  1.00  0.00    -0.224 C  
HETATM    9  C   UNL     1     -11.139  10.335  69.801  1.00  0.00    -0.287 C  
HETATM   10  C   UNL     1     -11.858  11.271  68.855  1.00  0.00    -0.413 C  
HETATM   11  C   UNL     1      -9.828  10.001  69.719  1.00  0.00    -0.270 C  
HETATM   12  C   UNL     1      -9.175   9.068  70.774  1.00  0.00    -0.299 C  
BRANCH  11  13
HETATM   13  C   UNL     1      -9.068  10.436  68.515  1.00  0.00    -0.145 C  
HETATM   14  O   UNL     1      -9.043   9.808  67.464  1.00  0.00    -0.131 OA 
BRANCH  13  15
HETATM   15  O   UNL     1      -8.378  11.577  68.736  1.00  0.00    -0.141 OA 
HETATM   16  C   UNL     1      -6.954  11.418  68.840  1.00  0.00    -0.098 C  
ENDBRANCH  13  15
ENDBRANCH  11  13
BRANCH  12  17
HETATM   17  C   UNL     1      -8.496   7.876  70.080  1.00  0.00    -0.134 A  
HETATM   18  O   UNL     1     -11.389   7.058  69.993  1.00  0.00    -0.281 OA 
HETATM   19  O   UNL     1     -10.924   6.836  67.860  1.00  0.00    -0.252 OA 
HETATM   20  C   UNL     1      -7.089   7.777  70.146  1.00  0.00    -0.054 A  
HETATM   21  C   UNL     1      -6.404   6.706  69.565  1.00  0.00    -0.042 A  
HETATM   22  C   UNL     1      -7.100   5.692  68.914  1.00  0.00    -0.069 A  
HETATM   23  C   UNL     1      -8.485   5.770  68.801  1.00  0.00    -0.107 A  
HETATM   24  C   UNL     1      -9.171   6.865  69.356  1.00  0.00    -0.147 A  
HETATM   25  N   UNL     1     -10.593   6.937  69.051  1.00  0.00    -0.207 N  
ENDBRANCH  12  17
ENDBRANCH   3   5
ENDBRANCH   2   3
TORSDOF 5
ENDMDL
MODEL      153
REMARK 921   NORMALIZED FREE ENERGY PREDICTED BY IDOCK:   -2.28 KCAL/MOL
REMARK 922        TOTAL FREE ENERGY PREDICTED BY IDOCK:   -4.16 KCAL/MOL
REMARK 923 INTER-LIGAND FREE ENERGY PREDICTED BY IDOCK:   -5.01 KCAL/MOL
REMARK 924 INTRA-LIGAND FREE ENERGY PREDICTED BY IDOCK:    0.85 KCAL/MOL
REMARK 927      BINDING AFFINITY PREDICTED BY RF-SCORE:    0.00 PKD
ROOT
HETATM    1  C   UNL     1      -8.134   9.805  65.024  1.00  0.00    -0.134 C  
HETATM    2  O   UNL     1      -8.307   9.296  66.350  1.00  0.00    -0.116 OA 
ENDROOT
BRANCH   2   3
HETATM    3  C   UNL     1      -9.354   9.816  67.030  1.00  0.00    -0.147 C  
HETATM    4  O   UNL     1     -10.145  10.632  66.580  1.00  0.00    -0.208 OA 
BRANCH   3   5
HETATM    5  C   UNL     1      -9.403   9.275  68.416  1.00  0.00    -0.142 C  
HETATM    6  C   UNL     1      -8.687   9.899  69.383  1.00  0.00    -0.179 C  
HETATM    7  N   UNL     1      -8.873   9.556  70.707  1.00  0.00    -0.229 NA 
HETATM    8  C   UNL     1      -7.632  10.959  69.169  1.00  0.00    -0.133 C  
HETATM    9  C   UNL     1      -9.719   8.567  71.165  1.00  0.00    -0.201 C  
HETATM   10  C   UNL     1      -9.760   8.409  72.668  1.00  0.00    -0.332 C  
HETATM   11  C   UNL     1     -10.426   7.818  70.283  1.00  0.00    -0.225 C  
HETATM   12  C   UNL     1     -10.349   8.097  68.758  1.00  0.00    -0.220 C  
BRANCH  11  13
HETATM   13  C   UNL     1     -11.165   6.635  70.804  1.00  0.00    -0.315 C  
HETATM   14  O   UNL     1     -10.626   5.693  71.369  1.00  0.00    -0.239 OA 
BRANCH  13  15
HETATM   15  O   UNL     1     -12.488   6.706  70.537  1.00  0.00    -0.248 OA 
HETATM   16  C   UNL     1     -13.269   7.418  71.510  1.00  0.00    -0.372 C  
ENDBRANCH  13  15
ENDBRANCH  11  13
BRANCH  12  17
HETATM   17  C   UNL     1      -9.956   6.815  68.004  1.00  0.00    -0.162 A  
HETATM   18  O   UNL     1      -7.358   7.563  69.321  1.00  0.00    -0.084 OA 
HETATM   19  O   UNL     1      -7.499   5.493  70.033  1.00  0.00    -0.067 OA 
HETATM   20  C   UNL     1     -10.863   6.293  67.055  1.00  0.00    -0.458 A  
HETATM   21  C   UNL     1     -10.563   5.149  66.311  1.00  0.00    -0.325 A  
HETATM   22  C   UNL     1      -9.343   4.500  66.475  1.00  0.00    -0.155 A  
HETATM   23  C   UNL     1      -8.436   4.966  67.422  1.00  0.00    -0.105 A  
HETATM   24  C   UNL     1      -8.753   6.097  68.196  1.00  0.00    -0.114 A  
HETATM   25  N   UNL     1      -7.814   6.412  69.264  1.00  0.00    -0.104 N  
ENDBRANCH  12  17
ENDBRANCH   3   5
ENDBRANCH   2   3
TORSDOF 5
ENDMDL
MODEL      154
REMARK 921   NORMALIZED FREE ENERGY PREDICTED BY IDOCK:   -2.24 KCAL/MOL
REMARK 922        TOTAL FREE ENERGY PREDICTED BY IDOCK:   -4.12 KCAL/MOL
REMARK 923 INTER-LIGAND FREE ENERGY PREDICTED BY IDOCK:   -2.82 KCAL/MOL
REMARK 924 INTRA-LIGAND FREE ENERGY PREDICTED BY IDOCK:   -1.30 KCAL/MOL
REMARK 927      BINDING AFFINITY PREDICTED BY RF-SCORE:    0.00 PKD
ROOT
HETATM    1  C   UNL     1      -9.575   4.173  62.796  1.00  0.00    -0.137 C  
HETATM    2  O   UNL     1      -9.339   4.542  64.158  1.00  0.00    -0.148 OA 
ENDROOT
BRANCH   2   3
HETATM    3  C   UNL     1      -8.057   4.414  64.571  1.00  0.00    -0.096 C  
HETATM    4  O   UNL     1      -7.083   4.400  63.834  1.00  0.00    -0.045 OA 
BRANCH   3   5
HETATM    5  C   UNL     1      -7.993   4.270  66.051  1.00  0.00    -0.098 C  
HETATM    6  C   UNL     1      -8.256   3.058  66.599  1.00  0.00    -0.090 C  
HETATM    7  N   UNL     1      -8.002   2.837  67.937  1.00  0.00    -0.059 NA 
HETATM    8  C   UNL     1      -8.855   1.868  65.885  1.00  0.00    -0.122 C  
HETATM    9  C   UNL     1      -7.528   3.778  68.826  1.00  0.00    -0.054 C  
HETATM   10  C   UNL     1      -7.308   3.271  70.234  1.00  0.00    -0.041 C  
HETATM   11  C   UNL     1      -7.306   5.050  68.412  1.00  0.00    -0.066 C  
HETATM   12  C   UNL     1      -7.517   5.454  66.929  1.00  0.00    -0.088 C  
BRANCH  11  13
HETATM   13  C   UNL     1      -6.992   6.078  69.444  1.00  0.00    -0.064 C  
HETATM   14  O   UNL     1      -5.862   6.489  69.671  1.00  0.00    -0.014 OA 
BRANCH  13  15
HETATM   15  O   UNL     1      -8.094   6.464  70.124  1.00  0.00    -0.116 OA 
HETATM   16  C   UNL     1      -8.266   7.885  70.249  1.00  0.00    -0.124 C  
ENDBRANCH  13  15
ENDBRANCH  11  13
BRANCH  12  17
HETATM   17  C   UNL     1      -8.478   6.652  66.837  1.00  0.00    -0.115 A  
HETATM   18  O   UNL     1      -5.800   8.014  66.689  1.00  0.00    -0.042 OA 
HETATM   19  O   UNL     1      -6.702   8.873  64.883  1.00  0.00    -0.069 OA 
HETATM   20  C   UNL     1      -9.844   6.435  67.120  1.00  0.00    -0.182 A  
HETATM   21  C   UNL     1     -10.772   7.480  67.086  1.00  0.00    -0.379 A  
HETATM   22  C   UNL     1     -10.365   8.776  66.786  1.00  0.00    -0.328 A  
HETATM   23  C   UNL     1      -9.032   9.024  66.471  1.00  0.00    -0.177 A  
HETATM   24  C   UNL     1      -8.105   7.967  66.471  1.00  0.00    -0.107 A  
HETATM   25  N   UNL     1      -6.775   8.295  65.977  1.00  0.00    -0.056 N  
ENDBRANCH  12  17
ENDBRANCH   3   5
ENDBRANCH   2   3
TORSDOF 5
ENDMDL
MODEL      155
REMARK 921   NORMALIZED FREE ENERGY PREDICTED BY IDOCK:   -2.24 KCAL/MOL
REMARK 922        TOTAL FREE ENERGY PREDICTED BY IDOCK:   -4.11 KCAL/MOL
REMARK 923 INTER-LIGAND FREE ENERGY PREDICTED BY IDOCK:   -5.30 KCAL/MOL
REMARK 924 INTRA-LIGAND FREE ENERGY PREDICTED BY IDOCK:    1.19 KCAL/MOL
REMARK 927      BINDING AFFINITY PREDICTED BY RF-SCORE:    0.00 PKD
ROOT
HETATM    1  C   UNL     1     -10.199  12.961  68.190  1.00  0.00    -0.239 C  
HETATM    2  O   UNL     1     -10.362  11.823  69.041  1.00  0.00    -0.167 OA 
ENDROOT
BRANCH   2   3
HETATM    3  C   UNL     1     -11.328  10.957  68.658  1.00  0.00    -0.295 C  
HETATM    4  O   UNL     1     -12.116  11.148  67.744  1.00  0.00    -0.606 OA 
BRANCH   3   5
HETATM    5  C   UNL     1     -11.317   9.742  69.518  1.00  0.00    -0.127 C  
HETATM    6  C   UNL     1     -12.023   9.758  70.676  1.00  0.00    -0.259 C  
HETATM    7  N   UNL     1     -12.206   8.590  71.387  1.00  0.00    -0.301 NA 
HETATM    8  C   UNL     1     -12.638  10.974  71.329  1.00  0.00    -0.517 C  
HETATM    9  C   UNL     1     -11.684   7.359  71.049  1.00  0.00    -0.297 C  
HETATM   10  C   UNL     1     -12.058   6.230  71.984  1.00  0.00    -0.321 C  
HETATM   11  C   UNL     1     -10.892   7.235  69.956  1.00  0.00    -0.271 C  
HETATM   12  C   UNL     1     -10.611   8.451  69.033  1.00  0.00    -0.172 C  
BRANCH  11  13
HETATM   13  C   UNL     1     -10.186   5.941  69.744  1.00  0.00    -0.218 C  
HETATM   14  O   UNL     1     -10.382   5.210  68.782  1.00  0.00    -0.166 OA 
BRANCH  13  15
HETATM   15  O   UNL     1      -9.343   5.652  70.760  1.00  0.00    -0.158 OA 
HETATM   16  C   UNL     1      -8.272   4.755  70.427  1.00  0.00    -0.083 C  
ENDBRANCH  13  15
ENDBRANCH  11  13
BRANCH  12  17
HETATM   17  C   UNL     1      -9.094   8.659  68.876  1.00  0.00    -0.145 A  
HETATM   18  O   UNL     1      -9.516   9.427  71.754  1.00  0.00    -0.242 OA 
HETATM   19  O   UNL     1      -7.924   7.946  72.042  1.00  0.00    -0.097 OA 
HETATM   20  C   UNL     1      -8.548   8.632  67.574  1.00  0.00    -0.135 A  
HETATM   21  C   UNL     1      -7.184   8.842  67.351  1.00  0.00    -0.080 A  
HETATM   22  C   UNL     1      -6.326   9.102  68.415  1.00  0.00    -0.054 A  
HETATM   23  C   UNL     1      -6.822   9.105  69.715  1.00  0.00    -0.051 A  
HETATM   24  C   UNL     1      -8.187   8.860  69.943  1.00  0.00    -0.118 A  
HETATM   25  N   UNL     1      -8.580   8.728  71.340  1.00  0.00    -0.187 N  
ENDBRANCH  12  17
ENDBRANCH   3   5
ENDBRANCH   2   3
TORSDOF 5
ENDMDL
MODEL      156
REMARK 921   NORMALIZED FREE ENERGY PREDICTED BY IDOCK:   -2.21 KCAL/MOL
REMARK 922        TOTAL FREE ENERGY PREDICTED BY IDOCK:   -4.08 KCAL/MOL
REMARK 923 INTER-LIGAND FREE ENERGY PREDICTED BY IDOCK:   -3.39 KCAL/MOL
REMARK 924 INTRA-LIGAND FREE ENERGY PREDICTED BY IDOCK:   -0.69 KCAL/MOL
REMARK 927      BINDING AFFINITY PREDICTED BY RF-SCORE:    0.00 PKD
ROOT
HETATM    1  C   UNL     1     -11.376   4.933  73.214  1.00  0.00    -0.327 C  
HETATM    2  O   UNL     1     -10.304   5.567  72.510  1.00  0.00    -0.190 OA 
ENDROOT
BRANCH   2   3
HETATM    3  C   UNL     1     -10.124   6.875  72.800  1.00  0.00    -0.177 C  
HETATM    4  O   UNL     1     -10.583   7.444  73.779  1.00  0.00    -0.349 OA 
BRANCH   3   5
HETATM    5  C   UNL     1      -9.302   7.539  71.751  1.00  0.00    -0.168 C  
HETATM    6  C   UNL     1      -7.977   7.715  71.976  1.00  0.00    -0.100 C  
HETATM    7  N   UNL     1      -7.153   8.131  70.951  1.00  0.00    -0.048 NA 
HETATM    8  C   UNL     1      -7.265   7.529  73.296  1.00  0.00    -0.093 C  
HETATM    9  C   UNL     1      -7.564   8.443  69.673  1.00  0.00    -0.089 C  
HETATM   10  C   UNL     1      -6.455   8.848  68.727  1.00  0.00    -0.053 C  
HETATM   11  C   UNL     1      -8.880   8.385  69.350  1.00  0.00    -0.142 C  
HETATM   12  C   UNL     1      -9.934   7.907  70.385  1.00  0.00    -0.192 C  
BRANCH  11  13
HETATM   13  C   UNL     1      -9.302   8.924  68.028  1.00  0.00    -0.142 C  
HETATM   14  O   UNL     1      -9.892   8.264  67.182  1.00  0.00    -0.177 OA 
BRANCH  13  15
HETATM   15  O   UNL     1      -8.918  10.209  67.859  1.00  0.00    -0.127 OA 
HETATM   16  C   UNL     1      -9.092  10.727  66.530  1.00  0.00    -0.165 C  
ENDBRANCH  13  15
ENDBRANCH  11  13
BRANCH  12  17
HETATM   17  C   UNL     1     -11.043   8.963  70.538  1.00  0.00    -0.288 A  
HETATM   18  O   UNL     1     -12.647   6.473  70.012  1.00  0.00     0.348 OA 
HETATM   19  O   UNL     1     -13.639   7.115  71.860  1.00  0.00    -0.303 OA 
HETATM   20  C   UNL     1     -10.671  10.325  70.554  1.00  0.00    -0.212 A  
HETATM   21  C   UNL     1     -11.625  11.341  70.660  1.00  0.00    -0.117 A  
HETATM   22  C   UNL     1     -12.979  11.033  70.737  1.00  0.00    -0.263 A  
HETATM   23  C   UNL     1     -13.382   9.701  70.755  1.00  0.00    -0.083 A  
HETATM   24  C   UNL     1     -12.421   8.678  70.683  1.00  0.00     0.239 A  
HETATM   25  N   UNL     1     -12.925   7.324  70.868  1.00  0.00    -0.168 N  
ENDBRANCH  12  17
ENDBRANCH   3   5
ENDBRANCH   2   3
TORSDOF 5
ENDMDL
MODEL      157
REMARK 921   NORMALIZED FREE ENERGY PREDICTED BY IDOCK:   -2.16 KCAL/MOL
REMARK 922        TOTAL FREE ENERGY PREDICTED BY IDOCK:   -4.01 KCAL/MOL
REMARK 923 INTER-LIGAND FREE ENERGY PREDICTED BY IDOCK:   -6.30 KCAL/MOL
REMARK 924 INTRA-LIGAND FREE ENERGY PREDICTED BY IDOCK:    2.29 KCAL/MOL
REMARK 927      BINDING AFFINITY PREDICTED BY RF-SCORE:    0.00 PKD
ROOT
HETATM    1  C   UNL     1     -11.134  18.644  65.836  1.00  0.00     0.421 C  
HETATM    2  O   UNL     1     -10.233  17.724  65.214  1.00  0.00    -0.381 OA 
ENDROOT
BRANCH   2   3
HETATM    3  C   UNL     1     -10.782  16.543  64.851  1.00  0.00    -0.146 C  
HETATM    4  O   UNL     1     -11.539  16.385  63.905  1.00  0.00    -1.100 OA 
BRANCH   3   5
HETATM    5  C   UNL     1     -10.355  15.457  65.775  1.00  0.00    -0.381 C  
HETATM    6  C   UNL     1     -11.193  14.411  65.982  1.00  0.00    -0.333 C  
HETATM    7  N   UNL     1     -10.748  13.295  66.660  1.00  0.00    -0.279 NA 
HETATM    8  C   UNL     1     -12.643  14.334  65.561  1.00  0.00    -0.429 C  
HETATM    9  C   UNL     1      -9.495  13.144  67.213  1.00  0.00    -0.225 C  
HETATM   10  C   UNL     1      -9.249  11.809  67.880  1.00  0.00    -0.181 C  
HETATM   11  C   UNL     1      -8.596  14.157  67.143  1.00  0.00    -0.230 C  
HETATM   12  C   UNL     1      -8.933  15.471  66.389  1.00  0.00    -0.359 C  
BRANCH  11  13
HETATM   13  C   UNL     1      -7.335  14.031  67.926  1.00  0.00    -0.157 C  
HETATM   14  O   UNL     1      -6.275  13.650  67.449  1.00  0.00    -0.323 OA 
BRANCH  13  15
HETATM   15  O   UNL     1      -7.516  14.344  69.229  1.00  0.00    -0.124 OA 
HETATM   16  C   UNL     1      -6.321  14.344  70.027  1.00  0.00    -0.160 C  
ENDBRANCH  13  15
ENDBRANCH  11  13
BRANCH  12  17
HETATM   17  C   UNL     1      -8.725  16.682  67.315  1.00  0.00    -0.207 A  
HETATM   18  O   UNL     1     -11.341  15.590  68.322  1.00  0.00    -0.328 OA 
HETATM   19  O   UNL     1     -10.257  15.649  70.229  1.00  0.00    -0.287 OA 
HETATM   20  C   UNL     1      -7.709  17.607  66.988  1.00  0.00    -0.234 A  
HETATM   21  C   UNL     1      -7.482  18.746  67.766  1.00  0.00    -0.245 A  
HETATM   22  C   UNL     1      -8.270  19.008  68.882  1.00  0.00    -0.303 A  
HETATM   23  C   UNL     1      -9.261  18.104  69.253  1.00  0.00     0.194 A  
HETATM   24  C   UNL     1      -9.468  16.941  68.491  1.00  0.00    -0.266 A  
HETATM   25  N   UNL     1     -10.415  15.984  69.046  1.00  0.00    -0.230 N  
ENDBRANCH  12  17
ENDBRANCH   3   5
ENDBRANCH   2   3
TORSDOF 5
ENDMDL
MODEL      158
REMARK 921   NORMALIZED FREE ENERGY PREDICTED BY IDOCK:   -2.15 KCAL/MOL
REMARK 922        TOTAL FREE ENERGY PREDICTED BY IDOCK:   -4.00 KCAL/MOL
REMARK 923 INTER-LIGAND FREE ENERGY PREDICTED BY IDOCK:   -5.26 KCAL/MOL
REMARK 924 INTRA-LIGAND FREE ENERGY PREDICTED BY IDOCK:    1.26 KCAL/MOL
REMARK 927      BINDING AFFINITY PREDICTED BY RF-SCORE:    0.00 PKD
ROOT
HETATM    1  C   UNL     1      -7.610   8.954  67.885  1.00  0.00    -0.093 C  
HETATM    2  O   UNL     1      -8.725   8.429  67.159  1.00  0.00    -0.124 OA 
ENDROOT
BRANCH   2   3
HETATM    3  C   UNL     1      -9.818   8.158  67.908  1.00  0.00    -0.169 C  
HETATM    4  O   UNL     1     -10.961   8.483  67.623  1.00  0.00    -0.091 OA 
BRANCH   3   5
HETATM    5  C   UNL     1      -9.439   7.423  69.147  1.00  0.00    -0.149 C  
HETATM    6  C   UNL     1      -9.054   6.127  69.043  1.00  0.00    -0.124 C  
HETATM    7  N   UNL     1      -8.499   5.484  70.130  1.00  0.00    -0.115 NA 
HETATM    8  C   UNL     1      -9.199   5.250  67.821  1.00  0.00    -0.120 C  
HETATM    9  C   UNL     1      -8.328   6.036  71.382  1.00  0.00    -0.127 C  
HETATM   10  C   UNL     1      -7.667   5.126  72.394  1.00  0.00    -0.097 C  
HETATM   11  C   UNL     1      -8.750   7.300  71.630  1.00  0.00    -0.122 C  
HETATM   12  C   UNL     1      -9.372   8.168  70.504  1.00  0.00    -0.159 C  
BRANCH  11  13
HETATM   13  C   UNL     1      -8.733   7.781  73.040  1.00  0.00    -0.185 C  
HETATM   14  O   UNL     1      -9.501   7.379  73.903  1.00  0.00    -0.255 OA 
BRANCH  13  15
HETATM   15  O   UNL     1      -7.802   8.741  73.236  1.00  0.00    -0.400 OA 
HETATM   16  C   UNL     1      -6.863   8.473  74.289  1.00  0.00    -0.121 C  
ENDBRANCH  13  15
ENDBRANCH  11  13
BRANCH  12  17
HETATM   17  C   UNL     1     -10.754   8.687  70.936  1.00  0.00    -0.269 A  
HETATM   18  O   UNL     1     -11.363   5.815  70.279  1.00  0.00    -0.262 OA 
HETATM   19  O   UNL     1     -12.200   5.870  72.306  1.00  0.00    -0.245 OA 
HETATM   20  C   UNL     1     -10.927  10.080  71.090  1.00  0.00    -0.183 A  
HETATM   21  C   UNL     1     -12.162  10.627  71.451  1.00  0.00    -0.405 A  
HETATM   22  C   UNL     1     -13.266   9.805  71.653  1.00  0.00    -0.514 A  
HETATM   23  C   UNL     1     -13.127   8.425  71.540  1.00  0.00    -0.316 A  
HETATM   24  C   UNL     1     -11.878   7.872  71.211  1.00  0.00    -0.296 A  
HETATM   25  N   UNL     1     -11.795   6.419  71.271  1.00  0.00    -0.316 N  
ENDBRANCH  12  17
ENDBRANCH   3   5
ENDBRANCH   2   3
TORSDOF 5
ENDMDL
MODEL      159
REMARK 921   NORMALIZED FREE ENERGY PREDICTED BY IDOCK:   -2.14 KCAL/MOL
REMARK 922        TOTAL FREE ENERGY PREDICTED BY IDOCK:   -3.99 KCAL/MOL
REMARK 923 INTER-LIGAND FREE ENERGY PREDICTED BY IDOCK:   -4.82 KCAL/MOL
REMARK 924 INTRA-LIGAND FREE ENERGY PREDICTED BY IDOCK:    0.83 KCAL/MOL
REMARK 927      BINDING AFFINITY PREDICTED BY RF-SCORE:    0.00 PKD
ROOT
HETATM    1  C   UNL     1      -8.444  10.522  69.225  1.00  0.00    -0.129 C  
HETATM    2  O   UNL     1      -8.004  11.861  68.978  1.00  0.00    -0.015 OA 
ENDROOT
BRANCH   2   3
HETATM    3  C   UNL     1      -7.639  12.116  67.702  1.00  0.00    -0.140 C  
HETATM    4  O   UNL     1      -7.308  11.269  66.886  1.00  0.00    -0.131 OA 
BRANCH   3   5
HETATM    5  C   UNL     1      -7.673  13.579  67.427  1.00  0.00    -0.149 C  
HETATM    6  C   UNL     1      -6.530  14.295  67.570  1.00  0.00    -0.041 C  
HETATM    7  N   UNL     1      -6.474  15.600  67.126  1.00  0.00    -0.302 NA 
HETATM    8  C   UNL     1      -5.253  13.815  68.222  1.00  0.00    -0.109 C  
HETATM    9  C   UNL     1      -7.522  16.298  66.565  1.00  0.00    -0.134 C  
HETATM   10  C   UNL     1      -7.190  17.709  66.134  1.00  0.00    -0.352 C  
HETATM   11  C   UNL     1      -8.739  15.713  66.446  1.00  0.00    -0.354 C  
HETATM   12  C   UNL     1      -8.961  14.238  66.874  1.00  0.00    -0.255 C  
BRANCH  11  13
HETATM   13  C   UNL     1      -9.888  16.564  66.027  1.00  0.00    -0.322 C  
HETATM   14  O   UNL     1     -10.481  17.323  66.782  1.00  0.00    -0.313 OA 
BRANCH  13  15
HETATM   15  O   UNL     1     -10.221  16.364  64.732  1.00  0.00    -0.381 OA 
HETATM   16  C   UNL     1     -11.580  15.955  64.509  1.00  0.00    -0.232 C  
ENDBRANCH  13  15
ENDBRANCH  11  13
BRANCH  12  17
HETATM   17  C   UNL     1     -10.122  14.146  67.879  1.00  0.00    -0.235 A  
HETATM   18  O   UNL     1      -8.004  15.511  69.523  1.00  0.00    -0.228 OA 
HETATM   19  O   UNL     1      -9.631  16.952  69.827  1.00  0.00     0.182 OA 
HETATM   20  C   UNL     1     -11.230  13.336  67.548  1.00  0.00    -0.309 A  
HETATM   21  C   UNL     1     -12.309  13.181  68.424  1.00  0.00     0.143 A  
HETATM   22  C   UNL     1     -12.309  13.813  69.663  1.00  0.00    -0.284 A  
HETATM   23  C   UNL     1     -11.249  14.645  70.012  1.00  0.00    -0.252 A  
HETATM   24  C   UNL     1     -10.180  14.829  69.117  1.00  0.00    -0.220 A  
HETATM   25  N   UNL     1      -9.201  15.835  69.503  1.00  0.00    -0.257 N  
ENDBRANCH  12  17
ENDBRANCH   3   5
ENDBRANCH   2   3
TORSDOF 5
ENDMDL
MODEL      160
REMARK 921   NORMALIZED FREE ENERGY PREDICTED BY IDOCK:   -2.11 KCAL/MOL
REMARK 922        TOTAL FREE ENERGY PREDICTED BY IDOCK:   -3.95 KCAL/MOL
REMARK 923 INTER-LIGAND FREE ENERGY PREDICTED BY IDOCK:   -4.88 KCAL/MOL
REMARK 924 INTRA-LIGAND FREE ENERGY PREDICTED BY IDOCK:    0.93 KCAL/MOL
REMARK 927      BINDING AFFINITY PREDICTED BY RF-SCORE:    0.00 PKD
ROOT
HETATM    1  C   UNL     1     -10.457  16.003  67.395  1.00  0.00    -0.308 C  
HETATM    2  O   UNL     1      -9.599  14.864  67.285  1.00  0.00    -0.210 OA 
ENDROOT
BRANCH   2   3
HETATM    3  C   UNL     1     -10.150  13.693  67.677  1.00  0.00    -0.242 C  
HETATM    4  O   UNL     1     -10.716  13.509  68.744  1.00  0.00    -0.247 OA 
BRANCH   3   5
HETATM    5  C   UNL     1      -9.955  12.645  66.637  1.00  0.00    -0.247 C  
HETATM    6  C   UNL     1     -10.895  12.506  65.670  1.00  0.00    -0.277 C  
HETATM    7  N   UNL     1     -10.648  11.696  64.581  1.00  0.00    -0.295 NA 
HETATM    8  C   UNL     1     -12.266  13.142  65.661  1.00  0.00    -0.521 C  
HETATM    9  C   UNL     1      -9.508  10.945  64.387  1.00  0.00    -0.247 C  
HETATM   10  C   UNL     1      -9.473  10.163  63.092  1.00  0.00    -0.296 C  
HETATM   11  C   UNL     1      -8.531  10.939  65.327  1.00  0.00    -0.060 C  
HETATM   12  C   UNL     1      -8.645  11.819  66.600  1.00  0.00    -0.170 C  
BRANCH  11  13
HETATM   13  C   UNL     1      -7.418   9.962  65.175  1.00  0.00    -0.133 C  
HETATM   14  O   UNL     1      -7.557   8.751  65.288  1.00  0.00    -0.087 OA 
BRANCH  13  15
HETATM   15  O   UNL     1      -6.235  10.573  64.943  1.00  0.00    -0.121 OA 
HETATM   16  C   UNL     1      -5.663  10.323  63.649  1.00  0.00    -0.144 C  
ENDBRANCH  13  15
ENDBRANCH  11  13
BRANCH  12  17
HETATM   17  C   UNL     1      -8.484  10.952  67.861  1.00  0.00    -0.129 A  
HETATM   18  O   UNL     1     -11.089   9.934  66.752  1.00  0.00    -0.009 OA 
HETATM   19  O   UNL     1     -10.041   8.015  66.934  1.00  0.00    -0.238 OA 
HETATM   20  C   UNL     1      -7.487  11.308  68.794  1.00  0.00    -0.123 A  
HETATM   21  C   UNL     1      -7.301  10.585  69.976  1.00  0.00    -0.064 A  
HETATM   22  C   UNL     1      -8.115   9.496  70.273  1.00  0.00    -0.200 A  
HETATM   23  C   UNL     1      -9.090   9.096  69.363  1.00  0.00    -0.148 A  
HETATM   24  C   UNL     1      -9.254   9.802  68.158  1.00  0.00    -0.128 A  
HETATM   25  N   UNL     1     -10.186   9.216  67.206  1.00  0.00    -0.234 N  
ENDBRANCH  12  17
ENDBRANCH   3   5
ENDBRANCH   2   3
TORSDOF 5
ENDMDL
MODEL      161
REMARK 921   NORMALIZED FREE ENERGY PREDICTED BY IDOCK:   -2.08 KCAL/MOL
REMARK 922        TOTAL FREE ENERGY PREDICTED BY IDOCK:   -3.91 KCAL/MOL
REMARK 923 INTER-LIGAND FREE ENERGY PREDICTED BY IDOCK:   -4.68 KCAL/MOL
REMARK 924 INTRA-LIGAND FREE ENERGY PREDICTED BY IDOCK:    0.77 KCAL/MOL
REMARK 927      BINDING AFFINITY PREDICTED BY RF-SCORE:    0.00 PKD
ROOT
HETATM    1  C   UNL     1      -7.936   3.907  73.817  1.00  0.00    -0.087 C  
HETATM    2  O   UNL     1      -8.303   3.415  72.525  1.00  0.00    -0.081 OA 
ENDROOT
BRANCH   2   3
HETATM    3  C   UNL     1      -9.617   3.524  72.224  1.00  0.00    -0.142 C  
HETATM    4  O   UNL     1     -10.517   2.924  72.791  1.00  0.00    -0.158 OA 
BRANCH   3   5
HETATM    5  C   UNL     1      -9.821   4.465  71.088  1.00  0.00    -0.258 C  
HETATM    6  C   UNL     1      -9.704   3.991  69.823  1.00  0.00    -0.184 C  
HETATM    7  N   UNL     1     -10.090   4.776  68.755  1.00  0.00    -0.108 NA 
HETATM    8  C   UNL     1      -9.143   2.647  69.422  1.00  0.00    -0.188 C  
HETATM    9  C   UNL     1     -10.561   6.069  68.844  1.00  0.00    -0.290 C  
HETATM   10  C   UNL     1     -10.942   6.701  67.523  1.00  0.00    -0.416 C  
HETATM   11  C   UNL     1     -10.644   6.679  70.052  1.00  0.00    -0.266 C  
HETATM   12  C   UNL     1     -10.274   5.922  71.355  1.00  0.00    -0.261 C  
BRANCH  11  13
HETATM   13  C   UNL     1     -10.961   8.134  70.081  1.00  0.00    -0.223 C  
HETATM   14  O   UNL     1     -10.239   8.997  69.599  1.00  0.00    -0.193 OA 
BRANCH  13  15
HETATM   15  O   UNL     1     -12.113   8.388  70.741  1.00  0.00    -0.203 OA 
HETATM   16  C   UNL     1     -11.996   9.296  71.847  1.00  0.00    -0.363 C  
ENDBRANCH  13  15
ENDBRANCH  11  13
BRANCH  12  17
HETATM   17  C   UNL     1      -9.215   6.711  72.144  1.00  0.00    -0.138 A  
HETATM   18  O   UNL     1      -7.612   5.726  69.796  1.00  0.00    -0.076 OA 
HETATM   19  O   UNL     1      -7.140   7.863  69.640  1.00  0.00    -0.059 OA 
HETATM   20  C   UNL     1      -9.531   7.127  73.456  1.00  0.00    -0.249 A  
HETATM   21  C   UNL     1      -8.609   7.821  74.244  1.00  0.00    -0.268 A  
HETATM   22  C   UNL     1      -7.338   8.108  73.757  1.00  0.00    -0.199 A  
HETATM   23  C   UNL     1      -6.999   7.741  72.457  1.00  0.00    -0.078 A  
HETATM   24  C   UNL     1      -7.938   7.073  71.652  1.00  0.00    -0.099 A  
HETATM   25  N   UNL     1      -7.549   6.873  70.263  1.00  0.00    -0.089 N  
ENDBRANCH  12  17
ENDBRANCH   3   5
ENDBRANCH   2   3
TORSDOF 5
ENDMDL
MODEL      162
REMARK 921   NORMALIZED FREE ENERGY PREDICTED BY IDOCK:   -2.07 KCAL/MOL
REMARK 922        TOTAL FREE ENERGY PREDICTED BY IDOCK:   -3.89 KCAL/MOL
REMARK 923 INTER-LIGAND FREE ENERGY PREDICTED BY IDOCK:   -5.30 KCAL/MOL
REMARK 924 INTRA-LIGAND FREE ENERGY PREDICTED BY IDOCK:    1.41 KCAL/MOL
REMARK 927      BINDING AFFINITY PREDICTED BY RF-SCORE:    0.00 PKD
ROOT
HETATM    1  C   UNL     1      -6.152  10.654  68.919  1.00  0.00    -0.040 C  
HETATM    2  O   UNL     1      -7.034  11.016  67.853  1.00  0.00    -0.071 OA 
ENDROOT
BRANCH   2   3
HETATM    3  C   UNL     1      -6.964  12.311  67.468  1.00  0.00    -0.142 C  
HETATM    4  O   UNL     1      -5.953  12.869  67.070  1.00  0.00    -0.292 OA 
BRANCH   3   5
HETATM    5  C   UNL     1      -8.289  12.976  67.614  1.00  0.00    -0.181 C  
HETATM    6  C   UNL     1      -9.367  12.417  67.012  1.00  0.00    -0.204 C  
HETATM    7  N   UNL     1     -10.634  12.883  67.298  1.00  0.00    -0.233 NA 
HETATM    8  C   UNL     1      -9.341  11.306  65.988  1.00  0.00    -0.234 C  
HETATM    9  C   UNL     1     -10.927  13.937  68.137  1.00  0.00    -0.249 C  
HETATM   10  C   UNL     1     -12.401  14.231  68.302  1.00  0.00    -0.024 C  
HETATM   11  C   UNL     1      -9.924  14.628  68.733  1.00  0.00    -0.235 C  
HETATM   12  C   UNL     1      -8.441  14.212  68.536  1.00  0.00    -0.157 C  
BRANCH  11  13
HETATM   13  C   UNL     1     -10.272  15.878  69.464  1.00  0.00    -0.279 C  
HETATM   14  O   UNL     1     -10.259  16.990  68.951  1.00  0.00    -0.286 OA 
BRANCH  13  15
HETATM   15  O   UNL     1     -10.557  15.643  70.764  1.00  0.00    -0.255 OA 
HETATM   16  C   UNL     1     -11.742  16.289  71.255  1.00  0.00    -0.343 C  
ENDBRANCH  13  15
ENDBRANCH  11  13
BRANCH  12  17
HETATM   17  C   UNL     1      -7.618  15.406  68.025  1.00  0.00    -0.135 A  
HETATM   18  O   UNL     1      -9.278  14.737  65.608  1.00  0.00    -0.103 OA 
HETATM   19  O   UNL     1      -9.773  16.869  65.762  1.00  0.00    -0.517 OA 
HETATM   20  C   UNL     1      -6.531  15.852  68.808  1.00  0.00    -0.116 A  
HETATM   21  C   UNL     1      -5.720  16.913  68.395  1.00  0.00    -0.130 A  
HETATM   22  C   UNL     1      -5.956  17.550  67.181  1.00  0.00    -0.164 A  
HETATM   23  C   UNL     1      -7.036  17.160  66.396  1.00  0.00    -0.310 A  
HETATM   24  C   UNL     1      -7.873  16.116  66.828  1.00  0.00    -0.261 A  
HETATM   25  N   UNL     1      -9.063  15.886  66.020  1.00  0.00    -0.344 N  
ENDBRANCH  12  17
ENDBRANCH   3   5
ENDBRANCH   2   3
TORSDOF 5
ENDMDL
MODEL      163
REMARK 921   NORMALIZED FREE ENERGY PREDICTED BY IDOCK:   -1.97 KCAL/MOL
REMARK 922        TOTAL FREE ENERGY PREDICTED BY IDOCK:   -3.77 KCAL/MOL
REMARK 923 INTER-LIGAND FREE ENERGY PREDICTED BY IDOCK:   -4.84 KCAL/MOL
REMARK 924 INTRA-LIGAND FREE ENERGY PREDICTED BY IDOCK:    1.07 KCAL/MOL
REMARK 927      BINDING AFFINITY PREDICTED BY RF-SCORE:    0.00 PKD
ROOT
HETATM    1  C   UNL     1      -9.428   5.658  74.519  1.00  0.00    -0.156 C  
HETATM    2  O   UNL     1     -10.580   5.301  73.750  1.00  0.00    -0.245 OA 
ENDROOT
BRANCH   2   3
HETATM    3  C   UNL     1     -10.452   4.168  73.022  1.00  0.00    -0.174 C  
HETATM    4  O   UNL     1     -10.915   3.081  73.333  1.00  0.00    -0.192 OA 
BRANCH   3   5
HETATM    5  C   UNL     1      -9.650   4.420  71.794  1.00  0.00    -0.221 C  
HETATM    6  C   UNL     1      -8.418   3.862  71.696  1.00  0.00    -0.085 C  
HETATM    7  N   UNL     1      -7.738   3.899  70.496  1.00  0.00    -0.044 NA 
HETATM    8  C   UNL     1      -7.649   3.197  72.814  1.00  0.00    -0.051 C  
HETATM    9  C   UNL     1      -8.184   4.512  69.344  1.00  0.00    -0.068 C  
HETATM   10  C   UNL     1      -7.260   4.383  68.154  1.00  0.00    -0.064 C  
HETATM   11  C   UNL     1      -9.367   5.174  69.343  1.00  0.00    -0.176 C  
HETATM   12  C   UNL     1     -10.266   5.203  70.608  1.00  0.00    -0.326 C  
BRANCH  11  13
HETATM   13  C   UNL     1      -9.712   5.991  68.146  1.00  0.00    -0.127 C  
HETATM   14  O   UNL     1      -9.127   7.019  67.833  1.00  0.00    -0.128 OA 
BRANCH  13  15
HETATM   15  O   UNL     1     -10.772   5.485  67.477  1.00  0.00    -0.219 OA 
HETATM   16  C   UNL     1     -10.459   4.857  66.223  1.00  0.00    -0.304 C  
ENDBRANCH  13  15
ENDBRANCH  11  13
BRANCH  12  17
HETATM   17  C   UNL     1     -10.591   6.657  70.995  1.00  0.00    -0.263 A  
HETATM   18  O   UNL     1      -7.668   6.484  71.685  1.00  0.00    -0.096 OA 
HETATM   19  O   UNL     1      -7.595   8.262  70.401  1.00  0.00    -0.071 OA 
HETATM   20  C   UNL     1     -11.947   7.048  71.044  1.00  0.00    -0.406 A  
HETATM   21  C   UNL     1     -12.320   8.343  71.416  1.00  0.00    -0.328 A  
HETATM   22  C   UNL     1     -11.355   9.282  71.767  1.00  0.00    -0.437 A  
HETATM   23  C   UNL     1     -10.007   8.943  71.701  1.00  0.00    -0.397 A  
HETATM   24  C   UNL     1      -9.630   7.651  71.294  1.00  0.00    -0.157 A  
HETATM   25  N   UNL     1      -8.201   7.441  71.106  1.00  0.00    -0.105 N  
ENDBRANCH  12  17
ENDBRANCH   3   5
ENDBRANCH   2   3
TORSDOF 5
ENDMDL
MODEL      164
REMARK 921   NORMALIZED FREE ENERGY PREDICTED BY IDOCK:   -1.92 KCAL/MOL
REMARK 922        TOTAL FREE ENERGY PREDICTED BY IDOCK:   -3.70 KCAL/MOL
REMARK 923 INTER-LIGAND FREE ENERGY PREDICTED BY IDOCK:   -2.48 KCAL/MOL
REMARK 924 INTRA-LIGAND FREE ENERGY PREDICTED BY IDOCK:   -1.23 KCAL/MOL
REMARK 927      BINDING AFFINITY PREDICTED BY RF-SCORE:    0.00 PKD
ROOT
HETATM    1  C   UNL     1     -10.668   4.870  65.974  1.00  0.00    -0.190 C  
HETATM    2  O   UNL     1     -10.218   5.871  66.893  1.00  0.00    -0.169 OA 
ENDROOT
BRANCH   2   3
HETATM    3  C   UNL     1      -8.962   5.692  67.362  1.00  0.00    -0.107 C  
HETATM    4  O   UNL     1      -8.633   4.842  68.175  1.00  0.00    -0.102 OA 
BRANCH   3   5
HETATM    5  C   UNL     1      -8.031   6.690  66.766  1.00  0.00    -0.108 C  
HETATM    6  C   UNL     1      -7.338   6.348  65.652  1.00  0.00    -0.080 C  
HETATM    7  N   UNL     1      -6.633   7.310  64.958  1.00  0.00    -0.043 NA 
HETATM    8  C   UNL     1      -7.216   4.960  65.068  1.00  0.00    -0.064 C  
HETATM    9  C   UNL     1      -6.518   8.635  65.322  1.00  0.00    -0.063 C  
HETATM   10  C   UNL     1      -5.709   9.490  64.372  1.00  0.00    -0.073 C  
HETATM   11  C   UNL     1      -7.100   9.077  66.464  1.00  0.00    -0.081 C  
HETATM   12  C   UNL     1      -7.953   8.125  67.345  1.00  0.00    -0.117 C  
BRANCH  11  13
HETATM   13  C   UNL     1      -6.782  10.457  66.924  1.00  0.00    -0.083 C  
HETATM   14  O   UNL     1      -7.493  11.428  66.700  1.00  0.00    -0.145 OA 
BRANCH  13  15
HETATM   15  O   UNL     1      -5.599  10.514  67.575  1.00  0.00    -0.044 OA 
HETATM   16  C   UNL     1      -5.400  11.689  68.377  1.00  0.00    -0.045 C  
ENDBRANCH  13  15
ENDBRANCH  11  13
BRANCH  12  17
HETATM   17  C   UNL     1      -7.428   8.127  68.791  1.00  0.00    -0.090 A  
HETATM   18  O   UNL     1      -9.677  10.118  68.960  1.00  0.00    -0.184 OA 
HETATM   19  O   UNL     1     -10.283   8.802  70.607  1.00  0.00    -0.186 OA 
HETATM   20  C   UNL     1      -6.198   7.487  69.056  1.00  0.00    -0.035 A  
HETATM   21  C   UNL     1      -5.644   7.473  70.339  1.00  0.00    -0.023 A  
HETATM   22  C   UNL     1      -6.289   8.111  71.393  1.00  0.00    -0.037 A  
HETATM   23  C   UNL     1      -7.518   8.727  71.178  1.00  0.00    -0.115 A  
HETATM   24  C   UNL     1      -8.093   8.711  69.895  1.00  0.00    -0.111 A  
HETATM   25  N   UNL     1      -9.447   9.240  69.804  1.00  0.00    -0.179 N  
ENDBRANCH  12  17
ENDBRANCH   3   5
ENDBRANCH   2   3
TORSDOF 5
ENDMDL
MODEL      165
REMARK 921   NORMALIZED FREE ENERGY PREDICTED BY IDOCK:   -1.92 KCAL/MOL
REMARK 922        TOTAL FREE ENERGY PREDICTED BY IDOCK:   -3.69 KCAL/MOL
REMARK 923 INTER-LIGAND FREE ENERGY PREDICTED BY IDOCK:   -4.92 KCAL/MOL
REMARK 924 INTRA-LIGAND FREE ENERGY PREDICTED BY IDOCK:    1.22 KCAL/MOL
REMARK 927      BINDING AFFINITY PREDICTED BY RF-SCORE:    0.00 PKD
ROOT
HETATM    1  C   UNL     1      -5.950  11.069  68.693  1.00  0.00    -0.042 C  
HETATM    2  O   UNL     1      -6.693  11.585  67.586  1.00  0.00    -0.068 OA 
ENDROOT
BRANCH   2   3
HETATM    3  C   UNL     1      -6.614  12.925  67.419  1.00  0.00    -0.126 C  
HETATM    4  O   UNL     1      -5.598  13.534  67.120  1.00  0.00    -0.288 OA 
BRANCH   3   5
HETATM    5  C   UNL     1      -7.935  13.566  67.669  1.00  0.00    -0.177 C  
HETATM    6  C   UNL     1      -8.083  14.340  68.772  1.00  0.00    -0.109 C  
HETATM    7  N   UNL     1      -9.216  15.113  68.924  1.00  0.00    -0.199 NA 
HETATM    8  C   UNL     1      -7.117  14.438  69.930  1.00  0.00     0.047 C  
HETATM    9  C   UNL     1     -10.282  15.146  68.051  1.00  0.00    -0.230 C  
HETATM   10  C   UNL     1     -11.391  16.101  68.435  1.00  0.00    -0.345 C  
HETATM   11  C   UNL     1     -10.285  14.352  66.953  1.00  0.00    -0.265 C  
HETATM   12  C   UNL     1      -9.071  13.443  66.623  1.00  0.00    -0.180 C  
BRANCH  11  13
HETATM   13  C   UNL     1     -11.537  14.268  66.151  1.00  0.00    -0.369 C  
HETATM   14  O   UNL     1     -12.565  13.735  66.550  1.00  0.00    -0.362 OA 
BRANCH  13  15
HETATM   15  O   UNL     1     -11.388  14.808  64.921  1.00  0.00    -0.376 OA 
HETATM   16  C   UNL     1     -10.689  16.062  64.886  1.00  0.00    -0.316 C  
ENDBRANCH  13  15
ENDBRANCH  11  13
BRANCH  12  17
HETATM   17  C   UNL     1      -9.530  11.985  66.453  1.00  0.00    -0.238 A  
HETATM   18  O   UNL     1      -9.811  12.365  69.424  1.00  0.00     0.483 OA 
HETATM   19  O   UNL     1     -11.837  11.640  68.996  1.00  0.00    -0.297 OA 
HETATM   20  C   UNL     1      -9.305  11.354  65.210  1.00  0.00    -0.192 A  
HETATM   21  C   UNL     1      -9.669  10.022  64.991  1.00  0.00    -0.386 A  
HETATM   22  C   UNL     1     -10.251   9.273  66.008  1.00  0.00    -0.156 A  
HETATM   23  C   UNL     1     -10.517   9.868  67.237  1.00  0.00    -0.319 A  
HETATM   24  C   UNL     1     -10.183  11.218  67.447  1.00  0.00    -0.188 A  
HETATM   25  N   UNL     1     -10.642  11.793  68.704  1.00  0.00    -0.218 N  
ENDBRANCH  12  17
ENDBRANCH   3   5
ENDBRANCH   2   3
TORSDOF 5
ENDMDL
MODEL      166
REMARK 921   NORMALIZED FREE ENERGY PREDICTED BY IDOCK:   -1.91 KCAL/MOL
REMARK 922        TOTAL FREE ENERGY PREDICTED BY IDOCK:   -3.69 KCAL/MOL
REMARK 923 INTER-LIGAND FREE ENERGY PREDICTED BY IDOCK:   -4.12 KCAL/MOL
REMARK 924 INTRA-LIGAND FREE ENERGY PREDICTED BY IDOCK:    0.44 KCAL/MOL
REMARK 927      BINDING AFFINITY PREDICTED BY RF-SCORE:    0.00 PKD
ROOT
HETATM    1  C   UNL     1      -6.951   9.671  65.341  1.00  0.00    -0.095 C  
HETATM    2  O   UNL     1      -7.214  11.029  65.706  1.00  0.00    -0.045 OA 
ENDROOT
BRANCH   2   3
HETATM    3  C   UNL     1      -8.318  11.212  66.465  1.00  0.00    -0.166 C  
HETATM    4  O   UNL     1      -9.223  10.401  66.592  1.00  0.00    -0.153 OA 
BRANCH   3   5
HETATM    5  C   UNL     1      -8.294  12.552  67.114  1.00  0.00    -0.179 C  
HETATM    6  C   UNL     1      -7.701  12.677  68.327  1.00  0.00    -0.135 C  
HETATM    7  N   UNL     1      -7.476  13.931  68.858  1.00  0.00    -0.109 NA 
HETATM    8  C   UNL     1      -7.263  11.544  69.227  1.00  0.00    -0.048 C  
HETATM    9  C   UNL     1      -7.849  15.123  68.275  1.00  0.00    -0.124 C  
HETATM   10  C   UNL     1      -7.458  16.362  69.051  1.00  0.00    -0.227 C  
HETATM   11  C   UNL     1      -8.523  15.122  67.099  1.00  0.00    -0.238 C  
HETATM   12  C   UNL     1      -8.831  13.793  66.358  1.00  0.00     0.098 C  
BRANCH  11  13
HETATM   13  C   UNL     1      -9.083  16.412  66.611  1.00  0.00    -0.250 C  
HETATM   14  O   UNL     1      -9.220  16.688  65.426  1.00  0.00    -0.324 OA 
BRANCH  13  15
HETATM   15  O   UNL     1      -9.377  17.254  67.627  1.00  0.00    -0.234 OA 
HETATM   16  C   UNL     1      -9.291  18.651  67.306  1.00  0.00    -0.287 C  
ENDBRANCH  13  15
ENDBRANCH  11  13
BRANCH  12  17
HETATM   17  C   UNL     1     -10.339  13.679  66.078  1.00  0.00    -0.305 A  
HETATM   18  O   UNL     1      -9.169  12.824  63.442  1.00  0.00     0.674 OA 
HETATM   19  O   UNL     1     -10.470  11.094  63.796  1.00  0.00    -0.350 OA 
HETATM   20  C   UNL     1     -11.237  14.238  67.014  1.00  0.00    -0.332 A  
HETATM   21  C   UNL     1     -12.620  14.199  66.813  1.00  0.00    -0.017 A  
HETATM   22  C   UNL     1     -13.150  13.618  65.666  1.00  0.00    -0.124 A  
HETATM   23  C   UNL     1     -12.299  13.030  64.735  1.00  0.00    -0.490 A  
HETATM   24  C   UNL     1     -10.911  13.038  64.953  1.00  0.00    -0.323 A  
HETATM   25  N   UNL     1     -10.119  12.264  64.007  1.00  0.00    -0.340 N  
ENDBRANCH  12  17
ENDBRANCH   3   5
ENDBRANCH   2   3
TORSDOF 5
ENDMDL
MODEL      167
REMARK 921   NORMALIZED FREE ENERGY PREDICTED BY IDOCK:   -1.90 KCAL/MOL
REMARK 922        TOTAL FREE ENERGY PREDICTED BY IDOCK:   -3.68 KCAL/MOL
REMARK 923 INTER-LIGAND FREE ENERGY PREDICTED BY IDOCK:   -3.79 KCAL/MOL
REMARK 924 INTRA-LIGAND FREE ENERGY PREDICTED BY IDOCK:    0.11 KCAL/MOL
REMARK 927      BINDING AFFINITY PREDICTED BY RF-SCORE:    0.00 PKD
ROOT
HETATM    1  C   UNL     1      -9.573  10.467  63.557  1.00  0.00    -0.326 C  
HETATM    2  O   UNL     1     -10.133  10.075  64.813  1.00  0.00    -0.296 OA 
ENDROOT
BRANCH   2   3
HETATM    3  C   UNL     1      -9.293   9.396  65.626  1.00  0.00    -0.246 C  
HETATM    4  O   UNL     1      -9.339   8.193  65.833  1.00  0.00    -0.155 OA 
BRANCH   3   5
HETATM    5  C   UNL     1      -8.308  10.320  66.256  1.00  0.00    -0.134 C  
HETATM    6  C   UNL     1      -6.986  10.096  66.055  1.00  0.00    -0.117 C  
HETATM    7  N   UNL     1      -6.061  11.043  66.444  1.00  0.00    -0.130 NA 
HETATM    8  C   UNL     1      -6.373   8.853  65.453  1.00  0.00    -0.063 C  
HETATM    9  C   UNL     1      -6.353  12.228  67.085  1.00  0.00    -0.117 C  
HETATM   10  C   UNL     1      -5.156  13.106  67.377  1.00  0.00     0.118 C  
HETATM   11  C   UNL     1      -7.634  12.524  67.413  1.00  0.00    -0.156 C  
HETATM   12  C   UNL     1      -8.798  11.575  67.021  1.00  0.00    -0.173 C  
BRANCH  11  13
HETATM   13  C   UNL     1      -7.880  13.710  68.280  1.00  0.00    -0.141 C  
HETATM   14  O   UNL     1      -8.680  14.596  68.010  1.00  0.00    -0.156 OA 
BRANCH  13  15
HETATM   15  O   UNL     1      -7.084  13.711  69.373  1.00  0.00    -0.046 OA 
HETATM   16  C   UNL     1      -6.870  14.999  69.971  1.00  0.00    -0.126 C  
ENDBRANCH  13  15
ENDBRANCH  11  13
BRANCH  12  17
HETATM   17  C   UNL     1      -9.617  11.197  68.267  1.00  0.00    -0.185 A  
HETATM   18  O   UNL     1     -10.994  13.720  67.379  1.00  0.00    -0.276 OA 
HETATM   19  O   UNL     1     -12.750  12.409  67.481  1.00  0.00     0.534 OA 
HETATM   20  C   UNL     1      -9.116  10.185  69.114  1.00  0.00    -0.189 A  
HETATM   21  C   UNL     1      -9.790   9.808  70.280  1.00  0.00    -0.296 A  
HETATM   22  C   UNL     1     -10.973  10.440  70.646  1.00  0.00    -0.191 A  
HETATM   23  C   UNL     1     -11.515  11.422  69.821  1.00  0.00    -0.376 A  
HETATM   24  C   UNL     1     -10.856  11.776  68.631  1.00  0.00    -0.220 A  
HETATM   25  N   UNL     1     -11.576  12.694  67.760  1.00  0.00    -0.328 N  
ENDBRANCH  12  17
ENDBRANCH   3   5
ENDBRANCH   2   3
TORSDOF 5
ENDMDL
MODEL      168
REMARK 921   NORMALIZED FREE ENERGY PREDICTED BY IDOCK:   -1.88 KCAL/MOL
REMARK 922        TOTAL FREE ENERGY PREDICTED BY IDOCK:   -3.64 KCAL/MOL
REMARK 923 INTER-LIGAND FREE ENERGY PREDICTED BY IDOCK:   -4.34 KCAL/MOL
REMARK 924 INTRA-LIGAND FREE ENERGY PREDICTED BY IDOCK:    0.69 KCAL/MOL
REMARK 927      BINDING AFFINITY PREDICTED BY RF-SCORE:    0.00 PKD
ROOT
HETATM    1  C   UNL     1     -10.495   4.281  65.447  1.00  0.00    -0.168 C  
HETATM    2  O   UNL     1     -10.593   5.257  66.489  1.00  0.00    -0.287 OA 
ENDROOT
BRANCH   2   3
HETATM    3  C   UNL     1      -9.887   4.972  67.607  1.00  0.00    -0.161 C  
HETATM    4  O   UNL     1      -9.886   3.892  68.178  1.00  0.00    -0.103 OA 
BRANCH   3   5
HETATM    5  C   UNL     1      -9.122   6.165  68.064  1.00  0.00    -0.114 C  
HETATM    6  C   UNL     1      -7.861   6.346  67.599  1.00  0.00    -0.106 C  
HETATM    7  N   UNL     1      -7.205   7.537  67.833  1.00  0.00    -0.088 NA 
HETATM    8  C   UNL     1      -7.035   5.332  66.842  1.00  0.00    -0.065 C  
HETATM    9  C   UNL     1      -7.706   8.595  68.562  1.00  0.00    -0.100 C  
HETATM   10  C   UNL     1      -6.796   9.800  68.645  1.00  0.00    -0.051 C  
HETATM   11  C   UNL     1      -8.926   8.498  69.146  1.00  0.00    -0.146 C  
HETATM   12  C   UNL     1      -9.803   7.232  68.956  1.00  0.00    -0.165 C  
BRANCH  11  13
HETATM   13  C   UNL     1      -9.339   9.575  70.089  1.00  0.00    -0.247 C  
HETATM   14  O   UNL     1      -8.928   9.666  71.238  1.00  0.00    -0.128 OA 
BRANCH  13  15
HETATM   15  O   UNL     1     -10.251  10.407  69.538  1.00  0.00    -0.227 OA 
HETATM   16  C   UNL     1     -11.524  10.442  70.202  1.00  0.00    -0.319 C  
ENDBRANCH  13  15
ENDBRANCH  11  13
BRANCH  12  17
HETATM   17  C   UNL     1     -10.206   6.656  70.324  1.00  0.00    -0.215 A  
HETATM   18  O   UNL     1      -7.334   5.786  70.123  1.00  0.00    -0.069 OA 
HETATM   19  O   UNL     1      -7.237   6.779  72.077  1.00  0.00    -0.078 OA 
HETATM   20  C   UNL     1     -11.576   6.648  70.669  1.00  0.00    -0.439 A  
HETATM   21  C   UNL     1     -12.020   6.114  71.882  1.00  0.00    -0.278 A  
HETATM   22  C   UNL     1     -11.117   5.555  72.780  1.00  0.00    -0.340 A  
HETATM   23  C   UNL     1      -9.756   5.572  72.490  1.00  0.00    -0.173 A  
HETATM   24  C   UNL     1      -9.305   6.140  71.285  1.00  0.00    -0.159 A  
HETATM   25  N   UNL     1      -7.860   6.252  71.143  1.00  0.00    -0.109 N  
ENDBRANCH  12  17
ENDBRANCH   3   5
ENDBRANCH   2   3
TORSDOF 5
ENDMDL
MODEL      169
REMARK 921   NORMALIZED FREE ENERGY PREDICTED BY IDOCK:   -1.75 KCAL/MOL
REMARK 922        TOTAL FREE ENERGY PREDICTED BY IDOCK:   -3.49 KCAL/MOL
REMARK 923 INTER-LIGAND FREE ENERGY PREDICTED BY IDOCK:   -4.15 KCAL/MOL
REMARK 924 INTRA-LIGAND FREE ENERGY PREDICTED BY IDOCK:    0.67 KCAL/MOL
REMARK 927      BINDING AFFINITY PREDICTED BY RF-SCORE:    0.00 PKD
ROOT
HETATM    1  C   UNL     1      -9.268   4.467  73.648  1.00  0.00    -0.111 C  
HETATM    2  O   UNL     1      -8.751   4.917  72.393  1.00  0.00    -0.121 OA 
ENDROOT
BRANCH   2   3
HETATM    3  C   UNL     1      -9.656   5.508  71.581  1.00  0.00    -0.152 C  
HETATM    4  O   UNL     1     -10.773   5.075  71.345  1.00  0.00    -0.151 OA 
BRANCH   3   5
HETATM    5  C   UNL     1      -9.098   6.757  70.992  1.00  0.00    -0.156 C  
HETATM    6  C   UNL     1      -9.235   7.918  71.678  1.00  0.00    -0.141 C  
HETATM    7  N   UNL     1      -8.554   9.045  71.268  1.00  0.00    -0.292 NA 
HETATM    8  C   UNL     1     -10.118   8.142  72.884  1.00  0.00    -0.349 C  
HETATM    9  C   UNL     1      -7.744   9.128  70.155  1.00  0.00    -0.105 C  
HETATM   10  C   UNL     1      -7.088  10.475  69.943  1.00  0.00    -0.148 C  
HETATM   11  C   UNL     1      -7.595   8.053  69.343  1.00  0.00    -0.102 C  
HETATM   12  C   UNL     1      -8.274   6.699  69.681  1.00  0.00    -0.127 C  
BRANCH  11  13
HETATM   13  C   UNL     1      -6.882   8.244  68.050  1.00  0.00    -0.066 C  
HETATM   14  O   UNL     1      -7.354   8.850  67.097  1.00  0.00    -0.082 OA 
BRANCH  13  15
HETATM   15  O   UNL     1      -5.676   7.634  68.042  1.00  0.00    -0.030 OA 
HETATM   16  C   UNL     1      -5.486   6.674  66.991  1.00  0.00    -0.013 C  
ENDBRANCH  13  15
ENDBRANCH  11  13
BRANCH  12  17
HETATM   17  C   UNL     1      -9.130   6.224  68.493  1.00  0.00    -0.125 A  
HETATM   18  O   UNL     1     -10.773   8.513  69.546  1.00  0.00    -0.225 OA 
HETATM   19  O   UNL     1     -10.629   9.152  67.452  1.00  0.00    -0.272 OA 
HETATM   20  C   UNL     1      -8.804   4.992  67.885  1.00  0.00    -0.107 A  
HETATM   21  C   UNL     1      -9.553   4.482  66.821  1.00  0.00    -0.206 A  
HETATM   22  C   UNL     1     -10.660   5.175  66.342  1.00  0.00    -0.336 A  
HETATM   23  C   UNL     1     -10.994   6.407  66.895  1.00  0.00    -0.413 A  
HETATM   24  C   UNL     1     -10.220   6.937  67.942  1.00  0.00    -0.174 A  
HETATM   25  N   UNL     1     -10.552   8.296  68.346  1.00  0.00    -0.150 N  
ENDBRANCH  12  17
ENDBRANCH   3   5
ENDBRANCH   2   3
TORSDOF 5
ENDMDL
MODEL      170
REMARK 921   NORMALIZED FREE ENERGY PREDICTED BY IDOCK:   -1.70 KCAL/MOL
REMARK 922        TOTAL FREE ENERGY PREDICTED BY IDOCK:   -3.42 KCAL/MOL
REMARK 923 INTER-LIGAND FREE ENERGY PREDICTED BY IDOCK:   -4.15 KCAL/MOL
REMARK 924 INTRA-LIGAND FREE ENERGY PREDICTED BY IDOCK:    0.73 KCAL/MOL
REMARK 927      BINDING AFFINITY PREDICTED BY RF-SCORE:    0.00 PKD
ROOT
HETATM    1  C   UNL     1     -10.133   8.392  66.586  1.00  0.00    -0.288 C  
HETATM    2  O   UNL     1     -10.061   7.013  66.960  1.00  0.00    -0.189 OA 
ENDROOT
BRANCH   2   3
HETATM    3  C   UNL     1      -8.850   6.603  67.399  1.00  0.00    -0.116 C  
HETATM    4  O   UNL     1      -7.815   6.656  66.751  1.00  0.00    -0.104 OA 
BRANCH   3   5
HETATM    5  C   UNL     1      -8.948   6.055  68.781  1.00  0.00    -0.118 C  
HETATM    6  C   UNL     1      -9.268   4.748  68.940  1.00  0.00    -0.124 C  
HETATM    7  N   UNL     1      -9.163   4.160  70.184  1.00  0.00    -0.124 NA 
HETATM    8  C   UNL     1      -9.782   3.817  67.866  1.00  0.00    -0.125 C  
HETATM    9  C   UNL     1      -8.792   4.807  71.344  1.00  0.00    -0.128 C  
HETATM   10  C   UNL     1      -8.727   3.926  72.573  1.00  0.00    -0.111 C  
HETATM   11  C   UNL     1      -8.527   6.136  71.325  1.00  0.00    -0.125 C  
HETATM   12  C   UNL     1      -8.574   6.939  69.997  1.00  0.00    -0.141 C  
BRANCH  11  13
HETATM   13  C   UNL     1      -8.332   6.831  72.627  1.00  0.00    -0.111 C  
HETATM   14  O   UNL     1      -9.252   7.232  73.328  1.00  0.00    -0.146 OA 
BRANCH  13  15
HETATM   15  O   UNL     1      -7.023   7.005  72.917  1.00  0.00    -0.069 OA 
HETATM   16  C   UNL     1      -6.703   8.239  73.579  1.00  0.00    -0.120 C  
ENDBRANCH  13  15
ENDBRANCH  11  13
BRANCH  12  17
HETATM   17  C   UNL     1      -9.522   8.142  70.138  1.00  0.00    -0.167 A  
HETATM   18  O   UNL     1     -11.468   5.852  69.995  1.00  0.00    -0.300 OA 
HETATM   19  O   UNL     1     -12.191   6.778  71.848  1.00  0.00    -0.329 OA 
HETATM   20  C   UNL     1      -8.983   9.439  69.988  1.00  0.00    -0.234 A  
HETATM   21  C   UNL     1      -9.789  10.579  70.073  1.00  0.00     0.178 A  
HETATM   22  C   UNL     1     -11.157  10.461  70.293  1.00  0.00    -0.379 A  
HETATM   23  C   UNL     1     -11.720   9.202  70.477  1.00  0.00    -0.193 A  
HETATM   24  C   UNL     1     -10.905   8.057  70.425  1.00  0.00    -0.247 A  
HETATM   25  N   UNL     1     -11.555   6.804  70.784  1.00  0.00    -0.346 N  
ENDBRANCH  12  17
ENDBRANCH   3   5
ENDBRANCH   2   3
TORSDOF 5
ENDMDL
MODEL      171
REMARK 921   NORMALIZED FREE ENERGY PREDICTED BY IDOCK:   -1.69 KCAL/MOL
REMARK 922        TOTAL FREE ENERGY PREDICTED BY IDOCK:   -3.40 KCAL/MOL
REMARK 923 INTER-LIGAND FREE ENERGY PREDICTED BY IDOCK:   -4.31 KCAL/MOL
REMARK 924 INTRA-LIGAND FREE ENERGY PREDICTED BY IDOCK:    0.91 KCAL/MOL
REMARK 927      BINDING AFFINITY PREDICTED BY RF-SCORE:    0.00 PKD
ROOT
HETATM    1  C   UNL     1      -7.817   5.081  74.506  1.00  0.00    -0.095 C  
HETATM    2  O   UNL     1      -7.394   5.070  73.140  1.00  0.00    -0.084 OA 
ENDROOT
BRANCH   2   3
HETATM    3  C   UNL     1      -8.347   4.712  72.250  1.00  0.00    -0.114 C  
HETATM    4  O   UNL     1      -8.518   3.580  71.825  1.00  0.00    -0.081 OA 
BRANCH   3   5
HETATM    5  C   UNL     1      -9.153   5.895  71.838  1.00  0.00    -0.142 C  
HETATM    6  C   UNL     1     -10.397   6.047  72.357  1.00  0.00    -0.194 C  
HETATM    7  N   UNL     1     -11.084   7.228  72.164  1.00  0.00    -0.237 NA 
HETATM    8  C   UNL     1     -11.171   5.009  73.136  1.00  0.00    -0.408 C  
HETATM    9  C   UNL     1     -10.633   8.302  71.427  1.00  0.00    -0.223 C  
HETATM   10  C   UNL     1     -11.569   9.490  71.395  1.00  0.00    -0.466 C  
HETATM   11  C   UNL     1      -9.438   8.235  70.791  1.00  0.00    -0.185 C  
HETATM   12  C   UNL     1      -8.529   6.984  70.930  1.00  0.00    -0.134 C  
BRANCH  11  13
HETATM   13  C   UNL     1      -9.085   9.329  69.844  1.00  0.00    -0.191 C  
HETATM   14  O   UNL     1      -9.573   9.446  68.728  1.00  0.00    -0.150 OA 
BRANCH  13  15
HETATM   15  O   UNL     1      -8.133  10.146  70.347  1.00  0.00    -0.146 OA 
HETATM   16  C   UNL     1      -7.393  10.894  69.370  1.00  0.00    -0.116 C  
ENDBRANCH  13  15
ENDBRANCH  11  13
BRANCH  12  17
HETATM   17  C   UNL     1      -8.173   6.430  69.540  1.00  0.00    -0.118 A  
HETATM   18  O   UNL     1     -11.071   5.656  69.776  1.00  0.00    -0.328 OA 
HETATM   19  O   UNL     1     -11.169   6.703  67.850  1.00  0.00    -0.251 OA 
HETATM   20  C   UNL     1      -6.812   6.383  69.168  1.00  0.00    -0.062 A  
HETATM   21  C   UNL     1      -6.410   5.865  67.934  1.00  0.00    -0.041 A  
HETATM   22  C   UNL     1      -7.349   5.362  67.039  1.00  0.00    -0.083 A  
HETATM   23  C   UNL     1      -8.703   5.419  67.357  1.00  0.00    -0.107 A  
HETATM   24  C   UNL     1      -9.110   5.971  68.584  1.00  0.00    -0.116 A  
HETATM   25  N   UNL     1     -10.547   6.131  68.758  1.00  0.00    -0.241 N  
ENDBRANCH  12  17
ENDBRANCH   3   5
ENDBRANCH   2   3
TORSDOF 5
ENDMDL
MODEL      172
REMARK 921   NORMALIZED FREE ENERGY PREDICTED BY IDOCK:   -1.68 KCAL/MOL
REMARK 922        TOTAL FREE ENERGY PREDICTED BY IDOCK:   -3.39 KCAL/MOL
REMARK 923 INTER-LIGAND FREE ENERGY PREDICTED BY IDOCK:   -4.81 KCAL/MOL
REMARK 924 INTRA-LIGAND FREE ENERGY PREDICTED BY IDOCK:    1.42 KCAL/MOL
REMARK 927      BINDING AFFINITY PREDICTED BY RF-SCORE:    0.00 PKD
ROOT
HETATM    1  C   UNL     1     -10.243  13.195  68.638  1.00  0.00    -0.170 C  
HETATM    2  O   UNL     1      -9.879  11.848  68.323  1.00  0.00    -0.190 OA 
ENDROOT
BRANCH   2   3
HETATM    3  C   UNL     1     -10.897  11.064  67.902  1.00  0.00    -0.237 C  
HETATM    4  O   UNL     1     -11.882  11.461  67.298  1.00  0.00    -0.594 OA 
BRANCH   3   5
HETATM    5  C   UNL     1     -10.667   9.646  68.294  1.00  0.00    -0.262 C  
HETATM    6  C   UNL     1     -11.034   9.247  69.537  1.00  0.00    -0.151 C  
HETATM    7  N   UNL     1     -11.031   7.905  69.859  1.00  0.00    -0.220 NA 
HETATM    8  C   UNL     1     -11.438  10.149  70.680  1.00  0.00    -0.432 C  
HETATM    9  C   UNL     1     -10.631   6.885  69.022  1.00  0.00    -0.217 C  
HETATM   10  C   UNL     1     -10.751   5.496  69.609  1.00  0.00    -0.349 C  
HETATM   11  C   UNL     1     -10.165   7.168  67.781  1.00  0.00    -0.234 C  
HETATM   12  C   UNL     1     -10.131   8.629  67.256  1.00  0.00    -0.310 C  
BRANCH  11  13
HETATM   13  C   UNL     1      -9.556   6.062  66.992  1.00  0.00    -0.133 C  
HETATM   14  O   UNL     1      -8.361   5.986  66.740  1.00  0.00    -0.106 OA 
BRANCH  13  15
HETATM   15  O   UNL     1     -10.484   5.183  66.553  1.00  0.00    -0.263 OA 
HETATM   16  C   UNL     1      -9.969   3.904  66.148  1.00  0.00    -0.051 C  
ENDBRANCH  13  15
ENDBRANCH  11  13
BRANCH  12  17
HETATM   17  C   UNL     1      -8.711   8.991  66.787  1.00  0.00    -0.134 A  
HETATM   18  O   UNL     1      -8.440   9.226  69.774  1.00  0.00    -0.123 OA 
HETATM   19  O   UNL     1      -6.763   7.861  69.402  1.00  0.00    -0.038 OA 
HETATM   20  C   UNL     1      -8.503   9.231  65.412  1.00  0.00    -0.157 A  
HETATM   21  C   UNL     1      -7.247   9.593  64.916  1.00  0.00    -0.118 A  
HETATM   22  C   UNL     1      -6.165   9.744  65.776  1.00  0.00    -0.073 A  
HETATM   23  C   UNL     1      -6.324   9.486  67.135  1.00  0.00    -0.065 A  
HETATM   24  C   UNL     1      -7.578   9.088  67.629  1.00  0.00    -0.093 A  
HETATM   25  N   UNL     1      -7.606   8.690  69.030  1.00  0.00    -0.089 N  
ENDBRANCH  12  17
ENDBRANCH   3   5
ENDBRANCH   2   3
TORSDOF 5
ENDMDL
MODEL      173
REMARK 921   NORMALIZED FREE ENERGY PREDICTED BY IDOCK:   -1.66 KCAL/MOL
REMARK 922        TOTAL FREE ENERGY PREDICTED BY IDOCK:   -3.36 KCAL/MOL
REMARK 923 INTER-LIGAND FREE ENERGY PREDICTED BY IDOCK:   -4.17 KCAL/MOL
REMARK 924 INTRA-LIGAND FREE ENERGY PREDICTED BY IDOCK:    0.81 KCAL/MOL
REMARK 927      BINDING AFFINITY PREDICTED BY RF-SCORE:    0.00 PKD
ROOT
HETATM    1  C   UNL     1     -10.503   4.677  65.736  1.00  0.00    -0.255 C  
HETATM    2  O   UNL     1     -10.770   5.704  66.695  1.00  0.00    -0.293 OA 
ENDROOT
BRANCH   2   3
HETATM    3  C   UNL     1      -9.674   6.236  67.282  1.00  0.00    -0.129 C  
HETATM    4  O   UNL     1      -8.553   6.242  66.796  1.00  0.00    -0.113 OA 
BRANCH   3   5
HETATM    5  C   UNL     1     -10.013   6.801  68.617  1.00  0.00    -0.147 C  
HETATM    6  C   UNL     1     -10.490   8.068  68.686  1.00  0.00    -0.167 C  
HETATM    7  N   UNL     1     -11.009   8.545  69.872  1.00  0.00    -0.210 NA 
HETATM    8  C   UNL     1     -10.493   9.082  67.565  1.00  0.00    -0.338 C  
HETATM    9  C   UNL     1     -11.053   7.850  71.062  1.00  0.00    -0.250 C  
HETATM   10  C   UNL     1     -11.700   8.592  72.210  1.00  0.00    -0.443 C  
HETATM   11  C   UNL     1     -10.530   6.602  71.137  1.00  0.00    -0.247 C  
HETATM   12  C   UNL     1      -9.932   5.910  69.882  1.00  0.00    -0.238 C  
BRANCH  11  13
HETATM   13  C   UNL     1     -10.414   5.970  72.481  1.00  0.00    -0.202 C  
HETATM   14  O   UNL     1      -9.596   6.314  73.324  1.00  0.00    -0.145 OA 
BRANCH  13  15
HETATM   15  O   UNL     1     -11.286   4.950  72.638  1.00  0.00    -0.199 OA 
HETATM   16  C   UNL     1     -11.130   4.195  73.850  1.00  0.00    -0.179 C  
ENDBRANCH  13  15
ENDBRANCH  11  13
BRANCH  12  17
HETATM   17  C   UNL     1      -8.491   5.453  70.164  1.00  0.00    -0.119 A  
HETATM   18  O   UNL     1      -8.148   8.433  69.942  1.00  0.00    -0.113 OA 
HETATM   19  O   UNL     1      -7.193   8.141  71.895  1.00  0.00    -0.073 OA 
HETATM   20  C   UNL     1      -8.201   4.073  70.089  1.00  0.00    -0.069 A  
HETATM   21  C   UNL     1      -6.908   3.586  70.303  1.00  0.00    -0.034 A  
HETATM   22  C   UNL     1      -5.862   4.459  70.582  1.00  0.00    -0.013 A  
HETATM   23  C   UNL     1      -6.114   5.823  70.695  1.00  0.00    -0.030 A  
HETATM   24  C   UNL     1      -7.421   6.310  70.513  1.00  0.00    -0.091 A  
HETATM   25  N   UNL     1      -7.613   7.724  70.806  1.00  0.00    -0.077 N  
ENDBRANCH  12  17
ENDBRANCH   3   5
ENDBRANCH   2   3
TORSDOF 5
ENDMDL
MODEL      174
REMARK 921   NORMALIZED FREE ENERGY PREDICTED BY IDOCK:   -1.66 KCAL/MOL
REMARK 922        TOTAL FREE ENERGY PREDICTED BY IDOCK:   -3.36 KCAL/MOL
REMARK 923 INTER-LIGAND FREE ENERGY PREDICTED BY IDOCK:   -4.16 KCAL/MOL
REMARK 924 INTRA-LIGAND FREE ENERGY PREDICTED BY IDOCK:    0.80 KCAL/MOL
REMARK 927      BINDING AFFINITY PREDICTED BY RF-SCORE:    0.00 PKD
ROOT
HETATM    1  C   UNL     1      -9.168  10.251  69.540  1.00  0.00    -0.170 C  
HETATM    2  O   UNL     1      -9.722   8.987  69.165  1.00  0.00    -0.162 OA 
ENDROOT
BRANCH   2   3
HETATM    3  C   UNL     1      -8.891   8.184  68.463  1.00  0.00    -0.134 C  
HETATM    4  O   UNL     1      -8.091   8.568  67.624  1.00  0.00    -0.106 OA 
BRANCH   3   5
HETATM    5  C   UNL     1      -9.097   6.757  68.838  1.00  0.00    -0.133 C  
HETATM    6  C   UNL     1      -9.972   6.015  68.116  1.00  0.00    -0.147 C  
HETATM    7  N   UNL     1     -10.031   4.649  68.299  1.00  0.00    -0.105 NA 
HETATM    8  C   UNL     1     -10.966   6.540  67.106  1.00  0.00    -0.480 C  
HETATM    9  C   UNL     1      -9.288   3.933  69.213  1.00  0.00    -0.172 C  
HETATM   10  C   UNL     1      -9.520   2.438  69.193  1.00  0.00    -0.144 C  
HETATM   11  C   UNL     1      -8.437   4.577  70.048  1.00  0.00    -0.088 C  
HETATM   12  C   UNL     1      -8.234   6.113  69.952  1.00  0.00    -0.120 C  
BRANCH  11  13
HETATM   13  C   UNL     1      -7.811   3.795  71.151  1.00  0.00    -0.059 C  
HETATM   14  O   UNL     1      -6.635   3.456  71.160  1.00  0.00    -0.029 OA 
BRANCH  13  15
HETATM   15  O   UNL     1      -8.704   3.471  72.112  1.00  0.00    -0.085 OA 
HETATM   16  C   UNL     1      -8.262   3.703  73.459  1.00  0.00    -0.083 C  
ENDBRANCH  13  15
ENDBRANCH  11  13
BRANCH  12  17
HETATM   17  C   UNL     1      -8.491   6.769  71.320  1.00  0.00    -0.124 A  
HETATM   18  O   UNL     1     -11.295   6.264  70.354  1.00  0.00    -0.345 OA 
HETATM   19  O   UNL     1     -11.441   5.276  72.308  1.00  0.00    -0.144 OA 
HETATM   20  C   UNL     1      -7.404   7.379  71.983  1.00  0.00    -0.072 A  
HETATM   21  C   UNL     1      -7.567   8.021  73.214  1.00  0.00    -0.193 A  
HETATM   22  C   UNL     1      -8.820   8.088  73.815  1.00  0.00    -0.313 A  
HETATM   23  C   UNL     1      -9.910   7.472  73.207  1.00  0.00    -0.343 A  
HETATM   24  C   UNL     1      -9.740   6.797  71.985  1.00  0.00    -0.153 A  
HETATM   25  N   UNL     1     -10.898   6.053  71.509  1.00  0.00    -0.257 N  
ENDBRANCH  12  17
ENDBRANCH   3   5
ENDBRANCH   2   3
TORSDOF 5
ENDMDL
MODEL      175
REMARK 921   NORMALIZED FREE ENERGY PREDICTED BY IDOCK:   -1.61 KCAL/MOL
REMARK 922        TOTAL FREE ENERGY PREDICTED BY IDOCK:   -3.30 KCAL/MOL
REMARK 923 INTER-LIGAND FREE ENERGY PREDICTED BY IDOCK:   -4.12 KCAL/MOL
REMARK 924 INTRA-LIGAND FREE ENERGY PREDICTED BY IDOCK:    0.82 KCAL/MOL
REMARK 927      BINDING AFFINITY PREDICTED BY RF-SCORE:    0.00 PKD
ROOT
HETATM    1  C   UNL     1      -8.872   9.716  62.956  1.00  0.00    -0.243 C  
HETATM    2  O   UNL     1      -8.241   9.693  64.240  1.00  0.00    -0.135 OA 
ENDROOT
BRANCH   2   3
HETATM    3  C   UNL     1      -9.082   9.547  65.288  1.00  0.00    -0.224 C  
HETATM    4  O   UNL     1     -10.286   9.754  65.253  1.00  0.00    -0.216 OA 
BRANCH   3   5
HETATM    5  C   UNL     1      -8.339   9.118  66.505  1.00  0.00    -0.119 C  
HETATM    6  C   UNL     1      -7.916   7.833  66.589  1.00  0.00    -0.107 C  
HETATM    7  N   UNL     1      -7.050   7.457  67.595  1.00  0.00    -0.082 NA 
HETATM    8  C   UNL     1      -8.329   6.697  65.681  1.00  0.00    -0.144 C  
HETATM    9  C   UNL     1      -6.583   8.282  68.596  1.00  0.00    -0.054 C  
HETATM   10  C   UNL     1      -5.619   7.629  69.563  1.00  0.00    -0.023 C  
HETATM   11  C   UNL     1      -7.002   9.569  68.664  1.00  0.00    -0.064 C  
HETATM   12  C   UNL     1      -7.956  10.156  67.590  1.00  0.00    -0.102 C  
BRANCH  11  13
HETATM   13  C   UNL     1      -6.636  10.362  69.871  1.00  0.00    -0.124 C  
HETATM   14  O   UNL     1      -7.083  10.143  70.989  1.00  0.00    -0.286 OA 
BRANCH  13  15
HETATM   15  O   UNL     1      -5.792  11.375  69.574  1.00  0.00    -0.056 OA 
HETATM   16  C   UNL     1      -6.104  12.632  70.196  1.00  0.00    -0.093 C  
ENDBRANCH  13  15
ENDBRANCH  11  13
BRANCH  12  17
HETATM   17  C   UNL     1      -9.201  10.762  68.260  1.00  0.00    -0.157 A  
HETATM   18  O   UNL     1      -9.704   7.815  68.600  1.00  0.00    -0.152 OA 
HETATM   19  O   UNL     1      -9.934   8.429  70.694  1.00  0.00    -0.181 OA 
HETATM   20  C   UNL     1      -9.451  12.140  68.084  1.00  0.00    -0.205 A  
HETATM   21  C   UNL     1     -10.577  12.755  68.638  1.00  0.00    -0.256 A  
HETATM   22  C   UNL     1     -11.498  12.013  69.369  1.00  0.00    -0.361 A  
HETATM   23  C   UNL     1     -11.271  10.657  69.590  1.00  0.00    -0.351 A  
HETATM   24  C   UNL     1     -10.121  10.046  69.063  1.00  0.00    -0.200 A  
HETATM   25  N   UNL     1      -9.891   8.669  69.479  1.00  0.00    -0.183 N  
ENDBRANCH  12  17
ENDBRANCH   3   5
ENDBRANCH   2   3
TORSDOF 5
ENDMDL
MODEL      176
REMARK 921   NORMALIZED FREE ENERGY PREDICTED BY IDOCK:   -1.60 KCAL/MOL
REMARK 922        TOTAL FREE ENERGY PREDICTED BY IDOCK:   -3.28 KCAL/MOL
REMARK 923 INTER-LIGAND FREE ENERGY PREDICTED BY IDOCK:   -4.66 KCAL/MOL
REMARK 924 INTRA-LIGAND FREE ENERGY PREDICTED BY IDOCK:    1.38 KCAL/MOL
REMARK 927      BINDING AFFINITY PREDICTED BY RF-SCORE:    0.00 PKD
ROOT
HETATM    1  C   UNL     1      -6.079   9.852  67.608  1.00  0.00    -0.054 C  
HETATM    2  O   UNL     1      -6.729   8.897  68.451  1.00  0.00    -0.059 OA 
ENDROOT
BRANCH   2   3
HETATM    3  C   UNL     1      -6.911   9.295  69.731  1.00  0.00    -0.053 C  
HETATM    4  O   UNL     1      -6.040   9.761  70.449  1.00  0.00    -0.057 OA 
BRANCH   3   5
HETATM    5  C   UNL     1      -8.319   9.067  70.158  1.00  0.00    -0.156 C  
HETATM    6  C   UNL     1      -8.592   8.014  70.966  1.00  0.00    -0.133 C  
HETATM    7  N   UNL     1      -9.838   7.896  71.547  1.00  0.00    -0.163 NA 
HETATM    8  C   UNL     1      -7.652   6.878  71.299  1.00  0.00    -0.087 C  
HETATM    9  C   UNL     1     -10.897   8.755  71.345  1.00  0.00    -0.289 C  
HETATM   10  C   UNL     1     -12.149   8.417  72.124  1.00  0.00    -0.435 C  
HETATM   11  C   UNL     1     -10.770   9.800  70.491  1.00  0.00    -0.381 C  
HETATM   12  C   UNL     1      -9.421  10.088  69.778  1.00  0.00    -0.239 C  
BRANCH  11  13
HETATM   13  C   UNL     1     -11.993  10.578  70.147  1.00  0.00    -0.316 C  
HETATM   14  O   UNL     1     -12.768  10.264  69.253  1.00  0.00     0.112 OA 
BRANCH  13  15
HETATM   15  O   UNL     1     -12.117  11.688  70.908  1.00  0.00    -0.341 OA 
HETATM   16  C   UNL     1     -13.324  11.764  71.684  1.00  0.00    -0.143 C  
ENDBRANCH  13  15
ENDBRANCH  11  13
BRANCH  12  17
HETATM   17  C   UNL     1      -9.631  10.158  68.256  1.00  0.00    -0.150 A  
HETATM   18  O   UNL     1      -9.354   7.195  68.693  1.00  0.00    -0.136 OA 
HETATM   19  O   UNL     1     -11.257   7.186  67.600  1.00  0.00    -0.108 OA 
HETATM   20  C   UNL     1      -9.557  11.421  67.629  1.00  0.00    -0.176 A  
HETATM   21  C   UNL     1      -9.707  11.560  66.246  1.00  0.00    -0.240 A  
HETATM   22  C   UNL     1      -9.919  10.443  65.444  1.00  0.00    -0.362 A  
HETATM   23  C   UNL     1     -10.028   9.185  66.028  1.00  0.00    -0.293 A  
HETATM   24  C   UNL     1      -9.911   9.049  67.423  1.00  0.00    -0.209 A  
HETATM   25  N   UNL     1     -10.197   7.724  67.953  1.00  0.00    -0.195 N  
ENDBRANCH  12  17
ENDBRANCH   3   5
ENDBRANCH   2   3
TORSDOF 5
ENDMDL
MODEL      177
REMARK 921   NORMALIZED FREE ENERGY PREDICTED BY IDOCK:   -1.59 KCAL/MOL
REMARK 922        TOTAL FREE ENERGY PREDICTED BY IDOCK:   -3.27 KCAL/MOL
REMARK 923 INTER-LIGAND FREE ENERGY PREDICTED BY IDOCK:   -4.05 KCAL/MOL
REMARK 924 INTRA-LIGAND FREE ENERGY PREDICTED BY IDOCK:    0.77 KCAL/MOL
REMARK 927      BINDING AFFINITY PREDICTED BY RF-SCORE:    0.00 PKD
ROOT
HETATM    1  C   UNL     1      -9.113   4.355  64.915  1.00  0.00    -0.151 C  
HETATM    2  O   UNL     1      -8.940   5.639  65.522  1.00  0.00    -0.158 OA 
ENDROOT
BRANCH   2   3
HETATM    3  C   UNL     1      -7.999   5.691  66.491  1.00  0.00    -0.101 C  
HETATM    4  O   UNL     1      -6.999   4.990  66.534  1.00  0.00    -0.064 OA 
BRANCH   3   5
HETATM    5  C   UNL     1      -8.355   6.710  67.517  1.00  0.00    -0.121 C  
HETATM    6  C   UNL     1      -9.206   6.361  68.513  1.00  0.00    -0.124 C  
HETATM    7  N   UNL     1      -9.391   7.205  69.588  1.00  0.00    -0.150 NA 
HETATM    8  C   UNL     1     -10.042   5.103  68.571  1.00  0.00    -0.214 C  
HETATM    9  C   UNL     1      -8.808   8.445  69.740  1.00  0.00    -0.134 C  
HETATM   10  C   UNL     1      -9.154   9.160  71.027  1.00  0.00    -0.305 C  
HETATM   11  C   UNL     1      -8.001   8.938  68.768  1.00  0.00    -0.102 C  
HETATM   12  C   UNL     1      -7.669   8.099  67.505  1.00  0.00    -0.102 C  
BRANCH  11  13
HETATM   13  C   UNL     1      -7.559  10.356  68.877  1.00  0.00    -0.103 C  
HETATM   14  O   UNL     1      -8.309  11.314  68.742  1.00  0.00    -0.154 OA 
BRANCH  13  15
HETATM   15  O   UNL     1      -6.229  10.456  69.098  1.00  0.00    -0.040 OA 
HETATM   16  C   UNL     1      -5.861  10.886  70.418  1.00  0.00    -0.128 C  
ENDBRANCH  13  15
ENDBRANCH  11  13
BRANCH  12  17
HETATM   17  C   UNL     1      -8.015   8.894  66.234  1.00  0.00    -0.103 A  
HETATM   18  O   UNL     1     -10.750   8.211  67.287  1.00  0.00    -0.298 OA 
HETATM   19  O   UNL     1     -11.008  10.381  67.092  1.00  0.00    -0.267 OA 
HETATM   20  C   UNL     1      -6.977   9.181  65.322  1.00  0.00    -0.084 A  
HETATM   21  C   UNL     1      -7.221   9.873  64.132  1.00  0.00    -0.134 A  
HETATM   22  C   UNL     1      -8.510  10.284  63.806  1.00  0.00    -0.179 A  
HETATM   23  C   UNL     1      -9.554  10.046  64.695  1.00  0.00    -0.363 A  
HETATM   24  C   UNL     1      -9.303   9.381  65.907  1.00  0.00    -0.230 A  
HETATM   25  N   UNL     1     -10.423   9.319  66.836  1.00  0.00    -0.238 N  
ENDBRANCH  12  17
ENDBRANCH   3   5
ENDBRANCH   2   3
TORSDOF 5
ENDMDL
MODEL      178
REMARK 921   NORMALIZED FREE ENERGY PREDICTED BY IDOCK:   -1.57 KCAL/MOL
REMARK 922        TOTAL FREE ENERGY PREDICTED BY IDOCK:   -3.25 KCAL/MOL
REMARK 923 INTER-LIGAND FREE ENERGY PREDICTED BY IDOCK:   -2.52 KCAL/MOL
REMARK 924 INTRA-LIGAND FREE ENERGY PREDICTED BY IDOCK:   -0.73 KCAL/MOL
REMARK 927      BINDING AFFINITY PREDICTED BY RF-SCORE:    0.00 PKD
ROOT
HETATM    1  C   UNL     1      -5.322   7.851  68.064  1.00  0.00    -0.032 C  
HETATM    2  O   UNL     1      -5.183   8.920  69.005  1.00  0.00    -0.035 OA 
ENDROOT
BRANCH   2   3
HETATM    3  C   UNL     1      -6.008   8.851  70.074  1.00  0.00    -0.030 C  
HETATM    4  O   UNL     1      -5.677   8.481  71.191  1.00  0.00    -0.033 OA 
BRANCH   3   5
HETATM    5  C   UNL     1      -7.388   9.268  69.702  1.00  0.00    -0.068 C  
HETATM    6  C   UNL     1      -7.599  10.552  69.321  1.00  0.00    -0.134 C  
HETATM    7  N   UNL     1      -8.811  10.918  68.773  1.00  0.00    -0.165 NA 
HETATM    8  C   UNL     1      -6.622  11.696  69.463  1.00  0.00    -0.111 C  
HETATM    9  C   UNL     1      -9.896  10.084  68.605  1.00  0.00    -0.160 C  
HETATM   10  C   UNL     1     -11.099  10.727  67.952  1.00  0.00    -0.369 C  
HETATM   11  C   UNL     1      -9.833   8.797  69.025  1.00  0.00    -0.183 C  
HETATM   12  C   UNL     1      -8.528   8.221  69.639  1.00  0.00    -0.125 C  
BRANCH  11  13
HETATM   13  C   UNL     1     -11.086   7.993  69.013  1.00  0.00     0.249 C  
HETATM   14  O   UNL     1     -11.988   8.129  69.829  1.00  0.00     0.527 OA 
BRANCH  13  15
HETATM   15  O   UNL     1     -11.087   7.071  68.025  1.00  0.00    -0.142 OA 
HETATM   16  C   UNL     1     -10.531   7.514  66.777  1.00  0.00    -0.249 C  
ENDBRANCH  13  15
ENDBRANCH  11  13
BRANCH  12  17
HETATM   17  C   UNL     1      -8.817   7.612  71.022  1.00  0.00    -0.142 A  
HETATM   18  O   UNL     1      -8.682   5.153  69.294  1.00  0.00    -0.095 OA 
HETATM   19  O   UNL     1      -7.228   4.555  70.824  1.00  0.00    -0.040 OA 
HETATM   20  C   UNL     1      -9.195   8.480  72.069  1.00  0.00    -0.326 A  
HETATM   21  C   UNL     1      -9.501   7.997  73.345  1.00  0.00    -0.307 A  
HETATM   22  C   UNL     1      -9.457   6.632  73.611  1.00  0.00    -0.185 A  
HETATM   23  C   UNL     1      -9.059   5.747  72.613  1.00  0.00    -0.131 A  
HETATM   24  C   UNL     1      -8.718   6.237  71.340  1.00  0.00    -0.135 A  
HETATM   25  N   UNL     1      -8.165   5.257  70.416  1.00  0.00    -0.101 N  
ENDBRANCH  12  17
ENDBRANCH   3   5
ENDBRANCH   2   3
TORSDOF 5
ENDMDL
MODEL      179
REMARK 921   NORMALIZED FREE ENERGY PREDICTED BY IDOCK:   -1.50 KCAL/MOL
REMARK 922        TOTAL FREE ENERGY PREDICTED BY IDOCK:   -3.16 KCAL/MOL
REMARK 923 INTER-LIGAND FREE ENERGY PREDICTED BY IDOCK:   -4.16 KCAL/MOL
REMARK 924 INTRA-LIGAND FREE ENERGY PREDICTED BY IDOCK:    1.01 KCAL/MOL
REMARK 927      BINDING AFFINITY PREDICTED BY RF-SCORE:    0.00 PKD
ROOT
HETATM    1  C   UNL     1     -12.053   8.721  72.209  1.00  0.00    -0.353 C  
HETATM    2  O   UNL     1     -11.298   8.825  70.998  1.00  0.00    -0.258 OA 
ENDROOT
BRANCH   2   3
HETATM    3  C   UNL     1     -11.050   7.650  70.377  1.00  0.00    -0.258 C  
HETATM    4  O   UNL     1     -11.819   6.701  70.341  1.00  0.00    -0.396 OA 
BRANCH   3   5
HETATM    5  C   UNL     1      -9.696   7.657  69.757  1.00  0.00    -0.171 C  
HETATM    6  C   UNL     1      -8.668   7.086  70.432  1.00  0.00    -0.147 C  
HETATM    7  N   UNL     1      -7.456   6.889  69.802  1.00  0.00    -0.092 NA 
HETATM    8  C   UNL     1      -8.685   6.645  71.877  1.00  0.00    -0.128 C  
HETATM    9  C   UNL     1      -7.155   7.271  68.512  1.00  0.00    -0.085 C  
HETATM   10  C   UNL     1      -5.760   6.913  68.050  1.00  0.00    -0.020 C  
HETATM   11  C   UNL     1      -8.078   7.926  67.766  1.00  0.00    -0.128 C  
HETATM   12  C   UNL     1      -9.502   8.201  68.319  1.00  0.00    -0.148 C  
BRANCH  11  13
HETATM   13  C   UNL     1      -7.646   8.498  66.461  1.00  0.00    -0.088 C  
HETATM   14  O   UNL     1      -7.924   8.003  65.377  1.00  0.00    -0.105 OA 
BRANCH  13  15
HETATM   15  O   UNL     1      -6.877   9.599  66.620  1.00  0.00    -0.081 OA 
HETATM   16  C   UNL     1      -5.936   9.843  65.563  1.00  0.00    -0.076 C  
ENDBRANCH  13  15
ENDBRANCH  11  13
BRANCH  12  17
HETATM   17  C   UNL     1      -9.824   9.703  68.231  1.00  0.00    -0.169 A  
HETATM   18  O   UNL     1      -8.036   9.608  70.649  1.00  0.00    -0.243 OA 
HETATM   19  O   UNL     1      -6.962  11.145  69.509  1.00  0.00    -0.121 OA 
HETATM   20  C   UNL     1     -10.850  10.116  67.353  1.00  0.00    -0.323 A  
HETATM   21  C   UNL     1     -11.219  11.459  67.242  1.00  0.00    -0.370 A  
HETATM   22  C   UNL     1     -10.590  12.430  68.014  1.00  0.00    -0.238 A  
HETATM   23  C   UNL     1      -9.553  12.066  68.869  1.00  0.00     0.100 A  
HETATM   24  C   UNL     1      -9.159  10.720  68.956  1.00  0.00    -0.143 A  
HETATM   25  N   UNL     1      -7.968  10.462  69.753  1.00  0.00    -0.121 N  
ENDBRANCH  12  17
ENDBRANCH   3   5
ENDBRANCH   2   3
TORSDOF 5
ENDMDL
MODEL      180
REMARK 921   NORMALIZED FREE ENERGY PREDICTED BY IDOCK:   -1.48 KCAL/MOL
REMARK 922        TOTAL FREE ENERGY PREDICTED BY IDOCK:   -3.13 KCAL/MOL
REMARK 923 INTER-LIGAND FREE ENERGY PREDICTED BY IDOCK:   -5.24 KCAL/MOL
REMARK 924 INTRA-LIGAND FREE ENERGY PREDICTED BY IDOCK:    2.11 KCAL/MOL
REMARK 927      BINDING AFFINITY PREDICTED BY RF-SCORE:    0.00 PKD
ROOT
HETATM    1  C   UNL     1      -7.200   9.794  69.204  1.00  0.00    -0.073 C  
HETATM    2  O   UNL     1      -8.273  10.013  68.284  1.00  0.00    -0.103 OA 
ENDROOT
BRANCH   2   3
HETATM    3  C   UNL     1      -8.465  11.303  67.927  1.00  0.00    -0.133 C  
HETATM    4  O   UNL     1      -7.717  11.950  67.210  1.00  0.00    -0.147 OA 
BRANCH   3   5
HETATM    5  C   UNL     1      -9.709  11.842  68.545  1.00  0.00    -0.181 C  
HETATM    6  C   UNL     1     -10.699  10.976  68.873  1.00  0.00    -0.211 C  
HETATM    7  N   UNL     1     -11.768  11.407  69.632  1.00  0.00    -0.314 NA 
HETATM    8  C   UNL     1     -10.791   9.526  68.456  1.00  0.00    -0.175 C  
HETATM    9  C   UNL     1     -11.963  12.698  70.075  1.00  0.00    -0.306 C  
HETATM   10  C   UNL     1     -13.203  12.903  70.916  1.00  0.00     0.151 C  
HETATM   11  C   UNL     1     -11.080  13.671  69.740  1.00  0.00     0.006 C  
HETATM   12  C   UNL     1      -9.809  13.343  68.911  1.00  0.00     0.074 C  
BRANCH  11  13
HETATM   13  C   UNL     1     -11.435  15.081  70.063  1.00  0.00    -0.276 C  
HETATM   14  O   UNL     1     -12.078  15.808  69.318  1.00  0.00    -0.350 OA 
BRANCH  13  15
HETATM   15  O   UNL     1     -10.924  15.471  71.252  1.00  0.00    -0.332 OA 
HETATM   16  C   UNL     1     -11.872  16.049  72.163  1.00  0.00    -0.528 C  
ENDBRANCH  13  15
ENDBRANCH  11  13
BRANCH  12  17
HETATM   17  C   UNL     1      -9.745  14.239  67.662  1.00  0.00    -0.220 A  
HETATM   18  O   UNL     1     -11.725  12.143  66.804  1.00  0.00    -0.488 OA 
HETATM   19  O   UNL     1     -12.928  13.925  66.369  1.00  0.00    -0.131 OA 
HETATM   20  C   UNL     1      -8.723  15.210  67.588  1.00  0.00    -0.177 A  
HETATM   21  C   UNL     1      -8.583  16.039  66.471  1.00  0.00    -0.344 A  
HETATM   22  C   UNL     1      -9.446  15.915  65.387  1.00  0.00     0.081 A  
HETATM   23  C   UNL     1     -10.485  14.990  65.436  1.00  0.00    -0.406 A  
HETATM   24  C   UNL     1     -10.647  14.179  66.573  1.00  0.00    -0.282 A  
HETATM   25  N   UNL     1     -11.849  13.358  66.597  1.00  0.00    -0.376 N  
ENDBRANCH  12  17
ENDBRANCH   3   5
ENDBRANCH   2   3
TORSDOF 5
ENDMDL
MODEL      181
REMARK 921   NORMALIZED FREE ENERGY PREDICTED BY IDOCK:   -1.46 KCAL/MOL
REMARK 922        TOTAL FREE ENERGY PREDICTED BY IDOCK:   -3.10 KCAL/MOL
REMARK 923 INTER-LIGAND FREE ENERGY PREDICTED BY IDOCK:   -4.05 KCAL/MOL
REMARK 924 INTRA-LIGAND FREE ENERGY PREDICTED BY IDOCK:    0.95 KCAL/MOL
REMARK 927      BINDING AFFINITY PREDICTED BY RF-SCORE:    0.00 PKD
ROOT
HETATM    1  C   UNL     1      -5.687   5.613  68.298  1.00  0.00    -0.012 C  
HETATM    2  O   UNL     1      -5.380   6.911  68.815  1.00  0.00    -0.015 OA 
ENDROOT
BRANCH   2   3
HETATM    3  C   UNL     1      -6.180   7.329  69.821  1.00  0.00    -0.031 C  
HETATM    4  O   UNL     1      -6.371   6.720  70.863  1.00  0.00    -0.039 OA 
BRANCH   3   5
HETATM    5  C   UNL     1      -6.818   8.631  69.480  1.00  0.00    -0.044 C  
HETATM    6  C   UNL     1      -6.376   9.754  70.098  1.00  0.00    -0.076 C  
HETATM    7  N   UNL     1      -6.794  10.993  69.658  1.00  0.00    -0.132 NA 
HETATM    8  C   UNL     1      -5.456   9.809  71.296  1.00  0.00    -0.073 C  
HETATM    9  C   UNL     1      -7.691  11.215  68.635  1.00  0.00    -0.135 C  
HETATM   10  C   UNL     1      -7.961  12.672  68.329  1.00  0.00    -0.153 C  
HETATM   11  C   UNL     1      -8.265  10.167  67.995  1.00  0.00    -0.113 C  
HETATM   12  C   UNL     1      -7.880   8.706  68.354  1.00  0.00    -0.105 C  
BRANCH  11  13
HETATM   13  C   UNL     1      -9.374  10.448  67.043  1.00  0.00    -0.154 C  
HETATM   14  O   UNL     1     -10.558  10.430  67.354  1.00  0.00    -0.231 OA 
BRANCH  13  15
HETATM   15  O   UNL     1      -8.920  10.680  65.791  1.00  0.00    -0.169 OA 
HETATM   16  C   UNL     1      -9.373   9.748  64.796  1.00  0.00    -0.265 C  
ENDBRANCH  13  15
ENDBRANCH  11  13
BRANCH  12  17
HETATM   17  C   UNL     1      -9.139   7.896  68.706  1.00  0.00    -0.140 A  
HETATM   18  O   UNL     1      -8.783   9.567  71.182  1.00  0.00    -0.259 OA 
HETATM   19  O   UNL     1     -10.870  10.079  70.742  1.00  0.00    -0.312 OA 
HETATM   20  C   UNL     1      -9.487   6.807  67.877  1.00  0.00    -0.118 A  
HETATM   21  C   UNL     1     -10.600   6.008  68.150  1.00  0.00    -0.328 A  
HETATM   22  C   UNL     1     -11.392   6.258  69.267  1.00  0.00    -0.411 A  
HETATM   23  C   UNL     1     -11.099   7.340  70.091  1.00  0.00    -0.281 A  
HETATM   24  C   UNL     1      -9.999   8.166  69.797  1.00  0.00    -0.191 A  
HETATM   25  N   UNL     1      -9.868   9.359  70.621  1.00  0.00    -0.265 N  
ENDBRANCH  12  17
ENDBRANCH   3   5
ENDBRANCH   2   3
TORSDOF 5
ENDMDL
MODEL      182
REMARK 921   NORMALIZED FREE ENERGY PREDICTED BY IDOCK:   -1.39 KCAL/MOL
REMARK 922        TOTAL FREE ENERGY PREDICTED BY IDOCK:   -3.01 KCAL/MOL
REMARK 923 INTER-LIGAND FREE ENERGY PREDICTED BY IDOCK:   -4.01 KCAL/MOL
REMARK 924 INTRA-LIGAND FREE ENERGY PREDICTED BY IDOCK:    1.00 KCAL/MOL
REMARK 927      BINDING AFFINITY PREDICTED BY RF-SCORE:    0.00 PKD
ROOT
HETATM    1  C   UNL     1      -5.271   8.422  71.687  1.00  0.00    -0.034 C  
HETATM    2  O   UNL     1      -6.386   9.318  71.714  1.00  0.00    -0.213 OA 
ENDROOT
BRANCH   2   3
HETATM    3  C   UNL     1      -7.587   8.730  71.916  1.00  0.00    -0.003 C  
HETATM    4  O   UNL     1      -8.191   8.721  72.978  1.00  0.00    -0.418 OA 
BRANCH   3   5
HETATM    5  C   UNL     1      -8.068   8.072  70.670  1.00  0.00    -0.104 C  
HETATM    6  C   UNL     1      -8.333   8.844  69.588  1.00  0.00    -0.123 C  
HETATM    7  N   UNL     1      -8.576   8.255  68.364  1.00  0.00    -0.132 NA 
HETATM    8  C   UNL     1      -8.429  10.352  69.570  1.00  0.00    -0.115 C  
HETATM    9  C   UNL     1      -8.623   6.897  68.127  1.00  0.00    -0.123 C  
HETATM   10  C   UNL     1      -8.880   6.510  66.687  1.00  0.00    -0.135 C  
HETATM   11  C   UNL     1      -8.456   6.024  69.150  1.00  0.00    -0.114 C  
HETATM   12  C   UNL     1      -8.146   6.527  70.586  1.00  0.00    -0.113 C  
BRANCH  11  13
HETATM   13  C   UNL     1      -8.717   4.581  68.890  1.00  0.00    -0.086 C  
HETATM   14  O   UNL     1      -9.838   4.105  68.768  1.00  0.00    -0.131 OA 
BRANCH  13  15
HETATM   15  O   UNL     1      -7.575   3.859  68.851  1.00  0.00    -0.054 OA 
HETATM   16  C   UNL     1      -7.514   2.764  69.778  1.00  0.00    -0.044 C  
ENDBRANCH  13  15
ENDBRANCH  11  13
BRANCH  12  17
HETATM   17  C   UNL     1      -9.170   5.954  71.581  1.00  0.00    -0.156 A  
HETATM   18  O   UNL     1     -10.781   8.102  70.223  1.00  0.00    -0.228 OA 
HETATM   19  O   UNL     1     -12.155   6.420  69.913  1.00  0.00    -0.176 OA 
HETATM   20  C   UNL     1      -8.707   5.075  72.584  1.00  0.00    -0.119 A  
HETATM   21  C   UNL     1      -9.574   4.538  73.541  1.00  0.00    -0.133 A  
HETATM   22  C   UNL     1     -10.923   4.875  73.539  1.00  0.00    -0.397 A  
HETATM   23  C   UNL     1     -11.423   5.715  72.548  1.00  0.00    -0.335 A  
HETATM   24  C   UNL     1     -10.558   6.227  71.565  1.00  0.00    -0.237 A  
HETATM   25  N   UNL     1     -11.199   6.965  70.484  1.00  0.00    -0.288 N  
ENDBRANCH  12  17
ENDBRANCH   3   5
ENDBRANCH   2   3
TORSDOF 5
ENDMDL
MODEL      183
REMARK 921   NORMALIZED FREE ENERGY PREDICTED BY IDOCK:   -1.33 KCAL/MOL
REMARK 922        TOTAL FREE ENERGY PREDICTED BY IDOCK:   -2.93 KCAL/MOL
REMARK 923 INTER-LIGAND FREE ENERGY PREDICTED BY IDOCK:   -3.75 KCAL/MOL
REMARK 924 INTRA-LIGAND FREE ENERGY PREDICTED BY IDOCK:    0.82 KCAL/MOL
REMARK 927      BINDING AFFINITY PREDICTED BY RF-SCORE:    0.00 PKD
ROOT
HETATM    1  C   UNL     1      -9.682   4.157  65.395  1.00  0.00    -0.201 C  
HETATM    2  O   UNL     1      -9.360   5.092  66.429  1.00  0.00    -0.132 OA 
ENDROOT
BRANCH   2   3
HETATM    3  C   UNL     1      -8.219   4.826  67.105  1.00  0.00    -0.106 C  
HETATM    4  O   UNL     1      -7.252   4.239  66.642  1.00  0.00    -0.072 OA 
BRANCH   3   5
HETATM    5  C   UNL     1      -8.306   5.328  68.504  1.00  0.00    -0.089 C  
HETATM    6  C   UNL     1      -8.750   4.488  69.470  1.00  0.00    -0.082 C  
HETATM    7  N   UNL     1      -8.646   4.848  70.798  1.00  0.00    -0.111 NA 
HETATM    8  C   UNL     1      -9.409   3.146  69.252  1.00  0.00    -0.223 C  
HETATM    9  C   UNL     1      -8.154   6.050  71.263  1.00  0.00    -0.118 C  
HETATM   10  C   UNL     1      -8.120   6.185  72.769  1.00  0.00    -0.106 C  
HETATM   11  C   UNL     1      -7.755   7.004  70.386  1.00  0.00    -0.096 C  
HETATM   12  C   UNL     1      -7.784   6.744  68.856  1.00  0.00    -0.110 C  
BRANCH  11  13
HETATM   13  C   UNL     1      -7.426   8.354  70.922  1.00  0.00    -0.066 C  
HETATM   14  O   UNL     1      -8.265   9.143  71.337  1.00  0.00    -0.316 OA 
BRANCH  13  15
HETATM   15  O   UNL     1      -6.102   8.618  70.852  1.00  0.00    -0.033 OA 
HETATM   16  C   UNL     1      -5.630   9.617  71.769  1.00  0.00    -0.036 C  
ENDBRANCH  13  15
ENDBRANCH  11  13
BRANCH  12  17
HETATM   17  C   UNL     1      -8.595   7.841  68.147  1.00  0.00    -0.123 A  
HETATM   18  O   UNL     1     -10.762   6.302  69.555  1.00  0.00    -0.236 OA 
HETATM   19  O   UNL     1     -11.247   8.306  70.304  1.00  0.00    -0.249 OA 
HETATM   20  C   UNL     1      -7.944   8.629  67.173  1.00  0.00    -0.100 A  
HETATM   21  C   UNL     1      -8.623   9.625  66.465  1.00  0.00    -0.135 A  
HETATM   22  C   UNL     1      -9.976   9.855  66.694  1.00  0.00    -0.277 A  
HETATM   23  C   UNL     1     -10.645   9.120  67.668  1.00  0.00    -0.307 A  
HETATM   24  C   UNL     1      -9.954   8.142  68.404  1.00  0.00    -0.190 A  
HETATM   25  N   UNL     1     -10.695   7.539  69.503  1.00  0.00    -0.235 N  
ENDBRANCH  12  17
ENDBRANCH   3   5
ENDBRANCH   2   3
TORSDOF 5
ENDMDL
MODEL      184
REMARK 921   NORMALIZED FREE ENERGY PREDICTED BY IDOCK:   -1.30 KCAL/MOL
REMARK 922        TOTAL FREE ENERGY PREDICTED BY IDOCK:   -2.89 KCAL/MOL
REMARK 923 INTER-LIGAND FREE ENERGY PREDICTED BY IDOCK:   -4.60 KCAL/MOL
REMARK 924 INTRA-LIGAND FREE ENERGY PREDICTED BY IDOCK:    1.71 KCAL/MOL
REMARK 927      BINDING AFFINITY PREDICTED BY RF-SCORE:    0.00 PKD
ROOT
HETATM    1  C   UNL     1      -6.248  10.018  64.095  1.00  0.00    -0.132 C  
HETATM    2  O   UNL     1      -7.351  10.449  63.293  1.00  0.00    -0.133 OA 
ENDROOT
BRANCH   2   3
HETATM    3  C   UNL     1      -8.569  10.275  63.854  1.00  0.00    -0.187 C  
HETATM    4  O   UNL     1      -9.589  10.003  63.241  1.00  0.00    -0.270 OA 
BRANCH   3   5
HETATM    5  C   UNL     1      -8.503  10.482  65.328  1.00  0.00    -0.175 C  
HETATM    6  C   UNL     1      -8.250   9.414  66.123  1.00  0.00    -0.111 C  
HETATM    7  N   UNL     1      -7.976   9.602  67.463  1.00  0.00    -0.106 NA 
HETATM    8  C   UNL     1      -8.265   7.963  65.701  1.00  0.00    -0.137 C  
HETATM    9  C   UNL     1      -7.976  10.817  68.114  1.00  0.00    -0.114 C  
HETATM   10  C   UNL     1      -7.614  10.753  69.582  1.00  0.00    -0.052 C  
HETATM   11  C   UNL     1      -8.296  11.948  67.440  1.00  0.00    -0.163 C  
HETATM   12  C   UNL     1      -8.603  11.910  65.919  1.00  0.00     0.210 C  
BRANCH  11  13
HETATM   13  C   UNL     1      -8.483  13.202  68.222  1.00  0.00    -0.161 C  
HETATM   14  O   UNL     1      -9.541  13.523  68.747  1.00  0.00    -0.125 OA 
BRANCH  13  15
HETATM   15  O   UNL     1      -7.363  13.957  68.244  1.00  0.00    -0.095 OA 
HETATM   16  C   UNL     1      -7.183  14.748  69.429  1.00  0.00    -0.168 C  
ENDBRANCH  13  15
ENDBRANCH  11  13
BRANCH  12  17
HETATM   17  C   UNL     1      -9.976  12.546  65.639  1.00  0.00    -0.259 A  
HETATM   18  O   UNL     1     -10.764   9.947  66.934  1.00  0.00    -0.203 OA 
HETATM   19  O   UNL     1     -11.898  11.311  68.225  1.00  0.00    -0.516 OA 
HETATM   20  C   UNL     1     -10.028  13.684  64.805  1.00  0.00    -0.147 A  
HETATM   21  C   UNL     1     -11.242  14.297  64.482  1.00  0.00    -0.331 A  
HETATM   22  C   UNL     1     -12.442  13.787  64.966  1.00  0.00    -0.449 A  
HETATM   23  C   UNL     1     -12.429  12.685  65.816  1.00  0.00    -0.159 A  
HETATM   24  C   UNL     1     -11.206  12.088  66.169  1.00  0.00    -0.343 A  
HETATM   25  N   UNL     1     -11.282  11.045  67.183  1.00  0.00    -0.274 N  
ENDBRANCH  12  17
ENDBRANCH   3   5
ENDBRANCH   2   3
TORSDOF 5
ENDMDL
MODEL      185
REMARK 921   NORMALIZED FREE ENERGY PREDICTED BY IDOCK:   -1.28 KCAL/MOL
REMARK 922        TOTAL FREE ENERGY PREDICTED BY IDOCK:   -2.87 KCAL/MOL
REMARK 923 INTER-LIGAND FREE ENERGY PREDICTED BY IDOCK:   -4.34 KCAL/MOL
REMARK 924 INTRA-LIGAND FREE ENERGY PREDICTED BY IDOCK:    1.47 KCAL/MOL
REMARK 927      BINDING AFFINITY PREDICTED BY RF-SCORE:    0.00 PKD
ROOT
HETATM    1  C   UNL     1      -6.462  10.811  67.322  1.00  0.00    -0.070 C  
HETATM    2  O   UNL     1      -7.757  11.107  67.853  1.00  0.00    -0.100 OA 
ENDROOT
BRANCH   2   3
HETATM    3  C   UNL     1      -8.096  10.406  68.959  1.00  0.00    -0.138 C  
HETATM    4  O   UNL     1      -7.781  10.704  70.100  1.00  0.00    -0.032 OA 
BRANCH   3   5
HETATM    5  C   UNL     1      -8.892   9.201  68.595  1.00  0.00    -0.133 C  
HETATM    6  C   UNL     1      -9.848   9.317  67.640  1.00  0.00    -0.176 C  
HETATM    7  N   UNL     1     -10.455   8.186  67.132  1.00  0.00    -0.322 NA 
HETATM    8  C   UNL     1     -10.376  10.608  67.059  1.00  0.00    -0.280 C  
HETATM    9  C   UNL     1     -10.210   6.894  67.546  1.00  0.00    -0.194 C  
HETATM   10  C   UNL     1     -10.989   5.829  66.807  1.00  0.00    -0.239 C  
HETATM   11  C   UNL     1      -9.333   6.659  68.553  1.00  0.00    -0.125 C  
HETATM   12  C   UNL     1      -8.546   7.823  69.213  1.00  0.00    -0.138 C  
BRANCH  11  13
HETATM   13  C   UNL     1      -9.252   5.278  69.104  1.00  0.00    -0.118 C  
HETATM   14  O   UNL     1     -10.095   4.793  69.848  1.00  0.00    -0.235 OA 
BRANCH  13  15
HETATM   15  O   UNL     1      -8.120   4.646  68.722  1.00  0.00    -0.081 OA 
HETATM   16  C   UNL     1      -7.212   4.324  69.787  1.00  0.00    -0.049 C  
ENDBRANCH  13  15
ENDBRANCH  11  13
BRANCH  12  17
HETATM   17  C   UNL     1      -8.762   7.814  70.736  1.00  0.00    -0.134 A  
HETATM   18  O   UNL     1     -11.384   8.918  69.760  1.00  0.00    -0.090 OA 
HETATM   19  O   UNL     1     -12.161   7.277  70.993  1.00  0.00    -0.321 OA 
HETATM   20  C   UNL     1      -7.644   7.585  71.568  1.00  0.00    -0.084 A  
HETATM   21  C   UNL     1      -7.758   7.591  72.961  1.00  0.00    -0.117 A  
HETATM   22  C   UNL     1      -8.984   7.842  73.569  1.00  0.00    -0.343 A  
HETATM   23  C   UNL     1     -10.114   8.042  72.782  1.00  0.00    -0.378 A  
HETATM   24  C   UNL     1     -10.007   8.002  71.381  1.00  0.00    -0.178 A  
HETATM   25  N   UNL     1     -11.266   8.064  70.650  1.00  0.00    -0.264 N  
ENDBRANCH  12  17
ENDBRANCH   3   5
ENDBRANCH   2   3
TORSDOF 5
ENDMDL
MODEL      186
REMARK 921   NORMALIZED FREE ENERGY PREDICTED BY IDOCK:   -1.21 KCAL/MOL
REMARK 922        TOTAL FREE ENERGY PREDICTED BY IDOCK:   -2.79 KCAL/MOL
REMARK 923 INTER-LIGAND FREE ENERGY PREDICTED BY IDOCK:   -4.23 KCAL/MOL
REMARK 924 INTRA-LIGAND FREE ENERGY PREDICTED BY IDOCK:    1.45 KCAL/MOL
REMARK 927      BINDING AFFINITY PREDICTED BY RF-SCORE:    0.00 PKD
ROOT
HETATM    1  C   UNL     1      -9.577  10.466  63.557  1.00  0.00    -0.310 C  
HETATM    2  O   UNL     1     -10.147  10.057  64.804  1.00  0.00    -0.296 OA 
ENDROOT
BRANCH   2   3
HETATM    3  C   UNL     1      -9.309   9.379  65.620  1.00  0.00    -0.246 C  
HETATM    4  O   UNL     1      -9.335   8.171  65.803  1.00  0.00    -0.113 OA 
BRANCH   3   5
HETATM    5  C   UNL     1      -8.357  10.309  66.287  1.00  0.00    -0.134 C  
HETATM    6  C   UNL     1      -7.027  10.120  66.103  1.00  0.00    -0.113 C  
HETATM    7  N   UNL     1      -6.130  11.079  66.529  1.00  0.00    -0.120 NA 
HETATM    8  C   UNL     1      -6.375   8.906  65.483  1.00  0.00    -0.063 C  
HETATM    9  C   UNL     1      -6.459  12.242  67.192  1.00  0.00    -0.117 C  
HETATM   10  C   UNL     1      -5.287  13.139  67.525  1.00  0.00     0.001 C  
HETATM   11  C   UNL     1      -7.752  12.501  67.506  1.00  0.00    -0.165 C  
HETATM   12  C   UNL     1      -8.887  11.535  67.073  1.00  0.00    -0.173 C  
BRANCH  11  13
HETATM   13  C   UNL     1      -8.038  13.660  68.397  1.00  0.00    -0.146 C  
HETATM   14  O   UNL     1      -8.854  14.533  68.133  1.00  0.00    -0.163 OA 
BRANCH  13  15
HETATM   15  O   UNL     1      -7.261  13.653  69.502  1.00  0.00     0.061 OA 
HETATM   16  C   UNL     1      -7.087  14.932  70.133  1.00  0.00     0.050 C  
ENDBRANCH  13  15
ENDBRANCH  11  13
BRANCH  12  17
HETATM   17  C   UNL     1      -9.717  11.109  68.296  1.00  0.00    -0.190 A  
HETATM   18  O   UNL     1      -7.226   9.460  68.651  1.00  0.00    -0.073 OA 
HETATM   19  O   UNL     1      -7.276  10.404  70.631  1.00  0.00    -0.259 OA 
HETATM   20  C   UNL     1     -11.075  11.493  68.348  1.00  0.00    -0.288 A  
HETATM   21  C   UNL     1     -11.899  11.118  69.414  1.00  0.00    -0.415 A  
HETATM   22  C   UNL     1     -11.401  10.336  70.450  1.00  0.00    -0.410 A  
HETATM   23  C   UNL     1     -10.059   9.964  70.450  1.00  0.00    -0.258 A  
HETATM   24  C   UNL     1      -9.222  10.369  69.396  1.00  0.00    -0.159 A  
HETATM   25  N   UNL     1      -7.807  10.066  69.563  1.00  0.00    -0.138 N  
ENDBRANCH  12  17
ENDBRANCH   3   5
ENDBRANCH   2   3
TORSDOF 5
ENDMDL
MODEL      187
REMARK 921   NORMALIZED FREE ENERGY PREDICTED BY IDOCK:   -1.21 KCAL/MOL
REMARK 922        TOTAL FREE ENERGY PREDICTED BY IDOCK:   -2.78 KCAL/MOL
REMARK 923 INTER-LIGAND FREE ENERGY PREDICTED BY IDOCK:   -3.61 KCAL/MOL
REMARK 924 INTRA-LIGAND FREE ENERGY PREDICTED BY IDOCK:    0.83 KCAL/MOL
REMARK 927      BINDING AFFINITY PREDICTED BY RF-SCORE:    0.00 PKD
ROOT
HETATM    1  C   UNL     1      -5.125   5.679  71.294  1.00  0.00    -0.009 C  
HETATM    2  O   UNL     1      -5.725   6.539  72.268  1.00  0.00    -0.036 OA 
ENDROOT
BRANCH   2   3
HETATM    3  C   UNL     1      -6.768   6.001  72.940  1.00  0.00    -0.074 C  
HETATM    4  O   UNL     1      -6.682   5.108  73.769  1.00  0.00    -0.070 OA 
BRANCH   3   5
HETATM    5  C   UNL     1      -8.048   6.633  72.516  1.00  0.00    -0.102 C  
HETATM    6  C   UNL     1      -8.432   7.789  73.112  1.00  0.00    -0.163 C  
HETATM    7  N   UNL     1      -9.495   8.507  72.603  1.00  0.00    -0.265 NA 
HETATM    8  C   UNL     1      -7.820   8.399  74.352  1.00  0.00    -0.258 C  
HETATM    9  C   UNL     1     -10.271   8.130  71.527  1.00  0.00    -0.206 C  
HETATM   10  C   UNL     1     -11.359   9.111  71.152  1.00  0.00    -0.392 C  
HETATM   11  C   UNL     1     -10.035   6.951  70.901  1.00  0.00    -0.200 C  
HETATM   12  C   UNL     1      -8.856   6.039  71.335  1.00  0.00    -0.136 C  
BRANCH  11  13
HETATM   13  C   UNL     1     -11.018   6.489  69.882  1.00  0.00    -0.335 C  
HETATM   14  O   UNL     1     -12.183   6.214  70.139  1.00  0.00     0.194 OA 
BRANCH  13  15
HETATM   15  O   UNL     1     -10.460   6.369  68.657  1.00  0.00    -0.179 OA 
HETATM   16  C   UNL     1     -11.386   6.400  67.559  1.00  0.00     0.021 C  
ENDBRANCH  13  15
ENDBRANCH  11  13
BRANCH  12  17
HETATM   17  C   UNL     1      -9.370   4.624  71.653  1.00  0.00    -0.195 A  
HETATM   18  O   UNL     1     -10.499   6.209  73.947  1.00  0.00    -0.264 OA 
HETATM   19  O   UNL     1     -12.357   5.270  73.254  1.00  0.00     0.271 OA 
HETATM   20  C   UNL     1      -8.837   3.539  70.923  1.00  0.00    -0.141 A  
HETATM   21  C   UNL     1      -9.234   2.223  71.176  1.00  0.00    -0.188 A  
HETATM   22  C   UNL     1     -10.160   1.945  72.176  1.00  0.00    -0.228 A  
HETATM   23  C   UNL     1     -10.730   2.990  72.897  1.00  0.00    -0.171 A  
HETATM   24  C   UNL     1     -10.358   4.317  72.619  1.00  0.00    -0.178 A  
HETATM   25  N   UNL     1     -11.121   5.345  73.312  1.00  0.00    -0.302 N  
ENDBRANCH  12  17
ENDBRANCH   3   5
ENDBRANCH   2   3
TORSDOF 5
ENDMDL
MODEL      188
REMARK 921   NORMALIZED FREE ENERGY PREDICTED BY IDOCK:   -1.10 KCAL/MOL
REMARK 922        TOTAL FREE ENERGY PREDICTED BY IDOCK:   -2.64 KCAL/MOL
REMARK 923 INTER-LIGAND FREE ENERGY PREDICTED BY IDOCK:   -3.78 KCAL/MOL
REMARK 924 INTRA-LIGAND FREE ENERGY PREDICTED BY IDOCK:    1.14 KCAL/MOL
REMARK 927      BINDING AFFINITY PREDICTED BY RF-SCORE:    0.00 PKD
ROOT
HETATM    1  C   UNL     1     -10.919   4.485  73.395  1.00  0.00    -0.301 C  
HETATM    2  O   UNL     1      -9.812   5.320  73.043  1.00  0.00    -0.152 OA 
ENDROOT
BRANCH   2   3
HETATM    3  C   UNL     1     -10.110   6.630  72.894  1.00  0.00    -0.182 C  
HETATM    4  O   UNL     1     -10.399   7.390  73.806  1.00  0.00    -0.348 OA 
BRANCH   3   5
HETATM    5  C   UNL     1     -10.059   7.023  71.459  1.00  0.00    -0.197 C  
HETATM    6  C   UNL     1     -11.223   7.273  70.811  1.00  0.00    -0.274 C  
HETATM    7  N   UNL     1     -11.203   7.838  69.552  1.00  0.00     0.016 NA 
HETATM    8  C   UNL     1     -12.611   6.961  71.319  1.00  0.00    -0.394 C  
HETATM    9  C   UNL     1     -10.068   8.148  68.834  1.00  0.00    -0.202 C  
HETATM   10  C   UNL     1     -10.321   8.787  67.486  1.00  0.00    -0.334 C  
HETATM   11  C   UNL     1      -8.844   7.867  69.345  1.00  0.00    -0.145 C  
HETATM   12  C   UNL     1      -8.694   7.254  70.763  1.00  0.00    -0.146 C  
BRANCH  11  13
HETATM   13  C   UNL     1      -7.659   8.027  68.456  1.00  0.00    -0.104 C  
HETATM   14  O   UNL     1      -6.819   8.905  68.598  1.00  0.00    -0.061 OA 
BRANCH  13  15
HETATM   15  O   UNL     1      -7.651   7.120  67.455  1.00  0.00    -0.104 OA 
HETATM   16  C   UNL     1      -6.472   7.128  66.635  1.00  0.00    -0.054 C  
ENDBRANCH  13  15
ENDBRANCH  11  13
BRANCH  12  17
HETATM   17  C   UNL     1      -7.863   5.961  70.698  1.00  0.00    -0.105 A  
HETATM   18  O   UNL     1     -10.540   5.012  69.708  1.00  0.00    -0.222 OA 
HETATM   19  O   UNL     1      -9.305   4.296  68.042  1.00  0.00    -0.133 OA 
HETATM   20  C   UNL     1      -6.596   5.949  71.322  1.00  0.00    -0.050 A  
HETATM   21  C   UNL     1      -5.798   4.801  71.329  1.00  0.00    -0.017 A  
HETATM   22  C   UNL     1      -6.243   3.627  70.730  1.00  0.00    -0.019 A  
HETATM   23  C   UNL     1      -7.472   3.610  70.078  1.00  0.00    -0.045 A  
HETATM   24  C   UNL     1      -8.261   4.773  70.041  1.00  0.00    -0.068 A  
HETATM   25  N   UNL     1      -9.451   4.701  69.205  1.00  0.00    -0.143 N  
ENDBRANCH  12  17
ENDBRANCH   3   5
ENDBRANCH   2   3
TORSDOF 5
ENDMDL
MODEL      189
REMARK 921   NORMALIZED FREE ENERGY PREDICTED BY IDOCK:   -1.04 KCAL/MOL
REMARK 922        TOTAL FREE ENERGY PREDICTED BY IDOCK:   -2.56 KCAL/MOL
REMARK 923 INTER-LIGAND FREE ENERGY PREDICTED BY IDOCK:   -3.27 KCAL/MOL
REMARK 924 INTRA-LIGAND FREE ENERGY PREDICTED BY IDOCK:    0.70 KCAL/MOL
REMARK 927      BINDING AFFINITY PREDICTED BY RF-SCORE:    0.00 PKD
ROOT
HETATM    1  C   UNL     1      -8.628   5.529  73.592  1.00  0.00    -0.114 C  
HETATM    2  O   UNL     1      -7.828   6.643  73.185  1.00  0.00    -0.098 OA 
ENDROOT
BRANCH   2   3
HETATM    3  C   UNL     1      -6.786   6.333  72.381  1.00  0.00    -0.068 C  
HETATM    4  O   UNL     1      -6.026   5.392  72.551  1.00  0.00    -0.025 OA 
BRANCH   3   5
HETATM    5  C   UNL     1      -6.675   7.311  71.263  1.00  0.00    -0.051 C  
HETATM    6  C   UNL     1      -5.950   8.440  71.456  1.00  0.00    -0.041 C  
HETATM    7  N   UNL     1      -5.653   9.260  70.386  1.00  0.00    -0.033 NA 
HETATM    8  C   UNL     1      -5.427   8.949  72.780  1.00  0.00    -0.075 C  
HETATM    9  C   UNL     1      -6.075   9.063  69.089  1.00  0.00    -0.042 C  
HETATM   10  C   UNL     1      -5.587  10.095  68.096  1.00  0.00    -0.038 C  
HETATM   11  C   UNL     1      -6.876   8.011  68.788  1.00  0.00    -0.062 C  
HETATM   12  C   UNL     1      -7.279   6.979  69.875  1.00  0.00    -0.079 C  
BRANCH  11  13
HETATM   13  C   UNL     1      -7.473   7.951  67.425  1.00  0.00    -0.093 C  
HETATM   14  O   UNL     1      -8.384   8.678  67.050  1.00  0.00    -0.105 OA 
BRANCH  13  15
HETATM   15  O   UNL     1      -6.920   6.974  66.672  1.00  0.00    -0.068 OA 
HETATM   16  C   UNL     1      -6.336   7.413  65.436  1.00  0.00    -0.038 C  
ENDBRANCH  13  15
ENDBRANCH  11  13
BRANCH  12  17
HETATM   17  C   UNL     1      -8.810   6.847  69.939  1.00  0.00    -0.142 A  
HETATM   18  O   UNL     1      -8.384   9.552  71.185  1.00  0.00    -0.285 OA 
HETATM   19  O   UNL     1      -9.844  10.126  69.651  1.00  0.00    -0.224 OA 
HETATM   20  C   UNL     1      -9.384   5.586  69.665  1.00  0.00    -0.172 A  
HETATM   21  C   UNL     1     -10.765   5.382  69.733  1.00  0.00    -0.280 A  
HETATM   22  C   UNL     1     -11.616   6.422  70.092  1.00  0.00    -0.449 A  
HETATM   23  C   UNL     1     -11.091   7.687  70.339  1.00  0.00    -0.270 A  
HETATM   24  C   UNL     1      -9.705   7.901  70.238  1.00  0.00    -0.183 A  
HETATM   25  N   UNL     1      -9.270   9.286  70.360  1.00  0.00    -0.228 N  
ENDBRANCH  12  17
ENDBRANCH   3   5
ENDBRANCH   2   3
TORSDOF 5
ENDMDL
MODEL      190
REMARK 921   NORMALIZED FREE ENERGY PREDICTED BY IDOCK:   -1.03 KCAL/MOL
REMARK 922        TOTAL FREE ENERGY PREDICTED BY IDOCK:   -2.55 KCAL/MOL
REMARK 923 INTER-LIGAND FREE ENERGY PREDICTED BY IDOCK:   -4.52 KCAL/MOL
REMARK 924 INTRA-LIGAND FREE ENERGY PREDICTED BY IDOCK:    1.97 KCAL/MOL
REMARK 927      BINDING AFFINITY PREDICTED BY RF-SCORE:    0.00 PKD
ROOT
HETATM    1  C   UNL     1     -12.939  11.465  70.862  1.00  0.00    -0.121 C  
HETATM    2  O   UNL     1     -12.133  10.909  69.819  1.00  0.00    -0.309 OA 
ENDROOT
BRANCH   2   3
HETATM    3  C   UNL     1     -11.025  10.257  70.239  1.00  0.00    -0.309 C  
HETATM    4  O   UNL     1     -10.944   9.607  71.270  1.00  0.00    -0.349 OA 
BRANCH   3   5
HETATM    5  C   UNL     1      -9.903  10.455  69.281  1.00  0.00    -0.243 C  
HETATM    6  C   UNL     1      -9.775  11.658  68.669  1.00  0.00    -0.143 C  
HETATM    7  N   UNL     1      -8.637  11.944  67.943  1.00  0.00    -0.154 NA 
HETATM    8  C   UNL     1     -10.800  12.768  68.661  1.00  0.00    -0.284 C  
HETATM    9  C   UNL     1      -7.587  11.077  67.730  1.00  0.00    -0.099 C  
HETATM   10  C   UNL     1      -6.443  11.647  66.921  1.00  0.00    -0.134 C  
HETATM   11  C   UNL     1      -7.638   9.816  68.224  1.00  0.00    -0.081 C  
HETATM   12  C   UNL     1      -8.840   9.345  69.087  1.00  0.00    -0.143 C  
BRANCH  11  13
HETATM   13  C   UNL     1      -6.583   8.853  67.800  1.00  0.00    -0.061 C  
HETATM   14  O   UNL     1      -6.407   8.507  66.639  1.00  0.00    -0.057 OA 
BRANCH  13  15
HETATM   15  O   UNL     1      -5.879   8.378  68.851  1.00  0.00    -0.038 OA 
HETATM   16  C   UNL     1      -5.195   9.374  69.627  1.00  0.00    -0.034 C  
ENDBRANCH  13  15
ENDBRANCH  11  13
BRANCH  12  17
HETATM   17  C   UNL     1      -9.454   8.068  68.489  1.00  0.00    -0.143 A  
HETATM   18  O   UNL     1     -10.304  10.145  66.485  1.00  0.00    -0.231 OA 
HETATM   19  O   UNL     1      -9.362   8.725  65.103  1.00  0.00    -0.073 OA 
HETATM   20  C   UNL     1      -9.478   6.902  69.285  1.00  0.00    -0.147 A  
HETATM   21  C   UNL     1     -10.047   5.712  68.820  1.00  0.00    -0.245 A  
HETATM   22  C   UNL     1     -10.624   5.653  67.556  1.00  0.00    -0.296 A  
HETATM   23  C   UNL     1     -10.593   6.773  66.730  1.00  0.00    -0.311 A  
HETATM   24  C   UNL     1      -9.991   7.959  67.184  1.00  0.00    -0.230 A  
HETATM   25  N   UNL     1      -9.867   9.022  66.195  1.00  0.00    -0.286 N  
ENDBRANCH  12  17
ENDBRANCH   3   5
ENDBRANCH   2   3
TORSDOF 5
ENDMDL
MODEL      191
REMARK 921   NORMALIZED FREE ENERGY PREDICTED BY IDOCK:   -1.02 KCAL/MOL
REMARK 922        TOTAL FREE ENERGY PREDICTED BY IDOCK:   -2.53 KCAL/MOL
REMARK 923 INTER-LIGAND FREE ENERGY PREDICTED BY IDOCK:   -4.30 KCAL/MOL
REMARK 924 INTRA-LIGAND FREE ENERGY PREDICTED BY IDOCK:    1.77 KCAL/MOL
REMARK 927      BINDING AFFINITY PREDICTED BY RF-SCORE:    0.00 PKD
ROOT
HETATM    1  C   UNL     1      -5.394   9.233  72.469  1.00  0.00    -0.074 C  
HETATM    2  O   UNL     1      -6.566   9.222  71.648  1.00  0.00    -0.240 OA 
ENDROOT
BRANCH   2   3
HETATM    3  C   UNL     1      -6.970   7.996  71.245  1.00  0.00    -0.056 C  
HETATM    4  O   UNL     1      -6.850   6.970  71.897  1.00  0.00    -0.059 OA 
BRANCH   3   5
HETATM    5  C   UNL     1      -7.567   8.060  69.882  1.00  0.00    -0.087 C  
HETATM    6  C   UNL     1      -6.978   8.849  68.951  1.00  0.00    -0.065 C  
HETATM    7  N   UNL     1      -7.374   8.771  67.631  1.00  0.00    -0.084 NA 
HETATM    8  C   UNL     1      -5.903   9.881  69.206  1.00  0.00    -0.034 C  
HETATM    9  C   UNL     1      -8.385   7.968  67.147  1.00  0.00    -0.121 C  
HETATM   10  C   UNL     1      -8.603   8.048  65.653  1.00  0.00    -0.167 C  
HETATM   11  C   UNL     1      -9.102   7.194  67.998  1.00  0.00    -0.132 C  
HETATM   12  C   UNL     1      -8.763   7.147  69.513  1.00  0.00    -0.134 C  
BRANCH  11  13
HETATM   13  C   UNL     1     -10.310   6.503  67.468  1.00  0.00    -0.201 C  
HETATM   14  O   UNL     1     -11.324   7.087  67.109  1.00  0.00    -0.240 OA 
BRANCH  13  15
HETATM   15  O   UNL     1     -10.168   5.159  67.475  1.00  0.00    -0.181 OA 
HETATM   16  C   UNL     1     -10.521   4.502  66.247  1.00  0.00    -0.112 C  
ENDBRANCH  13  15
ENDBRANCH  11  13
BRANCH  12  17
HETATM   17  C   UNL     1     -10.011   7.482  70.347  1.00  0.00    -0.184 A  
HETATM   18  O   UNL     1      -9.271  10.185  69.255  1.00  0.00    -0.185 OA 
HETATM   19  O   UNL     1     -11.367  10.136  68.608  1.00  0.00    -0.206 OA 
HETATM   20  C   UNL     1     -10.513   6.495  71.223  1.00  0.00    -0.250 A  
HETATM   21  C   UNL     1     -11.626   6.737  72.034  1.00  0.00    -0.327 A  
HETATM   22  C   UNL     1     -12.262   7.973  72.010  1.00  0.00    -0.374 A  
HETATM   23  C   UNL     1     -11.815   8.961  71.137  1.00  0.00    -0.353 A  
HETATM   24  C   UNL     1     -10.718   8.707  70.296  1.00  0.00    -0.227 A  
HETATM   25  N   UNL     1     -10.426   9.739  69.311  1.00  0.00    -0.208 N  
ENDBRANCH  12  17
ENDBRANCH   3   5
ENDBRANCH   2   3
TORSDOF 5
ENDMDL
MODEL      192
REMARK 921   NORMALIZED FREE ENERGY PREDICTED BY IDOCK:   -0.93 KCAL/MOL
REMARK 922        TOTAL FREE ENERGY PREDICTED BY IDOCK:   -2.42 KCAL/MOL
REMARK 923 INTER-LIGAND FREE ENERGY PREDICTED BY IDOCK:   -3.28 KCAL/MOL
REMARK 924 INTRA-LIGAND FREE ENERGY PREDICTED BY IDOCK:    0.86 KCAL/MOL
REMARK 927      BINDING AFFINITY PREDICTED BY RF-SCORE:    0.00 PKD
ROOT
HETATM    1  C   UNL     1      -5.627   9.057  71.750  1.00  0.00    -0.060 C  
HETATM    2  O   UNL     1      -6.997   9.375  72.013  1.00  0.00    -0.296 OA 
ENDROOT
BRANCH   2   3
HETATM    3  C   UNL     1      -7.839   8.317  72.014  1.00  0.00    -0.130 C  
HETATM    4  O   UNL     1      -8.050   7.593  72.975  1.00  0.00    -0.101 OA 
BRANCH   3   5
HETATM    5  C   UNL     1      -8.463   8.140  70.674  1.00  0.00    -0.128 C  
HETATM    6  C   UNL     1      -9.714   8.621  70.471  1.00  0.00    -0.180 C  
HETATM    7  N   UNL     1     -10.237   8.661  69.194  1.00  0.00    -0.204 NA 
HETATM    8  C   UNL     1     -10.665   9.114  71.537  1.00  0.00    -0.437 C  
HETATM    9  C   UNL     1      -9.607   8.201  68.058  1.00  0.00    -0.156 C  
HETATM   10  C   UNL     1     -10.387   8.388  66.775  1.00  0.00    -0.357 C  
HETATM   11  C   UNL     1      -8.384   7.623  68.148  1.00  0.00    -0.124 C  
HETATM   12  C   UNL     1      -7.646   7.525  69.510  1.00  0.00    -0.095 C  
BRANCH  11  13
HETATM   13  C   UNL     1      -7.832   6.958  66.935  1.00  0.00    -0.107 C  
HETATM   14  O   UNL     1      -8.235   5.886  66.505  1.00  0.00    -0.108 OA 
BRANCH  13  15
HETATM   15  O   UNL     1      -6.808   7.658  66.396  1.00  0.00    -0.059 OA 
HETATM   16  C   UNL     1      -6.946   7.963  65.000  1.00  0.00    -0.059 C  
ENDBRANCH  13  15
ENDBRANCH  11  13
BRANCH  12  17
HETATM   17  C   UNL     1      -7.257   6.065  69.799  1.00  0.00    -0.074 A  
HETATM   18  O   UNL     1     -10.226   6.005  70.276  1.00  0.00    -0.187 OA 
HETATM   19  O   UNL     1     -10.093   4.346  68.847  1.00  0.00    -0.086 OA 
HETATM   20  C   UNL     1      -5.886   5.750  69.919  1.00  0.00    -0.024 A  
HETATM   21  C   UNL     1      -5.457   4.452  70.209  1.00  0.00    -0.012 A  
HETATM   22  C   UNL     1      -6.381   3.431  70.406  1.00  0.00    -0.027 A  
HETATM   23  C   UNL     1      -7.741   3.695  70.266  1.00  0.00    -0.047 A  
HETATM   24  C   UNL     1      -8.170   4.993  69.940  1.00  0.00    -0.074 A  
HETATM   25  N   UNL     1      -9.593   5.135  69.661  1.00  0.00    -0.152 N  
ENDBRANCH  12  17
ENDBRANCH   3   5
ENDBRANCH   2   3
TORSDOF 5
ENDMDL
MODEL      193
REMARK 921   NORMALIZED FREE ENERGY PREDICTED BY IDOCK:   -0.91 KCAL/MOL
REMARK 922        TOTAL FREE ENERGY PREDICTED BY IDOCK:   -2.39 KCAL/MOL
REMARK 923 INTER-LIGAND FREE ENERGY PREDICTED BY IDOCK:   -3.36 KCAL/MOL
REMARK 924 INTRA-LIGAND FREE ENERGY PREDICTED BY IDOCK:    0.98 KCAL/MOL
REMARK 927      BINDING AFFINITY PREDICTED BY RF-SCORE:    0.00 PKD
ROOT
HETATM    1  C   UNL     1      -6.866   6.310  65.267  1.00  0.00    -0.048 C  
HETATM    2  O   UNL     1      -7.247   6.488  66.635  1.00  0.00    -0.070 OA 
ENDROOT
BRANCH   2   3
HETATM    3  C   UNL     1      -8.429   7.118  66.821  1.00  0.00    -0.121 C  
HETATM    4  O   UNL     1      -9.193   7.450  65.928  1.00  0.00    -0.099 OA 
BRANCH   3   5
HETATM    5  C   UNL     1      -8.667   7.372  68.269  1.00  0.00    -0.122 C  
HETATM    6  C   UNL     1      -8.177   8.510  68.819  1.00  0.00    -0.122 C  
HETATM    7  N   UNL     1      -8.555   8.878  70.094  1.00  0.00    -0.142 NA 
HETATM    8  C   UNL     1      -7.189   9.457  68.177  1.00  0.00    -0.078 C  
HETATM    9  C   UNL     1      -9.383   8.150  70.922  1.00  0.00    -0.151 C  
HETATM   10  C   UNL     1      -9.664   8.789  72.264  1.00  0.00    -0.282 C  
HETATM   11  C   UNL     1      -9.870   6.953  70.512  1.00  0.00    -0.187 C  
HETATM   12  C   UNL     1      -9.560   6.410  69.092  1.00  0.00    -0.143 C  
BRANCH  11  13
HETATM   13  C   UNL     1     -10.589   6.111  71.509  1.00  0.00    -0.239 C  
HETATM   14  O   UNL     1     -10.039   5.555  72.450  1.00  0.00    -0.172 OA 
BRANCH  13  15
HETATM   15  O   UNL     1     -11.905   6.000  71.222  1.00  0.00    -0.171 OA 
HETATM   16  C   UNL     1     -12.660   7.215  71.345  1.00  0.00    -0.394 C  
ENDBRANCH  13  15
ENDBRANCH  11  13
BRANCH  12  17
HETATM   17  C   UNL     1      -8.945   5.003  69.184  1.00  0.00    -0.130 A  
HETATM   18  O   UNL     1      -6.656   6.727  70.100  1.00  0.00    -0.042 OA 
HETATM   19  O   UNL     1      -6.723   5.344  71.802  1.00  0.00    -0.055 OA 
HETATM   20  C   UNL     1      -9.645   3.927  68.596  1.00  0.00    -0.181 A  
HETATM   21  C   UNL     1      -9.134   2.626  68.614  1.00  0.00    -0.211 A  
HETATM   22  C   UNL     1      -7.902   2.360  69.204  1.00  0.00    -0.049 A  
HETATM   23  C   UNL     1      -7.197   3.389  69.821  1.00  0.00    -0.041 A  
HETATM   24  C   UNL     1      -7.726   4.691  69.833  1.00  0.00    -0.058 A  
HETATM   25  N   UNL     1      -6.995   5.662  70.635  1.00  0.00    -0.055 N  
ENDBRANCH  12  17
ENDBRANCH   3   5
ENDBRANCH   2   3
TORSDOF 5
ENDMDL
MODEL      194
REMARK 921   NORMALIZED FREE ENERGY PREDICTED BY IDOCK:   -0.88 KCAL/MOL
REMARK 922        TOTAL FREE ENERGY PREDICTED BY IDOCK:   -2.36 KCAL/MOL
REMARK 923 INTER-LIGAND FREE ENERGY PREDICTED BY IDOCK:   -3.34 KCAL/MOL
REMARK 924 INTRA-LIGAND FREE ENERGY PREDICTED BY IDOCK:    0.98 KCAL/MOL
REMARK 927      BINDING AFFINITY PREDICTED BY RF-SCORE:    0.00 PKD
ROOT
HETATM    1  C   UNL     1      -6.486   2.008  66.061  1.00  0.00    -0.024 C  
HETATM    2  O   UNL     1      -7.375   2.509  67.063  1.00  0.00    -0.059 OA 
ENDROOT
BRANCH   2   3
HETATM    3  C   UNL     1      -8.628   2.778  66.632  1.00  0.00    -0.110 C  
HETATM    4  O   UNL     1      -9.389   1.960  66.137  1.00  0.00    -0.012 OA 
BRANCH   3   5
HETATM    5  C   UNL     1      -8.953   4.219  66.822  1.00  0.00    -0.125 C  
HETATM    6  C   UNL     1      -8.773   5.069  65.782  1.00  0.00    -0.135 C  
HETATM    7  N   UNL     1      -9.257   6.359  65.855  1.00  0.00    -0.067 NA 
HETATM    8  C   UNL     1      -8.040   4.763  64.496  1.00  0.00    -0.109 C  
HETATM    9  C   UNL     1      -9.895   6.912  66.945  1.00  0.00    -0.183 C  
HETATM   10  C   UNL     1     -10.355   8.341  66.759  1.00  0.00    -0.361 C  
HETATM   11  C   UNL     1     -10.059   6.183  68.077  1.00  0.00    -0.178 C  
HETATM   12  C   UNL     1      -9.594   4.703  68.147  1.00  0.00    -0.204 C  
BRANCH  11  13
HETATM   13  C   UNL     1     -10.566   6.879  69.292  1.00  0.00    -0.226 C  
HETATM   14  O   UNL     1     -10.061   7.895  69.752  1.00  0.00    -0.191 OA 
BRANCH  13  15
HETATM   15  O   UNL     1     -11.615   6.232  69.846  1.00  0.00    -0.435 OA 
HETATM   16  C   UNL     1     -11.655   6.253  71.282  1.00  0.00    -0.274 C  
ENDBRANCH  13  15
ENDBRANCH  11  13
BRANCH  12  17
HETATM   17  C   UNL     1      -8.649   4.501  69.343  1.00  0.00    -0.105 A  
HETATM   18  O   UNL     1      -6.907   6.066  67.455  1.00  0.00    -0.059 OA 
HETATM   19  O   UNL     1      -6.696   7.343  69.227  1.00  0.00    -0.040 OA 
HETATM   20  C   UNL     1      -9.031   3.586  70.349  1.00  0.00    -0.168 A  
HETATM   21  C   UNL     1      -8.211   3.328  71.451  1.00  0.00    -0.074 A  
HETATM   22  C   UNL     1      -6.977   3.959  71.576  1.00  0.00    -0.031 A  
HETATM   23  C   UNL     1      -6.579   4.890  70.621  1.00  0.00    -0.031 A  
HETATM   24  C   UNL     1      -7.420   5.175  69.531  1.00  0.00    -0.057 A  
HETATM   25  N   UNL     1      -6.990   6.272  68.674  1.00  0.00    -0.077 N  
ENDBRANCH  12  17
ENDBRANCH   3   5
ENDBRANCH   2   3
TORSDOF 5
ENDMDL
MODEL      195
REMARK 921   NORMALIZED FREE ENERGY PREDICTED BY IDOCK:   -0.86 KCAL/MOL
REMARK 922        TOTAL FREE ENERGY PREDICTED BY IDOCK:   -2.33 KCAL/MOL
REMARK 923 INTER-LIGAND FREE ENERGY PREDICTED BY IDOCK:   -3.30 KCAL/MOL
REMARK 924 INTRA-LIGAND FREE ENERGY PREDICTED BY IDOCK:    0.97 KCAL/MOL
REMARK 927      BINDING AFFINITY PREDICTED BY RF-SCORE:    0.00 PKD
ROOT
HETATM    1  C   UNL     1      -9.580   3.968  63.431  1.00  0.00    -0.149 C  
HETATM    2  O   UNL     1      -9.349   4.576  64.705  1.00  0.00    -0.155 OA 
ENDROOT
BRANCH   2   3
HETATM    3  C   UNL     1      -8.103   4.409  65.201  1.00  0.00    -0.102 C  
HETATM    4  O   UNL     1      -7.112   4.154  64.533  1.00  0.00    -0.049 OA 
BRANCH   3   5
HETATM    5  C   UNL     1      -8.102   4.557  66.683  1.00  0.00    -0.103 C  
HETATM    6  C   UNL     1      -8.481   3.500  67.442  1.00  0.00    -0.097 C  
HETATM    7  N   UNL     1      -8.293   3.531  68.809  1.00  0.00    -0.071 NA 
HETATM    8  C   UNL     1      -9.150   2.239  66.946  1.00  0.00    -0.115 C  
HETATM    9  C   UNL     1      -7.775   4.592  69.520  1.00  0.00    -0.055 C  
HETATM   10  C   UNL     1      -7.646   4.361  71.009  1.00  0.00    -0.063 C  
HETATM   11  C   UNL     1      -7.436   5.737  68.878  1.00  0.00    -0.085 C  
HETATM   12  C   UNL     1      -7.561   5.854  67.335  1.00  0.00    -0.096 C  
BRANCH  11  13
HETATM   13  C   UNL     1      -7.076   6.924  69.703  1.00  0.00    -0.068 C  
HETATM   14  O   UNL     1      -5.927   7.316  69.864  1.00  0.00    -0.023 OA 
BRANCH  13  15
HETATM   15  O   UNL     1      -8.160   7.484  70.285  1.00  0.00    -0.108 OA 
HETATM   16  C   UNL     1      -8.098   8.910  70.443  1.00  0.00    -0.128 C  
ENDBRANCH  13  15
ENDBRANCH  11  13
BRANCH  12  17
HETATM   17  C   UNL     1      -8.418   7.076  66.963  1.00  0.00    -0.121 A  
HETATM   18  O   UNL     1     -10.507   5.149  67.951  1.00  0.00    -0.129 OA 
HETATM   19  O   UNL     1     -11.019   6.863  69.222  1.00  0.00    -0.244 OA 
HETATM   20  C   UNL     1      -7.814   8.116  66.224  1.00  0.00    -0.095 A  
HETATM   21  C   UNL     1      -8.538   9.244  65.825  1.00  0.00    -0.169 A  
HETATM   22  C   UNL     1      -9.889   9.362  66.135  1.00  0.00    -0.356 A  
HETATM   23  C   UNL     1     -10.512   8.372  66.889  1.00  0.00    -0.359 A  
HETATM   24  C   UNL     1      -9.776   7.254  67.320  1.00  0.00    -0.158 A  
HETATM   25  N   UNL     1     -10.471   6.356  68.232  1.00  0.00    -0.197 N  
ENDBRANCH  12  17
ENDBRANCH   3   5
ENDBRANCH   2   3
TORSDOF 5
ENDMDL
MODEL      196
REMARK 921   NORMALIZED FREE ENERGY PREDICTED BY IDOCK:   -0.78 KCAL/MOL
REMARK 922        TOTAL FREE ENERGY PREDICTED BY IDOCK:   -2.23 KCAL/MOL
REMARK 923 INTER-LIGAND FREE ENERGY PREDICTED BY IDOCK:   -2.53 KCAL/MOL
REMARK 924 INTRA-LIGAND FREE ENERGY PREDICTED BY IDOCK:    0.30 KCAL/MOL
REMARK 927      BINDING AFFINITY PREDICTED BY RF-SCORE:    0.00 PKD
ROOT
HETATM    1  C   UNL     1      -8.618   5.515  73.623  1.00  0.00    -0.114 C  
HETATM    2  O   UNL     1      -7.841   6.645  73.216  1.00  0.00    -0.098 OA 
ENDROOT
BRANCH   2   3
HETATM    3  C   UNL     1      -6.782   6.356  72.426  1.00  0.00    -0.068 C  
HETATM    4  O   UNL     1      -6.004   5.432  72.608  1.00  0.00    -0.025 OA 
BRANCH   3   5
HETATM    5  C   UNL     1      -6.678   7.334  71.307  1.00  0.00    -0.051 C  
HETATM    6  C   UNL     1      -6.072   8.524  71.538  1.00  0.00    -0.048 C  
HETATM    7  N   UNL     1      -5.773   9.361  70.483  1.00  0.00    -0.041 NA 
HETATM    8  C   UNL     1      -5.696   9.086  72.890  1.00  0.00    -0.055 C  
HETATM    9  C   UNL     1      -6.079   9.119  69.161  1.00  0.00    -0.042 C  
HETATM   10  C   UNL     1      -5.614  10.185  68.193  1.00  0.00    -0.038 C  
HETATM   11  C   UNL     1      -6.759   7.998  68.816  1.00  0.00    -0.057 C  
HETATM   12  C   UNL     1      -7.146   6.940  69.884  1.00  0.00    -0.071 C  
BRANCH  11  13
HETATM   13  C   UNL     1      -7.246   7.877  67.414  1.00  0.00    -0.088 C  
HETATM   14  O   UNL     1      -8.172   8.534  66.958  1.00  0.00    -0.105 OA 
BRANCH  13  15
HETATM   15  O   UNL     1      -6.575   6.927  66.725  1.00  0.00    -0.045 OA 
HETATM   16  C   UNL     1      -5.928   7.386  65.527  1.00  0.00    -0.038 C  
ENDBRANCH  13  15
ENDBRANCH  11  13
BRANCH  12  17
HETATM   17  C   UNL     1      -8.660   6.670  69.838  1.00  0.00    -0.140 A  
HETATM   18  O   UNL     1      -7.550   3.876  69.933  1.00  0.00    -0.051 OA 
HETATM   19  O   UNL     1      -8.937   3.733  71.627  1.00  0.00    -0.100 OA 
HETATM   20  C   UNL     1      -9.522   7.748  69.538  1.00  0.00    -0.160 A  
HETATM   21  C   UNL     1     -10.906   7.573  69.450  1.00  0.00    -0.161 A  
HETATM   22  C   UNL     1     -11.472   6.317  69.641  1.00  0.00    -0.425 A  
HETATM   23  C   UNL     1     -10.658   5.236  69.968  1.00  0.00    -0.300 A  
HETATM   24  C   UNL     1      -9.270   5.419  70.091  1.00  0.00    -0.140 A  
HETATM   25  N   UNL     1      -8.524   4.271  70.589  1.00  0.00    -0.073 N  
ENDBRANCH  12  17
ENDBRANCH   3   5
ENDBRANCH   2   3
TORSDOF 5
ENDMDL
MODEL      197
REMARK 921   NORMALIZED FREE ENERGY PREDICTED BY IDOCK:   -0.74 KCAL/MOL
REMARK 922        TOTAL FREE ENERGY PREDICTED BY IDOCK:   -2.17 KCAL/MOL
REMARK 923 INTER-LIGAND FREE ENERGY PREDICTED BY IDOCK:   -3.18 KCAL/MOL
REMARK 924 INTRA-LIGAND FREE ENERGY PREDICTED BY IDOCK:    1.01 KCAL/MOL
REMARK 927      BINDING AFFINITY PREDICTED BY RF-SCORE:    0.00 PKD
ROOT
HETATM    1  C   UNL     1      -8.336   2.230  64.768  1.00  0.00    -0.088 C  
HETATM    2  O   UNL     1      -8.569   3.321  65.664  1.00  0.00    -0.107 OA 
ENDROOT
BRANCH   2   3
HETATM    3  C   UNL     1      -9.409   4.273  65.199  1.00  0.00    -0.165 C  
HETATM    4  O   UNL     1     -10.508   4.057  64.711  1.00  0.00    -0.237 OA 
BRANCH   3   5
HETATM    5  C   UNL     1      -8.805   5.626  65.345  1.00  0.00    -0.112 C  
HETATM    6  C   UNL     1      -7.899   6.036  64.423  1.00  0.00    -0.113 C  
HETATM    7  N   UNL     1      -7.481   7.351  64.407  1.00  0.00    -0.092 NA 
HETATM    8  C   UNL     1      -7.237   5.170  63.377  1.00  0.00    -0.048 C  
HETATM    9  C   UNL     1      -7.873   8.325  65.300  1.00  0.00    -0.120 C  
HETATM   10  C   UNL     1      -7.288   9.697  65.045  1.00  0.00    -0.117 C  
HETATM   11  C   UNL     1      -8.713   8.014  66.317  1.00  0.00    -0.174 C  
HETATM   12  C   UNL     1      -9.297   6.582  66.460  1.00  0.00    -0.188 C  
BRANCH  11  13
HETATM   13  C   UNL     1      -8.947   9.039  67.372  1.00  0.00    -0.124 C  
HETATM   14  O   UNL     1      -8.055   9.538  68.044  1.00  0.00    -0.101 OA 
BRANCH  13  15
HETATM   15  O   UNL     1     -10.261   9.316  67.526  1.00  0.00    -0.209 OA 
HETATM   16  C   UNL     1     -10.745  10.425  66.753  1.00  0.00    -0.168 C  
ENDBRANCH  13  15
ENDBRANCH  11  13
BRANCH  12  17
HETATM   17  C   UNL     1      -8.997   6.024  67.861  1.00  0.00    -0.118 A  
HETATM   18  O   UNL     1      -6.265   6.003  66.602  1.00  0.00    -0.028 OA 
HETATM   19  O   UNL     1      -5.777   7.132  68.418  1.00  0.00    -0.020 OA 
HETATM   20  C   UNL     1     -10.085   5.650  68.679  1.00  0.00    -0.240 A  
HETATM   21  C   UNL     1      -9.889   5.108  69.953  1.00  0.00    -0.289 A  
HETATM   22  C   UNL     1      -8.603   4.905  70.443  1.00  0.00    -0.115 A  
HETATM   23  C   UNL     1      -7.505   5.288  69.678  1.00  0.00    -0.065 A  
HETATM   24  C   UNL     1      -7.703   5.866  68.412  1.00  0.00    -0.094 A  
HETATM   25  N   UNL     1      -6.506   6.377  67.758  1.00  0.00    -0.050 N  
ENDBRANCH  12  17
ENDBRANCH   3   5
ENDBRANCH   2   3
TORSDOF 5
ENDMDL
MODEL      198
REMARK 921   NORMALIZED FREE ENERGY PREDICTED BY IDOCK:   -0.57 KCAL/MOL
REMARK 922        TOTAL FREE ENERGY PREDICTED BY IDOCK:   -1.96 KCAL/MOL
REMARK 923 INTER-LIGAND FREE ENERGY PREDICTED BY IDOCK:   -1.57 KCAL/MOL
REMARK 924 INTRA-LIGAND FREE ENERGY PREDICTED BY IDOCK:   -0.39 KCAL/MOL
REMARK 927      BINDING AFFINITY PREDICTED BY RF-SCORE:    0.00 PKD
ROOT
HETATM    1  C   UNL     1     -10.109   8.799  69.905  1.00  0.00    -0.191 C  
HETATM    2  O   UNL     1     -10.199   9.821  68.908  1.00  0.00    -0.183 OA 
ENDROOT
BRANCH   2   3
HETATM    3  C   UNL     1     -10.483   9.380  67.662  1.00  0.00    -0.268 C  
HETATM    4  O   UNL     1     -11.608   9.255  67.203  1.00  0.00     0.988 OA 
BRANCH   3   5
HETATM    5  C   UNL     1      -9.233   9.045  66.925  1.00  0.00    -0.179 C  
HETATM    6  C   UNL     1      -8.804   7.759  66.923  1.00  0.00    -0.131 C  
HETATM    7  N   UNL     1      -7.777   7.377  66.084  1.00  0.00    -0.091 NA 
HETATM    8  C   UNL     1      -9.326   6.643  67.799  1.00  0.00    -0.119 C  
HETATM    9  C   UNL     1      -7.079   8.216  65.242  1.00  0.00    -0.063 C  
HETATM   10  C   UNL     1      -6.016   7.540  64.405  1.00  0.00    -0.038 C  
HETATM   11  C   UNL     1      -7.363   9.542  65.218  1.00  0.00    -0.104 C  
HETATM   12  C   UNL     1      -8.512  10.127  66.083  1.00  0.00    -0.134 C  
BRANCH  11  13
HETATM   13  C   UNL     1      -6.455  10.439  64.452  1.00  0.00    -0.030 C  
HETATM   14  O   UNL     1      -5.256  10.544  64.676  1.00  0.00    -0.122 OA 
BRANCH  13  15
HETATM   15  O   UNL     1      -7.120  11.152  63.515  1.00  0.00     0.589 OA 
HETATM   16  C   UNL     1      -8.110  10.417  62.779  1.00  0.00    -0.157 C  
ENDBRANCH  13  15
ENDBRANCH  11  13
BRANCH  12  17
HETATM   17  C   UNL     1      -7.983  11.272  66.963  1.00  0.00    -0.150 A  
HETATM   18  O   UNL     1      -9.722  12.762  65.012  1.00  0.00    -0.102 OA 
HETATM   19  O   UNL     1     -10.589  13.531  66.875  1.00  0.00    -0.268 OA 
HETATM   20  C   UNL     1      -6.925  10.995  67.856  1.00  0.00    -0.073 A  
HETATM   21  C   UNL     1      -6.373  11.991  68.666  1.00  0.00    -0.059 A  
HETATM   22  C   UNL     1      -6.845  13.298  68.598  1.00  0.00    -0.099 A  
HETATM   23  C   UNL     1      -7.906  13.604  67.752  1.00  0.00    -0.172 A  
HETATM   24  C   UNL     1      -8.485  12.595  66.963  1.00  0.00    -0.150 A  
HETATM   25  N   UNL     1      -9.686  12.977  66.232  1.00  0.00    -0.270 N  
ENDBRANCH  12  17
ENDBRANCH   3   5
ENDBRANCH   2   3
TORSDOF 5
ENDMDL
MODEL      199
REMARK 921   NORMALIZED FREE ENERGY PREDICTED BY IDOCK:   -0.48 KCAL/MOL
REMARK 922        TOTAL FREE ENERGY PREDICTED BY IDOCK:   -1.85 KCAL/MOL
REMARK 923 INTER-LIGAND FREE ENERGY PREDICTED BY IDOCK:   -2.63 KCAL/MOL
REMARK 924 INTRA-LIGAND FREE ENERGY PREDICTED BY IDOCK:    0.78 KCAL/MOL
REMARK 927      BINDING AFFINITY PREDICTED BY RF-SCORE:    0.00 PKD
ROOT
HETATM    1  C   UNL     1      -7.590   9.733  62.455  1.00  0.00    -0.116 C  
HETATM    2  O   UNL     1      -7.244   9.336  63.786  1.00  0.00    -0.093 OA 
ENDROOT
BRANCH   2   3
HETATM    3  C   UNL     1      -8.290   8.982  64.567  1.00  0.00    -0.175 C  
HETATM    4  O   UNL     1      -9.392   9.510  64.542  1.00  0.00    -0.232 OA 
BRANCH   3   5
HETATM    5  C   UNL     1      -7.911   7.869  65.481  1.00  0.00    -0.119 C  
HETATM    6  C   UNL     1      -7.868   6.608  64.986  1.00  0.00    -0.113 C  
HETATM    7  N   UNL     1      -7.322   5.590  65.742  1.00  0.00    -0.072 NA 
HETATM    8  C   UNL     1      -8.404   6.155  63.648  1.00  0.00     0.081 C  
HETATM    9  C   UNL     1      -6.834   5.722  67.025  1.00  0.00    -0.063 C  
HETATM   10  C   UNL     1      -6.263   4.455  67.623  1.00  0.00    -0.036 C  
HETATM   11  C   UNL     1      -6.900   6.920  67.656  1.00  0.00    -0.077 C  
HETATM   12  C   UNL     1      -7.461   8.173  66.932  1.00  0.00    -0.091 C  
BRANCH  11  13
HETATM   13  C   UNL     1      -6.552   6.970  69.103  1.00  0.00    -0.048 C  
HETATM   14  O   UNL     1      -7.285   6.556  69.992  1.00  0.00    -0.075 OA 
BRANCH  13  15
HETATM   15  O   UNL     1      -5.358   7.566  69.317  1.00  0.00    -0.015 OA 
HETATM   16  C   UNL     1      -5.268   8.334  70.527  1.00  0.00    -0.022 C  
ENDBRANCH  13  15
ENDBRANCH  11  13
BRANCH  12  17
HETATM   17  C   UNL     1      -8.597   8.799  67.759  1.00  0.00    -0.129 A  
HETATM   18  O   UNL     1      -9.919   6.313  66.701  1.00  0.00    -0.166 OA 
HETATM   19  O   UNL     1     -10.340   6.023  68.835  1.00  0.00    -0.176 OA 
HETATM   20  C   UNL     1      -8.435  10.124  68.222  1.00  0.00    -0.115 A  
HETATM   21  C   UNL     1      -9.436  10.769  68.954  1.00  0.00    -0.190 A  
HETATM   22  C   UNL     1     -10.635  10.122  69.233  1.00  0.00    -0.254 A  
HETATM   23  C   UNL     1     -10.820   8.805  68.821  1.00  0.00    -0.026 A  
HETATM   24  C   UNL     1      -9.800   8.144  68.114  1.00  0.00    -0.168 A  
HETATM   25  N   UNL     1     -10.022   6.727  67.865  1.00  0.00    -0.136 N  
ENDBRANCH  12  17
ENDBRANCH   3   5
ENDBRANCH   2   3
TORSDOF 5
ENDMDL
MODEL      200
REMARK 921   NORMALIZED FREE ENERGY PREDICTED BY IDOCK:   -0.48 KCAL/MOL
REMARK 922        TOTAL FREE ENERGY PREDICTED BY IDOCK:   -1.84 KCAL/MOL
REMARK 923 INTER-LIGAND FREE ENERGY PREDICTED BY IDOCK:   -1.99 KCAL/MOL
REMARK 924 INTRA-LIGAND FREE ENERGY PREDICTED BY IDOCK:    0.15 KCAL/MOL
REMARK 927      BINDING AFFINITY PREDICTED BY RF-SCORE:    0.00 PKD
ROOT
HETATM    1  C   UNL     1     -10.109   8.802  69.905  1.00  0.00    -0.191 C  
HETATM    2  O   UNL     1     -10.208   9.846  68.933  1.00  0.00    -0.179 OA 
ENDROOT
BRANCH   2   3
HETATM    3  C   UNL     1     -10.483   9.432  67.675  1.00  0.00    -0.268 C  
HETATM    4  O   UNL     1     -11.307   9.946  66.934  1.00  0.00     0.096 OA 
BRANCH   3   5
HETATM    5  C   UNL     1      -9.657   8.245  67.319  1.00  0.00    -0.215 C  
HETATM    6  C   UNL     1     -10.193   7.009  67.477  1.00  0.00    -0.199 C  
HETATM    7  N   UNL     1      -9.541   5.906  66.964  1.00  0.00    -0.126 NA 
HETATM    8  C   UNL     1     -11.470   6.678  68.214  1.00  0.00     0.097 C  
HETATM    9  C   UNL     1      -8.324   5.927  66.317  1.00  0.00    -0.117 C  
HETATM   10  C   UNL     1      -7.841   4.581  65.825  1.00  0.00    -0.095 C  
HETATM   11  C   UNL     1      -7.653   7.096  66.172  1.00  0.00    -0.092 C  
HETATM   12  C   UNL     1      -8.263   8.433  66.670  1.00  0.00    -0.105 C  
BRANCH  11  13
HETATM   13  C   UNL     1      -6.258   7.043  65.653  1.00  0.00    -0.037 C  
HETATM   14  O   UNL     1      -5.357   6.412  66.190  1.00  0.00    -0.013 OA 
BRANCH  13  15
HETATM   15  O   UNL     1      -6.098   7.809  64.551  1.00  0.00    -0.044 OA 
HETATM   16  C   UNL     1      -7.170   7.735  63.597  1.00  0.00    -0.082 C  
ENDBRANCH  13  15
ENDBRANCH  11  13
BRANCH  12  17
HETATM   17  C   UNL     1      -7.284   9.141  67.622  1.00  0.00    -0.083 A  
HETATM   18  O   UNL     1      -7.208  10.951  65.221  1.00  0.00     0.046 OA 
HETATM   19  O   UNL     1      -7.675  12.456  66.748  1.00  0.00    -0.036 OA 
HETATM   20  C   UNL     1      -6.862   8.452  68.780  1.00  0.00    -0.062 A  
HETATM   21  C   UNL     1      -5.952   9.019  69.676  1.00  0.00    -0.032 A  
HETATM   22  C   UNL     1      -5.420  10.282  69.438  1.00  0.00    -0.038 A  
HETATM   23  C   UNL     1      -5.835  11.005  68.323  1.00  0.00    -0.046 A  
HETATM   24  C   UNL     1      -6.777  10.449  67.440  1.00  0.00    -0.072 A  
HETATM   25  N   UNL     1      -7.265  11.340  66.396  1.00  0.00    -0.097 N  
ENDBRANCH  12  17
ENDBRANCH   3   5
ENDBRANCH   2   3
TORSDOF 5
ENDMDL
MODEL      201
REMARK 921   NORMALIZED FREE ENERGY PREDICTED BY IDOCK:   -0.34 KCAL/MOL
REMARK 922        TOTAL FREE ENERGY PREDICTED BY IDOCK:   -1.66 KCAL/MOL
REMARK 923 INTER-LIGAND FREE ENERGY PREDICTED BY IDOCK:   -2.78 KCAL/MOL
REMARK 924 INTRA-LIGAND FREE ENERGY PREDICTED BY IDOCK:    1.12 KCAL/MOL
REMARK 927      BINDING AFFINITY PREDICTED BY RF-SCORE:    0.00 PKD
ROOT
HETATM    1  C   UNL     1      -7.090  10.122  64.673  1.00  0.00    -0.124 C  
HETATM    2  O   UNL     1      -7.300   8.720  64.484  1.00  0.00    -0.097 OA 
ENDROOT
BRANCH   2   3
HETATM    3  C   UNL     1      -8.214   8.163  65.310  1.00  0.00    -0.149 C  
HETATM    4  O   UNL     1      -9.288   8.665  65.606  1.00  0.00    -0.190 OA 
BRANCH   3   5
HETATM    5  C   UNL     1      -7.727   6.855  65.829  1.00  0.00    -0.100 C  
HETATM    6  C   UNL     1      -7.484   5.854  64.947  1.00  0.00    -0.077 C  
HETATM    7  N   UNL     1      -6.837   4.710  65.366  1.00  0.00    -0.059 NA 
HETATM    8  C   UNL     1      -7.889   5.831  63.492  1.00  0.00    -0.106 C  
HETATM    9  C   UNL     1      -6.433   4.448  66.657  1.00  0.00    -0.038 C  
HETATM   10  C   UNL     1      -5.718   3.128  66.847  1.00  0.00    -0.022 C  
HETATM   11  C   UNL     1      -6.694   5.340  67.644  1.00  0.00    -0.055 C  
HETATM   12  C   UNL     1      -7.391   6.692  67.333  1.00  0.00    -0.095 C  
BRANCH  11  13
HETATM   13  C   UNL     1      -6.425   4.929  69.050  1.00  0.00    -0.036 C  
HETATM   14  O   UNL     1      -5.469   5.328  69.703  1.00  0.00    -0.007 OA 
BRANCH  13  15
HETATM   15  O   UNL     1      -7.332   4.034  69.499  1.00  0.00    -0.052 OA 
HETATM   16  C   UNL     1      -7.863   4.306  70.805  1.00  0.00    -0.060 C  
ENDBRANCH  13  15
ENDBRANCH  11  13
BRANCH  12  17
HETATM   17  C   UNL     1      -8.641   6.859  68.215  1.00  0.00    -0.125 A  
HETATM   18  O   UNL     1      -9.615   4.898  66.152  1.00  0.00    -0.150 OA 
HETATM   19  O   UNL     1     -10.144   3.765  67.955  1.00  0.00     0.077 OA 
HETATM   20  C   UNL     1      -8.653   7.904  69.165  1.00  0.00    -0.138 A  
HETATM   21  C   UNL     1      -9.764   8.137  69.980  1.00  0.00    -0.172 A  
HETATM   22  C   UNL     1     -10.903   7.347  69.864  1.00  0.00    -0.259 A  
HETATM   23  C   UNL     1     -10.917   6.288  68.961  1.00  0.00    -0.437 A  
HETATM   24  C   UNL     1      -9.788   6.032  68.164  1.00  0.00    -0.131 A  
HETATM   25  N   UNL     1      -9.840   4.814  67.368  1.00  0.00    -0.178 N  
ENDBRANCH  12  17
ENDBRANCH   3   5
ENDBRANCH   2   3
TORSDOF 5
ENDMDL
MODEL      202
REMARK 921   NORMALIZED FREE ENERGY PREDICTED BY IDOCK:   -0.30 KCAL/MOL
REMARK 922        TOTAL FREE ENERGY PREDICTED BY IDOCK:   -1.61 KCAL/MOL
REMARK 923 INTER-LIGAND FREE ENERGY PREDICTED BY IDOCK:   -2.94 KCAL/MOL
REMARK 924 INTRA-LIGAND FREE ENERGY PREDICTED BY IDOCK:    1.33 KCAL/MOL
REMARK 927      BINDING AFFINITY PREDICTED BY RF-SCORE:    0.00 PKD
ROOT
HETATM    1  C   UNL     1     -10.296   8.497  70.027  1.00  0.00    -0.210 C  
HETATM    2  O   UNL     1     -10.574   8.244  68.647  1.00  0.00    -0.192 OA 
ENDROOT
BRANCH   2   3
HETATM    3  C   UNL     1     -10.414   6.959  68.258  1.00  0.00    -0.206 C  
HETATM    4  O   UNL     1     -11.274   6.094  68.329  1.00  0.00    -0.323 OA 
BRANCH   3   5
HETATM    5  C   UNL     1      -9.034   6.731  67.748  1.00  0.00    -0.116 C  
HETATM    6  C   UNL     1      -8.175   5.998  68.499  1.00  0.00    -0.110 C  
HETATM    7  N   UNL     1      -6.968   5.593  67.967  1.00  0.00    -0.064 NA 
HETATM    8  C   UNL     1      -8.382   5.578  69.936  1.00  0.00    -0.105 C  
HETATM    9  C   UNL     1      -6.504   5.908  66.708  1.00  0.00    -0.050 C  
HETATM   10  C   UNL     1      -5.158   5.314  66.356  1.00  0.00    -0.005 C  
HETATM   11  C   UNL     1      -7.240   6.705  65.894  1.00  0.00    -0.067 C  
HETATM   12  C   UNL     1      -8.636   7.223  66.334  1.00  0.00    -0.141 C  
BRANCH  11  13
HETATM   13  C   UNL     1      -6.614   7.186  64.631  1.00  0.00    -0.040 C  
HETATM   14  O   UNL     1      -5.939   8.204  64.552  1.00  0.00    -0.051 OA 
BRANCH  13  15
HETATM   15  O   UNL     1      -6.918   6.391  63.581  1.00  0.00    -0.043 OA 
HETATM   16  C   UNL     1      -8.320   6.258  63.303  1.00  0.00     0.102 C  
ENDBRANCH  13  15
ENDBRANCH  11  13
BRANCH  12  17
HETATM   17  C   UNL     1      -8.689   8.757  66.230  1.00  0.00    -0.169 A  
HETATM   18  O   UNL     1      -6.878   8.374  68.601  1.00  0.00    -0.061 OA 
HETATM   19  O   UNL     1      -5.582   9.683  67.409  1.00  0.00    -0.040 OA 
HETATM   20  C   UNL     1      -9.650   9.335  65.372  1.00  0.00    -0.237 A  
HETATM   21  C   UNL     1      -9.778  10.722  65.248  1.00  0.00    -0.308 A  
HETATM   22  C   UNL     1      -8.965  11.574  65.988  1.00  0.00    -0.181 A  
HETATM   23  C   UNL     1      -7.986  11.042  66.821  1.00  0.00    -0.152 A  
HETATM   24  C   UNL     1      -7.834   9.648  66.920  1.00  0.00    -0.102 A  
HETATM   25  N   UNL     1      -6.685   9.192  67.690  1.00  0.00    -0.068 N  
ENDBRANCH  12  17
ENDBRANCH   3   5
ENDBRANCH   2   3
TORSDOF 5
ENDMDL
MODEL      203
REMARK 921   NORMALIZED FREE ENERGY PREDICTED BY IDOCK:    0.37 KCAL/MOL
REMARK 922        TOTAL FREE ENERGY PREDICTED BY IDOCK:   -0.73 KCAL/MOL
REMARK 923 INTER-LIGAND FREE ENERGY PREDICTED BY IDOCK:   -1.97 KCAL/MOL
REMARK 924 INTRA-LIGAND FREE ENERGY PREDICTED BY IDOCK:    1.24 KCAL/MOL
REMARK 927      BINDING AFFINITY PREDICTED BY RF-SCORE:    0.00 PKD
ROOT
HETATM    1  C   UNL     1      -7.758   3.610  64.043  1.00  0.00    -0.080 C  
HETATM    2  O   UNL     1      -7.682   3.895  65.442  1.00  0.00    -0.081 OA 
ENDROOT
BRANCH   2   3
HETATM    3  C   UNL     1      -6.500   4.403  65.859  1.00  0.00    -0.037 C  
HETATM    4  O   UNL     1      -5.625   4.833  65.123  1.00  0.00    -0.013 OA 
BRANCH   3   5
HETATM    5  C   UNL     1      -6.398   4.351  67.343  1.00  0.00    -0.041 C  
HETATM    6  C   UNL     1      -6.163   3.155  67.937  1.00  0.00    -0.032 C  
HETATM    7  N   UNL     1      -5.855   3.103  69.281  1.00  0.00    -0.022 NA 
HETATM    8  C   UNL     1      -6.232   1.800  67.272  1.00  0.00    -0.024 C  
HETATM    9  C   UNL     1      -5.804   4.186  70.132  1.00  0.00    -0.017 C  
HETATM   10  C   UNL     1      -5.414   3.861  71.557  1.00  0.00    -0.008 C  
HETATM   11  C   UNL     1      -6.102   5.426  69.670  1.00  0.00    -0.021 C  
HETATM   12  C   UNL     1      -6.442   5.659  68.173  1.00  0.00    -0.043 C  
BRANCH  11  13
HETATM   13  C   UNL     1      -6.234   6.530  70.660  1.00  0.00    -0.039 C  
HETATM   14  O   UNL     1      -5.616   7.584  70.588  1.00  0.00    -0.026 OA 
BRANCH  13  15
HETATM   15  O   UNL     1      -7.079   6.211  71.665  1.00  0.00    -0.077 OA 
HETATM   16  C   UNL     1      -7.683   7.330  72.333  1.00  0.00    -0.088 C  
ENDBRANCH  13  15
ENDBRANCH  11  13
BRANCH  12  17
HETATM   17  C   UNL     1      -7.799   6.370  68.042  1.00  0.00    -0.105 A  
HETATM   18  O   UNL     1      -8.645   3.592  68.829  1.00  0.00    -0.079 OA 
HETATM   19  O   UNL     1      -9.726   4.712  70.375  1.00  0.00    -0.184 OA 
HETATM   20  C   UNL     1      -7.829   7.647  67.441  1.00  0.00    -0.118 A  
HETATM   21  C   UNL     1      -9.029   8.342  67.261  1.00  0.00    -0.149 A  
HETATM   22  C   UNL     1     -10.237   7.778  67.658  1.00  0.00    -0.282 A  
HETATM   23  C   UNL     1     -10.245   6.534  68.281  1.00  0.00    -0.195 A  
HETATM   24  C   UNL     1      -9.035   5.850  68.494  1.00  0.00    -0.113 A  
HETATM   25  N   UNL     1      -9.129   4.635  69.291  1.00  0.00    -0.101 N  
ENDBRANCH  12  17
ENDBRANCH   3   5
ENDBRANCH   2   3
TORSDOF 5
ENDMDL
MODEL      204
REMARK 921   NORMALIZED FREE ENERGY PREDICTED BY IDOCK:    0.39 KCAL/MOL
REMARK 922        TOTAL FREE ENERGY PREDICTED BY IDOCK:   -0.72 KCAL/MOL
REMARK 923 INTER-LIGAND FREE ENERGY PREDICTED BY IDOCK:   -2.60 KCAL/MOL
REMARK 924 INTRA-LIGAND FREE ENERGY PREDICTED BY IDOCK:    1.88 KCAL/MOL
REMARK 927      BINDING AFFINITY PREDICTED BY RF-SCORE:    0.00 PKD
ROOT
HETATM    1  C   UNL     1      -9.551   9.581  69.218  1.00  0.00    -0.175 C  
HETATM    2  O   UNL     1      -8.822   8.520  69.843  1.00  0.00    -0.133 OA 
ENDROOT
BRANCH   2   3
HETATM    3  C   UNL     1      -9.515   7.371  70.009  1.00  0.00    -0.161 C  
HETATM    4  O   UNL     1     -10.710   7.303  70.254  1.00  0.00    -0.224 OA 
BRANCH   3   5
HETATM    5  C   UNL     1      -8.617   6.191  69.871  1.00  0.00    -0.132 C  
HETATM    6  C   UNL     1      -8.310   5.748  68.627  1.00  0.00    -0.107 C  
HETATM    7  N   UNL     1      -7.324   4.799  68.458  1.00  0.00    -0.064 NA 
HETATM    8  C   UNL     1      -8.979   6.172  67.340  1.00  0.00    -0.112 C  
HETATM    9  C   UNL     1      -6.615   4.193  69.474  1.00  0.00    -0.033 C  
HETATM   10  C   UNL     1      -5.566   3.203  69.018  1.00  0.00    -0.021 C  
HETATM   11  C   UNL     1      -6.892   4.494  70.766  1.00  0.00    -0.036 C  
HETATM   12  C   UNL     1      -7.957   5.565  71.125  1.00  0.00    -0.111 C  
BRANCH  11  13
HETATM   13  C   UNL     1      -6.250   3.673  71.830  1.00  0.00    -0.014 C  
HETATM   14  O   UNL     1      -5.871   2.521  71.663  1.00  0.00    -0.012 OA 
BRANCH  13  15
HETATM   15  O   UNL     1      -6.180   4.334  73.007  1.00  0.00    -0.015 OA 
HETATM   16  C   UNL     1      -5.624   3.581  74.097  1.00  0.00    -0.003 C  
ENDBRANCH  13  15
ENDBRANCH  11  13
BRANCH  12  17
HETATM   17  C   UNL     1      -9.005   4.970  72.082  1.00  0.00    -0.144 A  
HETATM   18  O   UNL     1      -9.842   3.779  69.450  1.00  0.00    -0.136 OA 
HETATM   19  O   UNL     1      -9.695   1.925  70.614  1.00  0.00    -0.104 OA 
HETATM   20  C   UNL     1      -9.091   5.497  73.390  1.00  0.00    -0.129 A  
HETATM   21  C   UNL     1     -10.037   5.027  74.305  1.00  0.00    -0.261 A  
HETATM   22  C   UNL     1     -10.938   4.032  73.940  1.00  0.00    -0.289 A  
HETATM   23  C   UNL     1     -10.865   3.467  72.671  1.00  0.00     0.025 A  
HETATM   24  C   UNL     1      -9.890   3.914  71.762  1.00  0.00    -0.179 A  
HETATM   25  N   UNL     1      -9.790   3.157  70.521  1.00  0.00    -0.028 N  
ENDBRANCH  12  17
ENDBRANCH   3   5
ENDBRANCH   2   3
TORSDOF 5
ENDMDL
MODEL      205
REMARK 921   NORMALIZED FREE ENERGY PREDICTED BY IDOCK:    0.52 KCAL/MOL
REMARK 922        TOTAL FREE ENERGY PREDICTED BY IDOCK:   -0.55 KCAL/MOL
REMARK 923 INTER-LIGAND FREE ENERGY PREDICTED BY IDOCK:   -3.71 KCAL/MOL
REMARK 924 INTRA-LIGAND FREE ENERGY PREDICTED BY IDOCK:    3.17 KCAL/MOL
REMARK 927      BINDING AFFINITY PREDICTED BY RF-SCORE:    0.00 PKD
ROOT
HETATM    1  C   UNL     1      -5.864   7.254  67.142  1.00  0.00    -0.030 C  
HETATM    2  O   UNL     1      -6.787   7.474  68.213  1.00  0.00    -0.059 OA 
ENDROOT
BRANCH   2   3
HETATM    3  C   UNL     1      -6.388   7.007  69.417  1.00  0.00    -0.035 C  
HETATM    4  O   UNL     1      -5.263   6.605  69.674  1.00  0.00    -0.013 OA 
BRANCH   3   5
HETATM    5  C   UNL     1      -7.514   7.030  70.391  1.00  0.00    -0.085 C  
HETATM    6  C   UNL     1      -7.245   7.305  71.691  1.00  0.00    -0.075 C  
HETATM    7  N   UNL     1      -8.279   7.541  72.574  1.00  0.00    -0.104 NA 
HETATM    8  C   UNL     1      -5.875   7.356  72.326  1.00  0.00    -0.037 C  
HETATM    9  C   UNL     1      -9.621   7.478  72.266  1.00  0.00    -0.155 C  
HETATM   10  C   UNL     1     -10.554   7.808  73.410  1.00  0.00    -0.254 C  
HETATM   11  C   UNL     1     -10.015   7.131  71.016  1.00  0.00    -0.192 C  
HETATM   12  C   UNL     1      -8.973   6.861  69.897  1.00  0.00    -0.142 C  
BRANCH  11  13
HETATM   13  C   UNL     1     -11.464   6.878  70.782  1.00  0.00    -0.335 C  
HETATM   14  O   UNL     1     -11.892   6.164  69.886  1.00  0.00    -0.236 OA 
BRANCH  13  15
HETATM   15  O   UNL     1     -12.244   7.564  71.647  1.00  0.00    -0.296 OA 
HETATM   16  C   UNL     1     -13.655   7.477  71.396  1.00  0.00    -0.317 C  
ENDBRANCH  13  15
ENDBRANCH  11  13
BRANCH  12  17
HETATM   17  C   UNL     1      -9.206   5.472  69.279  1.00  0.00    -0.140 A  
HETATM   18  O   UNL     1      -8.123   4.753  71.992  1.00  0.00    -0.102 OA 
HETATM   19  O   UNL     1      -9.959   3.554  72.047  1.00  0.00    -0.165 OA 
HETATM   20  C   UNL     1      -9.487   5.394  67.898  1.00  0.00    -0.137 A  
HETATM   21  C   UNL     1      -9.681   4.165  67.260  1.00  0.00    -0.214 A  
HETATM   22  C   UNL     1      -9.585   2.976  67.976  1.00  0.00    -0.126 A  
HETATM   23  C   UNL     1      -9.340   3.013  69.345  1.00  0.00    -0.207 A  
HETATM   24  C   UNL     1      -9.179   4.251  69.993  1.00  0.00    -0.137 A  
HETATM   25  N   UNL     1      -9.084   4.194  71.445  1.00  0.00    -0.121 N  
ENDBRANCH  12  17
ENDBRANCH   3   5
ENDBRANCH   2   3
TORSDOF 5
ENDMDL
MODEL      206
REMARK 921   NORMALIZED FREE ENERGY PREDICTED BY IDOCK:    1.52 KCAL/MOL
REMARK 922        TOTAL FREE ENERGY PREDICTED BY IDOCK:    0.74 KCAL/MOL
REMARK 923 INTER-LIGAND FREE ENERGY PREDICTED BY IDOCK:   -2.34 KCAL/MOL
REMARK 924 INTRA-LIGAND FREE ENERGY PREDICTED BY IDOCK:    3.08 KCAL/MOL
REMARK 927      BINDING AFFINITY PREDICTED BY RF-SCORE:    0.00 PKD
ROOT
HETATM    1  C   UNL     1     -10.573  10.552  63.645  1.00  0.00     0.422 C  
HETATM    2  O   UNL     1     -10.823  10.405  65.045  1.00  0.00     0.039 OA 
ENDROOT
BRANCH   2   3
HETATM    3  C   UNL     1      -9.734  10.118  65.793  1.00  0.00    -0.245 C  
HETATM    4  O   UNL     1      -9.174   9.033  65.827  1.00  0.00    -0.206 OA 
BRANCH   3   5
HETATM    5  C   UNL     1      -9.317  11.304  66.592  1.00  0.00    -0.196 C  
HETATM    6  C   UNL     1      -8.063  11.792  66.424  1.00  0.00     0.032 C  
HETATM    7  N   UNL     1      -7.715  13.004  66.985  1.00  0.00    -0.020 NA 
HETATM    8  C   UNL     1      -6.933  11.115  65.683  1.00  0.00     0.266 C  
HETATM    9  C   UNL     1      -8.536  13.785  67.771  1.00  0.00    -0.181 C  
HETATM   10  C   UNL     1      -7.921  15.086  68.240  1.00  0.00    -0.128 C  
HETATM   11  C   UNL     1      -9.786  13.361  68.077  1.00  0.00    -0.229 C  
HETATM   12  C   UNL     1     -10.340  12.029  67.501  1.00  0.00    -0.217 C  
BRANCH  11  13
HETATM   13  C   UNL     1     -10.560  14.131  69.090  1.00  0.00    -0.158 C  
HETATM   14  O   UNL     1     -10.546  13.883  70.288  1.00  0.00     0.592 OA 
BRANCH  13  15
HETATM   15  O   UNL     1     -11.310  15.102  68.523  1.00  0.00    -0.278 OA 
HETATM   16  C   UNL     1     -11.864  16.059  69.440  1.00  0.00    -0.241 C  
ENDBRANCH  13  15
ENDBRANCH  11  13
BRANCH  12  17
HETATM   17  C   UNL     1     -10.830  11.121  68.642  1.00  0.00    -0.251 A  
HETATM   18  O   UNL     1      -8.051  10.066  68.178  1.00  0.00    -0.106 OA 
HETATM   19  O   UNL     1      -7.905  10.429  70.337  1.00  0.00    -0.072 OA 
HETATM   20  C   UNL     1     -12.201  11.150  68.978  1.00  0.00    -0.194 A  
HETATM   21  C   UNL     1     -12.724  10.331  69.983  1.00  0.00     0.005 A  
HETATM   22  C   UNL     1     -11.901   9.447  70.673  1.00  0.00    -0.268 A  
HETATM   23  C   UNL     1     -10.538   9.412  70.392  1.00  0.00    -0.316 A  
HETATM   24  C   UNL     1     -10.006  10.260  69.405  1.00  0.00    -0.233 A  
HETATM   25  N   UNL     1      -8.554  10.264  69.294  1.00  0.00    -0.163 N  
ENDBRANCH  12  17
ENDBRANCH   3   5
ENDBRANCH   2   3
TORSDOF 5
ENDMDL
MODEL      207
REMARK 921   NORMALIZED FREE ENERGY PREDICTED BY IDOCK:    1.53 KCAL/MOL
REMARK 922        TOTAL FREE ENERGY PREDICTED BY IDOCK:    0.76 KCAL/MOL
REMARK 923 INTER-LIGAND FREE ENERGY PREDICTED BY IDOCK:   -2.35 KCAL/MOL
REMARK 924 INTRA-LIGAND FREE ENERGY PREDICTED BY IDOCK:    3.11 KCAL/MOL
REMARK 927      BINDING AFFINITY PREDICTED BY RF-SCORE:    0.00 PKD
ROOT
HETATM    1  C   UNL     1      -9.000   9.754  70.239  1.00  0.00    -0.150 C  
HETATM    2  O   UNL     1      -8.102   8.656  70.423  1.00  0.00    -0.091 OA 
ENDROOT
BRANCH   2   3
HETATM    3  C   UNL     1      -8.692   7.440  70.487  1.00  0.00    -0.147 C  
HETATM    4  O   UNL     1      -9.389   7.048  71.410  1.00  0.00    -0.156 OA 
BRANCH   3   5
HETATM    5  C   UNL     1      -8.357   6.629  69.283  1.00  0.00    -0.124 C  
HETATM    6  C   UNL     1      -8.983   6.912  68.114  1.00  0.00    -0.123 C  
HETATM    7  N   UNL     1      -8.550   6.327  66.942  1.00  0.00    -0.112 NA 
HETATM    8  C   UNL     1     -10.182   7.815  67.940  1.00  0.00    -0.259 C  
HETATM    9  C   UNL     1      -7.527   5.408  66.839  1.00  0.00    -0.088 C  
HETATM   10  C   UNL     1      -7.229   4.941  65.431  1.00  0.00    -0.068 C  
HETATM   11  C   UNL     1      -6.880   4.985  67.952  1.00  0.00    -0.060 C  
HETATM   12  C   UNL     1      -7.231   5.568  69.348  1.00  0.00    -0.065 C  
BRANCH  11  13
HETATM   13  C   UNL     1      -5.928   3.848  67.821  1.00  0.00    -0.027 C  
HETATM   14  O   UNL     1      -5.205   3.676  66.848  1.00  0.00    -0.011 OA 
BRANCH  13  15
HETATM   15  O   UNL     1      -5.991   3.009  68.879  1.00  0.00    -0.023 OA 
HETATM   16  C   UNL     1      -5.641   1.645  68.598  1.00  0.00    -0.018 C  
ENDBRANCH  13  15
ENDBRANCH  11  13
BRANCH  12  17
HETATM   17  C   UNL     1      -7.576   4.432  70.326  1.00  0.00    -0.049 A  
HETATM   18  O   UNL     1      -9.929   4.355  68.453  1.00  0.00    -0.105 OA 
HETATM   19  O   UNL     1      -9.338   2.246  68.319  1.00  0.00    -0.187 OA 
HETATM   20  C   UNL     1      -6.817   4.316  71.511  1.00  0.00    -0.034 A  
HETATM   21  C   UNL     1      -7.092   3.327  72.460  1.00  0.00    -0.043 A  
HETATM   22  C   UNL     1      -8.141   2.435  72.266  1.00  0.00    -0.054 A  
HETATM   23  C   UNL     1      -8.892   2.497  71.096  1.00  0.00    -0.130 A  
HETATM   24  C   UNL     1      -8.594   3.470  70.126  1.00  0.00    -0.062 A  
HETATM   25  N   UNL     1      -9.328   3.355  68.873  1.00  0.00    -0.165 N  
ENDBRANCH  12  17
ENDBRANCH   3   5
ENDBRANCH   2   3
TORSDOF 5
ENDMDL
MODEL      208
REMARK 921   NORMALIZED FREE ENERGY PREDICTED BY IDOCK:    1.55 KCAL/MOL
REMARK 922        TOTAL FREE ENERGY PREDICTED BY IDOCK:    0.78 KCAL/MOL
REMARK 923 INTER-LIGAND FREE ENERGY PREDICTED BY IDOCK:   -0.45 KCAL/MOL
REMARK 924 INTRA-LIGAND FREE ENERGY PREDICTED BY IDOCK:    1.23 KCAL/MOL
REMARK 927      BINDING AFFINITY PREDICTED BY RF-SCORE:    0.00 PKD
ROOT
HETATM    1  C   UNL     1     -12.587  15.858  69.730  1.00  0.00     0.239 C  
HETATM    2  O   UNL     1     -11.351  16.230  70.347  1.00  0.00    -0.371 OA 
ENDROOT
BRANCH   2   3
HETATM    3  C   UNL     1     -10.563  17.041  69.605  1.00  0.00    -0.087 C  
HETATM    4  O   UNL     1     -10.758  18.234  69.428  1.00  0.00     0.340 OA 
BRANCH   3   5
HETATM    5  C   UNL     1      -9.431  16.277  69.013  1.00  0.00    -0.258 C  
HETATM    6  C   UNL     1      -9.358  14.942  69.239  1.00  0.00    -0.104 C  
HETATM    7  N   UNL     1      -8.450  14.174  68.539  1.00  0.00    -0.165 NA 
HETATM    8  C   UNL     1     -10.175  14.161  70.242  1.00  0.00     1.215 C  
HETATM    9  C   UNL     1      -7.537  14.652  67.624  1.00  0.00    -0.180 C  
HETATM   10  C   UNL     1      -6.672  13.595  66.974  1.00  0.00     0.747 C  
HETATM   11  C   UNL     1      -7.459  15.982  67.375  1.00  0.00    -0.208 C  
HETATM   12  C   UNL     1      -8.431  16.980  68.061  1.00  0.00    -0.216 C  
BRANCH  11  13
HETATM   13  C   UNL     1      -6.329  16.475  66.539  1.00  0.00     0.228 C  
HETATM   14  O   UNL     1      -5.151  16.299  66.819  1.00  0.00    -0.339 OA 
BRANCH  13  15
HETATM   15  O   UNL     1      -6.760  17.173  65.465  1.00  0.00     0.252 OA 
HETATM   16  C   UNL     1      -5.881  18.220  65.026  1.00  0.00    -0.100 C  
ENDBRANCH  13  15
ENDBRANCH  11  13
BRANCH  12  17
HETATM   17  C   UNL     1      -7.637  18.081  68.785  1.00  0.00    -0.277 A  
HETATM   18  O   UNL     1      -8.985  19.645  66.597  1.00  0.00    -0.325 OA 
HETATM   19  O   UNL     1      -9.629  20.858  68.308  1.00  0.00     0.176 OA 
HETATM   20  C   UNL     1      -6.669  17.692  69.737  1.00  0.00     0.113 A  
HETATM   21  C   UNL     1      -5.889  18.634  70.412  1.00  0.00    -0.134 A  
HETATM   22  C   UNL     1      -6.035  19.992  70.148  1.00  0.00    -0.373 A  
HETATM   23  C   UNL     1      -7.000  20.417  69.238  1.00  0.00     0.042 A  
HETATM   24  C   UNL     1      -7.809  19.471  68.584  1.00  0.00    -0.348 A  
HETATM   25  N   UNL     1      -8.889  20.018  67.775  1.00  0.00    -0.320 N  
ENDBRANCH  12  17
ENDBRANCH   3   5
ENDBRANCH   2   3
TORSDOF 5
ENDMDL
MODEL      209
REMARK 921   NORMALIZED FREE ENERGY PREDICTED BY IDOCK:    2.28 KCAL/MOL
REMARK 922        TOTAL FREE ENERGY PREDICTED BY IDOCK:    1.73 KCAL/MOL
REMARK 923 INTER-LIGAND FREE ENERGY PREDICTED BY IDOCK:   -0.15 KCAL/MOL
REMARK 924 INTRA-LIGAND FREE ENERGY PREDICTED BY IDOCK:    1.88 KCAL/MOL
REMARK 927      BINDING AFFINITY PREDICTED BY RF-SCORE:    0.00 PKD
ROOT
HETATM    1  C   UNL     1      -7.531  10.452  70.310  1.00  0.00     0.159 C  
HETATM    2  O   UNL     1      -6.363  10.805  69.563  1.00  0.00    -0.058 OA 
ENDROOT
BRANCH   2   3
HETATM    3  C   UNL     1      -6.529  11.825  68.691  1.00  0.00    -0.060 C  
HETATM    4  O   UNL     1      -5.744  12.120  67.802  1.00  0.00    -0.064 OA 
BRANCH   3   5
HETATM    5  C   UNL     1      -7.794  12.558  68.973  1.00  0.00     0.237 C  
HETATM    6  C   UNL     1      -7.772  13.570  69.875  1.00  0.00     1.295 C  
HETATM    7  N   UNL     1      -8.866  14.401  70.004  1.00  0.00     0.949 NA 
HETATM    8  C   UNL     1      -6.643  13.892  70.827  1.00  0.00     0.374 C  
HETATM    9  C   UNL     1     -10.050  14.276  69.310  1.00  0.00     0.030 C  
HETATM   10  C   UNL     1     -11.085  15.336  69.617  1.00  0.00    -0.284 C  
HETATM   11  C   UNL     1     -10.221  13.251  68.439  1.00  0.00    -0.249 C  
HETATM   12  C   UNL     1      -9.074  12.243  68.159  1.00  0.00    -0.196 C  
BRANCH  11  13
HETATM   13  C   UNL     1     -11.579  13.035  67.868  1.00  0.00    -0.342 C  
HETATM   14  O   UNL     1     -12.475  12.441  68.453  1.00  0.00     0.026 OA 
BRANCH  13  15
HETATM   15  O   UNL     1     -11.687  13.532  66.615  1.00  0.00    -0.348 OA 
HETATM   16  C   UNL     1     -12.506  12.761  65.722  1.00  0.00    -0.184 C  
ENDBRANCH  13  15
ENDBRANCH  11  13
BRANCH  12  17
HETATM   17  C   UNL     1      -9.561  10.804  68.400  1.00  0.00    -0.177 A  
HETATM   18  O   UNL     1      -8.080  10.513  65.798  1.00  0.00    -0.150 OA 
HETATM   19  O   UNL     1      -7.068   8.927  66.928  1.00  0.00    -0.079 OA 
HETATM   20  C   UNL     1     -10.515  10.584  69.418  1.00  0.00    -0.264 A  
HETATM   21  C   UNL     1     -11.026   9.309  69.676  1.00  0.00    -0.192 A  
HETATM   22  C   UNL     1     -10.616   8.217  68.917  1.00  0.00    -0.160 A  
HETATM   23  C   UNL     1      -9.655   8.389  67.926  1.00  0.00    -0.180 A  
HETATM   24  C   UNL     1      -9.115   9.665  67.689  1.00  0.00    -0.131 A  
HETATM   25  N   UNL     1      -8.007   9.716  66.745  1.00  0.00    -0.105 N  
ENDBRANCH  12  17
ENDBRANCH   3   5
ENDBRANCH   2   3
TORSDOF 5
ENDMDL
MODEL      210
REMARK 921   NORMALIZED FREE ENERGY PREDICTED BY IDOCK:    3.42 KCAL/MOL
REMARK 922        TOTAL FREE ENERGY PREDICTED BY IDOCK:    3.20 KCAL/MOL
REMARK 923 INTER-LIGAND FREE ENERGY PREDICTED BY IDOCK:    0.20 KCAL/MOL
REMARK 924 INTRA-LIGAND FREE ENERGY PREDICTED BY IDOCK:    3.00 KCAL/MOL
REMARK 927      BINDING AFFINITY PREDICTED BY RF-SCORE:    0.00 PKD
ROOT
HETATM    1  C   UNL     1      -5.154  10.635  66.564  1.00  0.00    -0.055 C  
HETATM    2  O   UNL     1      -5.873  11.735  67.130  1.00  0.00    -0.105 OA 
ENDROOT
BRANCH   2   3
HETATM    3  C   UNL     1      -6.636  11.427  68.203  1.00  0.00    -0.057 C  
HETATM    4  O   UNL     1      -6.264  11.482  69.365  1.00  0.00    -0.073 OA 
BRANCH   3   5
HETATM    5  C   UNL     1      -7.994  10.989  67.775  1.00  0.00    -0.115 C  
HETATM    6  C   UNL     1      -8.845  11.914  67.267  1.00  0.00    -0.179 C  
HETATM    7  N   UNL     1     -10.022  11.511  66.670  1.00  0.00    -0.203 NA 
HETATM    8  C   UNL     1      -8.661  13.413  67.306  1.00  0.00    -0.216 C  
HETATM    9  C   UNL     1     -10.464  10.209  66.573  1.00  0.00    -0.166 C  
HETATM   10  C   UNL     1     -11.778  10.034  65.845  1.00  0.00     3.282 C  
HETATM   11  C   UNL     1      -9.736   9.204  67.119  1.00  0.00    -0.236 C  
HETATM   12  C   UNL     1      -8.372   9.487  67.802  1.00  0.00    -0.118 C  
BRANCH  11  13
HETATM   13  C   UNL     1     -10.345   7.845  67.171  1.00  0.00    -0.328 C  
HETATM   14  O   UNL     1     -11.214   7.461  66.400  1.00  0.00     0.737 OA 
BRANCH  13  15
HETATM   15  O   UNL     1      -9.857   7.111  68.195  1.00  0.00    -0.138 OA 
HETATM   16  C   UNL     1     -10.473   5.825  68.371  1.00  0.00    -0.222 C  
ENDBRANCH  13  15
ENDBRANCH  11  13
BRANCH  12  17
HETATM   17  C   UNL     1      -8.369   8.926  69.235  1.00  0.00    -0.119 A  
HETATM   18  O   UNL     1     -10.295  11.224  69.486  1.00  0.00    -0.088 OA 
HETATM   19  O   UNL     1     -11.571   9.639  70.307  1.00  0.00    -0.252 OA 
HETATM   20  C   UNL     1      -7.384   7.975  69.579  1.00  0.00    -0.086 A  
HETATM   21  C   UNL     1      -7.301   7.444  70.869  1.00  0.00    -0.073 A  
HETATM   22  C   UNL     1      -8.186   7.856  71.860  1.00  0.00    -0.142 A  
HETATM   23  C   UNL     1      -9.190   8.769  71.552  1.00  0.00    -0.332 A  
HETATM   24  C   UNL     1      -9.295   9.278  70.246  1.00  0.00    -0.239 A  
HETATM   25  N   UNL     1     -10.467  10.101  69.982  1.00  0.00    -0.277 N  
ENDBRANCH  12  17
ENDBRANCH   3   5
ENDBRANCH   2   3
TORSDOF 5
ENDMDL
MODEL      211
REMARK 921   NORMALIZED FREE ENERGY PREDICTED BY IDOCK:    3.97 KCAL/MOL
REMARK 922        TOTAL FREE ENERGY PREDICTED BY IDOCK:    3.91 KCAL/MOL
REMARK 923 INTER-LIGAND FREE ENERGY PREDICTED BY IDOCK:   -0.98 KCAL/MOL
REMARK 924 INTRA-LIGAND FREE ENERGY PREDICTED BY IDOCK:    4.89 KCAL/MOL
REMARK 927      BINDING AFFINITY PREDICTED BY RF-SCORE:    0.00 PKD
ROOT
HETATM    1  C   UNL     1      -9.835   8.117  68.702  1.00  0.00    -0.183 C  
HETATM    2  O   UNL     1      -8.996   9.121  69.281  1.00  0.00    -0.138 OA 
ENDROOT
BRANCH   2   3
HETATM    3  C   UNL     1      -9.618  10.286  69.573  1.00  0.00    -0.202 C  
HETATM    4  O   UNL     1      -9.768  10.737  70.698  1.00  0.00     1.183 OA 
BRANCH   3   5
HETATM    5  C   UNL     1     -10.116  10.942  68.332  1.00  0.00    -0.196 C  
HETATM    6  C   UNL     1     -11.157  10.378  67.672  1.00  0.00    -0.293 C  
HETATM    7  N   UNL     1     -11.776  11.064  66.647  1.00  0.00    -0.061 NA 
HETATM    8  C   UNL     1     -11.730   9.001  67.919  1.00  0.00     2.097 C  
HETATM    9  C   UNL     1     -11.399  12.303  66.174  1.00  0.00    -0.353 C  
HETATM   10  C   UNL     1     -12.262  12.849  65.058  1.00  0.00    -0.515 C  
HETATM   11  C   UNL     1     -10.319  12.930  66.701  1.00  0.00    -0.258 C  
HETATM   12  C   UNL     1      -9.529  12.303  67.881  1.00  0.00    -0.200 C  
BRANCH  11  13
HETATM   13  C   UNL     1      -9.827  14.164  66.027  1.00  0.00    -0.309 C  
HETATM   14  O   UNL     1      -9.944  14.375  64.827  1.00  0.00    -0.269 OA 
BRANCH  13  15
HETATM   15  O   UNL     1      -9.199  14.995  66.888  1.00  0.00    -0.218 OA 
HETATM   16  C   UNL     1     -10.062  15.697  67.797  1.00  0.00    -0.226 C  
ENDBRANCH  13  15
ENDBRANCH  11  13
BRANCH  12  17
HETATM   17  C   UNL     1      -8.038  12.187  67.520  1.00  0.00    -0.163 A  
HETATM   18  O   UNL     1      -9.223   9.919  65.937  1.00  0.00    -0.156 OA 
HETATM   19  O   UNL     1      -8.157  10.931  64.308  1.00  0.00     0.080 OA 
HETATM   20  C   UNL     1      -7.109  12.941  68.269  1.00  0.00    -0.102 A  
HETATM   21  C   UNL     1      -5.736  12.864  68.018  1.00  0.00    -0.102 A  
HETATM   22  C   UNL     1      -5.245  12.023  67.025  1.00  0.00    -0.079 A  
HETATM   23  C   UNL     1      -6.133  11.287  66.245  1.00  0.00    -0.084 A  
HETATM   24  C   UNL     1      -7.516  11.389  66.474  1.00  0.00    -0.068 A  
HETATM   25  N   UNL     1      -8.367  10.707  65.509  1.00  0.00    -0.167 N  
ENDBRANCH  12  17
ENDBRANCH   3   5
ENDBRANCH   2   3
TORSDOF 5
ENDMDL
MODEL      212
REMARK 921   NORMALIZED FREE ENERGY PREDICTED BY IDOCK:    4.78 KCAL/MOL
REMARK 922        TOTAL FREE ENERGY PREDICTED BY IDOCK:    4.95 KCAL/MOL
REMARK 923 INTER-LIGAND FREE ENERGY PREDICTED BY IDOCK:    1.36 KCAL/MOL
REMARK 924 INTRA-LIGAND FREE ENERGY PREDICTED BY IDOCK:    3.59 KCAL/MOL
REMARK 927      BINDING AFFINITY PREDICTED BY RF-SCORE:    0.00 PKD
ROOT
HETATM    1  C   UNL     1      -9.901   4.313  69.869  1.00  0.00    -0.197 C  
HETATM    2  O   UNL     1      -9.935   5.546  69.144  1.00  0.00    -0.159 OA 
ENDROOT
BRANCH   2   3
HETATM    3  C   UNL     1      -9.528   6.631  69.843  1.00  0.00    -0.156 C  
HETATM    4  O   UNL     1      -9.893   6.912  70.974  1.00  0.00    -0.178 OA 
BRANCH   3   5
HETATM    5  C   UNL     1      -8.585   7.453  69.035  1.00  0.00    -0.133 C  
HETATM    6  C   UNL     1      -7.253   7.236  69.171  1.00  0.00    -0.085 C  
HETATM    7  N   UNL     1      -6.367   7.827  68.293  1.00  0.00    -0.044 NA 
HETATM    8  C   UNL     1      -6.589   6.406  70.245  1.00  0.00    -0.045 C  
HETATM    9  C   UNL     1      -6.708   8.689  67.273  1.00  0.00    -0.063 C  
HETATM   10  C   UNL     1      -5.547   9.176  66.435  1.00  0.00    -0.052 C  
HETATM   11  C   UNL     1      -8.003   9.046  67.091  1.00  0.00    -0.102 C  
HETATM   12  C   UNL     1      -9.128   8.448  67.979  1.00  0.00    -0.140 C  
BRANCH  11  13
HETATM   13  C   UNL     1      -8.301  10.132  66.116  1.00  0.00    -0.131 C  
HETATM   14  O   UNL     1      -9.430  10.540  65.878  1.00  0.00    -0.174 OA 
BRANCH  13  15
HETATM   15  O   UNL     1      -7.185  10.576  65.497  1.00  0.00    -0.146 OA 
HETATM   16  C   UNL     1      -7.252  10.602  64.062  1.00  0.00     0.250 C  
ENDBRANCH  13  15
ENDBRANCH  11  13
BRANCH  12  17
HETATM   17  C   UNL     1      -9.948   9.575  68.628  1.00  0.00    -0.181 A  
HETATM   18  O   UNL     1     -12.047   7.461  68.215  1.00  0.00     1.914 OA 
HETATM   19  O   UNL     1     -12.367   7.823  70.355  1.00  0.00     0.128 OA 
HETATM   20  C   UNL     1      -9.352  10.849  68.751  1.00  0.00    -0.190 A  
HETATM   21  C   UNL     1     -10.046  11.930  69.304  1.00  0.00     0.272 A  
HETATM   22  C   UNL     1     -11.360  11.779  69.735  1.00  0.00    -0.245 A  
HETATM   23  C   UNL     1     -11.971  10.531  69.658  1.00  0.00    -0.279 A  
HETATM   24  C   UNL     1     -11.262   9.436  69.135  1.00  0.00     0.081 A  
HETATM   25  N   UNL     1     -11.927   8.144  69.242  1.00  0.00     1.417 N  
ENDBRANCH  12  17
ENDBRANCH   3   5
ENDBRANCH   2   3
TORSDOF 5
ENDMDL
MODEL      213
REMARK 921   NORMALIZED FREE ENERGY PREDICTED BY IDOCK:    7.96 KCAL/MOL
REMARK 922        TOTAL FREE ENERGY PREDICTED BY IDOCK:    9.06 KCAL/MOL
REMARK 923 INTER-LIGAND FREE ENERGY PREDICTED BY IDOCK:    7.92 KCAL/MOL
REMARK 924 INTRA-LIGAND FREE ENERGY PREDICTED BY IDOCK:    1.14 KCAL/MOL
REMARK 927      BINDING AFFINITY PREDICTED BY RF-SCORE:    0.00 PKD
ROOT
HETATM    1  C   UNL     1     -12.073  17.827  70.624  1.00  0.00     6.904 C  
HETATM    2  O   UNL     1     -11.034  18.731  70.238  1.00  0.00     1.896 OA 
ENDROOT
BRANCH   2   3
HETATM    3  C   UNL     1     -10.862  18.867  68.904  1.00  0.00     0.891 C  
HETATM    4  O   UNL     1     -11.766  18.980  68.090  1.00  0.00     1.186 OA 
BRANCH   3   5
HETATM    5  C   UNL     1      -9.415  18.840  68.554  1.00  0.00    -0.400 C  
HETATM    6  C   UNL     1      -8.872  19.924  67.947  1.00  0.00    -0.298 C  
HETATM    7  N   UNL     1      -7.504  20.018  67.800  1.00  0.00    -0.288 NA 
HETATM    8  C   UNL     1      -9.632  21.088  67.354  1.00  0.00    -0.261 C  
HETATM    9  C   UNL     1      -6.591  19.059  68.185  1.00  0.00    -0.229 C  
HETATM   10  C   UNL     1      -5.143  19.420  67.938  1.00  0.00    -0.171 C  
HETATM   11  C   UNL     1      -7.021  17.894  68.729  1.00  0.00    -0.262 C  
HETATM   12  C   UNL     1      -8.532  17.643  68.987  1.00  0.00    -0.021 C  
BRANCH  11  13
HETATM   13  C   UNL     1      -6.024  16.808  68.939  1.00  0.00    -0.156 C  
HETATM   14  O   UNL     1      -5.249  16.421  68.075  1.00  0.00    -0.098 OA 
BRANCH  13  15
HETATM   15  O   UNL     1      -6.109  16.276  70.179  1.00  0.00    -0.182 OA 
HETATM   16  C   UNL     1      -5.394  16.990  71.200  1.00  0.00    -0.008 C  
ENDBRANCH  13  15
ENDBRANCH  11  13
BRANCH  12  17
HETATM   17  C   UNL     1      -8.976  16.335  68.310  1.00  0.00    -0.192 A  
HETATM   18  O   UNL     1      -8.425  18.092  65.931  1.00  0.00    -0.509 OA 
HETATM   19  O   UNL     1      -7.172  16.381  65.369  1.00  0.00     1.641 OA 
HETATM   20  C   UNL     1      -9.560  15.332  69.114  1.00  0.00    -0.243 A  
HETATM   21  C   UNL     1     -10.014  14.129  68.564  1.00  0.00    -0.235 A  
HETATM   22  C   UNL     1      -9.917  13.896  67.197  1.00  0.00    -0.239 A  
HETATM   23  C   UNL     1      -9.319  14.849  66.376  1.00  0.00    -0.327 A  
HETATM   24  C   UNL     1      -8.831  16.044  66.933  1.00  0.00    -0.231 A  
HETATM   25  N   UNL     1      -8.085  16.904  66.025  1.00  0.00    -0.243 N  
ENDBRANCH  12  17
ENDBRANCH   3   5
ENDBRANCH   2   3
TORSDOF 5
ENDMDL
MODEL      214
REMARK 921   NORMALIZED FREE ENERGY PREDICTED BY IDOCK:    9.68 KCAL/MOL
REMARK 922        TOTAL FREE ENERGY PREDICTED BY IDOCK:   11.29 KCAL/MOL
REMARK 923 INTER-LIGAND FREE ENERGY PREDICTED BY IDOCK:   -1.52 KCAL/MOL
REMARK 924 INTRA-LIGAND FREE ENERGY PREDICTED BY IDOCK:   12.82 KCAL/MOL
REMARK 927      BINDING AFFINITY PREDICTED BY RF-SCORE:    0.00 PKD
ROOT
HETATM    1  C   UNL     1      -9.362  15.438  65.217  1.00  0.00     0.399 C  
HETATM    2  O   UNL     1      -9.533  16.040  66.503  1.00  0.00    -0.235 OA 
ENDROOT
BRANCH   2   3
HETATM    3  C   UNL     1     -10.449  15.441  67.297  1.00  0.00    -0.282 C  
HETATM    4  O   UNL     1     -11.539  15.911  67.586  1.00  0.00    -0.157 OA 
BRANCH   3   5
HETATM    5  C   UNL     1      -9.941  14.132  67.793  1.00  0.00    -0.235 C  
HETATM    6  C   UNL     1     -10.836  13.164  68.109  1.00  0.00    -0.251 C  
HETATM    7  N   UNL     1     -10.401  11.881  68.368  1.00  0.00    -0.204 NA 
HETATM    8  C   UNL     1     -12.330  13.343  68.250  1.00  0.00     0.085 C  
HETATM    9  C   UNL     1      -9.085  11.472  68.382  1.00  0.00    -0.185 C  
HETATM   10  C   UNL     1      -8.877  10.000  68.666  1.00  0.00    -0.132 C  
HETATM   11  C   UNL     1      -8.093  12.369  68.161  1.00  0.00    -0.163 C  
HETATM   12  C   UNL     1      -8.418  13.850  67.827  1.00  0.00    -0.183 C  
BRANCH  11  13
HETATM   13  C   UNL     1      -6.688  11.931  68.386  1.00  0.00    -0.067 C  
HETATM   14  O   UNL     1      -5.715  12.655  68.217  1.00  0.00    -0.054 OA 
BRANCH  13  15
HETATM   15  O   UNL     1      -6.615  10.633  68.755  1.00  0.00    -0.051 OA 
HETATM   16  C   UNL     1      -7.237  10.320  70.011  1.00  0.00    -0.158 C  
ENDBRANCH  13  15
ENDBRANCH  11  13
BRANCH  12  17
HETATM   17  C   UNL     1      -7.689  14.787  68.807  1.00  0.00    -0.136 A  
HETATM   18  O   UNL     1      -7.554  16.363  66.248  1.00  0.00    -0.234 OA 
HETATM   19  O   UNL     1      -8.437  17.906  67.535  1.00  0.00    -0.229 OA 
HETATM   20  C   UNL     1      -7.331  14.279  70.075  1.00  0.00     0.353 A  
HETATM   21  C   UNL     1      -6.642  15.061  71.006  1.00  0.00     0.551 A  
HETATM   22  C   UNL     1      -6.273  16.366  70.696  1.00  0.00     0.573 A  
HETATM   23  C   UNL     1      -6.634  16.912  69.468  1.00  0.00    -0.203 A  
HETATM   24  C   UNL     1      -7.358  16.137  68.545  1.00  0.00    -0.161 A  
HETATM   25  N   UNL     1      -7.825  16.842  67.359  1.00  0.00    -0.166 N  
ENDBRANCH  12  17
ENDBRANCH   3   5
ENDBRANCH   2   3
TORSDOF 5
ENDMDL
MODEL      215
REMARK 921   NORMALIZED FREE ENERGY PREDICTED BY IDOCK:   11.79 KCAL/MOL
REMARK 922        TOTAL FREE ENERGY PREDICTED BY IDOCK:   14.01 KCAL/MOL
REMARK 923 INTER-LIGAND FREE ENERGY PREDICTED BY IDOCK:   -4.42 KCAL/MOL
REMARK 924 INTRA-LIGAND FREE ENERGY PREDICTED BY IDOCK:   18.43 KCAL/MOL
REMARK 927      BINDING AFFINITY PREDICTED BY RF-SCORE:    0.00 PKD
ROOT
HETATM    1  C   UNL     1     -12.349  13.959  68.093  1.00  0.00     0.036 C  
HETATM    2  O   UNL     1     -11.604  13.019  67.314  1.00  0.00    -0.315 OA 
ENDROOT
BRANCH   2   3
HETATM    3  C   UNL     1     -10.682  13.565  66.488  1.00  0.00    -0.287 C  
HETATM    4  O   UNL     1     -10.900  13.937  65.345  1.00  0.00    -0.298 OA 
BRANCH   3   5
HETATM    5  C   UNL     1      -9.353  13.634  67.154  1.00  0.00    -0.240 C  
HETATM    6  C   UNL     1      -8.768  14.847  67.316  1.00  0.00    -0.207 C  
HETATM    7  N   UNL     1      -7.646  14.970  68.109  1.00  0.00    -0.105 NA 
HETATM    8  C   UNL     1      -9.206  16.141  66.670  1.00  0.00    -0.273 C  
HETATM    9  C   UNL     1      -7.002  13.932  68.748  1.00  0.00    -0.108 C  
HETATM   10  C   UNL     1      -5.807  14.340  69.582  1.00  0.00    -0.106 C  
HETATM   11  C   UNL     1      -7.446  12.661  68.594  1.00  0.00    -0.094 C  
HETATM   12  C   UNL     1      -8.716  12.356  67.755  1.00  0.00    -0.176 C  
BRANCH  11  13
HETATM   13  C   UNL     1      -6.606  11.554  69.132  1.00  0.00    -0.102 C  
HETATM   14  O   UNL     1      -5.385  11.604  69.207  1.00  0.00    -0.048 OA 
BRANCH  13  15
HETATM   15  O   UNL     1      -7.347  10.480  69.481  1.00  0.00    -0.120 OA 
HETATM   16  C   UNL     1      -8.676  10.452  68.937  1.00  0.00    -0.157 C  
ENDBRANCH  13  15
ENDBRANCH  11  13
BRANCH  12  17
HETATM   17  C   UNL     1      -8.395  11.316  66.667  1.00  0.00    -0.163 A  
HETATM   18  O   UNL     1     -11.353  11.702  66.282  1.00  0.00    -0.314 OA 
HETATM   19  O   UNL     1     -10.705  12.078  64.220  1.00  0.00    -0.288 OA 
HETATM   20  C   UNL     1      -7.129  10.691  66.692  1.00  0.00    -0.124 A  
HETATM   21  C   UNL     1      -6.777   9.716  65.754  1.00  0.00    -0.089 A  
HETATM   22  C   UNL     1      -7.681   9.321  64.774  1.00  0.00    -0.111 A  
HETATM   23  C   UNL     1      -8.928   9.936  64.697  1.00  0.00    -0.260 A  
HETATM   24  C   UNL     1      -9.269  10.941  65.619  1.00  0.00    -0.203 A  
HETATM   25  N   UNL     1     -10.525  11.632  65.362  1.00  0.00    -0.265 N  
ENDBRANCH  12  17
ENDBRANCH   3   5
ENDBRANCH   2   3
TORSDOF 5
ENDMDL
MODEL      216
REMARK 921   NORMALIZED FREE ENERGY PREDICTED BY IDOCK:   14.78 KCAL/MOL
REMARK 922        TOTAL FREE ENERGY PREDICTED BY IDOCK:   17.88 KCAL/MOL
REMARK 923 INTER-LIGAND FREE ENERGY PREDICTED BY IDOCK:   12.11 KCAL/MOL
REMARK 924 INTRA-LIGAND FREE ENERGY PREDICTED BY IDOCK:    5.77 KCAL/MOL
REMARK 927      BINDING AFFINITY PREDICTED BY RF-SCORE:    0.00 PKD
ROOT
HETATM    1  C   UNL     1      -9.376  14.019  64.155  1.00  0.00     3.669 C  
HETATM    2  O   UNL     1      -8.956  12.981  65.045  1.00  0.00     0.963 OA 
ENDROOT
BRANCH   2   3
HETATM    3  C   UNL     1      -9.640  12.915  66.210  1.00  0.00    -0.243 C  
HETATM    4  O   UNL     1     -10.750  12.421  66.342  1.00  0.00    -0.239 OA 
BRANCH   3   5
HETATM    5  C   UNL     1      -8.865  13.546  67.313  1.00  0.00    -0.225 C  
HETATM    6  C   UNL     1      -7.581  13.158  67.511  1.00  0.00    -0.163 C  
HETATM    7  N   UNL     1      -6.774  13.864  68.379  1.00  0.00    -0.089 NA 
HETATM    8  C   UNL     1      -6.905  11.961  66.884  1.00  0.00    -0.075 C  
HETATM    9  C   UNL     1      -7.169  14.948  69.134  1.00  0.00    -0.153 C  
HETATM   10  C   UNL     1      -6.081  15.562  69.987  1.00  0.00    -0.148 C  
HETATM   11  C   UNL     1      -8.454  15.378  69.082  1.00  0.00    -0.241 C  
HETATM   12  C   UNL     1      -9.482  14.707  68.133  1.00  0.00    -0.212 C  
BRANCH  11  13
HETATM   13  C   UNL     1      -8.886  16.415  70.061  1.00  0.00     1.177 C  
HETATM   14  O   UNL     1      -8.166  16.852  70.949  1.00  0.00     4.357 OA 
BRANCH  13  15
HETATM   15  O   UNL     1     -10.175  16.778  69.878  1.00  0.00    -0.065 OA 
HETATM   16  C   UNL     1     -10.506  18.100  70.330  1.00  0.00     1.730 C  
ENDBRANCH  13  15
ENDBRANCH  11  13
BRANCH  12  17
HETATM   17  C   UNL     1     -10.716  14.247  68.928  1.00  0.00    -0.268 A  
HETATM   18  O   UNL     1     -11.955  15.084  66.317  1.00  0.00    -0.136 OA 
HETATM   19  O   UNL     1     -12.792  13.060  66.440  1.00  0.00    -0.067 OA 
HETATM   20  C   UNL     1     -10.569  14.007  70.311  1.00  0.00     0.860 A  
HETATM   21  C   UNL     1     -11.652  13.615  71.104  1.00  0.00     0.664 A  
HETATM   22  C   UNL     1     -12.918  13.469  70.547  1.00  0.00    -0.025 A  
HETATM   23  C   UNL     1     -13.097  13.667  69.181  1.00  0.00     1.803 A  
HETATM   24  C   UNL     1     -12.001  14.027  68.377  1.00  0.00    -0.343 A  
HETATM   25  N   UNL     1     -12.254  14.057  66.943  1.00  0.00    -0.426 N  
ENDBRANCH  12  17
ENDBRANCH   3   5
ENDBRANCH   2   3
TORSDOF 5
ENDMDL
MODEL      217
REMARK 921   NORMALIZED FREE ENERGY PREDICTED BY IDOCK:   16.22 KCAL/MOL
REMARK 922        TOTAL FREE ENERGY PREDICTED BY IDOCK:   19.74 KCAL/MOL
REMARK 923 INTER-LIGAND FREE ENERGY PREDICTED BY IDOCK:   -5.71 KCAL/MOL
REMARK 924 INTRA-LIGAND FREE ENERGY PREDICTED BY IDOCK:   25.45 KCAL/MOL
REMARK 927      BINDING AFFINITY PREDICTED BY RF-SCORE:    0.00 PKD
ROOT
HETATM    1  C   UNL     1     -10.066   4.249  69.818  1.00  0.00     0.057 C  
HETATM    2  O   UNL     1     -10.395   5.443  69.102  1.00  0.00    -0.225 OA 
ENDROOT
BRANCH   2   3
HETATM    3  C   UNL     1     -10.619   6.529  69.876  1.00  0.00    -0.233 C  
HETATM    4  O   UNL     1     -11.416   6.578  70.801  1.00  0.00    -0.318 OA 
BRANCH   3   5
HETATM    5  C   UNL     1      -9.774   7.673  69.434  1.00  0.00    -0.165 C  
HETATM    6  C   UNL     1      -8.425   7.542  69.481  1.00  0.00    -0.132 C  
HETATM    7  N   UNL     1      -7.620   8.493  68.887  1.00  0.00    -0.094 NA 
HETATM    8  C   UNL     1      -7.660   6.435  70.168  1.00  0.00    -0.096 C  
HETATM    9  C   UNL     1      -8.065   9.638  68.262  1.00  0.00    -0.105 C  
HETATM   10  C   UNL     1      -6.976  10.503  67.667  1.00  0.00    -0.079 C  
HETATM   11  C   UNL     1      -9.390   9.920  68.225  1.00  0.00    -0.136 C  
HETATM   12  C   UNL     1     -10.432   8.937  68.824  1.00  0.00    -0.223 C  
BRANCH  11  13
HETATM   13  C   UNL     1      -9.809  11.259  67.724  1.00  0.00    -0.173 C  
HETATM   14  O   UNL     1     -10.361  11.438  66.647  1.00  0.00    -0.218 OA 
BRANCH  13  15
HETATM   15  O   UNL     1      -9.467  12.248  68.579  1.00  0.00    -0.192 OA 
HETATM   16  C   UNL     1      -9.744  13.579  68.114  1.00  0.00    -0.233 C  
ENDBRANCH  13  15
ENDBRANCH  11  13
BRANCH  12  17
HETATM   17  C   UNL     1     -11.321   9.664  69.847  1.00  0.00    -0.200 A  
HETATM   18  O   UNL     1     -11.673   6.793  70.673  1.00  0.00    -0.349 OA 
HETATM   19  O   UNL     1     -11.079   7.621  72.616  1.00  0.00    -0.300 OA 
HETATM   20  C   UNL     1     -11.611  11.029  69.628  1.00  0.00    -0.390 A  
HETATM   21  C   UNL     1     -12.436  11.748  70.498  1.00  0.00    -0.317 A  
HETATM   22  C   UNL     1     -13.011  11.126  71.602  1.00  0.00    -0.548 A  
HETATM   23  C   UNL     1     -12.724   9.790  71.867  1.00  0.00    -0.501 A  
HETATM   24  C   UNL     1     -11.867   9.076  71.012  1.00  0.00    -0.285 A  
HETATM   25  N   UNL     1     -11.504   7.738  71.457  1.00  0.00    -0.258 N  
ENDBRANCH  12  17
ENDBRANCH   3   5
ENDBRANCH   2   3
TORSDOF 5
ENDMDL
MODEL      218
REMARK 921   NORMALIZED FREE ENERGY PREDICTED BY IDOCK:   50.60 KCAL/MOL
REMARK 922        TOTAL FREE ENERGY PREDICTED BY IDOCK:   64.17 KCAL/MOL
REMARK 923 INTER-LIGAND FREE ENERGY PREDICTED BY IDOCK:   60.23 KCAL/MOL
REMARK 924 INTRA-LIGAND FREE ENERGY PREDICTED BY IDOCK:    3.94 KCAL/MOL
REMARK 927      BINDING AFFINITY PREDICTED BY RF-SCORE:    0.00 PKD
ROOT
HETATM    1  C   UNL     1     -14.065  15.968  68.841  1.00  0.00     6.599 C  
HETATM    2  O   UNL     1     -12.847  15.222  68.927  1.00  0.00     0.408 OA 
ENDROOT
BRANCH   2   3
HETATM    3  C   UNL     1     -11.737  15.893  68.548  1.00  0.00    -0.292 C  
HETATM    4  O   UNL     1     -11.446  17.024  68.908  1.00  0.00     0.069 OA 
BRANCH   3   5
HETATM    5  C   UNL     1     -10.921  15.074  67.609  1.00  0.00    -0.305 C  
HETATM    6  C   UNL     1     -11.175  13.746  67.516  1.00  0.00    -0.294 C  
HETATM    7  N   UNL     1     -10.588  13.001  66.514  1.00  0.00    -0.279 NA 
HETATM    8  C   UNL     1     -12.047  12.937  68.448  1.00  0.00    -0.169 C  
HETATM    9  C   UNL     1      -9.693  13.482  65.581  1.00  0.00    -0.086 C  
HETATM   10  C   UNL     1      -9.217  12.463  64.570  1.00  0.00     0.654 C  
HETATM   11  C   UNL     1      -9.298  14.778  65.626  1.00  0.00     0.025 C  
HETATM   12  C   UNL     1      -9.888  15.756  66.677  1.00  0.00    -0.266 C  
BRANCH  11  13
HETATM   13  C   UNL     1      -8.183  15.202  64.734  1.00  0.00     7.706 C  
HETATM   14  O   UNL     1      -7.276  15.943  65.088  1.00  0.00     4.422 OA 
BRANCH  13  15
HETATM   15  O   UNL     1      -8.319  14.708  63.483  1.00  0.00    12.022 OA 
HETATM   16  C   UNL     1      -8.325  15.692  62.437  1.00  0.00    29.432 C  
ENDBRANCH  13  15
ENDBRANCH  11  13
BRANCH  12  17
HETATM   17  C   UNL     1      -8.755  16.422  67.476  1.00  0.00    -0.188 A  
HETATM   18  O   UNL     1      -8.630  17.930  64.875  1.00  0.00     2.224 OA 
HETATM   19  O   UNL     1      -8.779  19.643  66.238  1.00  0.00    -0.354 OA 
HETATM   20  C   UNL     1      -8.338  15.813  68.679  1.00  0.00    -0.183 A  
HETATM   21  C   UNL     1      -7.294  16.344  69.443  1.00  0.00    -0.150 A  
HETATM   22  C   UNL     1      -6.624  17.489  69.024  1.00  0.00    -0.243 A  
HETATM   23  C   UNL     1      -7.026  18.135  67.859  1.00  0.00    -0.209 A  
HETATM   24  C   UNL     1      -8.098  17.620  67.108  1.00  0.00    -0.215 A  
HETATM   25  N   UNL     1      -8.545  18.450  65.997  1.00  0.00    -0.099 N  
ENDBRANCH  12  17
ENDBRANCH   3   5
ENDBRANCH   2   3
TORSDOF 5
ENDMDL
