MODEL        1
REMARK 921   NORMALIZED FREE ENERGY PREDICTED BY IDOCK:   -9.72 KCAL/MOL
REMARK 922        TOTAL FREE ENERGY PREDICTED BY IDOCK:  -13.74 KCAL/MOL
REMARK 923 INTER-LIGAND FREE ENERGY PREDICTED BY IDOCK:  -13.13 KCAL/MOL
REMARK 924 INTRA-LIGAND FREE ENERGY PREDICTED BY IDOCK:   -0.61 KCAL/MOL
REMARK 927      BINDING AFFINITY PREDICTED BY RF-SCORE:    0.00 PKD
ROOT
HETATM    1  C   UNL     1      -9.850   1.848  73.595  1.00  0.00    -0.127 C  
HETATM    2  C   UNL     1     -10.259   3.197  73.155  1.00  0.00    -0.148 A  
HETATM    3  C   UNL     1      -9.993   3.852  71.969  1.00  0.00    -0.170 A  
HETATM    4  N   UNL     1     -10.611   5.080  72.054  1.00  0.00    -0.203 NA 
HETATM    5  N   UNL     1     -11.022   3.984  73.970  1.00  0.00    -0.205 NA 
HETATM    6  C   UNL     1     -11.219   5.093  73.294  1.00  0.00    -0.321 A  
ENDROOT
BRANCH   4   7
HETATM    7  C   UNL     1     -10.623   6.111  71.072  1.00  0.00    -0.246 A  
HETATM    8  C   UNL     1     -10.896   7.430  71.455  1.00  0.00    -0.247 A  
HETATM    9  C   UNL     1     -10.939   8.468  70.520  1.00  0.00    -0.241 A  
HETATM   10  F   UNL     1     -10.166   7.658  66.504  1.00  0.00    -0.313 F  
HETATM   11  C   UNL     1     -10.644   8.196  69.185  1.00  0.00    -0.179 A  
HETATM   12  F   UNL     1      -8.915   5.985  67.107  1.00  0.00    -0.116 F  
HETATM   13  F   UNL     1     -11.049   5.696  66.808  1.00  0.00    -0.316 F  
HETATM   14  C   UNL     1     -10.379   6.879  68.769  1.00  0.00    -0.200 A  
HETATM   15  C   UNL     1     -10.130   6.563  67.314  1.00  0.00    -0.164 C  
HETATM   16  C   UNL     1     -10.375   5.842  69.721  1.00  0.00    -0.332 A  
BRANCH   9  17
HETATM   17  N   UNL     1     -11.251   9.795  70.883  1.00  0.00    -0.332 N  
HETATM   18  O   UNL     1     -12.203  10.561  68.895  1.00  0.00    -0.282 OA 
HETATM   19  H   UNL     1     -10.971  10.104  71.813  1.00  0.00     0.000 HD 
HETATM   20  C   UNL     1     -11.907  10.713  70.075  1.00  0.00    -0.322 C  
BRANCH  20  21
HETATM   21  C   UNL     1     -12.318  11.968  70.745  1.00  0.00    -0.403 A  
HETATM   22  C   UNL     1     -13.089  11.991  71.904  1.00  0.00    -0.475 A  
HETATM   23  C   UNL     1     -13.505  13.219  72.417  1.00  0.00    -0.670 A  
HETATM   24  C   UNL     1     -13.169  14.426  71.771  1.00  0.00    -0.435 A  
HETATM   25  C   UNL     1     -12.372  14.406  70.606  1.00  0.00    -0.351 A  
HETATM   26  C   UNL     1     -13.663  15.722  72.355  1.00  0.00    -0.539 C  
HETATM   27  C   UNL     1     -11.929  13.166  70.134  1.00  0.00    -0.381 A  
BRANCH  25  28
HETATM   28  N   UNL     1     -11.981  15.595  69.977  1.00  0.00    -0.365 NA 
HETATM   29  H   UNL     1     -12.022  16.424  70.571  1.00  0.00     0.000 HD 
BRANCH  28  30
HETATM   30  C   UNL     1     -11.546  15.836  68.677  1.00  0.00    -0.386 A  
HETATM   31  N   UNL     1     -10.796  16.931  68.492  1.00  0.00    -0.354 NA 
HETATM   32  C   UNL     1     -10.284  17.114  67.261  1.00  0.00    -0.316 A  
HETATM   33  C   UNL     1     -10.455  16.230  66.223  1.00  0.00    -0.314 A  
HETATM   34  C   UNL     1     -11.240  15.129  66.493  1.00  0.00    -0.283 A  
HETATM   35  N   UNL     1     -11.801  14.950  67.706  1.00  0.00    -0.316 NA 
BRANCH  34  36
HETATM   36  C   UNL     1     -11.505  14.057  65.524  1.00  0.00    -0.318 A  
HETATM   37  C   UNL     1     -12.771  13.492  65.358  1.00  0.00    -0.442 A  
HETATM   38  N   UNL     1     -13.082  12.523  64.460  1.00  0.00    -0.839 NA 
HETATM   39  C   UNL     1     -12.079  12.093  63.666  1.00  0.00    -0.551 A  
HETATM   40  C   UNL     1     -10.787  12.581  63.732  1.00  0.00    -0.489 A  
HETATM   41  C   UNL     1     -10.504  13.572  64.669  1.00  0.00    -0.439 A  
ENDBRANCH  34  36
ENDBRANCH  28  30
ENDBRANCH  25  28
ENDBRANCH  20  21
ENDBRANCH   9  17
ENDBRANCH   4   7
TORSDOF 6
ENDMDL
MODEL        2
REMARK 921   NORMALIZED FREE ENERGY PREDICTED BY IDOCK:   -9.70 KCAL/MOL
REMARK 922        TOTAL FREE ENERGY PREDICTED BY IDOCK:  -13.72 KCAL/MOL
REMARK 923 INTER-LIGAND FREE ENERGY PREDICTED BY IDOCK:  -12.25 KCAL/MOL
REMARK 924 INTRA-LIGAND FREE ENERGY PREDICTED BY IDOCK:   -1.46 KCAL/MOL
REMARK 927      BINDING AFFINITY PREDICTED BY RF-SCORE:    0.00 PKD
ROOT
HETATM    1  C   UNL     1     -12.534  15.619  74.433  1.00  0.00    -0.790 C  
HETATM    2  C   UNL     1     -12.597  15.608  72.958  1.00  0.00    -0.459 A  
HETATM    3  C   UNL     1     -11.594  15.822  72.034  1.00  0.00    -0.446 A  
HETATM    4  N   UNL     1     -12.172  15.690  70.791  1.00  0.00    -0.397 NA 
HETATM    5  N   UNL     1     -13.778  15.347  72.322  1.00  0.00    -0.479 NA 
HETATM    6  C   UNL     1     -13.499  15.399  71.040  1.00  0.00    -0.444 A  
ENDROOT
BRANCH   4   7
HETATM    7  C   UNL     1     -11.536  15.820  69.524  1.00  0.00    -0.363 A  
HETATM    8  C   UNL     1     -11.247  14.674  68.772  1.00  0.00    -0.285 A  
HETATM    9  C   UNL     1     -10.606  14.757  67.533  1.00  0.00    -0.259 A  
HETATM   10  F   UNL     1      -9.587  18.491  65.983  1.00  0.00    -0.303 F  
HETATM   11  C   UNL     1     -10.301  16.010  67.005  1.00  0.00    -0.292 A  
HETATM   12  F   UNL     1     -11.240  19.373  67.086  1.00  0.00    -0.558 F  
HETATM   13  F   UNL     1      -9.289  19.173  68.026  1.00  0.00    -0.318 F  
HETATM   14  C   UNL     1     -10.567  17.177  67.742  1.00  0.00    -0.360 A  
HETATM   15  C   UNL     1     -10.175  18.535  67.211  1.00  0.00    -0.372 C  
HETATM   16  C   UNL     1     -11.183  17.071  69.005  1.00  0.00     0.165 A  
BRANCH   9  17
HETATM   17  N   UNL     1     -10.272  13.612  66.781  1.00  0.00    -0.264 N  
HETATM   18  O   UNL     1     -11.999  13.620  65.212  1.00  0.00    -0.342 OA 
HETATM   19  H   UNL     1      -9.469  13.065  67.091  1.00  0.00     0.000 HD 
HETATM   20  C   UNL     1     -10.948  13.168  65.653  1.00  0.00    -0.277 C  
BRANCH  20  21
HETATM   21  C   UNL     1     -10.288  12.074  64.906  1.00  0.00    -0.316 A  
HETATM   22  C   UNL     1      -9.973  12.163  63.553  1.00  0.00    -0.341 A  
HETATM   23  C   UNL     1      -9.433  11.051  62.907  1.00  0.00    -0.378 A  
HETATM   24  C   UNL     1      -9.219   9.844  63.601  1.00  0.00    -0.283 A  
HETATM   25  C   UNL     1      -9.519   9.756  64.978  1.00  0.00    -0.272 A  
HETATM   26  C   UNL     1      -8.654   8.667  62.852  1.00  0.00    -0.069 C  
HETATM   27  C   UNL     1     -10.019  10.898  65.614  1.00  0.00    -0.305 A  
BRANCH  25  28
HETATM   28  N   UNL     1      -9.265   8.584  65.700  1.00  0.00    -0.388 NA 
HETATM   29  H   UNL     1      -9.215   7.737  65.133  1.00  0.00     0.000 HD 
BRANCH  28  30
HETATM   30  C   UNL     1      -9.069   8.380  67.064  1.00  0.00    -0.144 A  
HETATM   31  N   UNL     1      -7.837   8.013  67.441  1.00  0.00    -0.115 NA 
HETATM   32  C   UNL     1      -7.611   7.917  68.764  1.00  0.00    -0.100 A  
HETATM   33  C   UNL     1      -8.551   8.212  69.722  1.00  0.00    -0.133 A  
HETATM   34  C   UNL     1      -9.794   8.580  69.254  1.00  0.00    -0.185 A  
HETATM   35  N   UNL     1     -10.055   8.638  67.932  1.00  0.00    -0.193 NA 
BRANCH  34  36
HETATM   36  C   UNL     1     -10.913   8.968  70.123  1.00  0.00    -0.256 A  
HETATM   37  C   UNL     1     -11.590   8.053  70.930  1.00  0.00    -0.269 A  
HETATM   38  N   UNL     1     -12.609   8.357  71.773  1.00  0.00    -0.327 NA 
HETATM   39  C   UNL     1     -12.974   9.655  71.832  1.00  0.00    -0.435 A  
HETATM   40  C   UNL     1     -12.376  10.654  71.086  1.00  0.00    -0.505 A  
HETATM   41  C   UNL     1     -11.336  10.303  70.228  1.00  0.00    -0.398 A  
ENDBRANCH  34  36
ENDBRANCH  28  30
ENDBRANCH  25  28
ENDBRANCH  20  21
ENDBRANCH   9  17
ENDBRANCH   4   7
TORSDOF 6
ENDMDL
MODEL        3
REMARK 921   NORMALIZED FREE ENERGY PREDICTED BY IDOCK:   -9.56 KCAL/MOL
REMARK 922        TOTAL FREE ENERGY PREDICTED BY IDOCK:  -13.52 KCAL/MOL
REMARK 923 INTER-LIGAND FREE ENERGY PREDICTED BY IDOCK:  -11.98 KCAL/MOL
REMARK 924 INTRA-LIGAND FREE ENERGY PREDICTED BY IDOCK:   -1.54 KCAL/MOL
REMARK 927      BINDING AFFINITY PREDICTED BY RF-SCORE:    0.00 PKD
ROOT
HETATM    1  C   UNL     1      -9.518   2.908  70.640  1.00  0.00    -0.218 C  
HETATM    2  C   UNL     1      -9.575   3.918  69.565  1.00  0.00    -0.178 A  
HETATM    3  C   UNL     1      -9.591   5.296  69.654  1.00  0.00    -0.163 A  
HETATM    4  N   UNL     1      -9.638   5.771  68.363  1.00  0.00    -0.121 NA 
HETATM    5  N   UNL     1      -9.613   3.528  68.256  1.00  0.00    -0.143 NA 
HETATM    6  C   UNL     1      -9.647   4.644  67.564  1.00  0.00    -0.163 A  
ENDROOT
BRANCH   4   7
HETATM    7  C   UNL     1      -9.667   7.131  67.942  1.00  0.00    -0.138 A  
HETATM    8  C   UNL     1     -10.433   8.061  68.655  1.00  0.00    -0.196 A  
HETATM    9  C   UNL     1     -10.506   9.401  68.263  1.00  0.00    -0.217 A  
HETATM   10  F   UNL     1      -8.340  10.698  64.944  1.00  0.00    -0.168 F  
HETATM   11  C   UNL     1      -9.751   9.835  67.174  1.00  0.00    -0.223 A  
HETATM   12  F   UNL     1      -6.883   9.127  65.311  1.00  0.00    -0.073 F  
HETATM   13  F   UNL     1      -8.629   8.725  64.079  1.00  0.00    -0.185 F  
HETATM   14  C   UNL     1      -8.982   8.921  66.431  1.00  0.00    -0.193 A  
HETATM   15  C   UNL     1      -8.218   9.367  65.208  1.00  0.00    -0.132 C  
HETATM   16  C   UNL     1      -8.950   7.568  66.822  1.00  0.00    -0.164 A  
BRANCH   9  17
HETATM   17  N   UNL     1     -11.303  10.342  68.945  1.00  0.00    -0.386 N  
HETATM   18  O   UNL     1     -10.884   9.726  71.156  1.00  0.00    -0.334 OA 
HETATM   19  H   UNL     1     -11.866  10.978  68.380  1.00  0.00     0.000 HD 
HETATM   20  C   UNL     1     -11.384  10.474  70.324  1.00  0.00    -0.327 C  
BRANCH  20  21
HETATM   21  C   UNL     1     -12.113  11.670  70.807  1.00  0.00    -0.383 A  
HETATM   22  C   UNL     1     -13.057  11.620  71.828  1.00  0.00    -0.487 A  
HETATM   23  C   UNL     1     -13.761  12.778  72.158  1.00  0.00    -0.454 A  
HETATM   24  C   UNL     1     -13.538  13.984  71.464  1.00  0.00    -0.382 A  
HETATM   25  C   UNL     1     -12.567  14.042  70.441  1.00  0.00    -0.308 A  
HETATM   26  C   UNL     1     -14.340  15.199  71.846  1.00  0.00    -0.693 C  
HETATM   27  C   UNL     1     -11.843  12.879  70.156  1.00  0.00    -0.319 A  
BRANCH  25  28
HETATM   28  N   UNL     1     -12.291  15.242  69.774  1.00  0.00    -0.539 NA 
HETATM   29  H   UNL     1     -12.553  16.084  70.287  1.00  0.00     0.000 HD 
BRANCH  28  30
HETATM   30  C   UNL     1     -11.718  15.478  68.527  1.00  0.00    -0.337 A  
HETATM   31  N   UNL     1     -10.870  16.512  68.447  1.00  0.00    -0.335 NA 
HETATM   32  C   UNL     1     -10.232  16.684  67.274  1.00  0.00    -0.290 A  
HETATM   33  C   UNL     1     -10.375  15.843  66.197  1.00  0.00    -0.341 A  
HETATM   34  C   UNL     1     -11.266  14.804  66.358  1.00  0.00    -0.342 A  
HETATM   35  N   UNL     1     -11.951  14.640  67.509  1.00  0.00    -0.345 NA 
BRANCH  34  36
HETATM   36  C   UNL     1     -11.525  13.782  65.335  1.00  0.00    -0.318 A  
HETATM   37  C   UNL     1     -12.813  13.355  65.008  1.00  0.00    -0.279 A  
HETATM   38  N   UNL     1     -13.114  12.439  64.053  1.00  0.00    -0.749 NA 
HETATM   39  C   UNL     1     -12.075  11.919  63.367  1.00  0.00    -0.432 A  
HETATM   40  C   UNL     1     -10.756  12.268  63.596  1.00  0.00    -0.513 A  
HETATM   41  C   UNL     1     -10.484  13.208  64.587  1.00  0.00    -0.411 A  
ENDBRANCH  34  36
ENDBRANCH  28  30
ENDBRANCH  25  28
ENDBRANCH  20  21
ENDBRANCH   9  17
ENDBRANCH   4   7
TORSDOF 6
ENDMDL
MODEL        4
REMARK 921   NORMALIZED FREE ENERGY PREDICTED BY IDOCK:   -9.26 KCAL/MOL
REMARK 922        TOTAL FREE ENERGY PREDICTED BY IDOCK:  -13.12 KCAL/MOL
REMARK 923 INTER-LIGAND FREE ENERGY PREDICTED BY IDOCK:  -11.62 KCAL/MOL
REMARK 924 INTRA-LIGAND FREE ENERGY PREDICTED BY IDOCK:   -1.50 KCAL/MOL
REMARK 927      BINDING AFFINITY PREDICTED BY RF-SCORE:    0.00 PKD
ROOT
HETATM    1  C   UNL     1      -9.889  20.464  67.092  1.00  0.00    -0.601 C  
HETATM    2  C   UNL     1     -10.164  19.015  67.035  1.00  0.00    -0.386 A  
HETATM    3  C   UNL     1     -10.405  18.125  68.062  1.00  0.00    -0.391 A  
HETATM    4  N   UNL     1     -10.614  16.897  67.475  1.00  0.00    -0.326 NA 
HETATM    5  N   UNL     1     -10.218  18.372  65.830  1.00  0.00    -0.578 NA 
HETATM    6  C   UNL     1     -10.488  17.120  66.118  1.00  0.00    -0.275 A  
ENDROOT
BRANCH   4   7
HETATM    7  C   UNL     1     -10.902  15.664  68.127  1.00  0.00    -0.301 A  
HETATM    8  C   UNL     1     -10.422  14.465  67.587  1.00  0.00    -0.245 A  
HETATM    9  C   UNL     1     -10.700  13.232  68.184  1.00  0.00    -0.249 A  
HETATM   10  F   UNL     1     -12.942  13.102  71.697  1.00  0.00    -0.421 F  
HETATM   11  C   UNL     1     -11.420  13.200  69.378  1.00  0.00    -0.321 A  
HETATM   12  F   UNL     1     -12.228  15.094  72.198  1.00  0.00    -0.346 F  
HETATM   13  F   UNL     1     -14.017  14.853  70.986  1.00  0.00    -0.437 F  
HETATM   14  C   UNL     1     -11.925  14.386  69.937  1.00  0.00    -0.391 A  
HETATM   15  C   UNL     1     -12.766  14.355  71.190  1.00  0.00    -0.352 C  
HETATM   16  C   UNL     1     -11.663  15.616  69.301  1.00  0.00    -0.388 A  
BRANCH   9  17
HETATM   17  N   UNL     1     -10.258  12.012  67.632  1.00  0.00    -0.197 N  
HETATM   18  O   UNL     1     -11.276  12.106  65.534  1.00  0.00    -0.313 OA 
HETATM   19  H   UNL     1      -9.699  11.403  68.229  1.00  0.00     0.000 HD 
HETATM   20  C   UNL     1     -10.524  11.573  66.343  1.00  0.00    -0.250 C  
BRANCH  20  21
HETATM   21  C   UNL     1      -9.776  10.368  65.915  1.00  0.00    -0.272 A  
HETATM   22  C   UNL     1      -9.167  10.259  64.668  1.00  0.00    -0.290 A  
HETATM   23  C   UNL     1      -8.560   9.054  64.315  1.00  0.00    -0.171 A  
HETATM   24  C   UNL     1      -8.571   7.951  65.192  1.00  0.00    -0.052 A  
HETATM   25  C   UNL     1      -9.171   8.067  66.465  1.00  0.00    -0.188 A  
HETATM   26  C   UNL     1      -7.920   6.668  64.752  1.00  0.00    -0.118 C  
HETATM   27  C   UNL     1      -9.735   9.298  66.815  1.00  0.00    -0.260 A  
BRANCH  25  28
HETATM   28  N   UNL     1      -9.147   7.002  67.375  1.00  0.00    -0.123 NA 
HETATM   29  H   UNL     1      -8.994   6.086  66.953  1.00  0.00     0.000 HD 
BRANCH  28  30
HETATM   30  C   UNL     1      -9.297   6.985  68.759  1.00  0.00    -0.134 A  
HETATM   31  N   UNL     1      -8.208   6.669  69.472  1.00  0.00    -0.128 NA 
HETATM   32  C   UNL     1      -8.315   6.753  70.812  1.00  0.00    -0.128 A  
HETATM   33  C   UNL     1      -9.448   7.179  71.462  1.00  0.00    -0.161 A  
HETATM   34  C   UNL     1     -10.525   7.484  70.657  1.00  0.00    -0.216 A  
HETATM   35  N   UNL     1     -10.455   7.363  69.316  1.00  0.00    -0.217 NA 
BRANCH  34  36
HETATM   36  C   UNL     1     -11.807   7.991  71.165  1.00  0.00    -0.307 A  
HETATM   37  C   UNL     1     -12.942   7.185  71.279  1.00  0.00    -0.324 A  
HETATM   38  N   UNL     1     -14.141   7.588  71.768  1.00  0.00    -0.396 NA 
HETATM   39  C   UNL     1     -14.222   8.870  72.184  1.00  0.00    -0.388 A  
HETATM   40  C   UNL     1     -13.166   9.761  72.128  1.00  0.00    -0.530 A  
HETATM   41  C   UNL     1     -11.951   9.313  71.615  1.00  0.00    -0.448 A  
ENDBRANCH  34  36
ENDBRANCH  28  30
ENDBRANCH  25  28
ENDBRANCH  20  21
ENDBRANCH   9  17
ENDBRANCH   4   7
TORSDOF 6
ENDMDL
MODEL        5
REMARK 921   NORMALIZED FREE ENERGY PREDICTED BY IDOCK:   -9.22 KCAL/MOL
REMARK 922        TOTAL FREE ENERGY PREDICTED BY IDOCK:  -13.07 KCAL/MOL
REMARK 923 INTER-LIGAND FREE ENERGY PREDICTED BY IDOCK:  -11.49 KCAL/MOL
REMARK 924 INTRA-LIGAND FREE ENERGY PREDICTED BY IDOCK:   -1.57 KCAL/MOL
REMARK 927      BINDING AFFINITY PREDICTED BY RF-SCORE:    0.00 PKD
ROOT
HETATM    1  C   UNL     1      -7.499  20.871  67.412  1.00  0.00    -0.339 C  
HETATM    2  C   UNL     1      -8.605  19.923  67.656  1.00  0.00    -0.330 A  
HETATM    3  C   UNL     1      -8.559  18.574  67.943  1.00  0.00    -0.287 A  
HETATM    4  N   UNL     1      -9.863  18.161  68.093  1.00  0.00    -0.324 NA 
HETATM    5  N   UNL     1      -9.900  20.356  67.624  1.00  0.00    -0.424 NA 
HETATM    6  C   UNL     1     -10.626  19.294  67.888  1.00  0.00    -0.373 A  
ENDROOT
BRANCH   4   7
HETATM    7  C   UNL     1     -10.326  16.849  68.398  1.00  0.00    -0.338 A  
HETATM    8  C   UNL     1     -10.022  15.789  67.536  1.00  0.00    -0.236 A  
HETATM    9  C   UNL     1     -10.474  14.490  67.787  1.00  0.00    -0.242 A  
HETATM   10  F   UNL     1     -12.715  13.716  71.218  1.00  0.00    -0.380 F  
HETATM   11  C   UNL     1     -11.192  14.232  68.955  1.00  0.00    -0.289 A  
HETATM   12  F   UNL     1     -11.723  15.377  72.211  1.00  0.00    -0.402 F  
HETATM   13  F   UNL     1     -13.528  15.725  71.048  1.00  0.00    -0.548 F  
HETATM   14  C   UNL     1     -11.523  15.279  69.833  1.00  0.00    -0.325 A  
HETATM   15  C   UNL     1     -12.361  15.023  71.062  1.00  0.00    -0.332 C  
HETATM   16  C   UNL     1     -11.087  16.587  69.544  1.00  0.00    -0.245 A  
BRANCH   9  17
HETATM   17  N   UNL     1     -10.212  13.419  66.910  1.00  0.00    -0.249 N  
HETATM   18  O   UNL     1     -11.872  13.769  65.308  1.00  0.00    -0.327 OA 
HETATM   19  H   UNL     1      -9.470  12.769  67.172  1.00  0.00     0.000 HD 
HETATM   20  C   UNL     1     -10.880  13.176  65.718  1.00  0.00    -0.273 C  
BRANCH  20  21
HETATM   21  C   UNL     1     -10.288  12.124  64.860  1.00  0.00    -0.321 A  
HETATM   22  C   UNL     1     -10.065  12.297  63.497  1.00  0.00    -0.344 A  
HETATM   23  C   UNL     1      -9.586  11.223  62.747  1.00  0.00    -0.327 A  
HETATM   24  C   UNL     1      -9.342   9.971  63.347  1.00  0.00    -0.300 A  
HETATM   25  C   UNL     1      -9.549   9.800  64.733  1.00  0.00    -0.214 A  
HETATM   26  C   UNL     1      -8.847   8.839  62.488  1.00  0.00    -0.043 C  
HETATM   27  C   UNL     1      -9.989  10.903  65.473  1.00  0.00    -0.315 A  
BRANCH  25  28
HETATM   28  N   UNL     1      -9.263   8.581  65.361  1.00  0.00    -0.427 NA 
HETATM   29  H   UNL     1      -9.197   7.783  64.730  1.00  0.00     0.000 HD 
BRANCH  28  30
HETATM   30  C   UNL     1      -9.054   8.277  66.704  1.00  0.00    -0.166 A  
HETATM   31  N   UNL     1      -7.862   7.751  67.017  1.00  0.00    -0.110 NA 
HETATM   32  C   UNL     1      -7.611   7.552  68.324  1.00  0.00    -0.114 A  
HETATM   33  C   UNL     1      -8.482   7.896  69.330  1.00  0.00    -0.137 A  
HETATM   34  C   UNL     1      -9.687   8.431  68.926  1.00  0.00    -0.167 A  
HETATM   35  N   UNL     1      -9.978   8.595  67.619  1.00  0.00    -0.181 NA 
BRANCH  34  36
HETATM   36  C   UNL     1     -10.728   8.893  69.853  1.00  0.00    -0.236 A  
HETATM   37  C   UNL     1     -11.346   8.044  70.773  1.00  0.00    -0.272 A  
HETATM   38  N   UNL     1     -12.290   8.420  71.673  1.00  0.00    -0.307 NA 
HETATM   39  C   UNL     1     -12.637   9.723  71.672  1.00  0.00    -0.416 A  
HETATM   40  C   UNL     1     -12.091  10.662  70.815  1.00  0.00    -0.474 A  
HETATM   41  C   UNL     1     -11.128  10.238  69.901  1.00  0.00    -0.362 A  
ENDBRANCH  34  36
ENDBRANCH  28  30
ENDBRANCH  25  28
ENDBRANCH  20  21
ENDBRANCH   9  17
ENDBRANCH   4   7
TORSDOF 6
ENDMDL
MODEL        6
REMARK 921   NORMALIZED FREE ENERGY PREDICTED BY IDOCK:   -9.13 KCAL/MOL
REMARK 922        TOTAL FREE ENERGY PREDICTED BY IDOCK:  -12.95 KCAL/MOL
REMARK 923 INTER-LIGAND FREE ENERGY PREDICTED BY IDOCK:  -11.70 KCAL/MOL
REMARK 924 INTRA-LIGAND FREE ENERGY PREDICTED BY IDOCK:   -1.25 KCAL/MOL
REMARK 927      BINDING AFFINITY PREDICTED BY RF-SCORE:    0.00 PKD
ROOT
HETATM    1  C   UNL     1      -7.517   1.471  66.322  1.00  0.00    -0.060 C  
HETATM    2  C   UNL     1      -8.239   2.179  67.399  1.00  0.00    -0.069 A  
HETATM    3  C   UNL     1      -8.621   3.502  67.478  1.00  0.00    -0.101 A  
HETATM    4  N   UNL     1      -9.274   3.650  68.681  1.00  0.00    -0.147 NA 
HETATM    5  N   UNL     1      -8.637   1.504  68.518  1.00  0.00    -0.058 NA 
HETATM    6  C   UNL     1      -9.250   2.397  69.260  1.00  0.00    -0.127 A  
ENDROOT
BRANCH   4   7
HETATM    7  C   UNL     1      -9.854   4.838  69.210  1.00  0.00    -0.199 A  
HETATM    8  C   UNL     1     -10.095   5.929  68.365  1.00  0.00    -0.206 A  
HETATM    9  C   UNL     1     -10.642   7.120  68.848  1.00  0.00    -0.201 A  
HETATM   10  F   UNL     1     -11.662   7.435  72.879  1.00  0.00    -0.294 F  
HETATM   11  C   UNL     1     -11.014   7.205  70.189  1.00  0.00    -0.293 A  
HETATM   12  F   UNL     1     -11.985   5.285  72.940  1.00  0.00    -0.365 F  
HETATM   13  F   UNL     1     -10.005   6.099  73.324  1.00  0.00    -0.162 F  
HETATM   14  C   UNL     1     -10.773   6.132  71.064  1.00  0.00    -0.317 A  
HETATM   15  C   UNL     1     -11.105   6.240  72.533  1.00  0.00    -0.272 C  
HETATM   16  C   UNL     1     -10.188   4.952  70.565  1.00  0.00    -0.288 A  
BRANCH   9  17
HETATM   17  N   UNL     1     -10.855   8.241  68.019  1.00  0.00    -0.467 N  
HETATM   18  O   UNL     1      -8.674   9.048  67.835  1.00  0.00    -0.128 OA 
HETATM   19  H   UNL     1     -11.818   8.456  67.759  1.00  0.00     0.000 HD 
HETATM   20  C   UNL     1      -9.861   9.075  67.529  1.00  0.00    -0.179 C  
BRANCH  20  21
HETATM   21  C   UNL     1     -10.298  10.052  66.506  1.00  0.00    -0.268 A  
HETATM   22  C   UNL     1      -9.987   9.924  65.155  1.00  0.00    -0.278 A  
HETATM   23  C   UNL     1     -10.364  10.937  64.274  1.00  0.00    -0.436 A  
HETATM   24  C   UNL     1     -11.037  12.086  64.735  1.00  0.00    -0.369 A  
HETATM   25  C   UNL     1     -11.371  12.209  66.101  1.00  0.00    -0.361 A  
HETATM   26  C   UNL     1     -11.401  13.160  63.745  1.00  0.00    -0.370 C  
HETATM   27  C   UNL     1     -11.021  11.161  66.959  1.00  0.00    -0.348 A  
BRANCH  25  28
HETATM   28  N   UNL     1     -12.086  13.317  66.573  1.00  0.00    -0.393 NA 
HETATM   29  H   UNL     1     -13.066  13.341  66.292  1.00  0.00     0.000 HD 
BRANCH  28  30
HETATM   30  C   UNL     1     -11.683  14.391  67.363  1.00  0.00    -0.397 A  
HETATM   31  N   UNL     1     -11.024  15.376  66.738  1.00  0.00    -0.308 NA 
HETATM   32  C   UNL     1     -10.723  16.464  67.470  1.00  0.00    -0.298 A  
HETATM   33  C   UNL     1     -11.090  16.625  68.784  1.00  0.00    -0.270 A  
HETATM   34  C   UNL     1     -11.765  15.568  69.355  1.00  0.00    -0.367 A  
HETATM   35  N   UNL     1     -12.035  14.448  68.653  1.00  0.00    -0.320 NA 
BRANCH  34  36
HETATM   36  C   UNL     1     -12.271  15.569  70.735  1.00  0.00    -0.450 A  
HETATM   37  C   UNL     1     -13.613  15.340  71.043  1.00  0.00    -0.419 A  
HETATM   38  N   UNL     1     -14.131  15.299  72.296  1.00  0.00    -0.529 NA 
HETATM   39  C   UNL     1     -13.264  15.485  73.313  1.00  0.00    -0.522 A  
HETATM   40  C   UNL     1     -11.911  15.714  73.134  1.00  0.00    -0.584 A  
HETATM   41  C   UNL     1     -11.416  15.754  71.833  1.00  0.00    -0.477 A  
ENDBRANCH  34  36
ENDBRANCH  28  30
ENDBRANCH  25  28
ENDBRANCH  20  21
ENDBRANCH   9  17
ENDBRANCH   4   7
TORSDOF 6
ENDMDL
MODEL        7
REMARK 921   NORMALIZED FREE ENERGY PREDICTED BY IDOCK:   -9.00 KCAL/MOL
REMARK 922        TOTAL FREE ENERGY PREDICTED BY IDOCK:  -12.77 KCAL/MOL
REMARK 923 INTER-LIGAND FREE ENERGY PREDICTED BY IDOCK:  -11.52 KCAL/MOL
REMARK 924 INTRA-LIGAND FREE ENERGY PREDICTED BY IDOCK:   -1.24 KCAL/MOL
REMARK 927      BINDING AFFINITY PREDICTED BY RF-SCORE:    0.00 PKD
ROOT
HETATM    1  C   UNL     1     -10.640   3.615  74.430  1.00  0.00    -0.233 C  
HETATM    2  C   UNL     1     -10.629   4.478  73.232  1.00  0.00    -0.216 A  
HETATM    3  C   UNL     1     -10.252   4.181  71.939  1.00  0.00    -0.110 A  
HETATM    4  N   UNL     1     -10.442   5.329  71.202  1.00  0.00    -0.225 NA 
HETATM    5  N   UNL     1     -11.046   5.776  73.317  1.00  0.00    -0.248 NA 
HETATM    6  C   UNL     1     -10.928   6.258  72.101  1.00  0.00    -0.257 A  
ENDROOT
BRANCH   4   7
HETATM    7  C   UNL     1     -10.194   5.515  69.812  1.00  0.00    -0.265 A  
HETATM    8  C   UNL     1     -10.528   6.732  69.206  1.00  0.00    -0.241 A  
HETATM    9  C   UNL     1     -10.321   6.949  67.840  1.00  0.00    -0.195 A  
HETATM   10  F   UNL     1      -8.602   3.946  65.514  1.00  0.00    -0.107 F  
HETATM   11  C   UNL     1      -9.713   5.954  67.077  1.00  0.00    -0.158 A  
HETATM   12  F   UNL     1      -7.569   3.204  67.278  1.00  0.00    -0.069 F  
HETATM   13  F   UNL     1      -9.570   2.493  66.810  1.00  0.00    -0.109 F  
HETATM   14  C   UNL     1      -9.379   4.717  67.655  1.00  0.00    -0.170 A  
HETATM   15  C   UNL     1      -8.786   3.607  66.821  1.00  0.00    -0.130 C  
HETATM   16  C   UNL     1      -9.627   4.505  69.025  1.00  0.00    -0.245 A  
BRANCH   9  17
HETATM   17  N   UNL     1     -10.688   8.153  67.206  1.00  0.00    -0.485 N  
HETATM   18  O   UNL     1      -8.656   9.299  67.273  1.00  0.00    -0.124 OA 
HETATM   19  H   UNL     1     -11.665   8.263  66.938  1.00  0.00     0.000 HD 
HETATM   20  C   UNL     1      -9.825   9.201  66.916  1.00  0.00    -0.217 C  
BRANCH  20  21
HETATM   21  C   UNL     1     -10.386  10.267  66.054  1.00  0.00    -0.248 A  
HETATM   22  C   UNL     1     -10.245  10.272  64.669  1.00  0.00    -0.204 A  
HETATM   23  C   UNL     1     -10.728  11.360  63.943  1.00  0.00    -0.462 A  
HETATM   24  C   UNL     1     -11.338  12.452  64.592  1.00  0.00    -0.364 A  
HETATM   25  C   UNL     1     -11.500  12.440  65.995  1.00  0.00    -0.382 A  
HETATM   26  C   UNL     1     -11.822  13.611  63.763  1.00  0.00    -0.373 C  
HETATM   27  C   UNL     1     -11.047  11.318  66.698  1.00  0.00    -0.299 A  
BRANCH  25  28
HETATM   28  N   UNL     1     -12.150  13.489  66.657  1.00  0.00    -0.405 NA 
HETATM   29  H   UNL     1     -13.157  13.532  66.497  1.00  0.00     0.000 HD 
BRANCH  28  30
HETATM   30  C   UNL     1     -11.653  14.482  67.496  1.00  0.00    -0.381 A  
HETATM   31  N   UNL     1     -10.852  15.394  66.930  1.00  0.00    -0.316 NA 
HETATM   32  C   UNL     1     -10.452  16.417  67.708  1.00  0.00    -0.300 A  
HETATM   33  C   UNL     1     -10.852  16.586  69.012  1.00  0.00    -0.329 A  
HETATM   34  C   UNL     1     -11.675  15.604  69.521  1.00  0.00    -0.370 A  
HETATM   35  N   UNL     1     -12.051  14.547  68.773  1.00  0.00    -0.265 NA 
BRANCH  34  36
HETATM   36  C   UNL     1     -12.236  15.631  70.879  1.00  0.00    -0.466 A  
HETATM   37  C   UNL     1     -11.565  16.208  71.958  1.00  0.00    -0.383 A  
HETATM   38  N   UNL     1     -12.045  16.289  73.224  1.00  0.00    -0.503 NA 
HETATM   39  C   UNL     1     -13.275  15.776  73.436  1.00  0.00    -0.544 A  
HETATM   40  C   UNL     1     -14.040  15.185  72.447  1.00  0.00    -0.593 A  
HETATM   41  C   UNL     1     -13.512  15.116  71.159  1.00  0.00    -0.533 A  
ENDBRANCH  34  36
ENDBRANCH  28  30
ENDBRANCH  25  28
ENDBRANCH  20  21
ENDBRANCH   9  17
ENDBRANCH   4   7
TORSDOF 6
ENDMDL
MODEL        8
REMARK 921   NORMALIZED FREE ENERGY PREDICTED BY IDOCK:   -8.86 KCAL/MOL
REMARK 922        TOTAL FREE ENERGY PREDICTED BY IDOCK:  -12.58 KCAL/MOL
REMARK 923 INTER-LIGAND FREE ENERGY PREDICTED BY IDOCK:  -10.84 KCAL/MOL
REMARK 924 INTRA-LIGAND FREE ENERGY PREDICTED BY IDOCK:   -1.74 KCAL/MOL
REMARK 927      BINDING AFFINITY PREDICTED BY RF-SCORE:    0.00 PKD
ROOT
HETATM    1  C   UNL     1      -6.892  18.332  66.527  1.00  0.00    -0.249 C  
HETATM    2  C   UNL     1      -7.345  16.948  66.773  1.00  0.00    -0.237 A  
HETATM    3  C   UNL     1      -8.470  16.296  66.310  1.00  0.00    -0.334 A  
HETATM    4  N   UNL     1      -8.419  15.018  66.820  1.00  0.00    -0.234 NA 
HETATM    5  N   UNL     1      -6.600  16.110  67.554  1.00  0.00    -0.155 NA 
HETATM    6  C   UNL     1      -7.257  14.972  67.564  1.00  0.00    -0.201 A  
ENDROOT
BRANCH   4   7
HETATM    7  C   UNL     1      -9.361  13.969  66.618  1.00  0.00    -0.277 A  
HETATM    8  C   UNL     1      -9.168  12.734  67.249  1.00  0.00    -0.203 A  
HETATM    9  C   UNL     1     -10.056  11.671  67.062  1.00  0.00    -0.209 A  
HETATM   10  F   UNL     1     -13.405  12.189  64.632  1.00  0.00    -0.373 F  
HETATM   11  C   UNL     1     -11.193  11.863  66.277  1.00  0.00    -0.392 A  
HETATM   12  F   UNL     1     -13.393  14.311  65.109  1.00  0.00    -0.334 F  
HETATM   13  F   UNL     1     -12.227  13.565  63.431  1.00  0.00    -0.551 F  
HETATM   14  C   UNL     1     -11.406  13.088  65.621  1.00  0.00    -0.330 A  
HETATM   15  C   UNL     1     -12.595  13.282  64.711  1.00  0.00    -0.337 C  
HETATM   16  C   UNL     1     -10.481  14.135  65.795  1.00  0.00    -0.320 A  
BRANCH   9  17
HETATM   17  N   UNL     1      -9.857  10.409  67.658  1.00  0.00    -0.167 N  
HETATM   18  O   UNL     1      -8.090   9.606  66.362  1.00  0.00    -0.110 OA 
HETATM   19  H   UNL     1     -10.495  10.138  68.405  1.00  0.00     0.000 HD 
HETATM   20  C   UNL     1      -8.862   9.507  67.310  1.00  0.00    -0.128 C  
BRANCH  20  21
HETATM   21  C   UNL     1      -8.711   8.346  68.217  1.00  0.00    -0.143 A  
HETATM   22  C   UNL     1      -7.638   7.462  68.143  1.00  0.00    -0.114 A  
HETATM   23  C   UNL     1      -7.622   6.345  68.978  1.00  0.00    -0.100 A  
HETATM   24  C   UNL     1      -8.678   6.096  69.877  1.00  0.00    -0.136 A  
HETATM   25  C   UNL     1      -9.757   7.001  69.967  1.00  0.00    -0.170 A  
HETATM   26  C   UNL     1      -8.621   4.864  70.739  1.00  0.00    -0.127 C  
HETATM   27  C   UNL     1      -9.731   8.138  69.151  1.00  0.00    -0.163 A  
BRANCH  25  28
HETATM   28  N   UNL     1     -10.792   6.804  70.891  1.00  0.00    -0.240 NA 
HETATM   29  H   UNL     1     -10.678   5.985  71.488  1.00  0.00     0.000 HD 
BRANCH  28  30
HETATM   30  C   UNL     1     -11.950   7.538  71.130  1.00  0.00    -0.308 A  
HETATM   31  N   UNL     1     -13.003   6.855  71.600  1.00  0.00    -0.356 NA 
HETATM   32  C   UNL     1     -14.092   7.572  71.933  1.00  0.00    -0.317 A  
HETATM   33  C   UNL     1     -14.156   8.943  71.857  1.00  0.00    -0.453 A  
HETATM   34  C   UNL     1     -13.033   9.572  71.363  1.00  0.00    -0.368 A  
HETATM   35  N   UNL     1     -11.948   8.869  70.979  1.00  0.00    -0.284 NA 
BRANCH  34  36
HETATM   36  C   UNL     1     -12.899  11.030  71.243  1.00  0.00    -0.528 A  
HETATM   37  C   UNL     1     -13.457  11.915  72.166  1.00  0.00    -0.195 A  
HETATM   38  N   UNL     1     -13.341  13.266  72.124  1.00  0.00    -0.504 NA 
HETATM   39  C   UNL     1     -12.614  13.776  71.108  1.00  0.00    -0.373 A  
HETATM   40  C   UNL     1     -12.006  13.002  70.136  1.00  0.00    -0.374 A  
HETATM   41  C   UNL     1     -12.152  11.618  70.210  1.00  0.00    -0.443 A  
ENDBRANCH  34  36
ENDBRANCH  28  30
ENDBRANCH  25  28
ENDBRANCH  20  21
ENDBRANCH   9  17
ENDBRANCH   4   7
TORSDOF 6
ENDMDL
MODEL        9
REMARK 921   NORMALIZED FREE ENERGY PREDICTED BY IDOCK:   -8.75 KCAL/MOL
REMARK 922        TOTAL FREE ENERGY PREDICTED BY IDOCK:  -12.43 KCAL/MOL
REMARK 923 INTER-LIGAND FREE ENERGY PREDICTED BY IDOCK:  -11.10 KCAL/MOL
REMARK 924 INTRA-LIGAND FREE ENERGY PREDICTED BY IDOCK:   -1.33 KCAL/MOL
REMARK 927      BINDING AFFINITY PREDICTED BY RF-SCORE:    0.00 PKD
ROOT
HETATM    1  C   UNL     1      -9.365  20.177  67.041  1.00  0.00    -0.523 C  
HETATM    2  C   UNL     1      -9.821  18.773  67.040  1.00  0.00    -0.325 A  
HETATM    3  C   UNL     1     -10.213  17.976  68.096  1.00  0.00    -0.384 A  
HETATM    4  N   UNL     1     -10.554  16.755  67.560  1.00  0.00    -0.324 NA 
HETATM    5  N   UNL     1      -9.908  18.079  65.866  1.00  0.00    -0.553 NA 
HETATM    6  C   UNL     1     -10.347  16.888  66.201  1.00  0.00    -0.320 A  
ENDROOT
BRANCH   4   7
HETATM    7  C   UNL     1     -11.022  15.605  68.257  1.00  0.00    -0.315 A  
HETATM    8  C   UNL     1     -10.721  14.327  67.768  1.00  0.00    -0.253 A  
HETATM    9  C   UNL     1     -11.180  13.173  68.410  1.00  0.00    -0.271 A  
HETATM   10  F   UNL     1     -13.433  13.512  71.902  1.00  0.00    -0.422 F  
HETATM   11  C   UNL     1     -11.902  13.294  69.596  1.00  0.00    -0.391 A  
HETATM   12  F   UNL     1     -12.436  15.397  72.333  1.00  0.00    -0.351 F  
HETATM   13  F   UNL     1     -14.236  15.372  71.112  1.00  0.00    -0.538 F  
HETATM   14  C   UNL     1     -12.230  14.563  70.104  1.00  0.00    -0.399 A  
HETATM   15  C   UNL     1     -13.073  14.705  71.349  1.00  0.00    -0.347 C  
HETATM   16  C   UNL     1     -11.788  15.714  69.424  1.00  0.00    -0.391 A  
BRANCH   9  17
HETATM   17  N   UNL     1     -10.919  11.881  67.910  1.00  0.00    -0.209 N  
HETATM   18  O   UNL     1      -8.672  11.648  68.496  1.00  0.00    -0.161 OA 
HETATM   19  H   UNL     1     -11.674  11.411  67.410  1.00  0.00     0.000 HD 
HETATM   20  C   UNL     1      -9.719  11.197  68.043  1.00  0.00    -0.176 C  
BRANCH  20  21
HETATM   21  C   UNL     1      -9.749   9.775  67.632  1.00  0.00    -0.186 A  
HETATM   22  C   UNL     1      -9.096   9.300  66.498  1.00  0.00    -0.191 A  
HETATM   23  C   UNL     1      -9.251   7.962  66.136  1.00  0.00    -0.208 A  
HETATM   24  C   UNL     1     -10.067   7.097  66.892  1.00  0.00    -0.308 A  
HETATM   25  C   UNL     1     -10.714   7.571  68.053  1.00  0.00    -0.106 A  
HETATM   26  C   UNL     1     -10.217   5.668  66.445  1.00  0.00    -0.220 C  
HETATM   27  C   UNL     1     -10.510   8.905  68.421  1.00  0.00    -0.230 A  
BRANCH  25  28
HETATM   28  N   UNL     1     -11.487   6.716  68.850  1.00  0.00    -0.602 NA 
HETATM   29  H   UNL     1     -12.305   6.325  68.384  1.00  0.00     0.000 HD 
BRANCH  28  30
HETATM   30  C   UNL     1     -11.325   6.312  70.172  1.00  0.00    -0.406 A  
HETATM   31  N   UNL     1     -12.179   6.833  71.064  1.00  0.00    -0.376 NA 
HETATM   32  C   UNL     1     -12.098   6.368  72.324  1.00  0.00    -0.206 A  
HETATM   33  C   UNL     1     -11.230   5.379  72.719  1.00  0.00    -0.358 A  
HETATM   34  C   UNL     1     -10.384   4.896  71.744  1.00  0.00    -0.179 A  
HETATM   35  N   UNL     1     -10.416   5.380  70.486  1.00  0.00    -0.271 NA 
BRANCH  34  36
HETATM   36  C   UNL     1      -9.415   3.814  71.965  1.00  0.00    -0.200 A  
HETATM   37  C   UNL     1      -8.095   3.883  71.515  1.00  0.00    -0.069 A  
HETATM   38  N   UNL     1      -7.150   2.931  71.716  1.00  0.00    -0.034 NA 
HETATM   39  C   UNL     1      -7.529   1.843  72.418  1.00  0.00    -0.042 A  
HETATM   40  C   UNL     1      -8.805   1.663  72.921  1.00  0.00    -0.063 A  
HETATM   41  C   UNL     1      -9.751   2.661  72.691  1.00  0.00    -0.190 A  
ENDBRANCH  34  36
ENDBRANCH  28  30
ENDBRANCH  25  28
ENDBRANCH  20  21
ENDBRANCH   9  17
ENDBRANCH   4   7
TORSDOF 6
ENDMDL
MODEL       10
REMARK 921   NORMALIZED FREE ENERGY PREDICTED BY IDOCK:   -8.73 KCAL/MOL
REMARK 922        TOTAL FREE ENERGY PREDICTED BY IDOCK:  -12.40 KCAL/MOL
REMARK 923 INTER-LIGAND FREE ENERGY PREDICTED BY IDOCK:  -10.72 KCAL/MOL
REMARK 924 INTRA-LIGAND FREE ENERGY PREDICTED BY IDOCK:   -1.68 KCAL/MOL
REMARK 927      BINDING AFFINITY PREDICTED BY RF-SCORE:    0.00 PKD
ROOT
HETATM    1  C   UNL     1      -9.806  19.955  66.820  1.00  0.00    -0.550 C  
HETATM    2  C   UNL     1     -10.164  18.587  67.245  1.00  0.00    -0.372 A  
HETATM    3  C   UNL     1     -10.330  17.446  66.485  1.00  0.00    -0.312 A  
HETATM    4  N   UNL     1     -10.649  16.434  67.363  1.00  0.00    -0.317 NA 
HETATM    5  N   UNL     1     -10.371  18.309  68.566  1.00  0.00    -0.358 NA 
HETATM    6  C   UNL     1     -10.654  17.027  68.610  1.00  0.00    -0.362 A  
ENDROOT
BRANCH   4   7
HETATM    7  C   UNL     1     -10.911  15.070  67.051  1.00  0.00    -0.311 A  
HETATM    8  C   UNL     1     -10.900  14.111  68.071  1.00  0.00    -0.256 A  
HETATM    9  C   UNL     1     -11.131  12.759  67.805  1.00  0.00    -0.253 A  
HETATM   10  F   UNL     1     -11.951  11.536  63.904  1.00  0.00    -0.443 F  
HETATM   11  C   UNL     1     -11.440  12.363  66.504  1.00  0.00    -0.427 A  
HETATM   12  F   UNL     1     -12.784  13.502  63.489  1.00  0.00    -0.352 F  
HETATM   13  F   UNL     1     -10.658  13.140  63.210  1.00  0.00    -0.087 F  
HETATM   14  C   UNL     1     -11.446  13.301  65.457  1.00  0.00    -0.335 A  
HETATM   15  C   UNL     1     -11.708  12.871  64.034  1.00  0.00    -0.434 C  
HETATM   16  C   UNL     1     -11.176  14.654  65.741  1.00  0.00    -0.336 A  
BRANCH   9  17
HETATM   17  N   UNL     1     -11.085  11.774  68.814  1.00  0.00    -0.224 N  
HETATM   18  O   UNL     1     -12.654  12.634  70.312  1.00  0.00    -0.122 OA 
HETATM   19  H   UNL     1     -10.411  11.018  68.700  1.00  0.00     0.000 HD 
HETATM   20  C   UNL     1     -11.884  11.752  69.948  1.00  0.00    -0.348 C  
BRANCH  20  21
HETATM   21  C   UNL     1     -11.811  10.510  70.752  1.00  0.00    -0.465 A  
HETATM   22  C   UNL     1     -12.760  10.175  71.714  1.00  0.00    -0.534 A  
HETATM   23  C   UNL     1     -12.565   9.030  72.487  1.00  0.00    -0.342 A  
HETATM   24  C   UNL     1     -11.422   8.225  72.315  1.00  0.00    -0.452 A  
HETATM   25  C   UNL     1     -10.468   8.552  71.327  1.00  0.00    -0.225 A  
HETATM   26  C   UNL     1     -11.250   7.013  73.191  1.00  0.00    -0.190 C  
HETATM   27  C   UNL     1     -10.706   9.681  70.534  1.00  0.00    -0.374 A  
BRANCH  25  28
HETATM   28  N   UNL     1      -9.351   7.738  71.102  1.00  0.00    -0.150 NA 
HETATM   29  H   UNL     1      -8.761   7.590  71.921  1.00  0.00     0.000 HD 
BRANCH  28  30
HETATM   30  C   UNL     1      -8.911   7.097  69.947  1.00  0.00    -0.142 A  
HETATM   31  N   UNL     1      -8.765   5.767  70.022  1.00  0.00    -0.130 NA 
HETATM   32  C   UNL     1      -8.442   5.127  68.883  1.00  0.00    -0.090 A  
HETATM   33  C   UNL     1      -8.301   5.754  67.669  1.00  0.00    -0.104 A  
HETATM   34  C   UNL     1      -8.466   7.123  67.675  1.00  0.00    -0.120 A  
HETATM   35  N   UNL     1      -8.744   7.790  68.813  1.00  0.00    -0.129 NA 
BRANCH  34  36
HETATM   36  C   UNL     1      -8.392   7.961  66.470  1.00  0.00    -0.127 A  
HETATM   37  C   UNL     1      -7.316   7.907  65.582  1.00  0.00    -0.079 A  
HETATM   38  N   UNL     1      -7.207   8.632  64.441  1.00  0.00    -0.094 NA 
HETATM   39  C   UNL     1      -8.235   9.457  64.151  1.00  0.00    -0.158 A  
HETATM   40  C   UNL     1      -9.357   9.593  64.949  1.00  0.00    -0.306 A  
HETATM   41  C   UNL     1      -9.431   8.835  66.116  1.00  0.00    -0.315 A  
ENDBRANCH  34  36
ENDBRANCH  28  30
ENDBRANCH  25  28
ENDBRANCH  20  21
ENDBRANCH   9  17
ENDBRANCH   4   7
TORSDOF 6
ENDMDL
MODEL       11
REMARK 921   NORMALIZED FREE ENERGY PREDICTED BY IDOCK:   -8.69 KCAL/MOL
REMARK 922        TOTAL FREE ENERGY PREDICTED BY IDOCK:  -12.35 KCAL/MOL
REMARK 923 INTER-LIGAND FREE ENERGY PREDICTED BY IDOCK:  -11.12 KCAL/MOL
REMARK 924 INTRA-LIGAND FREE ENERGY PREDICTED BY IDOCK:   -1.23 KCAL/MOL
REMARK 927      BINDING AFFINITY PREDICTED BY RF-SCORE:    0.00 PKD
ROOT
HETATM    1  C   UNL     1     -10.423   3.589  73.989  1.00  0.00    -0.258 C  
HETATM    2  C   UNL     1     -10.598   4.480  72.825  1.00  0.00    -0.195 A  
HETATM    3  C   UNL     1     -10.071   4.379  71.554  1.00  0.00    -0.151 A  
HETATM    4  N   UNL     1     -10.550   5.457  70.844  1.00  0.00    -0.237 NA 
HETATM    5  N   UNL     1     -11.389   5.590  72.922  1.00  0.00    -0.301 NA 
HETATM    6  C   UNL     1     -11.346   6.150  71.735  1.00  0.00    -0.291 A  
ENDROOT
BRANCH   4   7
HETATM    7  C   UNL     1     -10.285   5.783  69.483  1.00  0.00    -0.239 A  
HETATM    8  C   UNL     1     -10.643   7.044  68.991  1.00  0.00    -0.234 A  
HETATM    9  C   UNL     1     -10.420   7.397  67.657  1.00  0.00    -0.241 A  
HETATM   10  F   UNL     1      -8.582   4.679  65.084  1.00  0.00    -0.117 F  
HETATM   11  C   UNL     1      -9.773   6.496  66.812  1.00  0.00    -0.208 A  
HETATM   12  F   UNL     1      -7.557   3.797  66.788  1.00  0.00    -0.076 F  
HETATM   13  F   UNL     1      -9.529   3.083  66.216  1.00  0.00    -0.162 F  
HETATM   14  C   UNL     1      -9.413   5.218  67.275  1.00  0.00    -0.134 A  
HETATM   15  C   UNL     1      -8.777   4.210  66.349  1.00  0.00    -0.115 C  
HETATM   16  C   UNL     1      -9.678   4.869  68.614  1.00  0.00    -0.225 A  
BRANCH   9  17
HETATM   17  N   UNL     1     -10.809   8.647  67.134  1.00  0.00    -0.391 N  
HETATM   18  O   UNL     1      -8.726   9.669  66.891  1.00  0.00    -0.129 OA 
HETATM   19  H   UNL     1     -11.809   8.826  67.041  1.00  0.00     0.000 HD 
HETATM   20  C   UNL     1      -9.942   9.655  66.737  1.00  0.00    -0.227 C  
BRANCH  20  21
HETATM   21  C   UNL     1     -10.570  10.788  66.018  1.00  0.00    -0.224 A  
HETATM   22  C   UNL     1     -10.499  10.940  64.637  1.00  0.00    -0.384 A  
HETATM   23  C   UNL     1     -11.043  12.084  64.053  1.00  0.00    -0.452 A  
HETATM   24  C   UNL     1     -11.644  13.085  64.842  1.00  0.00    -0.362 A  
HETATM   25  C   UNL     1     -11.734  12.923  66.241  1.00  0.00    -0.399 A  
HETATM   26  C   UNL     1     -12.196  14.310  64.163  1.00  0.00    -0.410 C  
HETATM   27  C   UNL     1     -11.221  11.748  66.800  1.00  0.00    -0.388 A  
BRANCH  25  28
HETATM   28  N   UNL     1     -12.375  13.879  67.040  1.00  0.00    -0.494 NA 
HETATM   29  H   UNL     1     -13.384  13.935  66.909  1.00  0.00     0.000 HD 
BRANCH  28  30
HETATM   30  C   UNL     1     -11.863  14.767  67.982  1.00  0.00    -0.294 A  
HETATM   31  N   UNL     1     -11.789  14.320  69.244  1.00  0.00    -0.310 NA 
HETATM   32  C   UNL     1     -11.199  15.131  70.141  1.00  0.00    -0.273 A  
HETATM   33  C   UNL     1     -10.644  16.347  69.822  1.00  0.00    -0.288 A  
HETATM   34  C   UNL     1     -10.761  16.736  68.505  1.00  0.00    -0.358 A  
HETATM   35  N   UNL     1     -11.390  15.959  67.599  1.00  0.00    -0.219 NA 
BRANCH  34  36
HETATM   36  C   UNL     1     -10.199  17.982  67.967  1.00  0.00    -0.390 A  
HETATM   37  C   UNL     1      -9.288  18.764  68.679  1.00  0.00    -0.351 A  
HETATM   38  N   UNL     1      -8.713  19.905  68.223  1.00  0.00    -0.265 NA 
HETATM   39  C   UNL     1      -9.052  20.293  66.975  1.00  0.00    -0.361 A  
HETATM   40  C   UNL     1      -9.938  19.599  66.171  1.00  0.00    -0.554 A  
HETATM   41  C   UNL     1     -10.511  18.434  66.675  1.00  0.00    -0.415 A  
ENDBRANCH  34  36
ENDBRANCH  28  30
ENDBRANCH  25  28
ENDBRANCH  20  21
ENDBRANCH   9  17
ENDBRANCH   4   7
TORSDOF 6
ENDMDL
MODEL       12
REMARK 921   NORMALIZED FREE ENERGY PREDICTED BY IDOCK:   -8.67 KCAL/MOL
REMARK 922        TOTAL FREE ENERGY PREDICTED BY IDOCK:  -12.33 KCAL/MOL
REMARK 923 INTER-LIGAND FREE ENERGY PREDICTED BY IDOCK:  -11.48 KCAL/MOL
REMARK 924 INTRA-LIGAND FREE ENERGY PREDICTED BY IDOCK:   -0.85 KCAL/MOL
REMARK 927      BINDING AFFINITY PREDICTED BY RF-SCORE:    0.00 PKD
ROOT
HETATM    1  C   UNL     1      -9.065   1.969  67.027  1.00  0.00    -0.117 C  
HETATM    2  C   UNL     1      -9.318   3.368  67.426  1.00  0.00    -0.203 A  
HETATM    3  C   UNL     1      -9.254   4.521  66.671  1.00  0.00    -0.134 A  
HETATM    4  N   UNL     1      -9.590   5.559  67.512  1.00  0.00    -0.117 NA 
HETATM    5  N   UNL     1      -9.682   3.661  68.709  1.00  0.00    -0.075 NA 
HETATM    6  C   UNL     1      -9.841   4.965  68.734  1.00  0.00    -0.161 A  
ENDROOT
BRANCH   4   7
HETATM    7  C   UNL     1      -9.668   6.943  67.190  1.00  0.00    -0.154 A  
HETATM    8  C   UNL     1     -10.402   7.807  68.012  1.00  0.00    -0.263 A  
HETATM    9  C   UNL     1     -10.521   9.168  67.720  1.00  0.00    -0.247 A  
HETATM   10  F   UNL     1      -8.593  10.734  64.370  1.00  0.00    -0.178 F  
HETATM   11  C   UNL     1      -9.844   9.691  66.619  1.00  0.00    -0.285 A  
HETATM   12  F   UNL     1      -7.090   9.171  64.535  1.00  0.00    -0.086 F  
HETATM   13  F   UNL     1      -8.904   8.819  63.390  1.00  0.00    -0.167 F  
HETATM   14  C   UNL     1      -9.110   8.846  65.768  1.00  0.00    -0.276 A  
HETATM   15  C   UNL     1      -8.433   9.390  64.533  1.00  0.00    -0.177 C  
HETATM   16  C   UNL     1      -9.031   7.471  66.060  1.00  0.00    -0.164 A  
BRANCH   9  17
HETATM   17  N   UNL     1     -11.288  10.044  68.515  1.00  0.00    -0.509 N  
HETATM   18  O   UNL     1     -10.493   9.491  70.638  1.00  0.00    -0.264 OA 
HETATM   19  H   UNL     1     -11.981  10.622  68.040  1.00  0.00     0.000 HD 
HETATM   20  C   UNL     1     -11.175  10.184  69.891  1.00  0.00    -0.287 C  
BRANCH  20  21
HETATM   21  C   UNL     1     -11.927  11.317  70.478  1.00  0.00    -0.467 A  
HETATM   22  C   UNL     1     -12.729  11.188  71.608  1.00  0.00    -0.466 A  
HETATM   23  C   UNL     1     -13.472  12.287  72.041  1.00  0.00    -0.418 A  
HETATM   24  C   UNL     1     -13.430  13.510  71.344  1.00  0.00    -0.233 A  
HETATM   25  C   UNL     1     -12.601  13.649  70.209  1.00  0.00    -0.186 A  
HETATM   26  C   UNL     1     -14.267  14.657  71.841  1.00  0.00    -0.628 C  
HETATM   27  C   UNL     1     -11.833  12.547  69.819  1.00  0.00    -0.380 A  
BRANCH  25  28
HETATM   28  N   UNL     1     -12.502  14.871  69.531  1.00  0.00    -0.570 NA 
HETATM   29  H   UNL     1     -13.062  15.624  69.929  1.00  0.00     0.000 HD 
BRANCH  28  30
HETATM   30  C   UNL     1     -11.767  15.228  68.404  1.00  0.00    -0.321 A  
HETATM   31  N   UNL     1     -11.907  14.443  67.328  1.00  0.00    -0.400 NA 
HETATM   32  C   UNL     1     -11.283  14.839  66.203  1.00  0.00    -0.337 A  
HETATM   33  C   UNL     1     -10.564  16.006  66.099  1.00  0.00    -0.302 A  
HETATM   34  C   UNL     1     -10.467  16.758  67.250  1.00  0.00    -0.310 A  
HETATM   35  N   UNL     1     -11.045  16.356  68.400  1.00  0.00    -0.356 NA 
BRANCH  34  36
HETATM   36  C   UNL     1      -9.774  18.051  67.325  1.00  0.00    -0.297 A  
HETATM   37  C   UNL     1      -8.382  18.159  67.326  1.00  0.00    -0.241 A  
HETATM   38  N   UNL     1      -7.688  19.324  67.363  1.00  0.00    -0.244 NA 
HETATM   39  C   UNL     1      -8.418  20.459  67.389  1.00  0.00    -0.321 A  
HETATM   40  C   UNL     1      -9.801  20.481  67.386  1.00  0.00    -0.574 A  
HETATM   41  C   UNL     1     -10.479  19.264  67.352  1.00  0.00    -0.564 A  
ENDBRANCH  34  36
ENDBRANCH  28  30
ENDBRANCH  25  28
ENDBRANCH  20  21
ENDBRANCH   9  17
ENDBRANCH   4   7
TORSDOF 6
ENDMDL
MODEL       13
REMARK 921   NORMALIZED FREE ENERGY PREDICTED BY IDOCK:   -8.66 KCAL/MOL
REMARK 922        TOTAL FREE ENERGY PREDICTED BY IDOCK:  -12.30 KCAL/MOL
REMARK 923 INTER-LIGAND FREE ENERGY PREDICTED BY IDOCK:  -10.68 KCAL/MOL
REMARK 924 INTRA-LIGAND FREE ENERGY PREDICTED BY IDOCK:   -1.62 KCAL/MOL
REMARK 927      BINDING AFFINITY PREDICTED BY RF-SCORE:    0.00 PKD
ROOT
HETATM    1  C   UNL     1      -7.380  19.824  66.575  1.00  0.00    -0.275 C  
HETATM    2  C   UNL     1      -8.032  18.614  67.113  1.00  0.00    -0.242 A  
HETATM    3  C   UNL     1      -8.525  17.510  66.446  1.00  0.00    -0.252 A  
HETATM    4  N   UNL     1      -9.021  16.660  67.409  1.00  0.00    -0.195 NA 
HETATM    5  N   UNL     1      -8.210  18.471  68.460  1.00  0.00    -0.332 NA 
HETATM    6  C   UNL     1      -8.796  17.304  68.610  1.00  0.00    -0.261 A  
ENDROOT
BRANCH   4   7
HETATM    7  C   UNL     1      -9.631  15.389  67.209  1.00  0.00    -0.211 A  
HETATM    8  C   UNL     1      -9.208  14.290  67.967  1.00  0.00    -0.192 A  
HETATM    9  C   UNL     1      -9.765  13.021  67.787  1.00  0.00    -0.218 A  
HETATM   10  F   UNL     1     -12.813  12.485  64.992  1.00  0.00    -0.554 F  
HETATM   11  C   UNL     1     -10.808  12.857  66.876  1.00  0.00    -0.278 A  
HETATM   12  F   UNL     1     -13.401  14.560  65.272  1.00  0.00    -0.325 F  
HETATM   13  F   UNL     1     -11.888  14.048  63.797  1.00  0.00    -0.401 F  
HETATM   14  C   UNL     1     -11.246  13.939  66.093  1.00  0.00    -0.303 A  
HETATM   15  C   UNL     1     -12.325  13.756  65.053  1.00  0.00    -0.428 C  
HETATM   16  C   UNL     1     -10.648  15.203  66.264  1.00  0.00    -0.312 A  
BRANCH   9  17
HETATM   17  N   UNL     1      -9.324  11.896  68.513  1.00  0.00    -0.320 N  
HETATM   18  O   UNL     1      -7.097  11.797  67.824  1.00  0.00    -0.083 OA 
HETATM   19  H   UNL     1     -10.016  11.399  69.073  1.00  0.00     0.000 HD 
HETATM   20  C   UNL     1      -8.024  11.410  68.526  1.00  0.00    -0.143 C  
BRANCH  20  21
HETATM   21  C   UNL     1      -7.751  10.354  69.528  1.00  0.00    -0.159 A  
HETATM   22  C   UNL     1      -6.467   9.902  69.820  1.00  0.00    -0.058 A  
HETATM   23  C   UNL     1      -6.308   8.843  70.713  1.00  0.00    -0.049 A  
HETATM   24  C   UNL     1      -7.425   8.220  71.305  1.00  0.00    -0.082 A  
HETATM   25  C   UNL     1      -8.727   8.689  71.026  1.00  0.00    -0.186 A  
HETATM   26  C   UNL     1      -7.199   7.067  72.245  1.00  0.00    -0.073 C  
HETATM   27  C   UNL     1      -8.859   9.782  70.161  1.00  0.00    -0.226 A  
BRANCH  25  28
HETATM   28  N   UNL     1      -9.848   8.122  71.643  1.00  0.00    -0.170 NA 
HETATM   29  H   UNL     1      -9.670   7.237  72.118  1.00  0.00     0.000 HD 
BRANCH  28  30
HETATM   30  C   UNL     1     -11.167   8.563  71.718  1.00  0.00    -0.309 A  
HETATM   31  N   UNL     1     -12.070   7.674  72.154  1.00  0.00    -0.298 NA 
HETATM   32  C   UNL     1     -13.326   8.123  72.329  1.00  0.00    -0.150 A  
HETATM   33  C   UNL     1     -13.707   9.428  72.128  1.00  0.00    -0.490 A  
HETATM   34  C   UNL     1     -12.721  10.280  71.678  1.00  0.00    -0.456 A  
HETATM   35  N   UNL     1     -11.466   9.841  71.451  1.00  0.00    -0.380 NA 
BRANCH  34  36
HETATM   36  C   UNL     1     -12.926  11.715  71.442  1.00  0.00    -0.426 A  
HETATM   37  C   UNL     1     -13.781  12.491  72.226  1.00  0.00    -0.259 A  
HETATM   38  N   UNL     1     -13.987  13.824  72.075  1.00  0.00    -0.478 NA 
HETATM   39  C   UNL     1     -13.291  14.433  71.092  1.00  0.00    -0.331 A  
HETATM   40  C   UNL     1     -12.409  13.773  70.255  1.00  0.00    -0.407 A  
HETATM   41  C   UNL     1     -12.228  12.404  70.438  1.00  0.00    -0.370 A  
ENDBRANCH  34  36
ENDBRANCH  28  30
ENDBRANCH  25  28
ENDBRANCH  20  21
ENDBRANCH   9  17
ENDBRANCH   4   7
TORSDOF 6
ENDMDL
MODEL       14
REMARK 921   NORMALIZED FREE ENERGY PREDICTED BY IDOCK:   -8.52 KCAL/MOL
REMARK 922        TOTAL FREE ENERGY PREDICTED BY IDOCK:  -12.11 KCAL/MOL
REMARK 923 INTER-LIGAND FREE ENERGY PREDICTED BY IDOCK:  -10.82 KCAL/MOL
REMARK 924 INTRA-LIGAND FREE ENERGY PREDICTED BY IDOCK:   -1.30 KCAL/MOL
REMARK 927      BINDING AFFINITY PREDICTED BY RF-SCORE:    0.00 PKD
ROOT
HETATM    1  C   UNL     1      -9.406   1.838  63.919  1.00  0.00    -0.119 C  
HETATM    2  C   UNL     1      -9.404   2.495  65.241  1.00  0.00    -0.064 A  
HETATM    3  C   UNL     1      -9.857   3.749  65.599  1.00  0.00    -0.100 A  
HETATM    4  N   UNL     1      -9.636   3.872  66.953  1.00  0.00    -0.209 NA 
HETATM    5  N   UNL     1      -8.908   1.841  66.333  1.00  0.00    -0.120 NA 
HETATM    6  C   UNL     1      -9.060   2.677  67.335  1.00  0.00    -0.174 A  
ENDROOT
BRANCH   4   7
HETATM    7  C   UNL     1      -9.941   4.990  67.780  1.00  0.00    -0.147 A  
HETATM    8  C   UNL     1     -10.302   6.210  67.194  1.00  0.00    -0.286 A  
HETATM    9  C   UNL     1     -10.588   7.337  67.969  1.00  0.00    -0.189 A  
HETATM   10  F   UNL     1     -10.446   7.068  72.128  1.00  0.00    -0.203 F  
HETATM   11  C   UNL     1     -10.573   7.230  69.359  1.00  0.00    -0.238 A  
HETATM   12  F   UNL     1     -10.934   4.954  71.984  1.00  0.00    -0.252 F  
HETATM   13  F   UNL     1      -8.859   5.600  71.903  1.00  0.00    -0.131 F  
HETATM   14  C   UNL     1     -10.203   6.022  69.976  1.00  0.00    -0.264 A  
HETATM   15  C   UNL     1     -10.114   5.916  71.480  1.00  0.00    -0.192 C  
HETATM   16  C   UNL     1      -9.884   4.907  69.177  1.00  0.00    -0.263 A  
BRANCH   9  17
HETATM   17  N   UNL     1     -10.914   8.582  67.395  1.00  0.00    -0.433 N  
HETATM   18  O   UNL     1      -8.783   9.489  67.115  1.00  0.00    -0.130 OA 
HETATM   19  H   UNL     1     -11.904   8.806  67.291  1.00  0.00     0.000 HD 
HETATM   20  C   UNL     1      -9.998   9.528  66.958  1.00  0.00    -0.213 C  
BRANCH  20  21
HETATM   21  C   UNL     1     -10.569  10.660  66.192  1.00  0.00    -0.211 A  
HETATM   22  C   UNL     1     -10.404  10.803  64.817  1.00  0.00    -0.380 A  
HETATM   23  C   UNL     1     -10.900  11.946  64.191  1.00  0.00    -0.412 A  
HETATM   24  C   UNL     1     -11.546  12.956  64.931  1.00  0.00    -0.365 A  
HETATM   25  C   UNL     1     -11.731  12.804  66.323  1.00  0.00    -0.402 A  
HETATM   26  C   UNL     1     -12.043  14.180  64.209  1.00  0.00    -0.471 C  
HETATM   27  C   UNL     1     -11.265  11.630  66.922  1.00  0.00    -0.376 A  
BRANCH  25  28
HETATM   28  N   UNL     1     -12.418  13.770  67.070  1.00  0.00    -0.424 NA 
HETATM   29  H   UNL     1     -13.422  13.805  66.898  1.00  0.00     0.000 HD 
BRANCH  28  30
HETATM   30  C   UNL     1     -11.958  14.689  68.009  1.00  0.00    -0.257 A  
HETATM   31  N   UNL     1     -12.098  14.347  69.297  1.00  0.00    -0.320 NA 
HETATM   32  C   UNL     1     -11.562  15.180  70.208  1.00  0.00    -0.289 A  
HETATM   33  C   UNL     1     -10.858  16.314  69.884  1.00  0.00    -0.352 A  
HETATM   34  C   UNL     1     -10.758  16.598  68.539  1.00  0.00    -0.351 A  
HETATM   35  N   UNL     1     -11.328  15.801  67.611  1.00  0.00    -0.254 NA 
BRANCH  34  36
HETATM   36  C   UNL     1     -10.014  17.743  67.997  1.00  0.00    -0.333 A  
HETATM   37  C   UNL     1      -8.619  17.785  67.964  1.00  0.00    -0.250 A  
HETATM   38  N   UNL     1      -7.880  18.800  67.450  1.00  0.00    -0.232 NA 
HETATM   39  C   UNL     1      -8.564  19.836  66.921  1.00  0.00    -0.329 A  
HETATM   40  C   UNL     1      -9.945  19.906  66.889  1.00  0.00    -0.563 A  
HETATM   41  C   UNL     1     -10.671  18.847  67.431  1.00  0.00    -0.519 A  
ENDBRANCH  34  36
ENDBRANCH  28  30
ENDBRANCH  25  28
ENDBRANCH  20  21
ENDBRANCH   9  17
ENDBRANCH   4   7
TORSDOF 6
ENDMDL
MODEL       15
REMARK 921   NORMALIZED FREE ENERGY PREDICTED BY IDOCK:   -8.51 KCAL/MOL
REMARK 922        TOTAL FREE ENERGY PREDICTED BY IDOCK:  -12.10 KCAL/MOL
REMARK 923 INTER-LIGAND FREE ENERGY PREDICTED BY IDOCK:  -10.68 KCAL/MOL
REMARK 924 INTRA-LIGAND FREE ENERGY PREDICTED BY IDOCK:   -1.42 KCAL/MOL
REMARK 927      BINDING AFFINITY PREDICTED BY RF-SCORE:    0.00 PKD
ROOT
HETATM    1  C   UNL     1     -12.437  16.274  74.325  1.00  0.00    -0.631 C  
HETATM    2  C   UNL     1     -12.732  15.530  73.085  1.00  0.00    -0.478 A  
HETATM    3  C   UNL     1     -11.935  14.656  72.374  1.00  0.00    -0.124 A  
HETATM    4  N   UNL     1     -12.685  14.226  71.302  1.00  0.00    -0.335 NA 
HETATM    5  N   UNL     1     -13.953  15.654  72.483  1.00  0.00    -0.568 NA 
HETATM    6  C   UNL     1     -13.900  14.869  71.431  1.00  0.00    -0.459 A  
ENDROOT
BRANCH   4   7
HETATM    7  C   UNL     1     -12.292  13.312  70.283  1.00  0.00    -0.264 A  
HETATM    8  C   UNL     1     -11.952  11.997  70.625  1.00  0.00    -0.257 A  
HETATM    9  C   UNL     1     -11.541  11.075  69.659  1.00  0.00    -0.318 A  
HETATM   10  F   UNL     1     -11.392  12.215  65.651  1.00  0.00    -0.337 F  
HETATM   11  C   UNL     1     -11.528  11.453  68.317  1.00  0.00    -0.369 A  
HETATM   12  F   UNL     1     -12.963  13.670  66.031  1.00  0.00    -0.429 F  
HETATM   13  F   UNL     1     -10.878  14.219  66.319  1.00  0.00    -0.296 F  
HETATM   14  C   UNL     1     -11.853  12.769  67.945  1.00  0.00    -0.392 A  
HETATM   15  C   UNL     1     -11.772  13.209  66.503  1.00  0.00    -0.382 C  
HETATM   16  C   UNL     1     -12.231  13.694  68.938  1.00  0.00    -0.221 A  
BRANCH   9  17
HETATM   17  N   UNL     1     -11.157   9.759  69.990  1.00  0.00    -0.254 N  
HETATM   18  O   UNL     1     -12.952   9.123  71.338  1.00  0.00    -0.323 OA 
HETATM   19  H   UNL     1     -10.253   9.435  69.647  1.00  0.00     0.000 HD 
HETATM   20  C   UNL     1     -11.910   8.870  70.744  1.00  0.00    -0.194 C  
BRANCH  20  21
HETATM   21  C   UNL     1     -11.405   7.478  70.777  1.00  0.00    -0.300 A  
HETATM   22  C   UNL     1     -11.348   6.721  71.943  1.00  0.00    -0.306 A  
HETATM   23  C   UNL     1     -10.775   5.450  71.899  1.00  0.00    -0.275 A  
HETATM   24  C   UNL     1     -10.244   4.936  70.700  1.00  0.00    -0.282 A  
HETATM   25  C   UNL     1     -10.317   5.694  69.512  1.00  0.00    -0.275 A  
HETATM   26  C   UNL     1      -9.617   3.568  70.713  1.00  0.00    -0.246 C  
HETATM   27  C   UNL     1     -10.935   6.948  69.570  1.00  0.00    -0.289 A  
BRANCH  25  28
HETATM   28  N   UNL     1      -9.844   5.182  68.297  1.00  0.00    -0.152 NA 
HETATM   29  H   UNL     1     -10.330   4.347  67.969  1.00  0.00     0.000 HD 
BRANCH  28  30
HETATM   30  C   UNL     1      -8.820   5.622  67.462  1.00  0.00    -0.105 A  
HETATM   31  N   UNL     1      -7.716   4.864  67.423  1.00  0.00    -0.090 NA 
HETATM   32  C   UNL     1      -6.765   5.223  66.541  1.00  0.00    -0.057 A  
HETATM   33  C   UNL     1      -6.890   6.279  65.670  1.00  0.00    -0.052 A  
HETATM   34  C   UNL     1      -8.055   7.009  65.773  1.00  0.00    -0.123 A  
HETATM   35  N   UNL     1      -9.001   6.695  66.682  1.00  0.00    -0.137 NA 
BRANCH  34  36
HETATM   36  C   UNL     1      -8.386   8.147  64.905  1.00  0.00    -0.133 A  
HETATM   37  C   UNL     1      -7.939   8.241  63.586  1.00  0.00    -0.153 A  
HETATM   38  N   UNL     1      -8.237   9.250  62.730  1.00  0.00    -0.161 NA 
HETATM   39  C   UNL     1      -9.040  10.226  63.204  1.00  0.00    -0.271 A  
HETATM   40  C   UNL     1      -9.550  10.240  64.490  1.00  0.00    -0.378 A  
HETATM   41  C   UNL     1      -9.219   9.189  65.342  1.00  0.00    -0.266 A  
ENDBRANCH  34  36
ENDBRANCH  28  30
ENDBRANCH  25  28
ENDBRANCH  20  21
ENDBRANCH   9  17
ENDBRANCH   4   7
TORSDOF 6
ENDMDL
MODEL       16
REMARK 921   NORMALIZED FREE ENERGY PREDICTED BY IDOCK:   -8.49 KCAL/MOL
REMARK 922        TOTAL FREE ENERGY PREDICTED BY IDOCK:  -12.08 KCAL/MOL
REMARK 923 INTER-LIGAND FREE ENERGY PREDICTED BY IDOCK:  -11.00 KCAL/MOL
REMARK 924 INTRA-LIGAND FREE ENERGY PREDICTED BY IDOCK:   -1.08 KCAL/MOL
REMARK 927      BINDING AFFINITY PREDICTED BY RF-SCORE:    0.00 PKD
ROOT
HETATM    1  C   UNL     1     -12.584  16.058  74.415  1.00  0.00    -0.642 C  
HETATM    2  C   UNL     1     -12.682  15.745  72.975  1.00  0.00    -0.491 A  
HETATM    3  C   UNL     1     -11.679  15.490  72.062  1.00  0.00    -0.455 A  
HETATM    4  N   UNL     1     -12.300  15.245  70.857  1.00  0.00    -0.343 NA 
HETATM    5  N   UNL     1     -13.904  15.665  72.371  1.00  0.00    -0.538 NA 
HETATM    6  C   UNL     1     -13.651  15.365  71.117  1.00  0.00    -0.462 A  
ENDROOT
BRANCH   4   7
HETATM    7  C   UNL     1     -11.682  14.930  69.614  1.00  0.00    -0.320 A  
HETATM    8  C   UNL     1     -11.592  13.595  69.202  1.00  0.00    -0.356 A  
HETATM    9  C   UNL     1     -10.974  13.241  67.999  1.00  0.00    -0.244 A  
HETATM   10  F   UNL     1      -9.423  16.218  65.526  1.00  0.00    -0.314 F  
HETATM   11  C   UNL     1     -10.490  14.244  67.161  1.00  0.00    -0.266 A  
HETATM   12  F   UNL     1     -10.893  17.610  66.319  1.00  0.00    -0.269 F  
HETATM   13  F   UNL     1      -8.976  17.367  67.316  1.00  0.00    -0.225 F  
HETATM   14  C   UNL     1     -10.555  15.593  67.553  1.00  0.00    -0.297 A  
HETATM   15  C   UNL     1      -9.969  16.681  66.686  1.00  0.00    -0.283 C  
HETATM   16  C   UNL     1     -11.150  15.926  68.785  1.00  0.00    -0.328 A  
BRANCH   9  17
HETATM   17  N   UNL     1     -10.841  11.899  67.588  1.00  0.00    -0.217 N  
HETATM   18  O   UNL     1      -8.528  11.638  67.750  1.00  0.00    -0.133 OA 
HETATM   19  H   UNL     1     -11.687  11.413  67.292  1.00  0.00     0.000 HD 
HETATM   20  C   UNL     1      -9.651  11.186  67.554  1.00  0.00    -0.168 C  
BRANCH  20  21
HETATM   21  C   UNL     1      -9.787   9.734  67.298  1.00  0.00    -0.228 A  
HETATM   22  C   UNL     1      -9.281   9.115  66.158  1.00  0.00    -0.259 A  
HETATM   23  C   UNL     1      -9.533   7.759  65.955  1.00  0.00    -0.058 A  
HETATM   24  C   UNL     1     -10.299   7.018  66.877  1.00  0.00    -0.338 A  
HETATM   25  C   UNL     1     -10.796   7.638  68.043  1.00  0.00    -0.001 A  
HETATM   26  C   UNL     1     -10.559   5.562  66.599  1.00  0.00    -0.365 C  
HETATM   27  C   UNL     1     -10.495   8.989  68.247  1.00  0.00    -0.247 A  
BRANCH  25  28
HETATM   28  N   UNL     1     -11.515   6.910  69.000  1.00  0.00    -0.549 NA 
HETATM   29  H   UNL     1     -12.303   6.380  68.627  1.00  0.00     0.000 HD 
BRANCH  28  30
HETATM   30  C   UNL     1     -11.333   6.787  70.375  1.00  0.00    -0.347 A  
HETATM   31  N   UNL     1     -11.752   7.815  71.125  1.00  0.00    -0.282 NA 
HETATM   32  C   UNL     1     -11.678   7.662  72.460  1.00  0.00    -0.301 A  
HETATM   33  C   UNL     1     -11.243   6.512  73.073  1.00  0.00    -0.176 A  
HETATM   34  C   UNL     1     -10.828   5.501  72.233  1.00  0.00    -0.241 A  
HETATM   35  N   UNL     1     -10.850   5.651  70.892  1.00  0.00    -0.253 NA 
BRANCH  34  36
HETATM   36  C   UNL     1     -10.366   4.187  72.700  1.00  0.00    -0.233 A  
HETATM   37  C   UNL     1      -9.412   3.437  72.010  1.00  0.00    -0.133 A  
HETATM   38  N   UNL     1      -8.926   2.234  72.408  1.00  0.00    -0.072 NA 
HETATM   39  C   UNL     1      -9.406   1.745  73.571  1.00  0.00    -0.072 A  
HETATM   40  C   UNL     1     -10.348   2.398  74.346  1.00  0.00    -0.192 A  
HETATM   41  C   UNL     1     -10.827   3.629  73.903  1.00  0.00    -0.301 A  
ENDBRANCH  34  36
ENDBRANCH  28  30
ENDBRANCH  25  28
ENDBRANCH  20  21
ENDBRANCH   9  17
ENDBRANCH   4   7
TORSDOF 6
ENDMDL
MODEL       17
REMARK 921   NORMALIZED FREE ENERGY PREDICTED BY IDOCK:   -8.48 KCAL/MOL
REMARK 922        TOTAL FREE ENERGY PREDICTED BY IDOCK:  -12.06 KCAL/MOL
REMARK 923 INTER-LIGAND FREE ENERGY PREDICTED BY IDOCK:  -10.90 KCAL/MOL
REMARK 924 INTRA-LIGAND FREE ENERGY PREDICTED BY IDOCK:   -1.16 KCAL/MOL
REMARK 927      BINDING AFFINITY PREDICTED BY RF-SCORE:    0.00 PKD
ROOT
HETATM    1  C   UNL     1     -10.937   5.086  73.600  1.00  0.00    -0.379 C  
HETATM    2  C   UNL     1     -10.512   4.830  72.210  1.00  0.00    -0.189 A  
HETATM    3  C   UNL     1     -10.645   5.625  71.090  1.00  0.00    -0.245 A  
HETATM    4  N   UNL     1     -10.074   4.931  70.047  1.00  0.00    -0.262 NA 
HETATM    5  N   UNL     1      -9.876   3.664  71.889  1.00  0.00    -0.168 NA 
HETATM    6  C   UNL     1      -9.625   3.750  70.603  1.00  0.00    -0.189 A  
ENDROOT
BRANCH   4   7
HETATM    7  C   UNL     1      -9.966   5.345  68.688  1.00  0.00    -0.170 A  
HETATM    8  C   UNL     1     -10.310   6.655  68.333  1.00  0.00    -0.220 A  
HETATM    9  C   UNL     1     -10.239   7.095  67.009  1.00  0.00    -0.269 A  
HETATM   10  F   UNL     1      -8.904   4.489  64.039  1.00  0.00    -0.125 F  
HETATM   11  C   UNL     1      -9.757   6.229  66.027  1.00  0.00     0.067 A  
HETATM   12  F   UNL     1      -7.724   3.434  65.530  1.00  0.00    -0.077 F  
HETATM   13  F   UNL     1      -9.791   2.862  65.175  1.00  0.00    -0.116 F  
HETATM   14  C   UNL     1      -9.417   4.904  66.352  1.00  0.00    -0.156 A  
HETATM   15  C   UNL     1      -8.964   3.938  65.284  1.00  0.00    -0.132 C  
HETATM   16  C   UNL     1      -9.529   4.470  67.687  1.00  0.00    -0.196 A  
BRANCH   9  17
HETATM   17  N   UNL     1     -10.618   8.399  66.627  1.00  0.00    -0.304 N  
HETATM   18  O   UNL     1      -8.523   9.411  66.448  1.00  0.00    -0.123 OA 
HETATM   19  H   UNL     1     -11.616   8.600  66.574  1.00  0.00     0.000 HD 
HETATM   20  C   UNL     1      -9.742   9.430  66.319  1.00  0.00    -0.264 C  
BRANCH  20  21
HETATM   21  C   UNL     1     -10.366  10.640  65.736  1.00  0.00    -0.287 A  
HETATM   22  C   UNL     1     -10.430  10.873  64.365  1.00  0.00    -0.403 A  
HETATM   23  C   UNL     1     -10.955  12.081  63.906  1.00  0.00    -0.465 A  
HETATM   24  C   UNL     1     -11.403  13.066  64.809  1.00  0.00    -0.348 A  
HETATM   25  C   UNL     1     -11.356  12.824  66.199  1.00  0.00    -0.328 A  
HETATM   26  C   UNL     1     -11.940  14.360  64.262  1.00  0.00    -0.433 C  
HETATM   27  C   UNL     1     -10.866  11.588  66.635  1.00  0.00    -0.335 A  
BRANCH  25  28
HETATM   28  N   UNL     1     -11.844  13.766  67.113  1.00  0.00    -0.386 NA 
HETATM   29  H   UNL     1     -12.180  14.633  66.693  1.00  0.00     0.000 HD 
BRANCH  28  30
HETATM   30  C   UNL     1     -11.949  13.718  68.501  1.00  0.00    -0.367 A  
HETATM   31  N   UNL     1     -12.137  14.888  69.126  1.00  0.00    -0.267 NA 
HETATM   32  C   UNL     1     -12.344  14.839  70.455  1.00  0.00    -0.344 A  
HETATM   33  C   UNL     1     -12.412  13.671  71.175  1.00  0.00    -0.442 A  
HETATM   34  C   UNL     1     -12.207  12.510  70.460  1.00  0.00    -0.297 A  
HETATM   35  N   UNL     1     -11.952  12.539  69.136  1.00  0.00    -0.270 NA 
BRANCH  34  36
HETATM   36  C   UNL     1     -12.279  11.165  71.046  1.00  0.00    -0.438 A  
HETATM   37  C   UNL     1     -13.343  10.751  71.850  1.00  0.00    -0.340 A  
HETATM   38  N   UNL     1     -13.478   9.515  72.393  1.00  0.00    -0.440 NA 
HETATM   39  C   UNL     1     -12.504   8.625  72.113  1.00  0.00    -0.389 A  
HETATM   40  C   UNL     1     -11.405   8.914  71.324  1.00  0.00    -0.371 A  
HETATM   41  C   UNL     1     -11.298  10.195  70.787  1.00  0.00    -0.436 A  
ENDBRANCH  34  36
ENDBRANCH  28  30
ENDBRANCH  25  28
ENDBRANCH  20  21
ENDBRANCH   9  17
ENDBRANCH   4   7
TORSDOF 6
ENDMDL
MODEL       18
REMARK 921   NORMALIZED FREE ENERGY PREDICTED BY IDOCK:   -8.37 KCAL/MOL
REMARK 922        TOTAL FREE ENERGY PREDICTED BY IDOCK:  -11.92 KCAL/MOL
REMARK 923 INTER-LIGAND FREE ENERGY PREDICTED BY IDOCK:  -10.97 KCAL/MOL
REMARK 924 INTRA-LIGAND FREE ENERGY PREDICTED BY IDOCK:   -0.95 KCAL/MOL
REMARK 927      BINDING AFFINITY PREDICTED BY RF-SCORE:    0.00 PKD
ROOT
HETATM    1  C   UNL     1     -10.490   1.855  74.394  1.00  0.00    -0.183 C  
HETATM    2  C   UNL     1     -10.562   3.178  73.743  1.00  0.00    -0.185 A  
HETATM    3  C   UNL     1     -10.473   3.504  72.405  1.00  0.00    -0.029 A  
HETATM    4  N   UNL     1     -10.614   4.871  72.325  1.00  0.00    -0.207 NA 
HETATM    5  N   UNL     1     -10.753   4.304  74.492  1.00  0.00    -0.265 NA 
HETATM    6  C   UNL     1     -10.783   5.293  73.629  1.00  0.00    -0.294 A  
ENDROOT
BRANCH   4   7
HETATM    7  C   UNL     1     -10.594   5.676  71.150  1.00  0.00    -0.245 A  
HETATM    8  C   UNL     1     -10.956   7.026  71.228  1.00  0.00    -0.270 A  
HETATM    9  C   UNL     1     -10.971   7.845  70.095  1.00  0.00    -0.233 A  
HETATM   10  F   UNL     1      -9.841   6.275  66.402  1.00  0.00    -0.190 F  
HETATM   11  C   UNL     1     -10.557   7.322  68.871  1.00  0.00    -0.207 A  
HETATM   12  F   UNL     1      -8.569   4.840  67.428  1.00  0.00    -0.105 F  
HETATM   13  F   UNL     1     -10.657   4.366  67.049  1.00  0.00    -0.149 F  
HETATM   14  C   UNL     1     -10.200   5.967  68.759  1.00  0.00    -0.243 A  
HETATM   15  C   UNL     1      -9.821   5.374  67.424  1.00  0.00    -0.154 C  
HETATM   16  C   UNL     1     -10.226   5.150  69.906  1.00  0.00    -0.361 A  
BRANCH   9  17
HETATM   17  N   UNL     1     -11.370   9.196  70.149  1.00  0.00    -0.400 N  
HETATM   18  O   UNL     1     -13.282   9.018  71.474  1.00  0.00    -0.334 OA 
HETATM   19  H   UNL     1     -10.823   9.868  69.610  1.00  0.00     0.000 HD 
HETATM   20  C   UNL     1     -12.446   9.686  70.875  1.00  0.00    -0.238 C  
BRANCH  20  21
HETATM   21  C   UNL     1     -12.540  11.162  70.955  1.00  0.00    -0.503 A  
HETATM   22  C   UNL     1     -13.041  11.829  72.070  1.00  0.00    -0.436 A  
HETATM   23  C   UNL     1     -13.177  13.216  72.024  1.00  0.00    -0.543 A  
HETATM   24  C   UNL     1     -12.830  13.941  70.867  1.00  0.00    -0.370 A  
HETATM   25  C   UNL     1     -12.304  13.269  69.742  1.00  0.00    -0.128 A  
HETATM   26  C   UNL     1     -13.017  15.434  70.863  1.00  0.00    -0.539 C  
HETATM   27  C   UNL     1     -12.136  11.882  69.826  1.00  0.00    -0.321 A  
BRANCH  25  28
HETATM   28  N   UNL     1     -11.903  13.974  68.601  1.00  0.00    -0.346 NA 
HETATM   29  H   UNL     1     -12.616  14.052  67.876  1.00  0.00     0.000 HD 
BRANCH  28  30
HETATM   30  C   UNL     1     -10.692  14.586  68.289  1.00  0.00    -0.240 A  
HETATM   31  N   UNL     1      -9.654  13.770  68.058  1.00  0.00    -0.208 NA 
HETATM   32  C   UNL     1      -8.507  14.348  67.653  1.00  0.00    -0.185 A  
HETATM   33  C   UNL     1      -8.369  15.697  67.431  1.00  0.00    -0.198 A  
HETATM   34  C   UNL     1      -9.481  16.468  67.692  1.00  0.00    -0.225 A  
HETATM   35  N   UNL     1     -10.626  15.915  68.143  1.00  0.00    -0.270 NA 
BRANCH  34  36
HETATM   36  C   UNL     1      -9.538  17.920  67.479  1.00  0.00    -0.269 A  
HETATM   37  C   UNL     1      -8.495  18.774  67.842  1.00  0.00    -0.292 A  
HETATM   38  N   UNL     1      -8.478  20.116  67.642  1.00  0.00    -0.319 NA 
HETATM   39  C   UNL     1      -9.558  20.648  67.032  1.00  0.00    -0.344 A  
HETATM   40  C   UNL     1     -10.650  19.904  66.621  1.00  0.00    -0.540 A  
HETATM   41  C   UNL     1     -10.633  18.529  66.847  1.00  0.00    -0.406 A  
ENDBRANCH  34  36
ENDBRANCH  28  30
ENDBRANCH  25  28
ENDBRANCH  20  21
ENDBRANCH   9  17
ENDBRANCH   4   7
TORSDOF 6
ENDMDL
MODEL       19
REMARK 921   NORMALIZED FREE ENERGY PREDICTED BY IDOCK:   -8.37 KCAL/MOL
REMARK 922        TOTAL FREE ENERGY PREDICTED BY IDOCK:  -11.92 KCAL/MOL
REMARK 923 INTER-LIGAND FREE ENERGY PREDICTED BY IDOCK:  -10.53 KCAL/MOL
REMARK 924 INTRA-LIGAND FREE ENERGY PREDICTED BY IDOCK:   -1.39 KCAL/MOL
REMARK 927      BINDING AFFINITY PREDICTED BY RF-SCORE:    0.00 PKD
ROOT
HETATM    1  C   UNL     1     -10.192  19.610  66.149  1.00  0.00    -0.604 C  
HETATM    2  C   UNL     1     -10.350  18.254  66.712  1.00  0.00    -0.384 A  
HETATM    3  C   UNL     1     -10.389  17.034  66.067  1.00  0.00    -0.315 A  
HETATM    4  N   UNL     1     -10.541  16.078  67.046  1.00  0.00    -0.312 NA 
HETATM    5  N   UNL     1     -10.474  18.080  68.061  1.00  0.00    -0.384 NA 
HETATM    6  C   UNL     1     -10.583  16.782  68.233  1.00  0.00    -0.352 A  
ENDROOT
BRANCH   4   7
HETATM    7  C   UNL     1     -10.630  14.668  66.871  1.00  0.00    -0.281 A  
HETATM    8  C   UNL     1     -10.621  13.828  67.992  1.00  0.00    -0.258 A  
HETATM    9  C   UNL     1     -10.685  12.438  67.863  1.00  0.00    -0.220 A  
HETATM   10  F   UNL     1     -10.989  10.730  64.072  1.00  0.00    -0.396 F  
HETATM   11  C   UNL     1     -10.823  11.876  66.595  1.00  0.00    -0.315 A  
HETATM   12  F   UNL     1     -11.974  12.535  63.364  1.00  0.00    -0.485 F  
HETATM   13  F   UNL     1      -9.805  12.388  63.313  1.00  0.00    -0.373 F  
HETATM   14  C   UNL     1     -10.822  12.693  65.450  1.00  0.00    -0.318 A  
HETATM   15  C   UNL     1     -10.898  12.090  64.069  1.00  0.00    -0.378 C  
HETATM   16  C   UNL     1     -10.722  14.090  65.599  1.00  0.00    -0.306 A  
BRANCH   9  17
HETATM   17  N   UNL     1     -10.638  11.576  68.978  1.00  0.00    -0.307 N  
HETATM   18  O   UNL     1     -12.905  11.080  69.224  1.00  0.00    -0.173 OA 
HETATM   19  H   UNL     1      -9.728  11.423  69.414  1.00  0.00     0.000 HD 
HETATM   20  C   UNL     1     -11.728  10.920  69.531  1.00  0.00    -0.328 C  
BRANCH  20  21
HETATM   21  C   UNL     1     -11.404   9.901  70.556  1.00  0.00    -0.399 A  
HETATM   22  C   UNL     1     -12.366   9.326  71.382  1.00  0.00    -0.421 A  
HETATM   23  C   UNL     1     -11.960   8.440  72.380  1.00  0.00    -0.451 A  
HETATM   24  C   UNL     1     -10.597   8.137  72.569  1.00  0.00    -0.411 A  
HETATM   25  C   UNL     1      -9.622   8.704  71.721  1.00  0.00    -0.290 A  
HETATM   26  C   UNL     1     -10.212   7.191  73.675  1.00  0.00    -0.402 C  
HETATM   27  C   UNL     1     -10.056   9.556  70.699  1.00  0.00    -0.353 A  
BRANCH  25  28
HETATM   28  N   UNL     1      -8.267   8.376  71.855  1.00  0.00    -0.148 NA 
HETATM   29  H   UNL     1      -7.775   8.893  72.583  1.00  0.00     0.000 HD 
BRANCH  28  30
HETATM   30  C   UNL     1      -7.480   7.460  71.161  1.00  0.00    -0.077 A  
HETATM   31  N   UNL     1      -6.205   7.349  71.558  1.00  0.00    -0.036 NA 
HETATM   32  C   UNL     1      -5.466   6.394  70.965  1.00  0.00    -0.022 A  
HETATM   33  C   UNL     1      -5.959   5.521  70.025  1.00  0.00    -0.021 A  
HETATM   34  C   UNL     1      -7.279   5.701  69.670  1.00  0.00    -0.065 A  
HETATM   35  N   UNL     1      -8.025   6.682  70.218  1.00  0.00    -0.113 NA 
BRANCH  34  36
HETATM   36  C   UNL     1      -7.992   4.845  68.712  1.00  0.00    -0.080 A  
HETATM   37  C   UNL     1      -7.885   5.011  67.330  1.00  0.00    -0.095 A  
HETATM   38  N   UNL     1      -8.493   4.234  66.400  1.00  0.00    -0.112 NA 
HETATM   39  C   UNL     1      -9.249   3.217  66.865  1.00  0.00    -0.174 A  
HETATM   40  C   UNL     1      -9.426   2.947  68.210  1.00  0.00    -0.217 A  
HETATM   41  C   UNL     1      -8.788   3.769  69.136  1.00  0.00    -0.152 A  
ENDBRANCH  34  36
ENDBRANCH  28  30
ENDBRANCH  25  28
ENDBRANCH  20  21
ENDBRANCH   9  17
ENDBRANCH   4   7
TORSDOF 6
ENDMDL
MODEL       20
REMARK 921   NORMALIZED FREE ENERGY PREDICTED BY IDOCK:   -8.29 KCAL/MOL
REMARK 922        TOTAL FREE ENERGY PREDICTED BY IDOCK:  -11.81 KCAL/MOL
REMARK 923 INTER-LIGAND FREE ENERGY PREDICTED BY IDOCK:  -10.08 KCAL/MOL
REMARK 924 INTRA-LIGAND FREE ENERGY PREDICTED BY IDOCK:   -1.74 KCAL/MOL
REMARK 927      BINDING AFFINITY PREDICTED BY RF-SCORE:    0.00 PKD
ROOT
HETATM    1  C   UNL     1      -9.941  19.655  66.658  1.00  0.00    -0.532 C  
HETATM    2  C   UNL     1     -10.282  18.303  67.145  1.00  0.00    -0.373 A  
HETATM    3  C   UNL     1     -10.270  17.098  66.473  1.00  0.00    -0.322 A  
HETATM    4  N   UNL     1     -10.660  16.139  67.380  1.00  0.00    -0.311 NA 
HETATM    5  N   UNL     1     -10.670  18.117  68.442  1.00  0.00    -0.193 NA 
HETATM    6  C   UNL     1     -10.885  16.827  68.557  1.00  0.00    -0.345 A  
ENDROOT
BRANCH   4   7
HETATM    7  C   UNL     1     -10.797  14.740  67.155  1.00  0.00    -0.311 A  
HETATM    8  C   UNL     1     -10.741  13.854  68.238  1.00  0.00    -0.261 A  
HETATM    9  C   UNL     1     -10.851  12.472  68.058  1.00  0.00    -0.225 A  
HETATM   10  F   UNL     1     -11.431  10.932  64.228  1.00  0.00    -0.180 F  
HETATM   11  C   UNL     1     -11.081  11.968  66.779  1.00  0.00    -0.353 A  
HETATM   12  F   UNL     1     -12.410  12.788  63.656  1.00  0.00    -0.478 F  
HETATM   13  F   UNL     1     -10.253  12.591  63.464  1.00  0.00    -0.405 F  
HETATM   14  C   UNL     1     -11.129  12.831  65.671  1.00  0.00    -0.311 A  
HETATM   15  C   UNL     1     -11.305  12.288  64.273  1.00  0.00    -0.352 C  
HETATM   16  C   UNL     1     -10.982  14.218  65.869  1.00  0.00    -0.304 A  
BRANCH   9  17
HETATM   17  N   UNL     1     -10.757  11.564  69.133  1.00  0.00    -0.336 N  
HETATM   18  O   UNL     1     -13.020  11.202  69.575  1.00  0.00    -0.031 OA 
HETATM   19  H   UNL     1      -9.824  11.336  69.474  1.00  0.00     0.000 HD 
HETATM   20  C   UNL     1     -11.833  10.956  69.763  1.00  0.00    -0.345 C  
BRANCH  20  21
HETATM   21  C   UNL     1     -11.484   9.877  70.716  1.00  0.00    -0.433 A  
HETATM   22  C   UNL     1     -12.425   9.253  71.531  1.00  0.00    -0.435 A  
HETATM   23  C   UNL     1     -11.995   8.309  72.462  1.00  0.00    -0.420 A  
HETATM   24  C   UNL     1     -10.628   7.994  72.597  1.00  0.00    -0.419 A  
HETATM   25  C   UNL     1      -9.674   8.611  71.759  1.00  0.00    -0.291 A  
HETATM   26  C   UNL     1     -10.216   6.984  73.634  1.00  0.00    -0.396 C  
HETATM   27  C   UNL     1     -10.134   9.523  70.802  1.00  0.00    -0.352 A  
BRANCH  25  28
HETATM   28  N   UNL     1      -8.317   8.275  71.839  1.00  0.00    -0.143 NA 
HETATM   29  H   UNL     1      -8.106   7.507  72.475  1.00  0.00     0.000 HD 
BRANCH  28  30
HETATM   30  C   UNL     1      -7.208   8.815  71.193  1.00  0.00    -0.093 A  
HETATM   31  N   UNL     1      -6.293   7.942  70.750  1.00  0.00    -0.037 NA 
HETATM   32  C   UNL     1      -5.271   8.445  70.034  1.00  0.00    -0.022 A  
HETATM   33  C   UNL     1      -5.149   9.775  69.708  1.00  0.00    -0.034 A  
HETATM   34  C   UNL     1      -6.129  10.608  70.202  1.00  0.00    -0.110 A  
HETATM   35  N   UNL     1      -7.137  10.132  70.961  1.00  0.00    -0.189 NA 
BRANCH  34  36
HETATM   36  C   UNL     1      -6.190  12.051  69.929  1.00  0.00    -0.130 A  
HETATM   37  C   UNL     1      -5.515  12.992  70.708  1.00  0.00    -0.179 A  
HETATM   38  N   UNL     1      -5.509  14.330  70.487  1.00  0.00    -0.117 NA 
HETATM   39  C   UNL     1      -6.207  14.767  69.418  1.00  0.00    -0.114 A  
HETATM   40  C   UNL     1      -6.910  13.932  68.569  1.00  0.00    -0.098 A  
HETATM   41  C   UNL     1      -6.897  12.563  68.830  1.00  0.00    -0.098 A  
ENDBRANCH  34  36
ENDBRANCH  28  30
ENDBRANCH  25  28
ENDBRANCH  20  21
ENDBRANCH   9  17
ENDBRANCH   4   7
TORSDOF 6
ENDMDL
MODEL       21
REMARK 921   NORMALIZED FREE ENERGY PREDICTED BY IDOCK:   -8.17 KCAL/MOL
REMARK 922        TOTAL FREE ENERGY PREDICTED BY IDOCK:  -11.65 KCAL/MOL
REMARK 923 INTER-LIGAND FREE ENERGY PREDICTED BY IDOCK:  -10.52 KCAL/MOL
REMARK 924 INTRA-LIGAND FREE ENERGY PREDICTED BY IDOCK:   -1.13 KCAL/MOL
REMARK 927      BINDING AFFINITY PREDICTED BY RF-SCORE:    0.00 PKD
ROOT
HETATM    1  C   UNL     1     -12.559  16.005  74.492  1.00  0.00    -0.588 C  
HETATM    2  C   UNL     1     -12.375  15.594  73.086  1.00  0.00    -0.475 A  
HETATM    3  C   UNL     1     -11.662  16.209  72.077  1.00  0.00    -0.485 A  
HETATM    4  N   UNL     1     -11.799  15.415  70.960  1.00  0.00    -0.323 NA 
HETATM    5  N   UNL     1     -12.949  14.443  72.625  1.00  0.00    -0.433 NA 
HETATM    6  C   UNL     1     -12.591  14.358  71.364  1.00  0.00    -0.354 A  
ENDROOT
BRANCH   4   7
HETATM    7  C   UNL     1     -11.240  15.634  69.669  1.00  0.00    -0.310 A  
HETATM    8  C   UNL     1     -10.940  14.540  68.848  1.00  0.00    -0.268 A  
HETATM    9  C   UNL     1     -10.372  14.711  67.583  1.00  0.00    -0.233 A  
HETATM   10  F   UNL     1      -9.612  18.558  66.165  1.00  0.00    -0.313 F  
HETATM   11  C   UNL     1     -10.154  16.001  67.101  1.00  0.00    -0.270 A  
HETATM   12  F   UNL     1     -11.242  19.307  67.395  1.00  0.00    -0.553 F  
HETATM   13  F   UNL     1      -9.235  19.159  68.220  1.00  0.00    -0.316 F  
HETATM   14  C   UNL     1     -10.433  17.118  67.907  1.00  0.00    -0.369 A  
HETATM   15  C   UNL     1     -10.134  18.517  67.424  1.00  0.00    -0.352 C  
HETATM   16  C   UNL     1     -10.974  16.924  69.193  1.00  0.00    -0.151 A  
BRANCH   9  17
HETATM   17  N   UNL     1     -10.027  13.619  66.759  1.00  0.00    -0.263 N  
HETATM   18  O   UNL     1     -12.147  12.921  66.077  1.00  0.00    -0.424 OA 
HETATM   19  H   UNL     1      -9.040  13.373  66.697  1.00  0.00     0.000 HD 
HETATM   20  C   UNL     1     -10.923  12.854  66.027  1.00  0.00    -0.276 C  
BRANCH  20  21
HETATM   21  C   UNL     1     -10.313  11.904  65.068  1.00  0.00    -0.330 A  
HETATM   22  C   UNL     1     -10.373  12.078  63.689  1.00  0.00    -0.482 A  
HETATM   23  C   UNL     1      -9.848  11.089  62.858  1.00  0.00    -0.319 A  
HETATM   24  C   UNL     1      -9.277   9.918  63.395  1.00  0.00    -0.278 A  
HETATM   25  C   UNL     1      -9.198   9.748  64.794  1.00  0.00    -0.261 A  
HETATM   26  C   UNL     1      -8.746   8.872  62.453  1.00  0.00    -0.182 C  
HETATM   27  C   UNL     1      -9.691  10.773  65.609  1.00  0.00    -0.287 A  
BRANCH  25  28
HETATM   28  N   UNL     1      -8.587   8.618  65.352  1.00  0.00    -0.174 NA 
HETATM   29  H   UNL     1      -7.568   8.625  65.318  1.00  0.00     0.000 HD 
BRANCH  28  30
HETATM   30  C   UNL     1      -9.139   7.485  65.945  1.00  0.00    -0.039 A  
HETATM   31  N   UNL     1      -9.890   7.690  67.036  1.00  0.00    -0.194 NA 
HETATM   32  C   UNL     1     -10.513   6.615  67.553  1.00  0.00    -0.239 A  
HETATM   33  C   UNL     1     -10.450   5.357  67.003  1.00  0.00    -0.319 A  
HETATM   34  C   UNL     1      -9.656   5.229  65.883  1.00  0.00    -0.125 A  
HETATM   35  N   UNL     1      -8.986   6.283  65.375  1.00  0.00     0.013 NA 
BRANCH  34  36
HETATM   36  C   UNL     1      -9.494   3.975  65.135  1.00  0.00    -0.172 A  
HETATM   37  C   UNL     1      -8.290   3.270  65.102  1.00  0.00    -0.095 A  
HETATM   38  N   UNL     1      -8.090   2.094  64.455  1.00  0.00    -0.074 NA 
HETATM   39  C   UNL     1      -9.154   1.574  63.808  1.00  0.00    -0.094 A  
HETATM   40  C   UNL     1     -10.399   2.176  63.774  1.00  0.00    -0.081 A  
HETATM   41  C   UNL     1     -10.565   3.385  64.446  1.00  0.00    -0.030 A  
ENDBRANCH  34  36
ENDBRANCH  28  30
ENDBRANCH  25  28
ENDBRANCH  20  21
ENDBRANCH   9  17
ENDBRANCH   4   7
TORSDOF 6
ENDMDL
MODEL       22
REMARK 921   NORMALIZED FREE ENERGY PREDICTED BY IDOCK:   -8.14 KCAL/MOL
REMARK 922        TOTAL FREE ENERGY PREDICTED BY IDOCK:  -11.60 KCAL/MOL
REMARK 923 INTER-LIGAND FREE ENERGY PREDICTED BY IDOCK:  -10.49 KCAL/MOL
REMARK 924 INTRA-LIGAND FREE ENERGY PREDICTED BY IDOCK:   -1.11 KCAL/MOL
REMARK 927      BINDING AFFINITY PREDICTED BY RF-SCORE:    0.00 PKD
ROOT
HETATM    1  C   UNL     1     -12.641  15.794  74.447  1.00  0.00    -0.693 C  
HETATM    2  C   UNL     1     -12.460  15.411  73.033  1.00  0.00    -0.431 A  
HETATM    3  C   UNL     1     -11.712  16.021  72.046  1.00  0.00    -0.493 A  
HETATM    4  N   UNL     1     -11.870  15.262  70.909  1.00  0.00    -0.309 NA 
HETATM    5  N   UNL     1     -13.076  14.296  72.538  1.00  0.00    -0.437 NA 
HETATM    6  C   UNL     1     -12.709  14.228  71.279  1.00  0.00    -0.357 A  
ENDROOT
BRANCH   4   7
HETATM    7  C   UNL     1     -11.290  15.490  69.629  1.00  0.00    -0.315 A  
HETATM    8  C   UNL     1     -10.978  14.402  68.804  1.00  0.00    -0.264 A  
HETATM    9  C   UNL     1     -10.389  14.582  67.550  1.00  0.00    -0.244 A  
HETATM   10  F   UNL     1      -9.601  18.439  66.175  1.00  0.00    -0.310 F  
HETATM   11  C   UNL     1     -10.162  15.875  67.082  1.00  0.00    -0.278 A  
HETATM   12  F   UNL     1     -11.249  19.180  67.384  1.00  0.00    -0.535 F  
HETATM   13  F   UNL     1      -9.257  19.023  68.241  1.00  0.00    -0.312 F  
HETATM   14  C   UNL     1     -10.453  16.987  67.892  1.00  0.00    -0.354 A  
HETATM   15  C   UNL     1     -10.143  18.388  67.425  1.00  0.00    -0.353 C  
HETATM   16  C   UNL     1     -11.014  16.783  69.168  1.00  0.00    -0.223 A  
BRANCH   9  17
HETATM   17  N   UNL     1     -10.033  13.496  66.724  1.00  0.00    -0.262 N  
HETATM   18  O   UNL     1     -12.125  12.908  65.875  1.00  0.00    -0.425 OA 
HETATM   19  H   UNL     1      -9.054  13.208  66.724  1.00  0.00     0.000 HD 
HETATM   20  C   UNL     1     -10.905  12.788  65.910  1.00  0.00    -0.269 C  
BRANCH  20  21
HETATM   21  C   UNL     1     -10.268  11.836  64.971  1.00  0.00    -0.314 A  
HETATM   22  C   UNL     1     -10.159  12.079  63.604  1.00  0.00    -0.439 A  
HETATM   23  C   UNL     1      -9.625  11.088  62.781  1.00  0.00    -0.337 A  
HETATM   24  C   UNL     1      -9.211   9.850  63.312  1.00  0.00    -0.274 A  
HETATM   25  C   UNL     1      -9.303   9.609  64.699  1.00  0.00    -0.207 A  
HETATM   26  C   UNL     1      -8.662   8.807  62.375  1.00  0.00    -0.150 C  
HETATM   27  C   UNL     1      -9.802  10.633  65.512  1.00  0.00    -0.316 A  
BRANCH  25  28
HETATM   28  N   UNL     1      -8.849   8.407  65.256  1.00  0.00    -0.369 NA 
HETATM   29  H   UNL     1      -9.091   7.572  64.722  1.00  0.00     0.000 HD 
BRANCH  28  30
HETATM   30  C   UNL     1      -8.122   8.160  66.418  1.00  0.00    -0.106 A  
HETATM   31  N   UNL     1      -7.168   9.050  66.724  1.00  0.00    -0.085 NA 
HETATM   32  C   UNL     1      -6.533   8.877  67.898  1.00  0.00    -0.057 A  
HETATM   33  C   UNL     1      -6.838   7.880  68.793  1.00  0.00    -0.062 A  
HETATM   34  C   UNL     1      -7.830   7.005  68.404  1.00  0.00    -0.122 A  
HETATM   35  N   UNL     1      -8.448   7.132  67.211  1.00  0.00    -0.121 NA 
BRANCH  34  36
HETATM   36  C   UNL     1      -8.320   5.901  69.239  1.00  0.00    -0.113 A  
HETATM   37  C   UNL     1      -9.648   5.470  69.212  1.00  0.00    -0.136 A  
HETATM   38  N   UNL     1     -10.150   4.439  69.937  1.00  0.00    -0.164 NA 
HETATM   39  C   UNL     1      -9.280   3.781  70.732  1.00  0.00    -0.131 A  
HETATM   40  C   UNL     1      -7.941   4.110  70.839  1.00  0.00    -0.063 A  
HETATM   41  C   UNL     1      -7.462   5.178  70.083  1.00  0.00    -0.063 A  
ENDBRANCH  34  36
ENDBRANCH  28  30
ENDBRANCH  25  28
ENDBRANCH  20  21
ENDBRANCH   9  17
ENDBRANCH   4   7
TORSDOF 6
ENDMDL
MODEL       23
REMARK 921   NORMALIZED FREE ENERGY PREDICTED BY IDOCK:   -8.13 KCAL/MOL
REMARK 922        TOTAL FREE ENERGY PREDICTED BY IDOCK:  -11.60 KCAL/MOL
REMARK 923 INTER-LIGAND FREE ENERGY PREDICTED BY IDOCK:  -10.16 KCAL/MOL
REMARK 924 INTRA-LIGAND FREE ENERGY PREDICTED BY IDOCK:   -1.44 KCAL/MOL
REMARK 927      BINDING AFFINITY PREDICTED BY RF-SCORE:    0.00 PKD
ROOT
HETATM    1  C   UNL     1      -9.622   5.025  70.851  1.00  0.00    -0.242 C  
HETATM    2  C   UNL     1      -9.713   5.636  69.510  1.00  0.00    -0.154 A  
HETATM    3  C   UNL     1      -9.242   6.855  69.067  1.00  0.00    -0.137 A  
HETATM    4  N   UNL     1      -9.575   6.942  67.734  1.00  0.00    -0.122 NA 
HETATM    5  N   UNL     1     -10.329   4.968  68.491  1.00  0.00    -0.081 NA 
HETATM    6  C   UNL     1     -10.232   5.761  67.448  1.00  0.00    -0.200 A  
ENDROOT
BRANCH   4   7
HETATM    7  C   UNL     1      -9.298   8.017  66.841  1.00  0.00    -0.164 A  
HETATM    8  C   UNL     1      -9.613   9.329  67.217  1.00  0.00    -0.200 A  
HETATM    9  C   UNL     1      -9.377  10.409  66.362  1.00  0.00    -0.164 A  
HETATM   10  F   UNL     1      -7.629   9.747  62.635  1.00  0.00    -0.112 F  
HETATM   11  C   UNL     1      -8.759  10.184  65.133  1.00  0.00    -0.189 A  
HETATM   12  F   UNL     1      -6.636   7.987  63.440  1.00  0.00    -0.071 F  
HETATM   13  F   UNL     1      -8.631   7.818  62.592  1.00  0.00    -0.112 F  
HETATM   14  C   UNL     1      -8.444   8.876  64.723  1.00  0.00    -0.193 A  
HETATM   15  C   UNL     1      -7.841   8.615  63.364  1.00  0.00    -0.151 C  
HETATM   16  C   UNL     1      -8.721   7.797  65.585  1.00  0.00    -0.132 A  
BRANCH   9  17
HETATM   17  N   UNL     1      -9.723  11.732  66.708  1.00  0.00    -0.194 N  
HETATM   18  O   UNL     1      -7.711  12.464  67.636  1.00  0.00    -0.128 OA 
HETATM   19  H   UNL     1     -10.686  12.022  66.543  1.00  0.00     0.000 HD 
HETATM   20  C   UNL     1      -8.858  12.669  67.255  1.00  0.00    -0.196 C  
BRANCH  20  21
HETATM   21  C   UNL     1      -9.385  14.051  67.331  1.00  0.00    -0.220 A  
HETATM   22  C   UNL     1      -8.788  15.125  66.676  1.00  0.00    -0.321 A  
HETATM   23  C   UNL     1      -9.299  16.408  66.875  1.00  0.00    -0.244 A  
HETATM   24  C   UNL     1     -10.393  16.627  67.735  1.00  0.00    -0.306 A  
HETATM   25  C   UNL     1     -11.012  15.537  68.385  1.00  0.00    -0.297 A  
HETATM   26  C   UNL     1     -10.891  18.034  67.931  1.00  0.00    -0.227 C  
HETATM   27  C   UNL     1     -10.510  14.255  68.137  1.00  0.00    -0.246 A  
BRANCH  25  28
HETATM   28  N   UNL     1     -12.134  15.724  69.202  1.00  0.00    -0.543 NA 
HETATM   29  H   UNL     1     -12.707  16.532  68.959  1.00  0.00     0.000 HD 
BRANCH  28  30
HETATM   30  C   UNL     1     -12.596  14.993  70.293  1.00  0.00    -0.317 A  
HETATM   31  N   UNL     1     -13.386  15.645  71.157  1.00  0.00    -0.565 NA 
HETATM   32  C   UNL     1     -13.923  14.920  72.155  1.00  0.00    -0.496 A  
HETATM   33  C   UNL     1     -13.737  13.566  72.300  1.00  0.00    -0.700 A  
HETATM   34  C   UNL     1     -12.912  12.968  71.372  1.00  0.00    -0.283 A  
HETATM   35  N   UNL     1     -12.326  13.685  70.391  1.00  0.00    -0.351 NA 
BRANCH  34  36
HETATM   36  C   UNL     1     -12.624  11.528  71.341  1.00  0.00    -0.419 A  
HETATM   37  C   UNL     1     -13.302  10.609  72.143  1.00  0.00    -0.230 A  
HETATM   38  N   UNL     1     -13.102   9.267  72.135  1.00  0.00    -0.418 NA 
HETATM   39  C   UNL     1     -12.179   8.801  71.268  1.00  0.00    -0.287 A  
HETATM   40  C   UNL     1     -11.448   9.611  70.418  1.00  0.00    -0.325 A  
HETATM   41  C   UNL     1     -11.678  10.985  70.458  1.00  0.00    -0.416 A  
ENDBRANCH  34  36
ENDBRANCH  28  30
ENDBRANCH  25  28
ENDBRANCH  20  21
ENDBRANCH   9  17
ENDBRANCH   4   7
TORSDOF 6
ENDMDL
MODEL       24
REMARK 921   NORMALIZED FREE ENERGY PREDICTED BY IDOCK:   -8.08 KCAL/MOL
REMARK 922        TOTAL FREE ENERGY PREDICTED BY IDOCK:  -11.53 KCAL/MOL
REMARK 923 INTER-LIGAND FREE ENERGY PREDICTED BY IDOCK:   -9.96 KCAL/MOL
REMARK 924 INTRA-LIGAND FREE ENERGY PREDICTED BY IDOCK:   -1.57 KCAL/MOL
REMARK 927      BINDING AFFINITY PREDICTED BY RF-SCORE:    0.00 PKD
ROOT
HETATM    1  C   UNL     1      -9.401   2.189  70.216  1.00  0.00    -0.182 C  
HETATM    2  C   UNL     1      -9.659   3.511  70.820  1.00  0.00    -0.176 A  
HETATM    3  C   UNL     1      -9.971   4.709  70.211  1.00  0.00    -0.239 A  
HETATM    4  N   UNL     1     -10.125   5.633  71.220  1.00  0.00    -0.198 NA 
HETATM    5  N   UNL     1      -9.615   3.667  72.176  1.00  0.00    -0.137 NA 
HETATM    6  C   UNL     1      -9.896   4.932  72.388  1.00  0.00    -0.161 A  
ENDROOT
BRANCH   4   7
HETATM    7  C   UNL     1     -10.453   7.012  71.088  1.00  0.00    -0.211 A  
HETATM    8  C   UNL     1      -9.504   7.904  70.573  1.00  0.00    -0.162 A  
HETATM    9  C   UNL     1      -9.778   9.269  70.446  1.00  0.00    -0.244 A  
HETATM   10  F   UNL     1     -13.525  10.730  71.549  1.00  0.00    -0.405 F  
HETATM   11  C   UNL     1     -11.045   9.744  70.783  1.00  0.00    -0.415 A  
HETATM   12  F   UNL     1     -14.390   8.789  71.091  1.00  0.00    -0.434 F  
HETATM   13  F   UNL     1     -13.594   9.185  73.076  1.00  0.00    -0.454 F  
HETATM   14  C   UNL     1     -12.013   8.875  71.315  1.00  0.00    -0.365 A  
HETATM   15  C   UNL     1     -13.363   9.392  71.750  1.00  0.00    -0.415 C  
HETATM   16  C   UNL     1     -11.706   7.509  71.467  1.00  0.00    -0.309 A  
BRANCH   9  17
HETATM   17  N   UNL     1      -8.822  10.187  69.966  1.00  0.00    -0.372 N  
HETATM   18  O   UNL     1      -8.442   9.323  67.832  1.00  0.00    -0.116 OA 
HETATM   19  H   UNL     1      -8.505  10.913  70.609  1.00  0.00     0.000 HD 
HETATM   20  C   UNL     1      -8.277  10.184  68.690  1.00  0.00    -0.111 C  
BRANCH  20  21
HETATM   21  C   UNL     1      -7.461  11.370  68.344  1.00  0.00    -0.111 A  
HETATM   22  C   UNL     1      -6.160  11.278  67.856  1.00  0.00    -0.050 A  
HETATM   23  C   UNL     1      -5.432  12.448  67.641  1.00  0.00    -0.114 A  
HETATM   24  C   UNL     1      -5.990  13.711  67.925  1.00  0.00    -0.147 A  
HETATM   25  C   UNL     1      -7.315  13.808  68.402  1.00  0.00    -0.117 A  
HETATM   26  C   UNL     1      -5.153  14.940  67.695  1.00  0.00     0.069 C  
HETATM   27  C   UNL     1      -8.041  12.623  68.569  1.00  0.00    -0.082 A  
BRANCH  25  28
HETATM   28  N   UNL     1      -7.908  15.054  68.640  1.00  0.00    -0.130 NA 
HETATM   29  H   UNL     1      -7.250  15.804  68.851  1.00  0.00     0.000 HD 
BRANCH  28  30
HETATM   30  C   UNL     1      -9.245  15.440  68.638  1.00  0.00    -0.199 A  
HETATM   31  N   UNL     1      -9.775  15.746  67.446  1.00  0.00    -0.222 NA 
HETATM   32  C   UNL     1     -11.093  16.018  67.420  1.00  0.00    -0.167 A  
HETATM   33  C   UNL     1     -11.908  15.954  68.525  1.00  0.00    -0.197 A  
HETATM   34  C   UNL     1     -11.287  15.633  69.713  1.00  0.00    -0.327 A  
HETATM   35  N   UNL     1      -9.960  15.403  69.770  1.00  0.00    -0.265 NA 
BRANCH  34  36
HETATM   36  C   UNL     1     -11.996  15.480  70.990  1.00  0.00    -0.428 A  
HETATM   37  C   UNL     1     -11.337  15.477  72.221  1.00  0.00    -0.304 A  
HETATM   38  N   UNL     1     -11.939  15.371  73.431  1.00  0.00    -0.460 NA 
HETATM   39  C   UNL     1     -13.285  15.273  73.427  1.00  0.00    -0.408 A  
HETATM   40  C   UNL     1     -14.050  15.271  72.274  1.00  0.00    -0.651 A  
HETATM   41  C   UNL     1     -13.395  15.377  71.049  1.00  0.00    -0.545 A  
ENDBRANCH  34  36
ENDBRANCH  28  30
ENDBRANCH  25  28
ENDBRANCH  20  21
ENDBRANCH   9  17
ENDBRANCH   4   7
TORSDOF 6
ENDMDL
MODEL       25
REMARK 921   NORMALIZED FREE ENERGY PREDICTED BY IDOCK:   -8.05 KCAL/MOL
REMARK 922        TOTAL FREE ENERGY PREDICTED BY IDOCK:  -11.49 KCAL/MOL
REMARK 923 INTER-LIGAND FREE ENERGY PREDICTED BY IDOCK:   -9.59 KCAL/MOL
REMARK 924 INTRA-LIGAND FREE ENERGY PREDICTED BY IDOCK:   -1.89 KCAL/MOL
REMARK 927      BINDING AFFINITY PREDICTED BY RF-SCORE:    0.00 PKD
ROOT
HETATM    1  C   UNL     1      -7.234  17.590  68.667  1.00  0.00    -0.246 C  
HETATM    2  C   UNL     1      -7.527  16.226  68.183  1.00  0.00    -0.144 A  
HETATM    3  C   UNL     1      -8.711  15.697  67.710  1.00  0.00    -0.170 A  
HETATM    4  N   UNL     1      -8.449  14.386  67.379  1.00  0.00    -0.191 NA 
HETATM    5  N   UNL     1      -6.541  15.280  68.155  1.00  0.00    -0.114 NA 
HETATM    6  C   UNL     1      -7.112  14.201  67.671  1.00  0.00    -0.183 A  
ENDROOT
BRANCH   4   7
HETATM    7  C   UNL     1      -9.360  13.431  66.845  1.00  0.00    -0.252 A  
HETATM    8  C   UNL     1      -9.136  12.065  67.058  1.00  0.00    -0.191 A  
HETATM    9  C   UNL     1      -9.993  11.094  66.533  1.00  0.00    -0.214 A  
HETATM   10  F   UNL     1     -13.342  12.266  64.343  1.00  0.00    -0.452 F  
HETATM   11  C   UNL     1     -11.130  11.495  65.833  1.00  0.00    -0.274 A  
HETATM   12  F   UNL     1     -13.392  14.130  65.463  1.00  0.00    -0.531 F  
HETATM   13  F   UNL     1     -12.196  13.980  63.652  1.00  0.00    -0.503 F  
HETATM   14  C   UNL     1     -11.374  12.858  65.592  1.00  0.00    -0.344 A  
HETATM   15  C   UNL     1     -12.563  13.299  64.773  1.00  0.00    -0.337 C  
HETATM   16  C   UNL     1     -10.480  13.820  66.100  1.00  0.00    -0.297 A  
BRANCH   9  17
HETATM   17  N   UNL     1      -9.762   9.714  66.705  1.00  0.00    -0.185 N  
HETATM   18  O   UNL     1      -8.087   9.367  65.118  1.00  0.00    -0.117 OA 
HETATM   19  H   UNL     1     -10.352   9.219  67.374  1.00  0.00     0.000 HD 
HETATM   20  C   UNL     1      -8.796   8.974  66.038  1.00  0.00    -0.175 C  
BRANCH  20  21
HETATM   21  C   UNL     1      -8.593   7.595  66.540  1.00  0.00    -0.142 A  
HETATM   22  C   UNL     1      -8.109   6.563  65.740  1.00  0.00    -0.128 A  
HETATM   23  C   UNL     1      -8.033   5.275  66.270  1.00  0.00    -0.104 A  
HETATM   24  C   UNL     1      -8.451   5.007  67.589  1.00  0.00    -0.104 A  
HETATM   25  C   UNL     1      -8.924   6.056  68.407  1.00  0.00    -0.114 A  
HETATM   26  C   UNL     1      -8.369   3.596  68.103  1.00  0.00    -0.095 C  
HETATM   27  C   UNL     1      -8.950   7.347  67.869  1.00  0.00    -0.131 A  
BRANCH  25  28
HETATM   28  N   UNL     1      -9.294   5.824  69.738  1.00  0.00    -0.145 NA 
HETATM   29  H   UNL     1      -8.680   5.188  70.245  1.00  0.00     0.000 HD 
BRANCH  28  30
HETATM   30  C   UNL     1     -10.362   6.317  70.483  1.00  0.00    -0.204 A  
HETATM   31  N   UNL     1     -10.884   5.487  71.397  1.00  0.00    -0.222 NA 
HETATM   32  C   UNL     1     -11.845   5.990  72.194  1.00  0.00    -0.247 A  
HETATM   33  C   UNL     1     -12.274   7.295  72.143  1.00  0.00    -0.260 A  
HETATM   34  C   UNL     1     -11.689   8.084  71.176  1.00  0.00    -0.284 A  
HETATM   35  N   UNL     1     -10.757   7.588  70.337  1.00  0.00    -0.234 NA 
BRANCH  34  36
HETATM   36  C   UNL     1     -11.988   9.510  70.994  1.00  0.00    -0.407 A  
HETATM   37  C   UNL     1     -12.720  10.250  71.924  1.00  0.00    -0.379 A  
HETATM   38  N   UNL     1     -13.001  11.573  71.825  1.00  0.00    -0.438 NA 
HETATM   39  C   UNL     1     -12.516  12.212  70.739  1.00  0.00    -0.271 A  
HETATM   40  C   UNL     1     -11.773  11.589  69.752  1.00  0.00    -0.426 A  
HETATM   41  C   UNL     1     -11.508  10.228  69.887  1.00  0.00    -0.340 A  
ENDBRANCH  34  36
ENDBRANCH  28  30
ENDBRANCH  25  28
ENDBRANCH  20  21
ENDBRANCH   9  17
ENDBRANCH   4   7
TORSDOF 6
ENDMDL
MODEL       26
REMARK 921   NORMALIZED FREE ENERGY PREDICTED BY IDOCK:   -8.04 KCAL/MOL
REMARK 922        TOTAL FREE ENERGY PREDICTED BY IDOCK:  -11.47 KCAL/MOL
REMARK 923 INTER-LIGAND FREE ENERGY PREDICTED BY IDOCK:  -10.37 KCAL/MOL
REMARK 924 INTRA-LIGAND FREE ENERGY PREDICTED BY IDOCK:   -1.10 KCAL/MOL
REMARK 927      BINDING AFFINITY PREDICTED BY RF-SCORE:    0.00 PKD
ROOT
HETATM    1  C   UNL     1      -9.860   2.799  63.880  1.00  0.00    -0.149 C  
HETATM    2  C   UNL     1      -9.803   3.495  65.181  1.00  0.00    -0.086 A  
HETATM    3  C   UNL     1     -10.176   4.783  65.505  1.00  0.00    -0.135 A  
HETATM    4  N   UNL     1      -9.931   4.935  66.852  1.00  0.00    -0.198 NA 
HETATM    5  N   UNL     1      -9.333   2.846  66.288  1.00  0.00    -0.093 NA 
HETATM    6  C   UNL     1      -9.423   3.719  67.265  1.00  0.00    -0.200 A  
ENDROOT
BRANCH   4   7
HETATM    7  C   UNL     1     -10.159   6.094  67.647  1.00  0.00    -0.155 A  
HETATM    8  C   UNL     1     -10.301   7.342  67.029  1.00  0.00    -0.384 A  
HETATM    9  C   UNL     1     -10.504   8.507  67.774  1.00  0.00    -0.223 A  
HETATM   10  F   UNL     1     -10.772   8.276  71.929  1.00  0.00    -0.267 F  
HETATM   11  C   UNL     1     -10.628   8.417  69.160  1.00  0.00    -0.177 A  
HETATM   12  F   UNL     1     -11.520   6.243  71.744  1.00  0.00    -0.293 F  
HETATM   13  F   UNL     1      -9.379   6.609  71.850  1.00  0.00    -0.148 F  
HETATM   14  C   UNL     1     -10.477   7.179  69.810  1.00  0.00    -0.238 A  
HETATM   15  C   UNL     1     -10.538   7.082  71.315  1.00  0.00    -0.218 C  
HETATM   16  C   UNL     1     -10.239   6.022  69.043  1.00  0.00    -0.245 A  
BRANCH   9  17
HETATM   17  N   UNL     1     -10.610   9.777  67.171  1.00  0.00    -0.248 N  
HETATM   18  O   UNL     1      -9.511   9.378  65.152  1.00  0.00    -0.259 OA 
HETATM   19  H   UNL     1     -11.048  10.520  67.717  1.00  0.00     0.000 HD 
HETATM   20  C   UNL     1     -10.167  10.099  65.896  1.00  0.00    -0.211 C  
BRANCH  20  21
HETATM   21  C   UNL     1     -10.581  11.430  65.396  1.00  0.00    -0.333 A  
HETATM   22  C   UNL     1     -11.268  11.608  64.198  1.00  0.00    -0.421 A  
HETATM   23  C   UNL     1     -11.541  12.903  63.760  1.00  0.00    -0.538 A  
HETATM   24  C   UNL     1     -11.118  14.024  64.502  1.00  0.00    -0.360 A  
HETATM   25  C   UNL     1     -10.438  13.845  65.726  1.00  0.00    -0.307 A  
HETATM   26  C   UNL     1     -11.418  15.400  63.972  1.00  0.00     0.162 C  
HETATM   27  C   UNL     1     -10.214  12.537  66.168  1.00  0.00    -0.269 A  
BRANCH  25  28
HETATM   28  N   UNL     1     -10.055  14.943  66.508  1.00  0.00    -0.262 NA 
HETATM   29  H   UNL     1      -9.437  15.605  66.038  1.00  0.00     0.000 HD 
BRANCH  28  30
HETATM   30  C   UNL     1     -10.377  15.282  67.819  1.00  0.00    -0.244 A  
HETATM   31  N   UNL     1     -10.170  16.558  68.173  1.00  0.00    -0.260 NA 
HETATM   32  C   UNL     1     -10.576  16.920  69.404  1.00  0.00    -0.292 A  
HETATM   33  C   UNL     1     -11.216  16.072  70.277  1.00  0.00    -0.397 A  
HETATM   34  C   UNL     1     -11.390  14.777  69.839  1.00  0.00    -0.271 A  
HETATM   35  N   UNL     1     -10.949  14.381  68.627  1.00  0.00    -0.241 NA 
BRANCH  34  36
HETATM   36  C   UNL     1     -12.084  13.739  70.613  1.00  0.00    -0.405 A  
HETATM   37  C   UNL     1     -12.865  14.032  71.732  1.00  0.00    -0.340 A  
HETATM   38  N   UNL     1     -13.552  13.121  72.467  1.00  0.00    -0.625 NA 
HETATM   39  C   UNL     1     -13.472  11.837  72.061  1.00  0.00    -0.214 A  
HETATM   40  C   UNL     1     -12.737  11.424  70.965  1.00  0.00    -0.447 A  
HETATM   41  C   UNL     1     -12.040  12.387  70.238  1.00  0.00    -0.377 A  
ENDBRANCH  34  36
ENDBRANCH  28  30
ENDBRANCH  25  28
ENDBRANCH  20  21
ENDBRANCH   9  17
ENDBRANCH   4   7
TORSDOF 6
ENDMDL
MODEL       27
REMARK 921   NORMALIZED FREE ENERGY PREDICTED BY IDOCK:   -7.98 KCAL/MOL
REMARK 922        TOTAL FREE ENERGY PREDICTED BY IDOCK:  -11.38 KCAL/MOL
REMARK 923 INTER-LIGAND FREE ENERGY PREDICTED BY IDOCK:   -9.84 KCAL/MOL
REMARK 924 INTRA-LIGAND FREE ENERGY PREDICTED BY IDOCK:   -1.54 KCAL/MOL
REMARK 927      BINDING AFFINITY PREDICTED BY RF-SCORE:    0.00 PKD
ROOT
HETATM    1  C   UNL     1     -13.282  15.678  73.076  1.00  0.00    -0.664 C  
HETATM    2  C   UNL     1     -12.694  15.080  71.860  1.00  0.00    -0.337 A  
HETATM    3  C   UNL     1     -11.835  15.638  70.935  1.00  0.00    -0.388 A  
HETATM    4  N   UNL     1     -11.578  14.660  70.000  1.00  0.00    -0.272 NA 
HETATM    5  N   UNL     1     -12.976  13.786  71.525  1.00  0.00    -0.349 NA 
HETATM    6  C   UNL     1     -12.301  13.560  70.421  1.00  0.00    -0.327 A  
ENDROOT
BRANCH   4   7
HETATM    7  C   UNL     1     -10.743  14.759  68.851  1.00  0.00    -0.252 A  
HETATM    8  C   UNL     1     -10.346  13.596  68.180  1.00  0.00    -0.245 A  
HETATM    9  C   UNL     1      -9.510  13.648  67.061  1.00  0.00    -0.252 A  
HETATM   10  F   UNL     1      -8.219  17.343  65.622  1.00  0.00    -0.168 F  
HETATM   11  C   UNL     1      -9.112  14.889  66.565  1.00  0.00    -0.309 A  
HETATM   12  F   UNL     1     -10.023  18.257  66.422  1.00  0.00    -0.311 F  
HETATM   13  F   UNL     1      -8.253  18.068  67.672  1.00  0.00    -0.229 F  
HETATM   14  C   UNL     1      -9.485  16.073  67.225  1.00  0.00    -0.220 A  
HETATM   15  C   UNL     1      -9.000  17.417  66.737  1.00  0.00    -0.254 C  
HETATM   16  C   UNL     1     -10.299  15.997  68.371  1.00  0.00    -0.251 A  
BRANCH   9  17
HETATM   17  N   UNL     1      -9.068  12.486  66.397  1.00  0.00    -0.378 N  
HETATM   18  O   UNL     1      -7.209  11.939  67.697  1.00  0.00    -0.095 OA 
HETATM   19  H   UNL     1      -9.573  12.206  65.556  1.00  0.00     0.000 HD 
HETATM   20  C   UNL     1      -8.002  11.692  66.795  1.00  0.00    -0.140 C  
BRANCH  20  21
HETATM   21  C   UNL     1      -7.861  10.407  66.072  1.00  0.00    -0.142 A  
HETATM   22  C   UNL     1      -6.951  10.217  65.036  1.00  0.00    -0.135 A  
HETATM   23  C   UNL     1      -6.947   9.002  64.351  1.00  0.00    -0.089 A  
HETATM   24  C   UNL     1      -7.859   7.980  64.683  1.00  0.00    -0.140 A  
HETATM   25  C   UNL     1      -8.770   8.164  65.745  1.00  0.00    -0.154 A  
HETATM   26  C   UNL     1      -7.827   6.697  63.897  1.00  0.00    -0.109 C  
HETATM   27  C   UNL     1      -8.726   9.373  66.447  1.00  0.00    -0.149 A  
BRANCH  25  28
HETATM   28  N   UNL     1      -9.649   7.142  66.128  1.00  0.00    -0.407 NA 
HETATM   29  H   UNL     1     -10.196   6.744  65.365  1.00  0.00     0.000 HD 
BRANCH  28  30
HETATM   30  C   UNL     1      -9.901   6.580  67.377  1.00  0.00    -0.133 A  
HETATM   31  N   UNL     1      -9.220   5.466  67.678  1.00  0.00    -0.111 NA 
HETATM   32  C   UNL     1      -9.378   4.976  68.921  1.00  0.00    -0.127 A  
HETATM   33  C   UNL     1     -10.153   5.575  69.885  1.00  0.00    -0.305 A  
HETATM   34  C   UNL     1     -10.822   6.716  69.498  1.00  0.00    -0.289 A  
HETATM   35  N   UNL     1     -10.715   7.199  68.243  1.00  0.00    -0.184 NA 
BRANCH  34  36
HETATM   36  C   UNL     1     -11.666   7.515  70.397  1.00  0.00    -0.116 A  
HETATM   37  C   UNL     1     -12.756   6.975  71.081  1.00  0.00    -0.309 A  
HETATM   38  N   UNL     1     -13.551   7.654  71.945  1.00  0.00    -0.291 NA 
HETATM   39  C   UNL     1     -13.241   8.950  72.158  1.00  0.00    -0.429 A  
HETATM   40  C   UNL     1     -12.182   9.594  71.544  1.00  0.00    -0.483 A  
HETATM   41  C   UNL     1     -11.390   8.866  70.659  1.00  0.00    -0.299 A  
ENDBRANCH  34  36
ENDBRANCH  28  30
ENDBRANCH  25  28
ENDBRANCH  20  21
ENDBRANCH   9  17
ENDBRANCH   4   7
TORSDOF 6
ENDMDL
MODEL       28
REMARK 921   NORMALIZED FREE ENERGY PREDICTED BY IDOCK:   -7.85 KCAL/MOL
REMARK 922        TOTAL FREE ENERGY PREDICTED BY IDOCK:  -11.22 KCAL/MOL
REMARK 923 INTER-LIGAND FREE ENERGY PREDICTED BY IDOCK:   -9.78 KCAL/MOL
REMARK 924 INTRA-LIGAND FREE ENERGY PREDICTED BY IDOCK:   -1.44 KCAL/MOL
REMARK 927      BINDING AFFINITY PREDICTED BY RF-SCORE:    0.00 PKD
ROOT
HETATM    1  C   UNL     1     -10.379   3.728  64.312  1.00  0.00    -0.253 C  
HETATM    2  C   UNL     1     -10.187   4.245  65.681  1.00  0.00    -0.197 A  
HETATM    3  C   UNL     1     -10.600   5.440  66.235  1.00  0.00    -0.208 A  
HETATM    4  N   UNL     1     -10.179   5.430  67.546  1.00  0.00    -0.192 NA 
HETATM    5  N   UNL     1      -9.521   3.498  66.611  1.00  0.00    -0.184 NA 
HETATM    6  C   UNL     1      -9.532   4.220  67.708  1.00  0.00    -0.168 A  
ENDROOT
BRANCH   4   7
HETATM    7  C   UNL     1     -10.372   6.446  68.524  1.00  0.00    -0.197 A  
HETATM    8  C   UNL     1      -9.632   7.632  68.448  1.00  0.00    -0.155 A  
HETATM    9  C   UNL     1      -9.776   8.646  69.399  1.00  0.00    -0.176 A  
HETATM   10  F   UNL     1     -12.520   8.183  72.505  1.00  0.00    -0.347 F  
HETATM   11  C   UNL     1     -10.721   8.499  70.414  1.00  0.00    -0.246 A  
HETATM   12  F   UNL     1     -13.713   6.891  71.226  1.00  0.00    -0.384 F  
HETATM   13  F   UNL     1     -12.118   6.047  72.440  1.00  0.00    -0.351 F  
HETATM   14  C   UNL     1     -11.469   7.314  70.524  1.00  0.00    -0.310 A  
HETATM   15  C   UNL     1     -12.443   7.116  71.661  1.00  0.00    -0.370 C  
HETATM   16  C   UNL     1     -11.285   6.290  69.575  1.00  0.00    -0.500 A  
BRANCH   9  17
HETATM   17  N   UNL     1      -9.011   9.830  69.360  1.00  0.00    -0.176 N  
HETATM   18  O   UNL     1      -6.889   8.976  69.820  1.00  0.00    -0.047 OA 
HETATM   19  H   UNL     1      -9.511  10.706  69.209  1.00  0.00     0.000 HD 
HETATM   20  C   UNL     1      -7.634   9.899  69.509  1.00  0.00    -0.125 C  
BRANCH  20  21
HETATM   21  C   UNL     1      -7.028  11.218  69.213  1.00  0.00    -0.119 A  
HETATM   22  C   UNL     1      -5.688  11.507  69.458  1.00  0.00    -0.069 A  
HETATM   23  C   UNL     1      -5.223  12.803  69.231  1.00  0.00    -0.070 A  
HETATM   24  C   UNL     1      -6.090  13.815  68.776  1.00  0.00    -0.086 A  
HETATM   25  C   UNL     1      -7.444  13.519  68.509  1.00  0.00    -0.122 A  
HETATM   26  C   UNL     1      -5.541  15.201  68.570  1.00  0.00    -0.098 C  
HETATM   27  C   UNL     1      -7.879  12.203  68.701  1.00  0.00    -0.078 A  
BRANCH  25  28
HETATM   28  N   UNL     1      -8.312  14.496  68.005  1.00  0.00    -0.144 NA 
HETATM   29  H   UNL     1      -7.852  15.261  67.512  1.00  0.00     0.000 HD 
BRANCH  28  30
HETATM   30  C   UNL     1      -9.700  14.598  68.065  1.00  0.00    -0.216 A  
HETATM   31  N   UNL     1     -10.373  14.220  66.971  1.00  0.00    -0.265 NA 
HETATM   32  C   UNL     1     -11.717  14.215  67.056  1.00  0.00    -0.405 A  
HETATM   33  C   UNL     1     -12.410  14.531  68.200  1.00  0.00     0.030 A  
HETATM   34  C   UNL     1     -11.645  14.911  69.282  1.00  0.00    -0.306 A  
HETATM   35  N   UNL     1     -10.300  14.968  69.204  1.00  0.00    -0.242 NA 
BRANCH  34  36
HETATM   36  C   UNL     1     -12.202  15.249  70.599  1.00  0.00    -0.412 A  
HETATM   37  C   UNL     1     -13.484  14.863  70.994  1.00  0.00    -0.371 A  
HETATM   38  N   UNL     1     -14.039  15.118  72.205  1.00  0.00    -0.511 NA 
HETATM   39  C   UNL     1     -13.272  15.791  73.089  1.00  0.00    -0.591 A  
HETATM   40  C   UNL     1     -11.986  16.220  72.817  1.00  0.00    -0.636 A  
HETATM   41  C   UNL     1     -11.451  15.943  71.560  1.00  0.00    -0.484 A  
ENDBRANCH  34  36
ENDBRANCH  28  30
ENDBRANCH  25  28
ENDBRANCH  20  21
ENDBRANCH   9  17
ENDBRANCH   4   7
TORSDOF 6
ENDMDL
MODEL       29
REMARK 921   NORMALIZED FREE ENERGY PREDICTED BY IDOCK:   -7.84 KCAL/MOL
REMARK 922        TOTAL FREE ENERGY PREDICTED BY IDOCK:  -11.19 KCAL/MOL
REMARK 923 INTER-LIGAND FREE ENERGY PREDICTED BY IDOCK:  -10.00 KCAL/MOL
REMARK 924 INTRA-LIGAND FREE ENERGY PREDICTED BY IDOCK:   -1.20 KCAL/MOL
REMARK 927      BINDING AFFINITY PREDICTED BY RF-SCORE:    0.00 PKD
ROOT
HETATM    1  C   UNL     1      -5.882   6.972  74.137  1.00  0.00    -0.058 C  
HETATM    2  C   UNL     1      -6.665   7.689  73.111  1.00  0.00    -0.070 A  
HETATM    3  C   UNL     1      -8.032   7.838  72.995  1.00  0.00    -0.126 A  
HETATM    4  N   UNL     1      -8.249   8.604  71.871  1.00  0.00    -0.281 NA 
HETATM    5  N   UNL     1      -6.030   8.340  72.091  1.00  0.00    -0.046 NA 
HETATM    6  C   UNL     1      -6.990   8.876  71.372  1.00  0.00    -0.087 A  
ENDROOT
BRANCH   4   7
HETATM    7  C   UNL     1      -9.501   9.027  71.341  1.00  0.00    -0.264 A  
HETATM    8  C   UNL     1      -9.532   9.964  70.300  1.00  0.00    -0.162 A  
HETATM    9  C   UNL     1     -10.739  10.421  69.766  1.00  0.00    -0.278 A  
HETATM   10  F   UNL     1     -14.343   8.924  71.235  1.00  0.00    -0.437 F  
HETATM   11  C   UNL     1     -11.939   9.890  70.238  1.00  0.00    -0.209 A  
HETATM   12  F   UNL     1     -13.330   7.075  71.768  1.00  0.00    -0.382 F  
HETATM   13  F   UNL     1     -13.384   8.731  73.176  1.00  0.00    -0.349 F  
HETATM   14  C   UNL     1     -11.939   8.958  71.290  1.00  0.00    -0.365 A  
HETATM   15  C   UNL     1     -13.236   8.430  71.857  1.00  0.00    -0.357 C  
HETATM   16  C   UNL     1     -10.713   8.535  71.839  1.00  0.00    -0.394 A  
BRANCH   9  17
HETATM   17  N   UNL     1     -10.790  11.393  68.745  1.00  0.00    -0.197 N  
HETATM   18  O   UNL     1     -11.218  10.037  66.895  1.00  0.00    -0.031 OA 
HETATM   19  H   UNL     1     -10.596  12.359  69.007  1.00  0.00     0.000 HD 
HETATM   20  C   UNL     1     -11.084  11.140  67.413  1.00  0.00    -0.307 C  
BRANCH  20  21
HETATM   21  C   UNL     1     -11.294  12.340  66.570  1.00  0.00    -0.403 A  
HETATM   22  C   UNL     1     -11.700  12.268  65.240  1.00  0.00    -0.413 A  
HETATM   23  C   UNL     1     -11.787  13.444  64.495  1.00  0.00    -0.440 A  
HETATM   24  C   UNL     1     -11.457  14.690  65.064  1.00  0.00    -0.386 A  
HETATM   25  C   UNL     1     -11.064  14.767  66.418  1.00  0.00    -0.340 A  
HETATM   26  C   UNL     1     -11.548  15.925  64.209  1.00  0.00    -0.179 C  
HETATM   27  C   UNL     1     -11.025  13.580  67.158  1.00  0.00    -0.302 A  
BRANCH  25  28
HETATM   28  N   UNL     1     -10.783  15.999  67.020  1.00  0.00    -0.308 NA 
HETATM   29  H   UNL     1     -11.575  16.639  67.070  1.00  0.00     0.000 HD 
BRANCH  28  30
HETATM   30  C   UNL     1      -9.601  16.498  67.562  1.00  0.00    -0.231 A  
HETATM   31  N   UNL     1      -9.164  15.909  68.683  1.00  0.00    -0.199 NA 
HETATM   32  C   UNL     1      -7.970  16.312  69.155  1.00  0.00    -0.221 A  
HETATM   33  C   UNL     1      -7.179  17.247  68.532  1.00  0.00    -0.224 A  
HETATM   34  C   UNL     1      -7.699  17.807  67.384  1.00  0.00    -0.202 A  
HETATM   35  N   UNL     1      -8.914  17.451  66.920  1.00  0.00    -0.238 NA 
BRANCH  34  36
HETATM   36  C   UNL     1      -6.987  18.793  66.561  1.00  0.00    -0.235 A  
HETATM   37  C   UNL     1      -6.548  18.514  65.265  1.00  0.00    -0.145 A  
HETATM   38  N   UNL     1      -5.914  19.392  64.448  1.00  0.00    -0.335 NA 
HETATM   39  C   UNL     1      -5.711  20.633  64.938  1.00  0.00    -0.226 A  
HETATM   40  C   UNL     1      -6.106  21.031  66.203  1.00  0.00    -0.310 A  
HETATM   41  C   UNL     1      -6.751  20.100  67.016  1.00  0.00    -0.259 A  
ENDBRANCH  34  36
ENDBRANCH  28  30
ENDBRANCH  25  28
ENDBRANCH  20  21
ENDBRANCH   9  17
ENDBRANCH   4   7
TORSDOF 6
ENDMDL
MODEL       30
REMARK 921   NORMALIZED FREE ENERGY PREDICTED BY IDOCK:   -7.82 KCAL/MOL
REMARK 922        TOTAL FREE ENERGY PREDICTED BY IDOCK:  -11.17 KCAL/MOL
REMARK 923 INTER-LIGAND FREE ENERGY PREDICTED BY IDOCK:  -10.18 KCAL/MOL
REMARK 924 INTRA-LIGAND FREE ENERGY PREDICTED BY IDOCK:   -0.99 KCAL/MOL
REMARK 927      BINDING AFFINITY PREDICTED BY RF-SCORE:    0.00 PKD
ROOT
HETATM    1  C   UNL     1      -7.226   3.292  72.593  1.00  0.00    -0.048 C  
HETATM    2  C   UNL     1      -7.977   4.497  72.189  1.00  0.00    -0.100 A  
HETATM    3  C   UNL     1      -7.968   5.176  70.988  1.00  0.00    -0.102 A  
HETATM    4  N   UNL     1      -8.853   6.222  71.122  1.00  0.00    -0.142 NA 
HETATM    5  N   UNL     1      -8.841   5.094  73.063  1.00  0.00    -0.120 NA 
HETATM    6  C   UNL     1      -9.349   6.112  72.407  1.00  0.00    -0.145 A  
ENDROOT
BRANCH   4   7
HETATM    7  C   UNL     1      -9.187   7.204  70.146  1.00  0.00    -0.155 A  
HETATM    8  C   UNL     1      -9.810   8.393  70.544  1.00  0.00    -0.204 A  
HETATM    9  C   UNL     1     -10.173   9.373  69.616  1.00  0.00    -0.212 A  
HETATM   10  F   UNL     1      -9.328   8.798  65.573  1.00  0.00    -0.260 F  
HETATM   11  C   UNL     1      -9.855   9.189  68.271  1.00  0.00    -0.181 A  
HETATM   12  F   UNL     1      -7.637   7.548  66.129  1.00  0.00    -0.079 F  
HETATM   13  F   UNL     1      -9.611   6.666  65.896  1.00  0.00    -0.125 F  
HETATM   14  C   UNL     1      -9.242   8.000  67.840  1.00  0.00    -0.137 A  
HETATM   15  C   UNL     1      -8.959   7.760  66.377  1.00  0.00    -0.163 C  
HETATM   16  C   UNL     1      -8.915   7.010  68.787  1.00  0.00    -0.131 A  
BRANCH   9  17
HETATM   17  N   UNL     1     -10.835  10.559  69.994  1.00  0.00    -0.381 N  
HETATM   18  O   UNL     1     -12.988   9.739  70.367  1.00  0.00    -0.024 OA 
HETATM   19  H   UNL     1     -10.297  11.425  69.969  1.00  0.00     0.000 HD 
HETATM   20  C   UNL     1     -12.161  10.643  70.396  1.00  0.00    -0.341 C  
BRANCH  20  21
HETATM   21  C   UNL     1     -12.574  11.952  70.953  1.00  0.00    -0.361 A  
HETATM   22  C   UNL     1     -13.180  12.087  72.199  1.00  0.00    -0.400 A  
HETATM   23  C   UNL     1     -13.617  13.347  72.607  1.00  0.00    -0.543 A  
HETATM   24  C   UNL     1     -13.467  14.472  71.772  1.00  0.00    -0.458 A  
HETATM   25  C   UNL     1     -12.835  14.341  70.516  1.00  0.00    -0.275 A  
HETATM   26  C   UNL     1     -13.976  15.804  72.251  1.00  0.00    -0.470 C  
HETATM   27  C   UNL     1     -12.365  13.076  70.147  1.00  0.00    -0.270 A  
BRANCH  25  28
HETATM   28  N   UNL     1     -12.627  15.454  69.692  1.00  0.00    -0.617 NA 
HETATM   29  H   UNL     1     -13.178  16.275  69.940  1.00  0.00     0.000 HD 
BRANCH  28  30
HETATM   30  C   UNL     1     -11.793  15.626  68.591  1.00  0.00    -0.291 A  
HETATM   31  N   UNL     1     -12.002  14.807  67.551  1.00  0.00    -0.299 NA 
HETATM   32  C   UNL     1     -11.272  15.036  66.443  1.00  0.00    -0.310 A  
HETATM   33  C   UNL     1     -10.376  16.070  66.318  1.00  0.00    -0.330 A  
HETATM   34  C   UNL     1     -10.217  16.867  67.432  1.00  0.00    -0.298 A  
HETATM   35  N   UNL     1     -10.904  16.628  68.568  1.00  0.00    -0.348 NA 
BRANCH  34  36
HETATM   36  C   UNL     1      -9.336  18.041  67.479  1.00  0.00    -0.257 A  
HETATM   37  C   UNL     1      -8.570  18.362  68.600  1.00  0.00    -0.292 A  
HETATM   38  N   UNL     1      -7.717  19.413  68.690  1.00  0.00    -0.350 NA 
HETATM   39  C   UNL     1      -7.604  20.192  67.595  1.00  0.00    -0.304 A  
HETATM   40  C   UNL     1      -8.305  19.973  66.423  1.00  0.00    -0.338 A  
HETATM   41  C   UNL     1      -9.175  18.886  66.369  1.00  0.00    -0.324 A  
ENDBRANCH  34  36
ENDBRANCH  28  30
ENDBRANCH  25  28
ENDBRANCH  20  21
ENDBRANCH   9  17
ENDBRANCH   4   7
TORSDOF 6
ENDMDL
MODEL       31
REMARK 921   NORMALIZED FREE ENERGY PREDICTED BY IDOCK:   -7.78 KCAL/MOL
REMARK 922        TOTAL FREE ENERGY PREDICTED BY IDOCK:  -11.12 KCAL/MOL
REMARK 923 INTER-LIGAND FREE ENERGY PREDICTED BY IDOCK:  -10.80 KCAL/MOL
REMARK 924 INTRA-LIGAND FREE ENERGY PREDICTED BY IDOCK:   -0.32 KCAL/MOL
REMARK 927      BINDING AFFINITY PREDICTED BY RF-SCORE:    0.00 PKD
ROOT
HETATM    1  C   UNL     1      -7.935   2.709  74.542  1.00  0.00    -0.059 C  
HETATM    2  C   UNL     1      -8.753   3.202  73.417  1.00  0.00    -0.077 A  
HETATM    3  C   UNL     1      -8.699   4.412  72.755  1.00  0.00    -0.108 A  
HETATM    4  N   UNL     1      -9.667   4.368  71.777  1.00  0.00    -0.162 NA 
HETATM    5  N   UNL     1      -9.727   2.411  72.876  1.00  0.00    -0.100 NA 
HETATM    6  C   UNL     1     -10.252   3.123  71.905  1.00  0.00     0.007 A  
ENDROOT
BRANCH   4   7
HETATM    7  C   UNL     1      -9.991   5.384  70.834  1.00  0.00    -0.202 A  
HETATM    8  C   UNL     1     -10.414   6.640  71.286  1.00  0.00    -0.244 A  
HETATM    9  C   UNL     1     -10.762   7.658  70.394  1.00  0.00    -0.236 A  
HETATM   10  F   UNL     1     -10.473   6.990  66.289  1.00  0.00    -0.177 F  
HETATM   11  C   UNL     1     -10.628   7.439  69.024  1.00  0.00    -0.203 A  
HETATM   12  F   UNL     1      -8.893   5.542  66.660  1.00  0.00    -0.115 F  
HETATM   13  F   UNL     1     -10.973   4.909  66.669  1.00  0.00    -0.256 F  
HETATM   14  C   UNL     1     -10.219   6.184  68.540  1.00  0.00    -0.221 A  
HETATM   15  C   UNL     1     -10.140   5.914  67.057  1.00  0.00    -0.183 C  
HETATM   16  C   UNL     1      -9.906   5.160  69.455  1.00  0.00    -0.269 A  
BRANCH   9  17
HETATM   17  N   UNL     1     -11.226   8.916  70.831  1.00  0.00    -0.266 N  
HETATM   18  O   UNL     1     -10.617  10.245  69.013  1.00  0.00    -0.198 OA 
HETATM   19  H   UNL     1     -11.631   8.967  71.766  1.00  0.00     0.000 HD 
HETATM   20  C   UNL     1     -11.177  10.089  70.093  1.00  0.00    -0.304 C  
BRANCH  20  21
HETATM   21  C   UNL     1     -11.919  11.234  70.668  1.00  0.00    -0.435 A  
HETATM   22  C   UNL     1     -12.767  11.112  71.765  1.00  0.00    -0.396 A  
HETATM   23  C   UNL     1     -13.496  12.224  72.186  1.00  0.00    -0.431 A  
HETATM   24  C   UNL     1     -13.395  13.456  71.508  1.00  0.00    -0.345 A  
HETATM   25  C   UNL     1     -12.521  13.587  70.408  1.00  0.00    -0.275 A  
HETATM   26  C   UNL     1     -14.219  14.618  71.990  1.00  0.00    -0.625 C  
HETATM   27  C   UNL     1     -11.767  12.470  70.031  1.00  0.00    -0.297 A  
BRANCH  25  28
HETATM   28  N   UNL     1     -12.363  14.815  69.752  1.00  0.00    -0.492 NA 
HETATM   29  H   UNL     1     -12.766  15.613  70.243  1.00  0.00     0.000 HD 
BRANCH  28  30
HETATM   30  C   UNL     1     -11.749  15.128  68.542  1.00  0.00    -0.325 A  
HETATM   31  N   UNL     1     -12.004  14.306  67.515  1.00  0.00    -0.393 NA 
HETATM   32  C   UNL     1     -11.501  14.659  66.317  1.00  0.00    -0.351 A  
HETATM   33  C   UNL     1     -10.792  15.815  66.097  1.00  0.00    -0.240 A  
HETATM   34  C   UNL     1     -10.571  16.606  67.205  1.00  0.00    -0.264 A  
HETATM   35  N   UNL     1     -11.026  16.248  68.423  1.00  0.00    -0.337 NA 
BRANCH  34  36
HETATM   36  C   UNL     1      -9.868  17.895  67.162  1.00  0.00    -0.308 A  
HETATM   37  C   UNL     1      -8.666  18.073  66.475  1.00  0.00    -0.260 A  
HETATM   38  N   UNL     1      -7.989  19.245  66.374  1.00  0.00    -0.287 NA 
HETATM   39  C   UNL     1      -8.542  20.314  66.983  1.00  0.00    -0.318 A  
HETATM   40  C   UNL     1      -9.732  20.265  67.688  1.00  0.00    -0.555 A  
HETATM   41  C   UNL     1     -10.397  19.043  67.773  1.00  0.00    -0.498 A  
ENDBRANCH  34  36
ENDBRANCH  28  30
ENDBRANCH  25  28
ENDBRANCH  20  21
ENDBRANCH   9  17
ENDBRANCH   4   7
TORSDOF 6
ENDMDL
MODEL       32
REMARK 921   NORMALIZED FREE ENERGY PREDICTED BY IDOCK:   -7.77 KCAL/MOL
REMARK 922        TOTAL FREE ENERGY PREDICTED BY IDOCK:  -11.10 KCAL/MOL
REMARK 923 INTER-LIGAND FREE ENERGY PREDICTED BY IDOCK:   -9.57 KCAL/MOL
REMARK 924 INTRA-LIGAND FREE ENERGY PREDICTED BY IDOCK:   -1.54 KCAL/MOL
REMARK 927      BINDING AFFINITY PREDICTED BY RF-SCORE:    0.00 PKD
ROOT
HETATM    1  C   UNL     1      -5.135   6.844  73.738  1.00  0.00    -0.042 C  
HETATM    2  C   UNL     1      -6.020   7.511  72.763  1.00  0.00    -0.043 A  
HETATM    3  C   UNL     1      -7.398   7.511  72.684  1.00  0.00    -0.075 A  
HETATM    4  N   UNL     1      -7.728   8.294  71.601  1.00  0.00    -0.092 NA 
HETATM    5  N   UNL     1      -5.489   8.271  71.759  1.00  0.00    -0.035 NA 
HETATM    6  C   UNL     1      -6.521   8.726  71.087  1.00  0.00    -0.061 A  
ENDROOT
BRANCH   4   7
HETATM    7  C   UNL     1      -9.033   8.597  71.118  1.00  0.00    -0.201 A  
HETATM    8  C   UNL     1      -9.184   9.432  70.004  1.00  0.00    -0.245 A  
HETATM    9  C   UNL     1     -10.447   9.771  69.511  1.00  0.00    -0.232 A  
HETATM   10  F   UNL     1     -13.858   8.214  71.336  1.00  0.00    -0.359 F  
HETATM   11  C   UNL     1     -11.582   9.218  70.104  1.00  0.00    -0.078 A  
HETATM   12  F   UNL     1     -12.703   6.481  71.961  1.00  0.00    -0.378 F  
HETATM   13  F   UNL     1     -12.775   8.252  73.221  1.00  0.00    -0.037 F  
HETATM   14  C   UNL     1     -11.462   8.387  71.232  1.00  0.00    -0.325 A  
HETATM   15  C   UNL     1     -12.687   7.841  71.925  1.00  0.00    -0.302 C  
HETATM   16  C   UNL     1     -10.181   8.085  71.735  1.00  0.00    -0.260 A  
BRANCH   9  17
HETATM   17  N   UNL     1     -10.619  10.641  68.415  1.00  0.00    -0.186 N  
HETATM   18  O   UNL     1     -10.283   9.159  66.644  1.00  0.00    -0.263 OA 
HETATM   19  H   UNL     1     -10.779  11.627  68.620  1.00  0.00     0.000 HD 
HETATM   20  C   UNL     1     -10.586  10.264  67.080  1.00  0.00    -0.260 C  
BRANCH  20  21
HETATM   21  C   UNL     1     -11.008  11.306  66.115  1.00  0.00    -0.252 A  
HETATM   22  C   UNL     1     -11.027  11.099  64.739  1.00  0.00    -0.218 A  
HETATM   23  C   UNL     1     -11.352  12.164  63.898  1.00  0.00    -0.501 A  
HETATM   24  C   UNL     1     -11.645  13.438  64.423  1.00  0.00    -0.421 A  
HETATM   25  C   UNL     1     -11.645  13.645  65.819  1.00  0.00    -0.333 A  
HETATM   26  C   UNL     1     -11.968  14.557  63.470  1.00  0.00     0.552 C  
HETATM   27  C   UNL     1     -11.359  12.552  66.645  1.00  0.00    -0.389 A  
BRANCH  25  28
HETATM   28  N   UNL     1     -11.985  14.889  66.366  1.00  0.00    -0.154 NA 
HETATM   29  H   UNL     1     -12.730  15.381  65.872  1.00  0.00     0.000 HD 
BRANCH  28  30
HETATM   30  C   UNL     1     -11.476  15.566  67.471  1.00  0.00    -0.183 A  
HETATM   31  N   UNL     1     -10.712  16.637  67.214  1.00  0.00    -0.275 NA 
HETATM   32  C   UNL     1     -10.304  17.359  68.273  1.00  0.00    -0.374 A  
HETATM   33  C   UNL     1     -10.660  17.080  69.571  1.00  0.00    -0.168 A  
HETATM   34  C   UNL     1     -11.447  15.962  69.752  1.00  0.00    -0.342 A  
HETATM   35  N   UNL     1     -11.829  15.198  68.709  1.00  0.00    -0.324 NA 
BRANCH  34  36
HETATM   36  C   UNL     1     -11.959  15.526  71.058  1.00  0.00    -0.428 A  
HETATM   37  C   UNL     1     -11.696  16.222  72.239  1.00  0.00    -0.436 A  
HETATM   38  N   UNL     1     -12.166  15.885  73.466  1.00  0.00    -0.490 NA 
HETATM   39  C   UNL     1     -12.959  14.795  73.529  1.00  0.00    -0.320 A  
HETATM   40  C   UNL     1     -13.296  14.029  72.429  1.00  0.00    -0.617 A  
HETATM   41  C   UNL     1     -12.791  14.403  71.185  1.00  0.00    -0.417 A  
ENDBRANCH  34  36
ENDBRANCH  28  30
ENDBRANCH  25  28
ENDBRANCH  20  21
ENDBRANCH   9  17
ENDBRANCH   4   7
TORSDOF 6
ENDMDL
MODEL       33
REMARK 921   NORMALIZED FREE ENERGY PREDICTED BY IDOCK:   -7.75 KCAL/MOL
REMARK 922        TOTAL FREE ENERGY PREDICTED BY IDOCK:  -11.07 KCAL/MOL
REMARK 923 INTER-LIGAND FREE ENERGY PREDICTED BY IDOCK:   -9.87 KCAL/MOL
REMARK 924 INTRA-LIGAND FREE ENERGY PREDICTED BY IDOCK:   -1.20 KCAL/MOL
REMARK 927      BINDING AFFINITY PREDICTED BY RF-SCORE:    0.00 PKD
ROOT
HETATM    1  C   UNL     1      -7.498  20.147  67.759  1.00  0.00    -0.327 C  
HETATM    2  C   UNL     1      -8.645  19.263  68.046  1.00  0.00    -0.321 A  
HETATM    3  C   UNL     1      -8.668  17.903  68.281  1.00  0.00    -0.275 A  
HETATM    4  N   UNL     1      -9.984  17.567  68.507  1.00  0.00    -0.324 NA 
HETATM    5  N   UNL     1      -9.908  19.777  68.119  1.00  0.00    -0.402 NA 
HETATM    6  C   UNL     1     -10.683  18.753  68.396  1.00  0.00     0.096 A  
ENDROOT
BRANCH   4   7
HETATM    7  C   UNL     1     -10.510  16.276  68.797  1.00  0.00    -0.282 A  
HETATM    8  C   UNL     1     -10.124  15.179  68.016  1.00  0.00    -0.222 A  
HETATM    9  C   UNL     1     -10.633  13.899  68.254  1.00  0.00    -0.257 A  
HETATM   10  F   UNL     1     -13.301  13.292  71.400  1.00  0.00    -0.399 F  
HETATM   11  C   UNL     1     -11.496  13.697  69.330  1.00  0.00    -0.344 A  
HETATM   12  F   UNL     1     -12.405  14.971  72.452  1.00  0.00    -0.351 F  
HETATM   13  F   UNL     1     -14.041  15.307  71.061  1.00  0.00    -0.482 F  
HETATM   14  C   UNL     1     -11.911  14.781  70.123  1.00  0.00    -0.360 A  
HETATM   15  C   UNL     1     -12.902  14.585  71.245  1.00  0.00    -0.332 C  
HETATM   16  C   UNL     1     -11.414  16.070  69.846  1.00  0.00    -0.327 A  
BRANCH   9  17
HETATM   17  N   UNL     1     -10.286  12.791  67.453  1.00  0.00    -0.221 N  
HETATM   18  O   UNL     1     -11.904  12.957  65.780  1.00  0.00    -0.373 OA 
HETATM   19  H   UNL     1      -9.523  12.198  67.779  1.00  0.00     0.000 HD 
HETATM   20  C   UNL     1     -10.899  12.442  66.259  1.00  0.00    -0.266 C  
BRANCH  20  21
HETATM   21  C   UNL     1     -10.226  11.372  65.487  1.00  0.00    -0.312 A  
HETATM   22  C   UNL     1     -10.120  11.392  64.099  1.00  0.00    -0.358 A  
HETATM   23  C   UNL     1      -9.548  10.300  63.447  1.00  0.00    -0.316 A  
HETATM   24  C   UNL     1      -9.094   9.180  64.172  1.00  0.00     0.057 A  
HETATM   25  C   UNL     1      -9.182   9.166  65.581  1.00  0.00    -0.234 A  
HETATM   26  C   UNL     1      -8.504   8.019  63.417  1.00  0.00     0.138 C  
HETATM   27  C   UNL     1      -9.720  10.291  66.216  1.00  0.00    -0.263 A  
BRANCH  25  28
HETATM   28  N   UNL     1      -8.689   8.087  66.325  1.00  0.00    -0.145 NA 
HETATM   29  H   UNL     1      -7.697   8.146  66.553  1.00  0.00     0.000 HD 
BRANCH  28  30
HETATM   30  C   UNL     1      -9.327   6.947  66.806  1.00  0.00    -0.158 A  
HETATM   31  N   UNL     1      -9.383   5.899  65.972  1.00  0.00    -0.136 NA 
HETATM   32  C   UNL     1      -9.903   4.759  66.465  1.00  0.00    -0.217 A  
HETATM   33  C   UNL     1     -10.328   4.613  67.763  1.00  0.00     0.050 A  
HETATM   34  C   UNL     1     -10.238   5.736  68.557  1.00  0.00    -0.192 A  
HETATM   35  N   UNL     1      -9.764   6.901  68.071  1.00  0.00    -0.129 NA 
BRANCH  34  36
HETATM   36  C   UNL     1     -10.608   5.765  69.978  1.00  0.00    -0.380 A  
HETATM   37  C   UNL     1      -9.858   5.120  70.963  1.00  0.00    -0.196 A  
HETATM   38  N   UNL     1     -10.132   5.136  72.291  1.00  0.00    -0.186 NA 
HETATM   39  C   UNL     1     -11.213   5.848  72.675  1.00  0.00    -0.291 A  
HETATM   40  C   UNL     1     -12.029   6.534  71.794  1.00  0.00    -0.394 A  
HETATM   41  C   UNL     1     -11.719   6.490  70.436  1.00  0.00    -0.439 A  
ENDBRANCH  34  36
ENDBRANCH  28  30
ENDBRANCH  25  28
ENDBRANCH  20  21
ENDBRANCH   9  17
ENDBRANCH   4   7
TORSDOF 6
ENDMDL
MODEL       34
REMARK 921   NORMALIZED FREE ENERGY PREDICTED BY IDOCK:   -7.74 KCAL/MOL
REMARK 922        TOTAL FREE ENERGY PREDICTED BY IDOCK:  -11.07 KCAL/MOL
REMARK 923 INTER-LIGAND FREE ENERGY PREDICTED BY IDOCK:  -10.77 KCAL/MOL
REMARK 924 INTRA-LIGAND FREE ENERGY PREDICTED BY IDOCK:   -0.30 KCAL/MOL
REMARK 927      BINDING AFFINITY PREDICTED BY RF-SCORE:    0.00 PKD
ROOT
HETATM    1  C   UNL     1      -9.802   1.873  72.083  1.00  0.00    -0.201 C  
HETATM    2  C   UNL     1      -9.758   3.013  71.146  1.00  0.00    -0.122 A  
HETATM    3  C   UNL     1      -9.445   3.034  69.802  1.00  0.00    -0.114 A  
HETATM    4  N   UNL     1      -9.564   4.343  69.392  1.00  0.00    -0.185 NA 
HETATM    5  N   UNL     1     -10.067   4.271  71.579  1.00  0.00    -0.169 NA 
HETATM    6  C   UNL     1      -9.948   5.040  70.521  1.00  0.00    -0.242 A  
ENDROOT
BRANCH   4   7
HETATM    7  C   UNL     1      -9.345   4.864  68.086  1.00  0.00    -0.130 A  
HETATM    8  C   UNL     1      -9.695   6.189  67.800  1.00  0.00    -0.118 A  
HETATM    9  C   UNL     1      -9.515   6.733  66.524  1.00  0.00    -0.150 A  
HETATM   10  F   UNL     1      -7.832   4.400  63.506  1.00  0.00    -0.069 F  
HETATM   11  C   UNL     1      -8.919   5.958  65.531  1.00  0.00    -0.062 A  
HETATM   12  F   UNL     1      -6.762   3.260  65.018  1.00  0.00    -0.036 F  
HETATM   13  F   UNL     1      -8.769   2.668  64.427  1.00  0.00    -0.088 F  
HETATM   14  C   UNL     1      -8.569   4.620  65.785  1.00  0.00    -0.122 A  
HETATM   15  C   UNL     1      -7.989   3.751  64.695  1.00  0.00    -0.086 C  
HETATM   16  C   UNL     1      -8.790   4.080  67.066  1.00  0.00    -0.130 A  
BRANCH   9  17
HETATM   17  N   UNL     1      -9.898   8.053  66.209  1.00  0.00    -0.450 N  
HETATM   18  O   UNL     1      -8.041   8.747  64.978  1.00  0.00    -0.126 OA 
HETATM   19  H   UNL     1     -10.781   8.389  66.593  1.00  0.00     0.000 HD 
HETATM   20  C   UNL     1      -9.171   8.930  65.417  1.00  0.00    -0.136 C  
BRANCH  20  21
HETATM   21  C   UNL     1      -9.872  10.181  65.045  1.00  0.00    -0.392 A  
HETATM   22  C   UNL     1      -9.914  10.666  63.741  1.00  0.00    -0.379 A  
HETATM   23  C   UNL     1     -10.520  11.898  63.496  1.00  0.00    -0.505 A  
HETATM   24  C   UNL     1     -11.072  12.656  64.548  1.00  0.00    -0.365 A  
HETATM   25  C   UNL     1     -11.049  12.157  65.868  1.00  0.00    -0.318 A  
HETATM   26  C   UNL     1     -11.695  13.989  64.231  1.00  0.00    -0.388 C  
HETATM   27  C   UNL     1     -10.474  10.900  66.084  1.00  0.00    -0.290 A  
BRANCH  25  28
HETATM   28  N   UNL     1     -11.639  12.868  66.920  1.00  0.00    -0.348 NA 
HETATM   29  H   UNL     1     -11.861  13.840  66.705  1.00  0.00     0.000 HD 
BRANCH  28  30
HETATM   30  C   UNL     1     -11.972  12.470  68.212  1.00  0.00    -0.221 A  
HETATM   31  N   UNL     1     -11.994  11.150  68.442  1.00  0.00    -0.599 NA 
HETATM   32  C   UNL     1     -12.211  10.759  69.712  1.00  0.00    -0.288 A  
HETATM   33  C   UNL     1     -12.365  11.630  70.763  1.00  0.00    -0.454 A  
HETATM   34  C   UNL     1     -12.331  12.971  70.444  1.00  0.00    -0.277 A  
HETATM   35  N   UNL     1     -12.161  13.385  69.172  1.00  0.00    -0.301 NA 
BRANCH  34  36
HETATM   36  C   UNL     1     -12.439  14.050  71.435  1.00  0.00    -0.438 A  
HETATM   37  C   UNL     1     -13.272  13.965  72.552  1.00  0.00    -0.502 A  
HETATM   38  N   UNL     1     -13.390  14.914  73.514  1.00  0.00    -0.395 NA 
HETATM   39  C   UNL     1     -12.624  16.015  73.371  1.00  0.00    -0.561 A  
HETATM   40  C   UNL     1     -11.755  16.212  72.312  1.00  0.00    -0.564 A  
HETATM   41  C   UNL     1     -11.665  15.217  71.341  1.00  0.00    -0.444 A  
ENDBRANCH  34  36
ENDBRANCH  28  30
ENDBRANCH  25  28
ENDBRANCH  20  21
ENDBRANCH   9  17
ENDBRANCH   4   7
TORSDOF 6
ENDMDL
MODEL       35
REMARK 921   NORMALIZED FREE ENERGY PREDICTED BY IDOCK:   -7.70 KCAL/MOL
REMARK 922        TOTAL FREE ENERGY PREDICTED BY IDOCK:  -11.01 KCAL/MOL
REMARK 923 INTER-LIGAND FREE ENERGY PREDICTED BY IDOCK:   -9.67 KCAL/MOL
REMARK 924 INTRA-LIGAND FREE ENERGY PREDICTED BY IDOCK:   -1.34 KCAL/MOL
REMARK 927      BINDING AFFINITY PREDICTED BY RF-SCORE:    0.00 PKD
ROOT
HETATM    1  C   UNL     1      -7.293  19.664  68.385  1.00  0.00    -0.354 C  
HETATM    2  C   UNL     1      -8.361  18.665  68.182  1.00  0.00    -0.307 A  
HETATM    3  C   UNL     1      -8.263  17.330  67.847  1.00  0.00    -0.219 A  
HETATM    4  N   UNL     1      -9.550  16.844  67.793  1.00  0.00    -0.246 NA 
HETATM    5  N   UNL     1      -9.671  19.019  68.336  1.00  0.00    -0.359 NA 
HETATM    6  C   UNL     1     -10.356  17.923  68.103  1.00  0.00    -0.389 A  
ENDROOT
BRANCH   4   7
HETATM    7  C   UNL     1      -9.962  15.516  67.487  1.00  0.00    -0.230 A  
HETATM    8  C   UNL     1      -9.359  14.435  68.143  1.00  0.00    -0.203 A  
HETATM    9  C   UNL     1      -9.718  13.115  67.857  1.00  0.00    -0.221 A  
HETATM   10  F   UNL     1     -12.704  12.353  65.048  1.00  0.00    -0.532 F  
HETATM   11  C   UNL     1     -10.742  12.870  66.943  1.00  0.00    -0.272 A  
HETATM   12  F   UNL     1     -13.599  14.280  65.512  1.00  0.00    -0.386 F  
HETATM   13  F   UNL     1     -12.055  14.136  63.987  1.00  0.00    -0.461 F  
HETATM   14  C   UNL     1     -11.357  13.933  66.260  1.00  0.00    -0.329 A  
HETATM   15  C   UNL     1     -12.416  13.674  65.216  1.00  0.00    -0.479 C  
HETATM   16  C   UNL     1     -10.956  15.255  66.537  1.00  0.00    -0.295 A  
BRANCH   9  17
HETATM   17  N   UNL     1      -9.094  12.014  68.479  1.00  0.00    -0.334 N  
HETATM   18  O   UNL     1      -7.471  11.494  66.886  1.00  0.00    -0.143 OA 
HETATM   19  H   UNL     1      -9.486  11.692  69.364  1.00  0.00     0.000 HD 
HETATM   20  C   UNL     1      -7.992  11.333  67.984  1.00  0.00    -0.119 C  
BRANCH  20  21
HETATM   21  C   UNL     1      -7.379  10.355  68.912  1.00  0.00    -0.094 A  
HETATM   22  C   UNL     1      -6.165   9.724  68.654  1.00  0.00    -0.042 A  
HETATM   23  C   UNL     1      -5.706   8.750  69.541  1.00  0.00    -0.034 A  
HETATM   24  C   UNL     1      -6.459   8.391  70.677  1.00  0.00    -0.037 A  
HETATM   25  C   UNL     1      -7.680   9.043  70.951  1.00  0.00    -0.128 A  
HETATM   26  C   UNL     1      -5.927   7.318  71.589  1.00  0.00    -0.037 C  
HETATM   27  C   UNL     1      -8.100  10.047  70.071  1.00  0.00    -0.154 A  
BRANCH  25  28
HETATM   28  N   UNL     1      -8.419   8.740  72.101  1.00  0.00    -0.385 NA 
HETATM   29  H   UNL     1      -8.037   9.125  72.965  1.00  0.00     0.000 HD 
BRANCH  28  30
HETATM   30  C   UNL     1      -9.588   8.001  72.263  1.00  0.00    -0.223 A  
HETATM   31  N   UNL     1     -10.740   8.677  72.156  1.00  0.00    -0.348 NA 
HETATM   32  C   UNL     1     -11.874   7.954  72.206  1.00  0.00    -0.352 A  
HETATM   33  C   UNL     1     -11.902   6.585  72.316  1.00  0.00    -0.299 A  
HETATM   34  C   UNL     1     -10.676   5.964  72.422  1.00  0.00    -0.232 A  
HETATM   35  N   UNL     1      -9.529   6.673  72.421  1.00  0.00    -0.149 NA 
BRANCH  34  36
HETATM   36  C   UNL     1     -10.502   4.507  72.509  1.00  0.00    -0.251 A  
HETATM   37  C   UNL     1     -11.141   3.731  73.478  1.00  0.00    -0.234 A  
HETATM   38  N   UNL     1     -11.043   2.382  73.588  1.00  0.00    -0.201 NA 
HETATM   39  C   UNL     1     -10.272   1.758  72.674  1.00  0.00    -0.141 A  
HETATM   40  C   UNL     1      -9.595   2.417  71.664  1.00  0.00    -0.213 A  
HETATM   41  C   UNL     1      -9.716   3.803  71.584  1.00  0.00    -0.239 A  
ENDBRANCH  34  36
ENDBRANCH  28  30
ENDBRANCH  25  28
ENDBRANCH  20  21
ENDBRANCH   9  17
ENDBRANCH   4   7
TORSDOF 6
ENDMDL
MODEL       36
REMARK 921   NORMALIZED FREE ENERGY PREDICTED BY IDOCK:   -7.68 KCAL/MOL
REMARK 922        TOTAL FREE ENERGY PREDICTED BY IDOCK:  -10.99 KCAL/MOL
REMARK 923 INTER-LIGAND FREE ENERGY PREDICTED BY IDOCK:   -9.86 KCAL/MOL
REMARK 924 INTRA-LIGAND FREE ENERGY PREDICTED BY IDOCK:   -1.13 KCAL/MOL
REMARK 927      BINDING AFFINITY PREDICTED BY RF-SCORE:    0.00 PKD
ROOT
HETATM    1  C   UNL     1     -12.536  16.250  74.172  1.00  0.00    -0.651 C  
HETATM    2  C   UNL     1     -12.699  15.841  72.763  1.00  0.00    -0.454 A  
HETATM    3  C   UNL     1     -11.740  15.632  71.792  1.00  0.00    -0.454 A  
HETATM    4  N   UNL     1     -12.412  15.252  70.652  1.00  0.00    -0.376 NA 
HETATM    5  N   UNL     1     -13.945  15.602  72.256  1.00  0.00    -0.521 NA 
HETATM    6  C   UNL     1     -13.748  15.252  71.005  1.00  0.00    -0.380 A  
ENDROOT
BRANCH   4   7
HETATM    7  C   UNL     1     -11.852  14.926  69.385  1.00  0.00    -0.324 A  
HETATM    8  C   UNL     1     -11.720  13.583  69.010  1.00  0.00    -0.370 A  
HETATM    9  C   UNL     1     -11.156  13.219  67.784  1.00  0.00    -0.265 A  
HETATM   10  F   UNL     1      -9.896  16.181  65.134  1.00  0.00    -0.241 F  
HETATM   11  C   UNL     1     -10.770  14.216  66.888  1.00  0.00    -0.286 A  
HETATM   12  F   UNL     1     -11.385  17.528  65.969  1.00  0.00     0.215 F  
HETATM   13  F   UNL     1      -9.404  17.409  66.859  1.00  0.00    -0.237 F  
HETATM   14  C   UNL     1     -10.878  15.572  67.242  1.00  0.00    -0.313 A  
HETATM   15  C   UNL     1     -10.397  16.656  66.309  1.00  0.00    -0.317 C  
HETATM   16  C   UNL     1     -11.418  15.917  68.497  1.00  0.00    -0.377 A  
BRANCH   9  17
HETATM   17  N   UNL     1     -10.980  11.872  67.407  1.00  0.00    -0.248 N  
HETATM   18  O   UNL     1      -8.661  11.683  67.591  1.00  0.00    -0.147 OA 
HETATM   19  H   UNL     1     -11.809  11.354  67.118  1.00  0.00     0.000 HD 
HETATM   20  C   UNL     1      -9.769  11.194  67.398  1.00  0.00    -0.173 C  
BRANCH  20  21
HETATM   21  C   UNL     1      -9.861   9.732  67.178  1.00  0.00    -0.238 A  
HETATM   22  C   UNL     1      -9.368   9.106  66.036  1.00  0.00    -0.300 A  
HETATM   23  C   UNL     1      -9.576   7.737  65.870  1.00  0.00     0.116 A  
HETATM   24  C   UNL     1     -10.289   6.991  66.830  1.00  0.00    -0.338 A  
HETATM   25  C   UNL     1     -10.773   7.620  67.998  1.00  0.00    -0.087 A  
HETATM   26  C   UNL     1     -10.504   5.521  66.591  1.00  0.00    -0.355 C  
HETATM   27  C   UNL     1     -10.514   8.985  68.164  1.00  0.00    -0.257 A  
BRANCH  25  28
HETATM   28  N   UNL     1     -11.437   6.888  68.990  1.00  0.00    -0.549 NA 
HETATM   29  H   UNL     1     -12.195   6.299  68.649  1.00  0.00     0.000 HD 
BRANCH  28  30
HETATM   30  C   UNL     1     -11.234   6.831  70.367  1.00  0.00    -0.328 A  
HETATM   31  N   UNL     1     -12.214   6.273  71.091  1.00  0.00    -0.048 NA 
HETATM   32  C   UNL     1     -11.982   6.118  72.408  1.00  0.00    -0.190 A  
HETATM   33  C   UNL     1     -10.799   6.458  73.020  1.00  0.00    -0.287 A  
HETATM   34  C   UNL     1      -9.842   7.027  72.207  1.00  0.00    -0.153 A  
HETATM   35  N   UNL     1     -10.071   7.234  70.894  1.00  0.00    -0.189 NA 
BRANCH  34  36
HETATM   36  C   UNL     1      -8.505   7.420  72.671  1.00  0.00    -0.138 A  
HETATM   37  C   UNL     1      -8.276   7.957  73.939  1.00  0.00    -0.233 A  
HETATM   38  N   UNL     1      -7.063   8.309  74.432  1.00  0.00    -0.163 NA 
HETATM   39  C   UNL     1      -6.002   8.106  73.623  1.00  0.00    -0.082 A  
HETATM   40  C   UNL     1      -6.100   7.576  72.349  1.00  0.00    -0.040 A  
HETATM   41  C   UNL     1      -7.364   7.230  71.875  1.00  0.00    -0.080 A  
ENDBRANCH  34  36
ENDBRANCH  28  30
ENDBRANCH  25  28
ENDBRANCH  20  21
ENDBRANCH   9  17
ENDBRANCH   4   7
TORSDOF 6
ENDMDL
MODEL       37
REMARK 921   NORMALIZED FREE ENERGY PREDICTED BY IDOCK:   -7.68 KCAL/MOL
REMARK 922        TOTAL FREE ENERGY PREDICTED BY IDOCK:  -10.98 KCAL/MOL
REMARK 923 INTER-LIGAND FREE ENERGY PREDICTED BY IDOCK:   -9.49 KCAL/MOL
REMARK 924 INTRA-LIGAND FREE ENERGY PREDICTED BY IDOCK:   -1.49 KCAL/MOL
REMARK 927      BINDING AFFINITY PREDICTED BY RF-SCORE:    0.00 PKD
ROOT
HETATM    1  C   UNL     1     -10.449  19.815  66.641  1.00  0.00    -0.615 C  
HETATM    2  C   UNL     1     -10.451  18.420  67.127  1.00  0.00    -0.404 A  
HETATM    3  C   UNL     1     -10.391  17.241  66.412  1.00  0.00    -0.316 A  
HETATM    4  N   UNL     1     -10.413  16.221  67.337  1.00  0.00    -0.301 NA 
HETATM    5  N   UNL     1     -10.510  18.159  68.467  1.00  0.00    -0.316 NA 
HETATM    6  C   UNL     1     -10.483  16.850  68.565  1.00  0.00    -0.361 A  
ENDROOT
BRANCH   4   7
HETATM    7  C   UNL     1     -10.367  14.821  67.082  1.00  0.00    -0.255 A  
HETATM    8  C   UNL     1      -9.700  13.975  67.976  1.00  0.00    -0.221 A  
HETATM    9  C   UNL     1      -9.614  12.598  67.752  1.00  0.00    -0.197 A  
HETATM   10  F   UNL     1     -11.442  10.938  64.392  1.00  0.00    -0.166 F  
HETATM   11  C   UNL     1     -10.258  12.045  66.646  1.00  0.00    -0.229 A  
HETATM   12  F   UNL     1     -12.898  12.553  64.416  1.00  0.00    -0.508 F  
HETATM   13  F   UNL     1     -11.023  12.794  63.341  1.00  0.00    -0.448 F  
HETATM   14  C   UNL     1     -10.925  12.872  65.724  1.00  0.00    -0.303 A  
HETATM   15  C   UNL     1     -11.564  12.292  64.485  1.00  0.00    -0.353 C  
HETATM   16  C   UNL     1     -10.971  14.261  65.950  1.00  0.00    -0.304 A  
BRANCH   9  17
HETATM   17  N   UNL     1      -8.913  11.736  68.621  1.00  0.00    -0.345 N  
HETATM   18  O   UNL     1      -6.725  12.095  67.894  1.00  0.00    -0.069 OA 
HETATM   19  H   UNL     1      -9.465  11.170  69.265  1.00  0.00     0.000 HD 
HETATM   20  C   UNL     1      -7.533  11.597  68.669  1.00  0.00    -0.117 C  
BRANCH  20  21
HETATM   21  C   UNL     1      -7.015  10.801  69.806  1.00  0.00    -0.141 A  
HETATM   22  C   UNL     1      -5.753  11.002  70.357  1.00  0.00    -0.130 A  
HETATM   23  C   UNL     1      -5.311  10.148  71.367  1.00  0.00    -0.068 A  
HETATM   24  C   UNL     1      -6.115   9.083  71.820  1.00  0.00    -0.075 A  
HETATM   25  C   UNL     1      -7.403   8.889  71.276  1.00  0.00    -0.096 A  
HETATM   26  C   UNL     1      -5.580   8.178  72.897  1.00  0.00    -0.049 C  
HETATM   27  C   UNL     1      -7.843   9.784  70.294  1.00  0.00    -0.190 A  
BRANCH  25  28
HETATM   28  N   UNL     1      -8.241   7.871  71.747  1.00  0.00    -0.110 NA 
HETATM   29  H   UNL     1      -7.985   7.499  72.662  1.00  0.00     0.000 HD 
BRANCH  28  30
HETATM   30  C   UNL     1      -9.365   7.281  71.176  1.00  0.00    -0.156 A  
HETATM   31  N   UNL     1     -10.547   7.596  71.723  1.00  0.00    -0.212 NA 
HETATM   32  C   UNL     1     -11.646   7.116  71.113  1.00  0.00    -0.301 A  
HETATM   33  C   UNL     1     -11.614   6.371  69.958  1.00  0.00    -0.446 A  
HETATM   34  C   UNL     1     -10.361   6.088  69.458  1.00  0.00    -0.233 A  
HETATM   35  N   UNL     1      -9.245   6.521  70.080  1.00  0.00    -0.158 NA 
BRANCH  34  36
HETATM   36  C   UNL     1     -10.125   5.339  68.217  1.00  0.00    -0.219 A  
HETATM   37  C   UNL     1      -9.287   4.224  68.159  1.00  0.00    -0.152 A  
HETATM   38  N   UNL     1      -9.056   3.477  67.051  1.00  0.00    -0.155 NA 
HETATM   39  C   UNL     1      -9.706   3.848  65.927  1.00  0.00    -0.161 A  
HETATM   40  C   UNL     1     -10.566   4.929  65.862  1.00  0.00    -0.280 A  
HETATM   41  C   UNL     1     -10.775   5.676  67.019  1.00  0.00    -0.332 A  
ENDBRANCH  34  36
ENDBRANCH  28  30
ENDBRANCH  25  28
ENDBRANCH  20  21
ENDBRANCH   9  17
ENDBRANCH   4   7
TORSDOF 6
ENDMDL
MODEL       38
REMARK 921   NORMALIZED FREE ENERGY PREDICTED BY IDOCK:   -7.66 KCAL/MOL
REMARK 922        TOTAL FREE ENERGY PREDICTED BY IDOCK:  -10.95 KCAL/MOL
REMARK 923 INTER-LIGAND FREE ENERGY PREDICTED BY IDOCK:   -9.76 KCAL/MOL
REMARK 924 INTRA-LIGAND FREE ENERGY PREDICTED BY IDOCK:   -1.19 KCAL/MOL
REMARK 927      BINDING AFFINITY PREDICTED BY RF-SCORE:    0.00 PKD
ROOT
HETATM    1  C   UNL     1     -10.294   3.736  64.621  1.00  0.00    -0.171 C  
HETATM    2  C   UNL     1      -9.910   4.427  65.868  1.00  0.00    -0.228 A  
HETATM    3  C   UNL     1     -10.567   5.427  66.556  1.00  0.00    -0.289 A  
HETATM    4  N   UNL     1      -9.795   5.715  67.659  1.00  0.00    -0.127 NA 
HETATM    5  N   UNL     1      -8.754   4.089  66.513  1.00  0.00    -0.114 NA 
HETATM    6  C   UNL     1      -8.710   4.864  67.572  1.00  0.00    -0.103 A  
ENDROOT
BRANCH   4   7
HETATM    7  C   UNL     1     -10.060   6.679  68.673  1.00  0.00    -0.161 A  
HETATM    8  C   UNL     1      -9.265   7.828  68.763  1.00  0.00    -0.139 A  
HETATM    9  C   UNL     1      -9.479   8.788  69.757  1.00  0.00    -0.167 A  
HETATM   10  F   UNL     1     -12.596   8.279  72.479  1.00  0.00    -0.359 F  
HETATM   11  C   UNL     1     -10.546   8.629  70.641  1.00  0.00    -0.249 A  
HETATM   12  F   UNL     1     -13.681   7.130  70.985  1.00  0.00    -0.429 F  
HETATM   13  F   UNL     1     -12.284   6.134  72.320  1.00  0.00    -0.361 F  
HETATM   14  C   UNL     1     -11.353   7.479  70.582  1.00  0.00    -0.301 A  
HETATM   15  C   UNL     1     -12.465   7.263  71.581  1.00  0.00    -0.359 C  
HETATM   16  C   UNL     1     -11.100   6.506  69.596  1.00  0.00    -0.435 A  
BRANCH   9  17
HETATM   17  N   UNL     1      -8.664   9.931  69.886  1.00  0.00    -0.271 N  
HETATM   18  O   UNL     1      -6.550   8.966  69.678  1.00  0.00    -0.041 OA 
HETATM   19  H   UNL     1      -9.129  10.819  70.076  1.00  0.00     0.000 HD 
HETATM   20  C   UNL     1      -7.281   9.946  69.776  1.00  0.00    -0.118 C  
BRANCH  20  21
HETATM   21  C   UNL     1      -6.661  11.290  69.731  1.00  0.00    -0.130 A  
HETATM   22  C   UNL     1      -5.777  11.749  70.704  1.00  0.00    -0.123 A  
HETATM   23  C   UNL     1      -5.310  13.061  70.629  1.00  0.00    -0.151 A  
HETATM   24  C   UNL     1      -5.732  13.923  69.597  1.00  0.00    -0.098 A  
HETATM   25  C   UNL     1      -6.612  13.454  68.599  1.00  0.00    -0.091 A  
HETATM   26  C   UNL     1      -5.214  15.336  69.576  1.00  0.00    -0.093 C  
HETATM   27  C   UNL     1      -7.034  12.121  68.669  1.00  0.00    -0.097 A  
BRANCH  25  28
HETATM   28  N   UNL     1      -7.003  14.276  67.534  1.00  0.00    -0.184 NA 
HETATM   29  H   UNL     1      -6.238  14.589  66.937  1.00  0.00     0.000 HD 
BRANCH  28  30
HETATM   30  C   UNL     1      -8.261  14.737  67.155  1.00  0.00    -0.211 A  
HETATM   31  N   UNL     1      -8.531  16.021  67.424  1.00  0.00    -0.162 NA 
HETATM   32  C   UNL     1      -9.701  16.504  66.968  1.00  0.00    -0.250 A  
HETATM   33  C   UNL     1     -10.591  15.769  66.221  1.00  0.00    -0.313 A  
HETATM   34  C   UNL     1     -10.241  14.456  65.988  1.00  0.00    -0.315 A  
HETATM   35  N   UNL     1      -9.094  13.939  66.475  1.00  0.00    -0.196 NA 
BRANCH  34  36
HETATM   36  C   UNL     1     -11.043  13.527  65.180  1.00  0.00    -0.326 A  
HETATM   37  C   UNL     1     -12.426  13.409  65.323  1.00  0.00    -0.483 A  
HETATM   38  N   UNL     1     -13.221  12.593  64.587  1.00  0.00    -0.775 NA 
HETATM   39  C   UNL     1     -12.611  11.854  63.637  1.00  0.00    -0.439 A  
HETATM   40  C   UNL     1     -11.249  11.890  63.396  1.00  0.00    -0.463 A  
HETATM   41  C   UNL     1     -10.464  12.736  64.175  1.00  0.00    -0.437 A  
ENDBRANCH  34  36
ENDBRANCH  28  30
ENDBRANCH  25  28
ENDBRANCH  20  21
ENDBRANCH   9  17
ENDBRANCH   4   7
TORSDOF 6
ENDMDL
MODEL       39
REMARK 921   NORMALIZED FREE ENERGY PREDICTED BY IDOCK:   -7.62 KCAL/MOL
REMARK 922        TOTAL FREE ENERGY PREDICTED BY IDOCK:  -10.90 KCAL/MOL
REMARK 923 INTER-LIGAND FREE ENERGY PREDICTED BY IDOCK:   -9.75 KCAL/MOL
REMARK 924 INTRA-LIGAND FREE ENERGY PREDICTED BY IDOCK:   -1.15 KCAL/MOL
REMARK 927      BINDING AFFINITY PREDICTED BY RF-SCORE:    0.00 PKD
ROOT
HETATM    1  C   UNL     1     -11.469   5.129  72.912  1.00  0.00    -0.329 C  
HETATM    2  C   UNL     1     -11.479   6.293  72.003  1.00  0.00    -0.310 A  
HETATM    3  C   UNL     1     -10.582   6.643  71.015  1.00  0.00    -0.226 A  
HETATM    4  N   UNL     1     -11.054   7.808  70.453  1.00  0.00    -0.258 NA 
HETATM    5  N   UNL     1     -12.492   7.207  72.069  1.00  0.00    -0.277 NA 
HETATM    6  C   UNL     1     -12.219   8.093  71.139  1.00  0.00    -0.239 A  
ENDROOT
BRANCH   4   7
HETATM    7  C   UNL     1     -10.469   8.555  69.391  1.00  0.00    -0.218 A  
HETATM    8  C   UNL     1     -10.597   9.949  69.371  1.00  0.00    -0.250 A  
HETATM    9  C   UNL     1     -10.056  10.717  68.336  1.00  0.00    -0.169 A  
HETATM   10  F   UNL     1      -7.948   8.845  65.264  1.00  0.00    -0.099 F  
HETATM   11  C   UNL     1      -9.322  10.088  67.331  1.00  0.00    -0.167 A  
HETATM   12  F   UNL     1      -7.404   7.252  66.640  1.00  0.00    -0.073 F  
HETATM   13  F   UNL     1      -9.259   7.129  65.512  1.00  0.00    -0.066 F  
HETATM   14  C   UNL     1      -9.188   8.688  67.318  1.00  0.00    -0.167 A  
HETATM   15  C   UNL     1      -8.457   7.991  66.196  1.00  0.00    -0.135 C  
HETATM   16  C   UNL     1      -9.770   7.929  68.352  1.00  0.00    -0.170 A  
BRANCH   9  17
HETATM   17  N   UNL     1     -10.208  12.118  68.280  1.00  0.00    -0.204 N  
HETATM   18  O   UNL     1      -7.982  12.791  68.471  1.00  0.00    -0.144 OA 
HETATM   19  H   UNL     1     -11.159  12.484  68.229  1.00  0.00     0.000 HD 
HETATM   20  C   UNL     1      -9.170  13.038  68.288  1.00  0.00    -0.191 C  
BRANCH  20  21
HETATM   21  C   UNL     1      -9.558  14.438  68.001  1.00  0.00    -0.216 A  
HETATM   22  C   UNL     1     -10.721  15.018  68.500  1.00  0.00    -0.244 A  
HETATM   23  C   UNL     1     -11.054  16.314  68.106  1.00  0.00    -0.329 A  
HETATM   24  C   UNL     1     -10.240  17.030  67.205  1.00  0.00    -0.310 A  
HETATM   25  C   UNL     1      -9.050  16.451  66.714  1.00  0.00    -0.234 A  
HETATM   26  C   UNL     1     -10.657  18.417  66.797  1.00  0.00    -0.367 C  
HETATM   27  C   UNL     1      -8.714  15.166  67.156  1.00  0.00    -0.238 A  
BRANCH  25  28
HETATM   28  N   UNL     1      -8.198  17.163  65.860  1.00  0.00    -0.525 NA 
HETATM   29  H   UNL     1      -8.362  17.003  64.867  1.00  0.00     0.000 HD 
BRANCH  28  30
HETATM   30  C   UNL     1      -7.165  18.053  66.142  1.00  0.00    -0.290 A  
HETATM   31  N   UNL     1      -6.637  18.703  65.096  1.00  0.00    -0.507 NA 
HETATM   32  C   UNL     1      -5.711  19.641  65.369  1.00  0.00    -0.170 A  
HETATM   33  C   UNL     1      -5.325  19.984  66.642  1.00  0.00    -0.172 A  
HETATM   34  C   UNL     1      -5.913  19.269  67.664  1.00  0.00    -0.202 A  
HETATM   35  N   UNL     1      -6.809  18.292  67.410  1.00  0.00    -0.196 NA 
BRANCH  34  36
HETATM   36  C   UNL     1      -5.657  19.516  69.089  1.00  0.00    -0.234 A  
HETATM   37  C   UNL     1      -5.654  20.799  69.640  1.00  0.00    -0.361 A  
HETATM   38  N   UNL     1      -5.454  21.086  70.951  1.00  0.00    -0.537 NA 
HETATM   39  C   UNL     1      -5.255  20.035  71.774  1.00  0.00    -0.405 A  
HETATM   40  C   UNL     1      -5.242  18.719  71.348  1.00  0.00    -0.286 A  
HETATM   41  C   UNL     1      -5.447  18.464  69.993  1.00  0.00    -0.238 A  
ENDBRANCH  34  36
ENDBRANCH  28  30
ENDBRANCH  25  28
ENDBRANCH  20  21
ENDBRANCH   9  17
ENDBRANCH   4   7
TORSDOF 6
ENDMDL
MODEL       40
REMARK 921   NORMALIZED FREE ENERGY PREDICTED BY IDOCK:   -7.60 KCAL/MOL
REMARK 922        TOTAL FREE ENERGY PREDICTED BY IDOCK:  -10.88 KCAL/MOL
REMARK 923 INTER-LIGAND FREE ENERGY PREDICTED BY IDOCK:  -10.18 KCAL/MOL
REMARK 924 INTRA-LIGAND FREE ENERGY PREDICTED BY IDOCK:   -0.70 KCAL/MOL
REMARK 927      BINDING AFFINITY PREDICTED BY RF-SCORE:    0.00 PKD
ROOT
HETATM    1  C   UNL     1     -10.596   3.471  74.389  1.00  0.00    -0.228 C  
HETATM    2  C   UNL     1     -10.376   4.032  73.042  1.00  0.00    -0.168 A  
HETATM    3  C   UNL     1     -10.554   5.324  72.589  1.00  0.00    -0.228 A  
HETATM    4  N   UNL     1     -10.198   5.325  71.258  1.00  0.00    -0.215 NA 
HETATM    5  N   UNL     1      -9.922   3.234  72.030  1.00  0.00    -0.167 NA 
HETATM    6  C   UNL     1      -9.822   4.024  70.985  1.00  0.00    -0.160 A  
ENDROOT
BRANCH   4   7
HETATM    7  C   UNL     1     -10.211   6.429  70.360  1.00  0.00    -0.192 A  
HETATM    8  C   UNL     1     -10.548   7.703  70.833  1.00  0.00    -0.219 A  
HETATM    9  C   UNL     1     -10.593   8.810  69.980  1.00  0.00    -0.223 A  
HETATM   10  F   UNL     1      -9.633   8.348  65.949  1.00  0.00    -0.273 F  
HETATM   11  C   UNL     1     -10.236   8.655  68.642  1.00  0.00    -0.214 A  
HETATM   12  F   UNL     1      -8.345   6.676  66.473  1.00  0.00    -0.106 F  
HETATM   13  F   UNL     1     -10.453   6.338  66.062  1.00  0.00    -0.058 F  
HETATM   14  C   UNL     1      -9.906   7.385  68.136  1.00  0.00    -0.174 A  
HETATM   15  C   UNL     1      -9.588   7.194  66.672  1.00  0.00    -0.170 C  
HETATM   16  C   UNL     1      -9.899   6.276  69.004  1.00  0.00    -0.165 A  
BRANCH   9  17
HETATM   17  N   UNL     1     -10.968  10.092  70.431  1.00  0.00    -0.307 N  
HETATM   18  O   UNL     1     -12.245  10.819  68.618  1.00  0.00    -0.472 OA 
HETATM   19  H   UNL     1     -10.593  10.402  71.327  1.00  0.00     0.000 HD 
HETATM   20  C   UNL     1     -11.806  10.967  69.754  1.00  0.00    -0.345 C  
BRANCH  20  21
HETATM   21  C   UNL     1     -12.232  12.161  70.519  1.00  0.00    -0.392 A  
HETATM   22  C   UNL     1     -13.046  12.088  71.646  1.00  0.00    -0.422 A  
HETATM   23  C   UNL     1     -13.471  13.269  72.253  1.00  0.00    -0.679 A  
HETATM   24  C   UNL     1     -13.100  14.525  71.733  1.00  0.00    -0.421 A  
HETATM   25  C   UNL     1     -12.259  14.602  70.602  1.00  0.00    -0.325 A  
HETATM   26  C   UNL     1     -13.604  15.769  72.414  1.00  0.00    -0.542 C  
HETATM   27  C   UNL     1     -11.809  13.404  70.036  1.00  0.00    -0.364 A  
BRANCH  25  28
HETATM   28  N   UNL     1     -11.834  15.838  70.100  1.00  0.00    -0.354 NA 
HETATM   29  H   UNL     1     -12.435  16.625  70.342  1.00  0.00     0.000 HD 
BRANCH  28  30
HETATM   30  C   UNL     1     -10.727  16.173  69.324  1.00  0.00    -0.295 A  
HETATM   31  N   UNL     1     -10.487  17.481  69.160  1.00  0.00    -0.296 NA 
HETATM   32  C   UNL     1      -9.362  17.813  68.501  1.00  0.00    -0.295 A  
HETATM   33  C   UNL     1      -8.449  16.896  68.038  1.00  0.00    -0.213 A  
HETATM   34  C   UNL     1      -8.768  15.571  68.245  1.00  0.00    -0.170 A  
HETATM   35  N   UNL     1      -9.914  15.215  68.861  1.00  0.00    -0.219 NA 
BRANCH  34  36
HETATM   36  C   UNL     1      -7.902  14.451  67.855  1.00  0.00    -0.155 A  
HETATM   37  C   UNL     1      -6.509  14.519  67.923  1.00  0.00    -0.162 A  
HETATM   38  N   UNL     1      -5.660  13.509  67.607  1.00  0.00    -0.311 NA 
HETATM   39  C   UNL     1      -6.225  12.350  67.209  1.00  0.00    -0.144 A  
HETATM   40  C   UNL     1      -7.591  12.158  67.109  1.00  0.00    -0.132 A  
HETATM   41  C   UNL     1      -8.432  13.220  67.437  1.00  0.00    -0.206 A  
ENDBRANCH  34  36
ENDBRANCH  28  30
ENDBRANCH  25  28
ENDBRANCH  20  21
ENDBRANCH   9  17
ENDBRANCH   4   7
TORSDOF 6
ENDMDL
MODEL       41
REMARK 921   NORMALIZED FREE ENERGY PREDICTED BY IDOCK:   -7.60 KCAL/MOL
REMARK 922        TOTAL FREE ENERGY PREDICTED BY IDOCK:  -10.88 KCAL/MOL
REMARK 923 INTER-LIGAND FREE ENERGY PREDICTED BY IDOCK:   -9.64 KCAL/MOL
REMARK 924 INTRA-LIGAND FREE ENERGY PREDICTED BY IDOCK:   -1.24 KCAL/MOL
REMARK 927      BINDING AFFINITY PREDICTED BY RF-SCORE:    0.00 PKD
ROOT
HETATM    1  C   UNL     1      -6.885  19.915  66.819  1.00  0.00    -0.232 C  
HETATM    2  C   UNL     1      -7.969  18.934  66.617  1.00  0.00    -0.270 A  
HETATM    3  C   UNL     1      -7.956  17.564  66.783  1.00  0.00    -0.241 A  
HETATM    4  N   UNL     1      -9.223  17.120  66.476  1.00  0.00    -0.256 NA 
HETATM    5  N   UNL     1      -9.207  19.350  66.215  1.00  0.00    -0.355 NA 
HETATM    6  C   UNL     1      -9.932  18.257  66.142  1.00  0.00    -0.308 A  
ENDROOT
BRANCH   4   7
HETATM    7  C   UNL     1      -9.700  15.779  66.502  1.00  0.00    -0.265 A  
HETATM    8  C   UNL     1      -9.058  14.830  67.309  1.00  0.00    -0.214 A  
HETATM    9  C   UNL     1      -9.481  13.499  67.347  1.00  0.00    -0.225 A  
HETATM   10  F   UNL     1     -12.772  12.314  65.077  1.00  0.00    -0.504 F  
HETATM   11  C   UNL     1     -10.604  13.118  66.613  1.00  0.00    -0.284 A  
HETATM   12  F   UNL     1     -13.560  14.336  65.208  1.00  0.00    -0.256 F  
HETATM   13  F   UNL     1     -12.194  13.803  63.602  1.00  0.00    -0.506 F  
HETATM   14  C   UNL     1     -11.260  14.045  65.785  1.00  0.00    -0.303 A  
HETATM   15  C   UNL     1     -12.433  13.626  64.931  1.00  0.00    -0.384 C  
HETATM   16  C   UNL     1     -10.798  15.374  65.733  1.00  0.00    -0.349 A  
BRANCH   9  17
HETATM   17  N   UNL     1      -8.823  12.522  68.123  1.00  0.00    -0.188 N  
HETATM   18  O   UNL     1      -6.703  12.569  67.149  1.00  0.00    -0.144 OA 
HETATM   19  H   UNL     1      -9.376  12.030  68.824  1.00  0.00     0.000 HD 
HETATM   20  C   UNL     1      -7.484  12.178  68.010  1.00  0.00    -0.116 C  
BRANCH  20  21
HETATM   21  C   UNL     1      -6.964  11.287  69.073  1.00  0.00    -0.104 A  
HETATM   22  C   UNL     1      -6.025  11.700  70.014  1.00  0.00    -0.152 A  
HETATM   23  C   UNL     1      -5.525  10.769  70.925  1.00  0.00    -0.103 A  
HETATM   24  C   UNL     1      -5.945   9.425  70.892  1.00  0.00    -0.064 A  
HETATM   25  C   UNL     1      -6.912   9.009  69.952  1.00  0.00    -0.052 A  
HETATM   26  C   UNL     1      -5.357   8.457  71.884  1.00  0.00    -0.037 C  
HETATM   27  C   UNL     1      -7.432   9.969  69.076  1.00  0.00    -0.087 A  
BRANCH  25  28
HETATM   28  N   UNL     1      -7.384   7.690  69.935  1.00  0.00    -0.079 NA 
HETATM   29  H   UNL     1      -6.667   6.980  70.082  1.00  0.00     0.000 HD 
BRANCH  28  30
HETATM   30  C   UNL     1      -8.669   7.187  69.752  1.00  0.00    -0.142 A  
HETATM   31  N   UNL     1      -8.768   6.039  69.068  1.00  0.00    -0.122 NA 
HETATM   32  C   UNL     1      -9.994   5.491  68.976  1.00  0.00    -0.181 A  
HETATM   33  C   UNL     1     -11.113   6.019  69.574  1.00  0.00    -0.468 A  
HETATM   34  C   UNL     1     -10.929   7.201  70.258  1.00  0.00    -0.263 A  
HETATM   35  N   UNL     1      -9.718   7.792  70.323  1.00  0.00    -0.179 NA 
BRANCH  34  36
HETATM   36  C   UNL     1     -11.995   7.896  70.992  1.00  0.00    -0.268 A  
HETATM   37  C   UNL     1     -13.214   7.289  71.300  1.00  0.00    -0.289 A  
HETATM   38  N   UNL     1     -14.222   7.868  72.000  1.00  0.00    -0.356 NA 
HETATM   39  C   UNL     1     -14.006   9.127  72.435  1.00  0.00    -0.417 A  
HETATM   40  C   UNL     1     -12.838   9.830  72.199  1.00  0.00    -0.448 A  
HETATM   41  C   UNL     1     -11.828   9.204  71.473  1.00  0.00    -0.428 A  
ENDBRANCH  34  36
ENDBRANCH  28  30
ENDBRANCH  25  28
ENDBRANCH  20  21
ENDBRANCH   9  17
ENDBRANCH   4   7
TORSDOF 6
ENDMDL
MODEL       42
REMARK 921   NORMALIZED FREE ENERGY PREDICTED BY IDOCK:   -7.56 KCAL/MOL
REMARK 922        TOTAL FREE ENERGY PREDICTED BY IDOCK:  -10.83 KCAL/MOL
REMARK 923 INTER-LIGAND FREE ENERGY PREDICTED BY IDOCK:   -9.70 KCAL/MOL
REMARK 924 INTRA-LIGAND FREE ENERGY PREDICTED BY IDOCK:   -1.12 KCAL/MOL
REMARK 927      BINDING AFFINITY PREDICTED BY RF-SCORE:    0.00 PKD
ROOT
HETATM    1  C   UNL     1      -8.824   1.695  65.876  1.00  0.00    -0.119 C  
HETATM    2  C   UNL     1      -9.089   2.356  67.169  1.00  0.00    -0.136 A  
HETATM    3  C   UNL     1      -9.474   3.655  67.429  1.00  0.00    -0.195 A  
HETATM    4  N   UNL     1      -9.599   3.761  68.796  1.00  0.00    -0.143 NA 
HETATM    5  N   UNL     1      -8.972   1.655  68.336  1.00  0.00    -0.105 NA 
HETATM    6  C   UNL     1      -9.281   2.508  69.285  1.00  0.00    -0.129 A  
ENDROOT
BRANCH   4   7
HETATM    7  C   UNL     1      -9.978   4.911  69.544  1.00  0.00    -0.225 A  
HETATM    8  C   UNL     1     -10.181   6.130  68.886  1.00  0.00    -0.232 A  
HETATM    9  C   UNL     1     -10.534   7.288  69.586  1.00  0.00    -0.231 A  
HETATM   10  F   UNL     1     -11.073   7.118  73.717  1.00  0.00    -0.328 F  
HETATM   11  C   UNL     1     -10.747   7.215  70.961  1.00  0.00    -0.252 A  
HETATM   12  F   UNL     1     -11.632   5.024  73.533  1.00  0.00    -0.372 F  
HETATM   13  F   UNL     1      -9.543   5.574  73.776  1.00  0.00    -0.135 F  
HETATM   14  C   UNL     1     -10.539   6.008  71.651  1.00  0.00    -0.286 A  
HETATM   15  C   UNL     1     -10.697   5.936  73.151  1.00  0.00    -0.261 C  
HETATM   16  C   UNL     1     -10.150   4.861  70.933  1.00  0.00    -0.292 A  
BRANCH   9  17
HETATM   17  N   UNL     1     -10.704   8.532  68.944  1.00  0.00    -0.405 N  
HETATM   18  O   UNL     1      -9.069   9.793  70.031  1.00  0.00    -0.218 OA 
HETATM   19  H   UNL     1     -11.458   8.608  68.262  1.00  0.00     0.000 HD 
HETATM   20  C   UNL     1      -9.928   9.661  69.166  1.00  0.00    -0.185 C  
BRANCH  20  21
HETATM   21  C   UNL     1     -10.151  10.781  68.223  1.00  0.00    -0.187 A  
HETATM   22  C   UNL     1     -11.350  10.969  67.541  1.00  0.00    -0.332 A  
HETATM   23  C   UNL     1     -11.442  11.999  66.605  1.00  0.00    -0.411 A  
HETATM   24  C   UNL     1     -10.339  12.833  66.333  1.00  0.00    -0.271 A  
HETATM   25  C   UNL     1      -9.129  12.656  67.038  1.00  0.00    -0.215 A  
HETATM   26  C   UNL     1     -10.486  13.915  65.298  1.00  0.00    -0.386 C  
HETATM   27  C   UNL     1      -9.073  11.645  68.004  1.00  0.00    -0.177 A  
BRANCH  25  28
HETATM   28  N   UNL     1      -8.037  13.507  66.824  1.00  0.00    -0.374 NA 
HETATM   29  H   UNL     1      -7.455  13.259  66.024  1.00  0.00     0.000 HD 
BRANCH  28  30
HETATM   30  C   UNL     1      -7.612  14.634  67.522  1.00  0.00    -0.194 A  
HETATM   31  N   UNL     1      -6.465  14.516  68.205  1.00  0.00    -0.124 NA 
HETATM   32  C   UNL     1      -5.992  15.629  68.795  1.00  0.00    -0.100 A  
HETATM   33  C   UNL     1      -6.595  16.860  68.696  1.00  0.00    -0.173 A  
HETATM   34  C   UNL     1      -7.771  16.899  67.978  1.00  0.00    -0.177 A  
HETATM   35  N   UNL     1      -8.287  15.786  67.417  1.00  0.00    -0.158 NA 
BRANCH  34  36
HETATM   36  C   UNL     1      -8.538  18.128  67.730  1.00  0.00    -0.258 A  
HETATM   37  C   UNL     1      -7.930  19.335  67.381  1.00  0.00    -0.264 A  
HETATM   38  N   UNL     1      -8.587  20.491  67.111  1.00  0.00    -0.315 NA 
HETATM   39  C   UNL     1      -9.934  20.449  67.179  1.00  0.00    -0.428 A  
HETATM   40  C   UNL     1     -10.649  19.311  67.509  1.00  0.00    -0.581 A  
HETATM   41  C   UNL     1      -9.940  18.144  67.783  1.00  0.00    -0.334 A  
ENDBRANCH  34  36
ENDBRANCH  28  30
ENDBRANCH  25  28
ENDBRANCH  20  21
ENDBRANCH   9  17
ENDBRANCH   4   7
TORSDOF 6
ENDMDL
MODEL       43
REMARK 921   NORMALIZED FREE ENERGY PREDICTED BY IDOCK:   -7.54 KCAL/MOL
REMARK 922        TOTAL FREE ENERGY PREDICTED BY IDOCK:  -10.80 KCAL/MOL
REMARK 923 INTER-LIGAND FREE ENERGY PREDICTED BY IDOCK:   -9.42 KCAL/MOL
REMARK 924 INTRA-LIGAND FREE ENERGY PREDICTED BY IDOCK:   -1.38 KCAL/MOL
REMARK 927      BINDING AFFINITY PREDICTED BY RF-SCORE:    0.00 PKD
ROOT
HETATM    1  C   UNL     1      -8.806   2.039  74.161  1.00  0.00    -0.066 C  
HETATM    2  C   UNL     1      -9.219   2.856  73.002  1.00  0.00    -0.089 A  
HETATM    3  C   UNL     1      -9.785   4.114  72.971  1.00  0.00    -0.129 A  
HETATM    4  N   UNL     1      -9.968   4.429  71.643  1.00  0.00    -0.187 NA 
HETATM    5  N   UNL     1      -9.047   2.383  71.732  1.00  0.00    -0.082 NA 
HETATM    6  C   UNL     1      -9.495   3.334  70.945  1.00  0.00    -0.164 A  
ENDROOT
BRANCH   4   7
HETATM    7  C   UNL     1     -10.519   5.626  71.106  1.00  0.00    -0.241 A  
HETATM    8  C   UNL     1     -10.016   6.144  69.906  1.00  0.00    -0.215 A  
HETATM    9  C   UNL     1     -10.515   7.328  69.356  1.00  0.00    -0.216 A  
HETATM   10  F   UNL     1     -13.623   9.343  71.271  1.00  0.00    -0.389 F  
HETATM   11  C   UNL     1     -11.578   7.977  69.983  1.00  0.00     0.165 A  
HETATM   12  F   UNL     1     -14.305   7.452  72.101  1.00  0.00    -0.408 F  
HETATM   13  F   UNL     1     -12.818   8.632  73.161  1.00  0.00    -0.304 F  
HETATM   14  C   UNL     1     -12.095   7.487  71.195  1.00  0.00    -0.335 A  
HETATM   15  C   UNL     1     -13.198   8.222  71.919  1.00  0.00    -0.344 C  
HETATM   16  C   UNL     1     -11.556   6.312  71.752  1.00  0.00    -0.358 A  
BRANCH   9  17
HETATM   17  N   UNL     1      -9.994   7.884  68.169  1.00  0.00    -0.173 N  
HETATM   18  O   UNL     1      -8.101   8.961  69.005  1.00  0.00    -0.110 OA 
HETATM   19  H   UNL     1     -10.533   7.752  67.314  1.00  0.00     0.000 HD 
HETATM   20  C   UNL     1      -8.808   8.598  68.072  1.00  0.00    -0.141 C  
BRANCH  20  21
HETATM   21  C   UNL     1      -8.356   8.894  66.693  1.00  0.00    -0.111 A  
HETATM   22  C   UNL     1      -7.044   8.701  66.269  1.00  0.00    -0.078 A  
HETATM   23  C   UNL     1      -6.685   9.090  64.979  1.00  0.00    -0.069 A  
HETATM   24  C   UNL     1      -7.624   9.687  64.114  1.00  0.00    -0.128 A  
HETATM   25  C   UNL     1      -8.959   9.867  64.536  1.00  0.00    -0.234 A  
HETATM   26  C   UNL     1      -7.178  10.109  62.740  1.00  0.00    -0.135 C  
HETATM   27  C   UNL     1      -9.307   9.429  65.818  1.00  0.00    -0.301 A  
BRANCH  25  28
HETATM   28  N   UNL     1      -9.922  10.408  63.675  1.00  0.00    -0.435 NA 
HETATM   29  H   UNL     1     -10.094   9.861  62.831  1.00  0.00     0.000 HD 
BRANCH  28  30
HETATM   30  C   UNL     1     -10.684  11.569  63.778  1.00  0.00    -0.408 A  
HETATM   31  N   UNL     1     -11.945  11.496  63.331  1.00  0.00    -0.221 NA 
HETATM   32  C   UNL     1     -12.721  12.579  63.523  1.00  0.00    -0.252 A  
HETATM   33  C   UNL     1     -12.301  13.712  64.178  1.00  0.00    -0.385 A  
HETATM   34  C   UNL     1     -10.991  13.710  64.606  1.00  0.00    -0.396 A  
HETATM   35  N   UNL     1     -10.183  12.653  64.383  1.00  0.00    -0.337 NA 
BRANCH  34  36
HETATM   36  C   UNL     1     -10.373  14.812  65.356  1.00  0.00    -0.410 A  
HETATM   37  C   UNL     1     -10.718  16.149  65.148  1.00  0.00    -0.371 A  
HETATM   38  N   UNL     1     -10.206  17.204  65.829  1.00  0.00    -0.572 NA 
HETATM   39  C   UNL     1      -9.301  16.919  66.789  1.00  0.00    -0.251 A  
HETATM   40  C   UNL     1      -8.884  15.635  67.092  1.00  0.00    -0.228 A  
HETATM   41  C   UNL     1      -9.429  14.577  66.368  1.00  0.00    -0.316 A  
ENDBRANCH  34  36
ENDBRANCH  28  30
ENDBRANCH  25  28
ENDBRANCH  20  21
ENDBRANCH   9  17
ENDBRANCH   4   7
TORSDOF 6
ENDMDL
MODEL       44
REMARK 921   NORMALIZED FREE ENERGY PREDICTED BY IDOCK:   -7.51 KCAL/MOL
REMARK 922        TOTAL FREE ENERGY PREDICTED BY IDOCK:  -10.76 KCAL/MOL
REMARK 923 INTER-LIGAND FREE ENERGY PREDICTED BY IDOCK:   -8.87 KCAL/MOL
REMARK 924 INTRA-LIGAND FREE ENERGY PREDICTED BY IDOCK:   -1.89 KCAL/MOL
REMARK 927      BINDING AFFINITY PREDICTED BY RF-SCORE:    0.00 PKD
ROOT
HETATM    1  C   UNL     1     -11.983   6.624  71.403  1.00  0.00    -0.405 C  
HETATM    2  C   UNL     1     -11.396   7.053  70.118  1.00  0.00    -0.277 A  
HETATM    3  C   UNL     1     -10.705   8.207  69.810  1.00  0.00    -0.229 A  
HETATM    4  N   UNL     1     -10.363   8.115  68.479  1.00  0.00    -0.208 NA 
HETATM    5  N   UNL     1     -11.493   6.250  69.016  1.00  0.00    -0.261 NA 
HETATM    6  C   UNL     1     -10.871   6.901  68.060  1.00  0.00    -0.200 A  
ENDROOT
BRANCH   4   7
HETATM    7  C   UNL     1      -9.639   9.065  67.704  1.00  0.00    -0.150 A  
HETATM    8  C   UNL     1      -9.184  10.246  68.303  1.00  0.00    -0.139 A  
HETATM    9  C   UNL     1      -8.488  11.214  67.574  1.00  0.00    -0.126 A  
HETATM   10  F   UNL     1      -7.669  10.560  63.538  1.00  0.00    -0.150 F  
HETATM   11  C   UNL     1      -8.187  10.972  66.234  1.00  0.00    -0.164 A  
HETATM   12  F   UNL     1      -7.685   8.417  63.907  1.00  0.00    -0.111 F  
HETATM   13  F   UNL     1      -9.535   9.450  63.417  1.00  0.00    -0.205 F  
HETATM   14  C   UNL     1      -8.641   9.801  65.602  1.00  0.00    -0.154 A  
HETATM   15  C   UNL     1      -8.383   9.563  64.134  1.00  0.00    -0.172 C  
HETATM   16  C   UNL     1      -9.371   8.854  66.346  1.00  0.00    -0.262 A  
BRANCH   9  17
HETATM   17  N   UNL     1      -8.057  12.426  68.151  1.00  0.00    -0.155 N  
HETATM   18  O   UNL     1      -6.043  11.743  69.110  1.00  0.00    -0.064 OA 
HETATM   19  H   UNL     1      -8.681  13.229  68.075  1.00  0.00     0.000 HD 
HETATM   20  C   UNL     1      -6.853  12.614  68.814  1.00  0.00    -0.096 C  
BRANCH  20  21
HETATM   21  C   UNL     1      -6.521  14.020  69.143  1.00  0.00    -0.113 A  
HETATM   22  C   UNL     1      -5.335  14.391  69.770  1.00  0.00    -0.093 A  
HETATM   23  C   UNL     1      -5.144  15.726  70.122  1.00  0.00    -0.129 A  
HETATM   24  C   UNL     1      -6.137  16.693  69.866  1.00  0.00    -0.192 A  
HETATM   25  C   UNL     1      -7.332  16.323  69.213  1.00  0.00    -0.221 A  
HETATM   26  C   UNL     1      -5.888  18.116  70.286  1.00  0.00    -0.143 C  
HETATM   27  C   UNL     1      -7.484  14.985  68.830  1.00  0.00    -0.133 A  
BRANCH  25  28
HETATM   28  N   UNL     1      -8.310  17.275  68.900  1.00  0.00    -0.223 NA 
HETATM   29  H   UNL     1      -8.365  18.058  69.552  1.00  0.00     0.000 HD 
BRANCH  28  30
HETATM   30  C   UNL     1      -9.220  17.333  67.847  1.00  0.00    -0.247 A  
HETATM   31  N   UNL     1      -9.325  18.509  67.214  1.00  0.00    -0.277 NA 
HETATM   32  C   UNL     1     -10.122  18.545  66.130  1.00  0.00    -0.368 A  
HETATM   33  C   UNL     1     -10.783  17.448  65.631  1.00  0.00    -0.113 A  
HETATM   34  C   UNL     1     -10.624  16.276  66.340  1.00  0.00    -0.253 A  
HETATM   35  N   UNL     1      -9.867  16.228  67.455  1.00  0.00    -0.239 NA 
BRANCH  34  36
HETATM   36  C   UNL     1     -11.219  14.993  65.942  1.00  0.00    -0.313 A  
HETATM   37  C   UNL     1     -11.759  14.776  64.673  1.00  0.00    -0.422 A  
HETATM   38  N   UNL     1     -12.293  13.607  64.239  1.00  0.00    -0.624 NA 
HETATM   39  C   UNL     1     -12.282  12.579  65.114  1.00  0.00    -0.448 A  
HETATM   40  C   UNL     1     -11.769  12.669  66.395  1.00  0.00    -0.466 A  
HETATM   41  C   UNL     1     -11.233  13.888  66.807  1.00  0.00    -0.328 A  
ENDBRANCH  34  36
ENDBRANCH  28  30
ENDBRANCH  25  28
ENDBRANCH  20  21
ENDBRANCH   9  17
ENDBRANCH   4   7
TORSDOF 6
ENDMDL
MODEL       45
REMARK 921   NORMALIZED FREE ENERGY PREDICTED BY IDOCK:   -7.38 KCAL/MOL
REMARK 922        TOTAL FREE ENERGY PREDICTED BY IDOCK:  -10.58 KCAL/MOL
REMARK 923 INTER-LIGAND FREE ENERGY PREDICTED BY IDOCK:   -9.15 KCAL/MOL
REMARK 924 INTRA-LIGAND FREE ENERGY PREDICTED BY IDOCK:   -1.43 KCAL/MOL
REMARK 927      BINDING AFFINITY PREDICTED BY RF-SCORE:    0.00 PKD
ROOT
HETATM    1  C   UNL     1      -5.824   5.886  72.834  1.00  0.00    -0.037 C  
HETATM    2  C   UNL     1      -6.628   6.881  72.097  1.00  0.00    -0.057 A  
HETATM    3  C   UNL     1      -7.995   7.073  72.087  1.00  0.00    -0.093 A  
HETATM    4  N   UNL     1      -8.235   8.137  71.246  1.00  0.00    -0.107 NA 
HETATM    5  N   UNL     1      -6.016   7.795  71.286  1.00  0.00    -0.035 NA 
HETATM    6  C   UNL     1      -6.989   8.529  70.797  1.00  0.00    -0.050 A  
ENDROOT
BRANCH   4   7
HETATM    7  C   UNL     1      -9.495   8.712  70.917  1.00  0.00    -0.194 A  
HETATM    8  C   UNL     1      -9.570   9.692  69.919  1.00  0.00    -0.260 A  
HETATM    9  C   UNL     1     -10.784  10.296  69.580  1.00  0.00    -0.249 A  
HETATM   10  F   UNL     1     -14.285   9.119  71.513  1.00  0.00    -0.393 F  
HETATM   11  C   UNL     1     -11.955   9.872  70.205  1.00  0.00    -0.209 A  
HETATM   12  F   UNL     1     -13.416   7.153  71.839  1.00  0.00    -0.370 F  
HETATM   13  F   UNL     1     -13.088   8.741  73.288  1.00  0.00    -0.223 F  
HETATM   14  C   UNL     1     -11.909   8.899  71.219  1.00  0.00    -0.371 A  
HETATM   15  C   UNL     1     -13.162   8.485  71.953  1.00  0.00    -0.369 C  
HETATM   16  C   UNL     1     -10.671   8.327  71.571  1.00  0.00    -0.295 A  
BRANCH   9  17
HETATM   17  N   UNL     1     -10.872  11.312  68.606  1.00  0.00    -0.190 N  
HETATM   18  O   UNL     1     -10.536  10.063  66.664  1.00  0.00    -0.223 OA 
HETATM   19  H   UNL     1     -10.995  12.269  68.936  1.00  0.00     0.000 HD 
HETATM   20  C   UNL     1     -10.805  11.115  67.234  1.00  0.00    -0.274 C  
BRANCH  20  21
HETATM   21  C   UNL     1     -11.140  12.295  66.405  1.00  0.00    -0.345 A  
HETATM   22  C   UNL     1     -11.371  12.217  65.034  1.00  0.00    -0.379 A  
HETATM   23  C   UNL     1     -11.592  13.392  64.316  1.00  0.00    -0.442 A  
HETATM   24  C   UNL     1     -11.570  14.647  64.956  1.00  0.00    -0.385 A  
HETATM   25  C   UNL     1     -11.355  14.728  66.348  1.00  0.00    -0.339 A  
HETATM   26  C   UNL     1     -11.794  15.885  64.130  1.00  0.00     0.025 C  
HETATM   27  C   UNL     1     -11.179  13.533  67.055  1.00  0.00    -0.330 A  
BRANCH  25  28
HETATM   28  N   UNL     1     -11.382  15.960  67.014  1.00  0.00    -0.019 NA 
HETATM   29  H   UNL     1     -12.307  16.253  67.329  1.00  0.00     0.000 HD 
BRANCH  28  30
HETATM   30  C   UNL     1     -10.357  16.852  67.318  1.00  0.00    -0.309 A  
HETATM   31  N   UNL     1     -10.560  18.132  66.978  1.00  0.00    -0.363 NA 
HETATM   32  C   UNL     1      -9.622  19.017  67.362  1.00  0.00    -0.306 A  
HETATM   33  C   UNL     1      -8.515  18.684  68.105  1.00  0.00    -0.336 A  
HETATM   34  C   UNL     1      -8.377  17.347  68.413  1.00  0.00    -0.263 A  
HETATM   35  N   UNL     1      -9.281  16.436  67.999  1.00  0.00    -0.203 NA 
BRANCH  34  36
HETATM   36  C   UNL     1      -7.283  16.805  69.229  1.00  0.00    -0.181 A  
HETATM   37  C   UNL     1      -7.193  15.452  69.562  1.00  0.00    -0.202 A  
HETATM   38  N   UNL     1      -6.191  14.890  70.284  1.00  0.00    -0.162 NA 
HETATM   39  C   UNL     1      -5.207  15.717  70.695  1.00  0.00    -0.168 A  
HETATM   40  C   UNL     1      -5.181  17.073  70.421  1.00  0.00    -0.227 A  
HETATM   41  C   UNL     1      -6.229  17.615  69.680  1.00  0.00    -0.220 A  
ENDBRANCH  34  36
ENDBRANCH  28  30
ENDBRANCH  25  28
ENDBRANCH  20  21
ENDBRANCH   9  17
ENDBRANCH   4   7
TORSDOF 6
ENDMDL
MODEL       46
REMARK 921   NORMALIZED FREE ENERGY PREDICTED BY IDOCK:   -7.37 KCAL/MOL
REMARK 922        TOTAL FREE ENERGY PREDICTED BY IDOCK:  -10.56 KCAL/MOL
REMARK 923 INTER-LIGAND FREE ENERGY PREDICTED BY IDOCK:   -9.27 KCAL/MOL
REMARK 924 INTRA-LIGAND FREE ENERGY PREDICTED BY IDOCK:   -1.29 KCAL/MOL
REMARK 927      BINDING AFFINITY PREDICTED BY RF-SCORE:    0.00 PKD
ROOT
HETATM    1  C   UNL     1      -7.414   2.390  68.165  1.00  0.00    -0.055 C  
HETATM    2  C   UNL     1      -8.209   3.499  67.600  1.00  0.00    -0.085 A  
HETATM    3  C   UNL     1      -7.997   4.861  67.680  1.00  0.00    -0.094 A  
HETATM    4  N   UNL     1      -9.019   5.457  66.976  1.00  0.00    -0.113 NA 
HETATM    5  N   UNL     1      -9.332   3.237  66.869  1.00  0.00    -0.180 NA 
HETATM    6  C   UNL     1      -9.792   4.413  66.508  1.00  0.00    -0.229 A  
ENDROOT
BRANCH   4   7
HETATM    7  C   UNL     1      -9.230   6.851  66.771  1.00  0.00    -0.152 A  
HETATM    8  C   UNL     1      -9.984   7.582  67.697  1.00  0.00    -0.219 A  
HETATM    9  C   UNL     1     -10.232   8.946  67.523  1.00  0.00    -0.248 A  
HETATM   10  F   UNL     1      -8.641  10.924  64.214  1.00  0.00    -0.166 F  
HETATM   11  C   UNL     1      -9.667   9.608  66.433  1.00  0.00    -0.285 A  
HETATM   12  F   UNL     1      -7.006   9.490  64.174  1.00  0.00    -0.095 F  
HETATM   13  F   UNL     1      -8.850   9.069  63.100  1.00  0.00    -0.211 F  
HETATM   14  C   UNL     1      -8.916   8.898  65.480  1.00  0.00    -0.246 A  
HETATM   15  C   UNL     1      -8.361   9.591  64.259  1.00  0.00    -0.170 C  
HETATM   16  C   UNL     1      -8.706   7.516  65.656  1.00  0.00    -0.105 A  
BRANCH   9  17
HETATM   17  N   UNL     1     -11.021   9.689  68.425  1.00  0.00    -0.445 N  
HETATM   18  O   UNL     1     -10.393   8.702  70.444  1.00  0.00    -0.191 OA 
HETATM   19  H   UNL     1     -11.660  10.379  68.030  1.00  0.00     0.000 HD 
HETATM   20  C   UNL     1     -10.998   9.557  69.806  1.00  0.00    -0.223 C  
BRANCH  20  21
HETATM   21  C   UNL     1     -11.748  10.590  70.556  1.00  0.00    -0.443 A  
HETATM   22  C   UNL     1     -12.608  10.287  71.608  1.00  0.00    -0.534 A  
HETATM   23  C   UNL     1     -13.343  11.315  72.200  1.00  0.00    -0.263 A  
HETATM   24  C   UNL     1     -13.235  12.642  71.738  1.00  0.00    -0.457 A  
HETATM   25  C   UNL     1     -12.349  12.954  70.684  1.00  0.00    -0.302 A  
HETATM   26  C   UNL     1     -14.067  13.708  72.398  1.00  0.00    -0.586 C  
HETATM   27  C   UNL     1     -11.591  11.915  70.134  1.00  0.00    -0.252 A  
BRANCH  25  28
HETATM   28  N   UNL     1     -12.186  14.274  70.244  1.00  0.00    -0.322 NA 
HETATM   29  H   UNL     1     -12.786  14.954  70.709  1.00  0.00     0.000 HD 
BRANCH  28  30
HETATM   30  C   UNL     1     -11.342  14.812  69.277  1.00  0.00    -0.294 A  
HETATM   31  N   UNL     1     -11.634  16.048  68.851  1.00  0.00    -0.374 NA 
HETATM   32  C   UNL     1     -10.764  16.617  67.996  1.00  0.00    -0.350 A  
HETATM   33  C   UNL     1      -9.598  16.019  67.583  1.00  0.00    -0.218 A  
HETATM   34  C   UNL     1      -9.370  14.748  68.064  1.00  0.00    -0.196 A  
HETATM   35  N   UNL     1     -10.251  14.141  68.886  1.00  0.00    -0.212 NA 
BRANCH  34  36
HETATM   36  C   UNL     1      -8.163  13.965  67.766  1.00  0.00    -0.173 A  
HETATM   37  C   UNL     1      -6.921  14.558  67.531  1.00  0.00    -0.164 A  
HETATM   38  N   UNL     1      -5.769  13.888  67.282  1.00  0.00    -0.243 NA 
HETATM   39  C   UNL     1      -5.845  12.540  67.276  1.00  0.00    -0.100 A  
HETATM   40  C   UNL     1      -7.016  11.838  67.501  1.00  0.00    -0.113 A  
HETATM   41  C   UNL     1      -8.181  12.562  67.750  1.00  0.00    -0.166 A  
ENDBRANCH  34  36
ENDBRANCH  28  30
ENDBRANCH  25  28
ENDBRANCH  20  21
ENDBRANCH   9  17
ENDBRANCH   4   7
TORSDOF 6
ENDMDL
MODEL       47
REMARK 921   NORMALIZED FREE ENERGY PREDICTED BY IDOCK:   -7.26 KCAL/MOL
REMARK 922        TOTAL FREE ENERGY PREDICTED BY IDOCK:  -10.41 KCAL/MOL
REMARK 923 INTER-LIGAND FREE ENERGY PREDICTED BY IDOCK:   -9.33 KCAL/MOL
REMARK 924 INTRA-LIGAND FREE ENERGY PREDICTED BY IDOCK:   -1.09 KCAL/MOL
REMARK 927      BINDING AFFINITY PREDICTED BY RF-SCORE:    0.00 PKD
ROOT
HETATM    1  C   UNL     1      -7.929  20.719  67.057  1.00  0.00    -0.230 C  
HETATM    2  C   UNL     1      -8.920  19.642  67.252  1.00  0.00    -0.318 A  
HETATM    3  C   UNL     1      -8.735  18.348  67.696  1.00  0.00    -0.260 A  
HETATM    4  N   UNL     1      -9.979  17.757  67.708  1.00  0.00    -0.307 NA 
HETATM    5  N   UNL     1     -10.241  19.868  66.989  1.00  0.00    -0.429 NA 
HETATM    6  C   UNL     1     -10.848  18.737  67.270  1.00  0.00    -0.340 A  
ENDROOT
BRANCH   4   7
HETATM    7  C   UNL     1     -10.300  16.425  68.095  1.00  0.00    -0.283 A  
HETATM    8  C   UNL     1      -9.859  15.351  67.313  1.00  0.00    -0.217 A  
HETATM    9  C   UNL     1     -10.169  14.029  67.646  1.00  0.00    -0.241 A  
HETATM   10  F   UNL     1     -12.396  13.237  71.081  1.00  0.00    -0.415 F  
HETATM   11  C   UNL     1     -10.884  13.770  68.815  1.00  0.00    -0.281 A  
HETATM   12  F   UNL     1     -11.621  15.062  71.975  1.00  0.00    -0.408 F  
HETATM   13  F   UNL     1     -13.423  15.126  70.759  1.00  0.00    -0.425 F  
HETATM   14  C   UNL     1     -11.351  14.829  69.613  1.00  0.00    -0.316 A  
HETATM   15  C   UNL     1     -12.186  14.563  70.842  1.00  0.00    -0.339 C  
HETATM   16  C   UNL     1     -11.056  16.156  69.242  1.00  0.00    -0.327 A  
BRANCH   9  17
HETATM   17  N   UNL     1      -9.767  12.938  66.849  1.00  0.00    -0.233 N  
HETATM   18  O   UNL     1     -11.774  12.445  65.766  1.00  0.00    -0.383 OA 
HETATM   19  H   UNL     1      -8.807  12.610  66.954  1.00  0.00     0.000 HD 
HETATM   20  C   UNL     1     -10.571  12.274  65.933  1.00  0.00    -0.256 C  
BRANCH  20  21
HETATM   21  C   UNL     1      -9.872  11.306  65.058  1.00  0.00    -0.307 A  
HETATM   22  C   UNL     1     -10.098  11.225  63.687  1.00  0.00    -0.432 A  
HETATM   23  C   UNL     1      -9.462  10.224  62.953  1.00  0.00    -0.333 A  
HETATM   24  C   UNL     1      -8.612   9.292  63.582  1.00  0.00    -0.208 A  
HETATM   25  C   UNL     1      -8.366   9.385  64.969  1.00  0.00    -0.150 A  
HETATM   26  C   UNL     1      -7.969   8.219  62.747  1.00  0.00    -0.159 C  
HETATM   27  C   UNL     1      -8.981  10.423  65.677  1.00  0.00    -0.198 A  
BRANCH  25  28
HETATM   28  N   UNL     1      -7.484   8.504  65.607  1.00  0.00    -0.083 NA 
HETATM   29  H   UNL     1      -6.521   8.835  65.667  1.00  0.00     0.000 HD 
BRANCH  28  30
HETATM   30  C   UNL     1      -7.701   7.250  66.173  1.00  0.00    -0.101 A  
HETATM   31  N   UNL     1      -7.510   7.152  67.495  1.00  0.00    -0.098 NA 
HETATM   32  C   UNL     1      -7.819   5.973  68.067  1.00  0.00    -0.106 A  
HETATM   33  C   UNL     1      -8.349   4.907  67.380  1.00  0.00    -0.105 A  
HETATM   34  C   UNL     1      -8.514   5.087  66.023  1.00  0.00    -0.116 A  
HETATM   35  N   UNL     1      -8.168   6.244  65.423  1.00  0.00    -0.138 NA 
BRANCH  34  36
HETATM   36  C   UNL     1      -9.099   4.078  65.130  1.00  0.00    -0.139 A  
HETATM   37  C   UNL     1     -10.253   4.316  64.382  1.00  0.00    -0.057 A  
HETATM   38  N   UNL     1     -10.821   3.436  63.519  1.00  0.00    -0.241 NA 
HETATM   39  C   UNL     1     -10.201   2.246  63.377  1.00  0.00    -0.145 A  
HETATM   40  C   UNL     1      -9.049   1.896  64.059  1.00  0.00    -0.106 A  
HETATM   41  C   UNL     1      -8.497   2.825  64.940  1.00  0.00    -0.094 A  
ENDBRANCH  34  36
ENDBRANCH  28  30
ENDBRANCH  25  28
ENDBRANCH  20  21
ENDBRANCH   9  17
ENDBRANCH   4   7
TORSDOF 6
ENDMDL
MODEL       48
REMARK 921   NORMALIZED FREE ENERGY PREDICTED BY IDOCK:   -7.24 KCAL/MOL
REMARK 922        TOTAL FREE ENERGY PREDICTED BY IDOCK:  -10.39 KCAL/MOL
REMARK 923 INTER-LIGAND FREE ENERGY PREDICTED BY IDOCK:   -9.65 KCAL/MOL
REMARK 924 INTRA-LIGAND FREE ENERGY PREDICTED BY IDOCK:   -0.73 KCAL/MOL
REMARK 927      BINDING AFFINITY PREDICTED BY RF-SCORE:    0.00 PKD
ROOT
HETATM    1  C   UNL     1     -10.460   3.382  64.165  1.00  0.00    -0.181 C  
HETATM    2  C   UNL     1     -10.195   4.089  65.434  1.00  0.00    -0.112 A  
HETATM    3  C   UNL     1     -10.634   5.327  65.858  1.00  0.00    -0.034 A  
HETATM    4  N   UNL     1     -10.115   5.515  67.119  1.00  0.00    -0.167 NA 
HETATM    5  N   UNL     1      -9.419   3.507  66.395  1.00  0.00    -0.176 NA 
HETATM    6  C   UNL     1      -9.389   4.371  67.385  1.00  0.00    -0.155 A  
ENDROOT
BRANCH   4   7
HETATM    7  C   UNL     1     -10.293   6.645  67.968  1.00  0.00    -0.191 A  
HETATM    8  C   UNL     1     -10.613   7.888  67.409  1.00  0.00    -0.342 A  
HETATM    9  C   UNL     1     -10.775   9.026  68.205  1.00  0.00    -0.109 A  
HETATM   10  F   UNL     1     -10.374   8.722  72.344  1.00  0.00    -0.377 F  
HETATM   11  C   UNL     1     -10.675   8.909  69.590  1.00  0.00    -0.222 A  
HETATM   12  F   UNL     1     -11.004   6.644  72.228  1.00  0.00    -0.233 F  
HETATM   13  F   UNL     1      -8.902   7.158  72.010  1.00  0.00    -0.125 F  
HETATM   14  C   UNL     1     -10.342   7.677  70.179  1.00  0.00    -0.217 A  
HETATM   15  C   UNL     1     -10.160   7.556  71.672  1.00  0.00    -0.180 C  
HETATM   16  C   UNL     1     -10.148   6.549  69.357  1.00  0.00    -0.198 A  
BRANCH   9  17
HETATM   17  N   UNL     1     -11.060  10.293  67.656  1.00  0.00    -0.365 N  
HETATM   18  O   UNL     1      -8.970  10.852  66.781  1.00  0.00    -0.146 OA 
HETATM   19  H   UNL     1     -11.999  10.665  67.797  1.00  0.00     0.000 HD 
HETATM   20  C   UNL     1     -10.165  11.076  66.940  1.00  0.00    -0.222 C  
BRANCH  20  21
HETATM   21  C   UNL     1     -10.749  12.264  66.277  1.00  0.00    -0.293 A  
HETATM   22  C   UNL     1     -12.031  12.274  65.733  1.00  0.00    -0.362 A  
HETATM   23  C   UNL     1     -12.467  13.408  65.048  1.00  0.00    -0.479 A  
HETATM   24  C   UNL     1     -11.626  14.528  64.889  1.00  0.00    -0.401 A  
HETATM   25  C   UNL     1     -10.333  14.527  65.457  1.00  0.00    -0.359 A  
HETATM   26  C   UNL     1     -12.139  15.717  64.123  1.00  0.00    -0.002 C  
HETATM   27  C   UNL     1      -9.933  13.396  66.176  1.00  0.00    -0.299 A  
BRANCH  25  28
HETATM   28  N   UNL     1      -9.500  15.648  65.358  1.00  0.00    -0.303 NA 
HETATM   29  H   UNL     1      -8.793  15.589  64.626  1.00  0.00     0.000 HD 
BRANCH  28  30
HETATM   30  C   UNL     1      -9.475  16.831  66.093  1.00  0.00    -0.264 A  
HETATM   31  N   UNL     1     -10.567  17.604  66.014  1.00  0.00    -0.346 NA 
HETATM   32  C   UNL     1     -10.595  18.695  66.802  1.00  0.00    -0.371 A  
HETATM   33  C   UNL     1      -9.601  19.020  67.693  1.00  0.00    -0.362 A  
HETATM   34  C   UNL     1      -8.512  18.175  67.714  1.00  0.00    -0.248 A  
HETATM   35  N   UNL     1      -8.441  17.102  66.899  1.00  0.00    -0.210 NA 
BRANCH  34  36
HETATM   36  C   UNL     1      -7.369  18.335  68.624  1.00  0.00    -0.303 A  
HETATM   37  C   UNL     1      -6.834  19.584  68.945  1.00  0.00    -0.341 A  
HETATM   38  N   UNL     1      -5.803  19.796  69.800  1.00  0.00    -0.262 NA 
HETATM   39  C   UNL     1      -5.272  18.703  70.386  1.00  0.00    -0.234 A  
HETATM   40  C   UNL     1      -5.720  17.415  70.154  1.00  0.00    -0.231 A  
HETATM   41  C   UNL     1      -6.779  17.236  69.266  1.00  0.00    -0.230 A  
ENDBRANCH  34  36
ENDBRANCH  28  30
ENDBRANCH  25  28
ENDBRANCH  20  21
ENDBRANCH   9  17
ENDBRANCH   4   7
TORSDOF 6
ENDMDL
MODEL       49
REMARK 921   NORMALIZED FREE ENERGY PREDICTED BY IDOCK:   -7.17 KCAL/MOL
REMARK 922        TOTAL FREE ENERGY PREDICTED BY IDOCK:  -10.30 KCAL/MOL
REMARK 923 INTER-LIGAND FREE ENERGY PREDICTED BY IDOCK:   -8.96 KCAL/MOL
REMARK 924 INTRA-LIGAND FREE ENERGY PREDICTED BY IDOCK:   -1.35 KCAL/MOL
REMARK 927      BINDING AFFINITY PREDICTED BY RF-SCORE:    0.00 PKD
ROOT
HETATM    1  C   UNL     1      -9.656  19.303  68.278  1.00  0.00    -0.438 C  
HETATM    2  C   UNL     1      -9.451  17.845  68.160  1.00  0.00    -0.288 A  
HETATM    3  C   UNL     1     -10.317  16.870  67.710  1.00  0.00    -0.327 A  
HETATM    4  N   UNL     1      -9.638  15.675  67.790  1.00  0.00    -0.209 NA 
HETATM    5  N   UNL     1      -8.255  17.288  68.516  1.00  0.00    -0.259 NA 
HETATM    6  C   UNL     1      -8.390  16.003  68.285  1.00  0.00    -0.164 A  
ENDROOT
BRANCH   4   7
HETATM    7  C   UNL     1     -10.116  14.382  67.434  1.00  0.00    -0.243 A  
HETATM    8  C   UNL     1     -10.183  13.376  68.405  1.00  0.00    -0.251 A  
HETATM    9  C   UNL     1     -10.627  12.088  68.092  1.00  0.00    -0.210 A  
HETATM   10  F   UNL     1     -11.856  11.218  64.204  1.00  0.00    -0.282 F  
HETATM   11  C   UNL     1     -11.070  11.814  66.799  1.00  0.00    -0.360 A  
HETATM   12  F   UNL     1     -12.415  13.302  63.940  1.00  0.00    -0.436 F  
HETATM   13  F   UNL     1     -10.386  12.656  63.498  1.00  0.00    -0.406 F  
HETATM   14  C   UNL     1     -11.002  12.801  65.799  1.00  0.00    -0.306 A  
HETATM   15  C   UNL     1     -11.412  12.494  64.379  1.00  0.00    -0.349 C  
HETATM   16  C   UNL     1     -10.520  14.083  66.126  1.00  0.00    -0.297 A  
BRANCH   9  17
HETATM   17  N   UNL     1     -10.664  11.052  69.048  1.00  0.00    -0.208 N  
HETATM   18  O   UNL     1     -12.952  10.974  69.497  1.00  0.00    -0.092 OA 
HETATM   19  H   UNL     1      -9.772  10.650  69.338  1.00  0.00     0.000 HD 
HETATM   20  C   UNL     1     -11.814  10.536  69.626  1.00  0.00    -0.234 C  
BRANCH  20  21
HETATM   21  C   UNL     1     -11.624   9.310  70.435  1.00  0.00    -0.215 A  
HETATM   22  C   UNL     1     -12.400   9.013  71.553  1.00  0.00    -0.397 A  
HETATM   23  C   UNL     1     -12.093   7.881  72.308  1.00  0.00    -0.363 A  
HETATM   24  C   UNL     1     -11.008   7.051  71.963  1.00  0.00    -0.264 A  
HETATM   25  C   UNL     1     -10.232   7.340  70.820  1.00  0.00    -0.197 A  
HETATM   26  C   UNL     1     -10.708   5.855  72.825  1.00  0.00    -0.274 C  
HETATM   27  C   UNL     1     -10.585   8.456  70.052  1.00  0.00    -0.235 A  
BRANCH  25  28
HETATM   28  N   UNL     1      -9.182   6.500  70.427  1.00  0.00    -0.155 NA 
HETATM   29  H   UNL     1      -8.283   6.714  70.858  1.00  0.00     0.000 HD 
BRANCH  28  30
HETATM   30  C   UNL     1      -9.160   5.422  69.547  1.00  0.00    -0.112 A  
HETATM   31  N   UNL     1      -9.505   4.231  70.054  1.00  0.00    -0.165 NA 
HETATM   32  C   UNL     1      -9.589   3.204  69.188  1.00  0.00    -0.011 A  
HETATM   33  C   UNL     1      -9.385   3.328  67.835  1.00  0.00    -0.246 A  
HETATM   34  C   UNL     1      -9.033   4.585  67.392  1.00  0.00    -0.114 A  
HETATM   35  N   UNL     1      -8.898   5.617  68.248  1.00  0.00    -0.109 NA 
BRANCH  34  36
HETATM   36  C   UNL     1      -8.811   4.921  65.979  1.00  0.00    -0.126 A  
HETATM   37  C   UNL     1      -8.041   6.014  65.578  1.00  0.00    -0.133 A  
HETATM   38  N   UNL     1      -7.777   6.355  64.292  1.00  0.00    -0.103 NA 
HETATM   39  C   UNL     1      -8.298   5.556  63.338  1.00  0.00    -0.078 A  
HETATM   40  C   UNL     1      -9.071   4.441  63.610  1.00  0.00    -0.136 A  
HETATM   41  C   UNL     1      -9.325   4.125  64.943  1.00  0.00    -0.164 A  
ENDBRANCH  34  36
ENDBRANCH  28  30
ENDBRANCH  25  28
ENDBRANCH  20  21
ENDBRANCH   9  17
ENDBRANCH   4   7
TORSDOF 6
ENDMDL
MODEL       50
REMARK 921   NORMALIZED FREE ENERGY PREDICTED BY IDOCK:   -6.96 KCAL/MOL
REMARK 922        TOTAL FREE ENERGY PREDICTED BY IDOCK:  -10.01 KCAL/MOL
REMARK 923 INTER-LIGAND FREE ENERGY PREDICTED BY IDOCK:   -8.89 KCAL/MOL
REMARK 924 INTRA-LIGAND FREE ENERGY PREDICTED BY IDOCK:   -1.12 KCAL/MOL
REMARK 927      BINDING AFFINITY PREDICTED BY RF-SCORE:    0.00 PKD
ROOT
HETATM    1  C   UNL     1      -9.527  20.608  66.984  1.00  0.00    -0.461 C  
HETATM    2  C   UNL     1      -9.210  19.200  66.673  1.00  0.00    -0.334 A  
HETATM    3  C   UNL     1      -9.998  18.074  66.798  1.00  0.00    -0.346 A  
HETATM    4  N   UNL     1      -9.236  17.013  66.362  1.00  0.00    -0.274 NA 
HETATM    5  N   UNL     1      -7.983  18.866  66.173  1.00  0.00    -0.401 NA 
HETATM    6  C   UNL     1      -8.025  17.566  65.995  1.00  0.00    -0.157 A  
ENDROOT
BRANCH   4   7
HETATM    7  C   UNL     1      -9.618  15.642  66.300  1.00  0.00    -0.308 A  
HETATM    8  C   UNL     1      -8.860  14.680  66.978  1.00  0.00    -0.262 A  
HETATM    9  C   UNL     1      -9.187  13.322  66.925  1.00  0.00    -0.241 A  
HETATM   10  F   UNL     1     -12.536  12.092  64.767  1.00  0.00    -0.475 F  
HETATM   11  C   UNL     1     -10.329  12.923  66.231  1.00  0.00    -0.278 A  
HETATM   12  F   UNL     1     -13.450  14.033  65.124  1.00  0.00    -0.261 F  
HETATM   13  F   UNL     1     -12.163  13.738  63.396  1.00  0.00    -0.529 F  
HETATM   14  C   UNL     1     -11.102  13.865  65.530  1.00  0.00    -0.304 A  
HETATM   15  C   UNL     1     -12.298  13.433  64.716  1.00  0.00    -0.396 C  
HETATM   16  C   UNL     1     -10.736  15.224  65.567  1.00  0.00    -0.385 A  
BRANCH   9  17
HETATM   17  N   UNL     1      -8.413  12.336  67.569  1.00  0.00    -0.162 N  
HETATM   18  O   UNL     1     -10.009  11.420  69.005  1.00  0.00    -0.171 OA 
HETATM   19  H   UNL     1      -7.423  12.286  67.329  1.00  0.00     0.000 HD 
HETATM   20  C   UNL     1      -8.889  11.428  68.504  1.00  0.00    -0.151 C  
BRANCH  20  21
HETATM   21  C   UNL     1      -7.946  10.349  68.880  1.00  0.00    -0.123 A  
HETATM   22  C   UNL     1      -6.897  10.539  69.775  1.00  0.00    -0.138 A  
HETATM   23  C   UNL     1      -6.004   9.492  70.003  1.00  0.00    -0.041 A  
HETATM   24  C   UNL     1      -6.143   8.261  69.331  1.00  0.00    -0.037 A  
HETATM   25  C   UNL     1      -7.218   8.060  68.438  1.00  0.00    -0.089 A  
HETATM   26  C   UNL     1      -5.139   7.172  69.598  1.00  0.00    -0.015 C  
HETATM   27  C   UNL     1      -8.126   9.109  68.258  1.00  0.00    -0.104 A  
BRANCH  25  28
HETATM   28  N   UNL     1      -7.407   6.828  67.800  1.00  0.00    -0.094 NA 
HETATM   29  H   UNL     1      -6.938   6.739  66.899  1.00  0.00     0.000 HD 
BRANCH  28  30
HETATM   30  C   UNL     1      -8.129   5.703  68.191  1.00  0.00    -0.097 A  
HETATM   31  N   UNL     1      -8.101   4.657  67.354  1.00  0.00    -0.101 NA 
HETATM   32  C   UNL     1      -8.707   3.530  67.772  1.00  0.00    -0.108 A  
HETATM   33  C   UNL     1      -9.301   3.394  69.003  1.00  0.00    -0.239 A  
HETATM   34  C   UNL     1      -9.288   4.515  69.805  1.00  0.00    -0.153 A  
HETATM   35  N   UNL     1      -8.727   5.668  69.388  1.00  0.00    -0.108 NA 
BRANCH  34  36
HETATM   36  C   UNL     1      -9.838   4.552  71.167  1.00  0.00    -0.263 A  
HETATM   37  C   UNL     1     -10.430   5.695  71.707  1.00  0.00    -0.228 A  
HETATM   38  N   UNL     1     -10.981   5.780  72.944  1.00  0.00    -0.258 NA 
HETATM   39  C   UNL     1     -10.957   4.658  73.693  1.00  0.00    -0.316 A  
HETATM   40  C   UNL     1     -10.406   3.464  73.265  1.00  0.00    -0.242 A  
HETATM   41  C   UNL     1      -9.845   3.416  71.991  1.00  0.00    -0.239 A  
ENDBRANCH  34  36
ENDBRANCH  28  30
ENDBRANCH  25  28
ENDBRANCH  20  21
ENDBRANCH   9  17
ENDBRANCH   4   7
TORSDOF 6
ENDMDL
MODEL       51
REMARK 921   NORMALIZED FREE ENERGY PREDICTED BY IDOCK:   -6.95 KCAL/MOL
REMARK 922        TOTAL FREE ENERGY PREDICTED BY IDOCK:  -10.00 KCAL/MOL
REMARK 923 INTER-LIGAND FREE ENERGY PREDICTED BY IDOCK:  -10.08 KCAL/MOL
REMARK 924 INTRA-LIGAND FREE ENERGY PREDICTED BY IDOCK:    0.08 KCAL/MOL
REMARK 927      BINDING AFFINITY PREDICTED BY RF-SCORE:    0.00 PKD
ROOT
HETATM    1  C   UNL     1     -10.140   2.499  74.239  1.00  0.00    -0.170 C  
HETATM    2  C   UNL     1     -10.411   3.706  73.434  1.00  0.00    -0.179 A  
HETATM    3  C   UNL     1     -10.106   3.969  72.114  1.00  0.00    -0.163 A  
HETATM    4  N   UNL     1     -10.585   5.231  71.845  1.00  0.00    -0.222 NA 
HETATM    5  N   UNL     1     -11.064   4.770  73.989  1.00  0.00    -0.282 NA 
HETATM    6  C   UNL     1     -11.158   5.659  73.027  1.00  0.00    -0.282 A  
ENDROOT
BRANCH   4   7
HETATM    7  C   UNL     1     -10.511   5.940  70.612  1.00  0.00    -0.253 A  
HETATM    8  C   UNL     1     -10.823   7.305  70.577  1.00  0.00    -0.262 A  
HETATM    9  C   UNL     1     -10.783   8.033  69.384  1.00  0.00    -0.159 A  
HETATM   10  F   UNL     1      -9.640   6.138  65.850  1.00  0.00    -0.152 F  
HETATM   11  C   UNL     1     -10.365   7.401  68.214  1.00  0.00    -0.231 A  
HETATM   12  F   UNL     1      -8.444   4.743  67.013  1.00  0.00    -0.106 F  
HETATM   13  F   UNL     1     -10.541   4.318  66.624  1.00  0.00    -0.174 F  
HETATM   14  C   UNL     1     -10.058   6.029  68.216  1.00  0.00    -0.194 A  
HETATM   15  C   UNL     1      -9.674   5.320  66.939  1.00  0.00    -0.156 C  
HETATM   16  C   UNL     1     -10.138   5.305  69.421  1.00  0.00    -0.311 A  
BRANCH   9  17
HETATM   17  N   UNL     1     -11.131   9.398  69.324  1.00  0.00    -0.427 N  
HETATM   18  O   UNL     1     -12.228   9.643  71.369  1.00  0.00    -0.332 OA 
HETATM   19  H   UNL     1     -10.899   9.903  68.469  1.00  0.00     0.000 HD 
HETATM   20  C   UNL     1     -11.764  10.109  70.333  1.00  0.00    -0.308 C  
BRANCH  20  21
HETATM   21  C   UNL     1     -11.831  11.575  70.133  1.00  0.00    -0.440 A  
HETATM   22  C   UNL     1     -12.428  12.437  71.048  1.00  0.00    -0.353 A  
HETATM   23  C   UNL     1     -12.525  13.793  70.737  1.00  0.00    -0.441 A  
HETATM   24  C   UNL     1     -12.042  14.292  69.510  1.00  0.00    -0.376 A  
HETATM   25  C   UNL     1     -11.419  13.422  68.590  1.00  0.00    -0.310 A  
HETATM   26  C   UNL     1     -12.192  15.760  69.216  1.00  0.00    -0.120 C  
HETATM   27  C   UNL     1     -11.294  12.074  68.941  1.00  0.00    -0.333 A  
BRANCH  25  28
HETATM   28  N   UNL     1     -10.884  13.904  67.388  1.00  0.00    -0.282 NA 
HETATM   29  H   UNL     1     -10.887  13.232  66.621  1.00  0.00     0.000 HD 
BRANCH  28  30
HETATM   30  C   UNL     1     -10.349  15.148  67.065  1.00  0.00    -0.271 A  
HETATM   31  N   UNL     1     -10.976  15.835  66.100  1.00  0.00    -0.232 NA 
HETATM   32  C   UNL     1     -10.530  17.081  65.855  1.00  0.00    -0.274 A  
HETATM   33  C   UNL     1      -9.515  17.681  66.560  1.00  0.00    -0.294 A  
HETATM   34  C   UNL     1      -8.921  16.909  67.535  1.00  0.00    -0.206 A  
HETATM   35  N   UNL     1      -9.321  15.642  67.766  1.00  0.00    -0.201 NA 
BRANCH  34  36
HETATM   36  C   UNL     1      -7.847  17.388  68.416  1.00  0.00    -0.257 A  
HETATM   37  C   UNL     1      -7.081  16.528  69.205  1.00  0.00    -0.227 A  
HETATM   38  N   UNL     1      -6.060  16.908  70.012  1.00  0.00    -0.199 NA 
HETATM   39  C   UNL     1      -5.767  18.226  70.033  1.00  0.00    -0.236 A  
HETATM   40  C   UNL     1      -6.449  19.174  69.292  1.00  0.00    -0.332 A  
HETATM   41  C   UNL     1      -7.496  18.746  68.478  1.00  0.00    -0.328 A  
ENDBRANCH  34  36
ENDBRANCH  28  30
ENDBRANCH  25  28
ENDBRANCH  20  21
ENDBRANCH   9  17
ENDBRANCH   4   7
TORSDOF 6
ENDMDL
MODEL       52
REMARK 921   NORMALIZED FREE ENERGY PREDICTED BY IDOCK:   -6.90 KCAL/MOL
REMARK 922        TOTAL FREE ENERGY PREDICTED BY IDOCK:   -9.94 KCAL/MOL
REMARK 923 INTER-LIGAND FREE ENERGY PREDICTED BY IDOCK:   -8.49 KCAL/MOL
REMARK 924 INTRA-LIGAND FREE ENERGY PREDICTED BY IDOCK:   -1.45 KCAL/MOL
REMARK 927      BINDING AFFINITY PREDICTED BY RF-SCORE:    0.00 PKD
ROOT
HETATM    1  C   UNL     1      -9.814  20.900  66.944  1.00  0.00    -0.096 C  
HETATM    2  C   UNL     1      -9.661  19.457  67.214  1.00  0.00    -0.328 A  
HETATM    3  C   UNL     1     -10.504  18.595  67.885  1.00  0.00    -0.385 A  
HETATM    4  N   UNL     1      -9.906  17.355  67.849  1.00  0.00    -0.276 NA 
HETATM    5  N   UNL     1      -8.558  18.787  66.765  1.00  0.00    -0.282 NA 
HETATM    6  C   UNL     1      -8.729  17.543  67.151  1.00  0.00    -0.237 A  
ENDROOT
BRANCH   4   7
HETATM    7  C   UNL     1     -10.398  16.141  68.407  1.00  0.00    -0.257 A  
HETATM    8  C   UNL     1      -9.917  14.915  67.931  1.00  0.00    -0.219 A  
HETATM    9  C   UNL     1     -10.389  13.700  68.436  1.00  0.00    -0.248 A  
HETATM   10  F   UNL     1     -13.239  13.701  71.481  1.00  0.00    -0.394 F  
HETATM   11  C   UNL     1     -11.315  13.708  69.479  1.00  0.00    -0.276 A  
HETATM   12  F   UNL     1     -12.483  15.626  72.154  1.00  0.00    -0.358 F  
HETATM   13  F   UNL     1     -14.034  15.537  70.632  1.00  0.00    -0.369 F  
HETATM   14  C   UNL     1     -11.826  14.924  69.968  1.00  0.00    -0.353 A  
HETATM   15  C   UNL     1     -12.882  14.942  71.047  1.00  0.00    -0.362 C  
HETATM   16  C   UNL     1     -11.363  16.137  69.422  1.00  0.00    -0.323 A  
BRANCH   9  17
HETATM   17  N   UNL     1      -9.945  12.456  67.943  1.00  0.00    -0.198 N  
HETATM   18  O   UNL     1     -10.839  12.515  65.788  1.00  0.00    -0.265 OA 
HETATM   19  H   UNL     1      -9.435  11.852  68.586  1.00  0.00     0.000 HD 
HETATM   20  C   UNL     1     -10.147  11.988  66.652  1.00  0.00    -0.198 C  
BRANCH  20  21
HETATM   21  C   UNL     1      -9.404  10.756  66.299  1.00  0.00    -0.205 A  
HETATM   22  C   UNL     1      -9.732   9.962  65.204  1.00  0.00    -0.376 A  
HETATM   23  C   UNL     1      -9.035   8.772  64.998  1.00  0.00    -0.113 A  
HETATM   24  C   UNL     1      -8.022   8.361  65.887  1.00  0.00    -0.099 A  
HETATM   25  C   UNL     1      -7.675   9.174  66.987  1.00  0.00    -0.098 A  
HETATM   26  C   UNL     1      -7.317   7.056  65.630  1.00  0.00    -0.079 C  
HETATM   27  C   UNL     1      -8.357  10.385  67.150  1.00  0.00    -0.126 A  
BRANCH  25  28
HETATM   28  N   UNL     1      -6.636   8.812  67.854  1.00  0.00    -0.060 NA 
HETATM   29  H   UNL     1      -5.710   8.804  67.427  1.00  0.00     0.000 HD 
BRANCH  28  30
HETATM   30  C   UNL     1      -6.656   8.462  69.201  1.00  0.00    -0.047 A  
HETATM   31  N   UNL     1      -5.554   8.748  69.908  1.00  0.00    -0.028 NA 
HETATM   32  C   UNL     1      -5.603   8.510  71.232  1.00  0.00    -0.035 A  
HETATM   33  C   UNL     1      -6.719   8.039  71.881  1.00  0.00    -0.067 A  
HETATM   34  C   UNL     1      -7.810   7.768  71.085  1.00  0.00    -0.089 A  
HETATM   35  N   UNL     1      -7.767   7.955  69.750  1.00  0.00    -0.097 NA 
BRANCH  34  36
HETATM   36  C   UNL     1      -9.102   7.295  71.600  1.00  0.00    -0.143 A  
HETATM   37  C   UNL     1      -9.672   6.084  71.204  1.00  0.00    -0.177 A  
HETATM   38  N   UNL     1     -10.844   5.583  71.668  1.00  0.00    -0.233 NA 
HETATM   39  C   UNL     1     -11.490   6.321  72.594  1.00  0.00    -0.218 A  
HETATM   40  C   UNL     1     -11.023   7.532  73.071  1.00  0.00    -0.443 A  
HETATM   41  C   UNL     1      -9.818   8.018  72.568  1.00  0.00    -0.330 A  
ENDBRANCH  34  36
ENDBRANCH  28  30
ENDBRANCH  25  28
ENDBRANCH  20  21
ENDBRANCH   9  17
ENDBRANCH   4   7
TORSDOF 6
ENDMDL
MODEL       53
REMARK 921   NORMALIZED FREE ENERGY PREDICTED BY IDOCK:   -6.90 KCAL/MOL
REMARK 922        TOTAL FREE ENERGY PREDICTED BY IDOCK:   -9.92 KCAL/MOL
REMARK 923 INTER-LIGAND FREE ENERGY PREDICTED BY IDOCK:   -8.60 KCAL/MOL
REMARK 924 INTRA-LIGAND FREE ENERGY PREDICTED BY IDOCK:   -1.33 KCAL/MOL
REMARK 927      BINDING AFFINITY PREDICTED BY RF-SCORE:    0.00 PKD
ROOT
HETATM    1  C   UNL     1      -5.143   5.151  73.739  1.00  0.00    -0.013 C  
HETATM    2  C   UNL     1      -5.920   6.048  72.861  1.00  0.00    -0.038 A  
HETATM    3  C   UNL     1      -7.285   6.126  72.671  1.00  0.00    -0.085 A  
HETATM    4  N   UNL     1      -7.497   7.135  71.759  1.00  0.00    -0.085 NA 
HETATM    5  N   UNL     1      -5.282   6.980  72.092  1.00  0.00    -0.035 NA 
HETATM    6  C   UNL     1      -6.238   7.612  71.450  1.00  0.00    -0.035 A  
ENDROOT
BRANCH   4   7
HETATM    7  C   UNL     1      -8.745   7.591  71.247  1.00  0.00    -0.125 A  
HETATM    8  C   UNL     1      -8.774   8.390  70.098  1.00  0.00    -0.136 A  
HETATM    9  C   UNL     1      -9.976   8.876  69.576  1.00  0.00    -0.191 A  
HETATM   10  F   UNL     1     -13.579   7.873  71.419  1.00  0.00    -0.351 F  
HETATM   11  C   UNL     1     -11.179   8.507  70.176  1.00  0.00    -0.139 A  
HETATM   12  F   UNL     1     -12.674   6.027  72.129  1.00  0.00    -0.349 F  
HETATM   13  F   UNL     1     -12.514   7.844  73.314  1.00  0.00     0.089 F  
HETATM   14  C   UNL     1     -11.181   7.716  71.338  1.00  0.00    -0.273 A  
HETATM   15  C   UNL     1     -12.474   7.370  72.038  1.00  0.00    -0.247 C  
HETATM   16  C   UNL     1      -9.957   7.265  71.869  1.00  0.00    -0.184 A  
BRANCH   9  17
HETATM   17  N   UNL     1     -10.020   9.714  68.443  1.00  0.00    -0.154 N  
HETATM   18  O   UNL     1     -10.096   8.119  66.742  1.00  0.00    -0.254 OA 
HETATM   19  H   UNL     1      -9.960  10.720  68.602  1.00  0.00     0.000 HD 
HETATM   20  C   UNL     1     -10.138   9.282  67.130  1.00  0.00    -0.236 C  
BRANCH  20  21
HETATM   21  C   UNL     1     -10.383  10.346  66.130  1.00  0.00    -0.269 A  
HETATM   22  C   UNL     1      -9.910  10.279  64.822  1.00  0.00    -0.403 A  
HETATM   23  C   UNL     1     -10.112  11.367  63.972  1.00  0.00    -0.369 A  
HETATM   24  C   UNL     1     -10.770  12.528  64.425  1.00  0.00    -0.379 A  
HETATM   25  C   UNL     1     -11.267  12.590  65.744  1.00  0.00    -0.320 A  
HETATM   26  C   UNL     1     -10.941  13.681  63.473  1.00  0.00     0.764 C  
HETATM   27  C   UNL     1     -11.092  11.470  66.565  1.00  0.00    -0.341 A  
BRANCH  25  28
HETATM   28  N   UNL     1     -11.971  13.712  66.199  1.00  0.00    -0.391 NA 
HETATM   29  H   UNL     1     -12.845  13.895  65.706  1.00  0.00     0.000 HD 
BRANCH  28  30
HETATM   30  C   UNL     1     -11.678  14.620  67.213  1.00  0.00    -0.385 A  
HETATM   31  N   UNL     1     -11.889  14.201  68.468  1.00  0.00    -0.348 NA 
HETATM   32  C   UNL     1     -11.509  15.031  69.457  1.00  0.00    -0.294 A  
HETATM   33  C   UNL     1     -10.891  16.240  69.244  1.00  0.00    -0.318 A  
HETATM   34  C   UNL     1     -10.711  16.600  67.925  1.00  0.00    -0.344 A  
HETATM   35  N   UNL     1     -11.126  15.804  66.919  1.00  0.00    -0.204 NA 
BRANCH  34  36
HETATM   36  C   UNL     1     -10.037  17.834  67.499  1.00  0.00    -0.340 A  
HETATM   37  C   UNL     1     -10.290  18.442  66.269  1.00  0.00    -0.415 A  
HETATM   38  N   UNL     1      -9.723  19.596  65.835  1.00  0.00    -0.405 NA 
HETATM   39  C   UNL     1      -8.857  20.195  66.678  1.00  0.00    -0.290 A  
HETATM   40  C   UNL     1      -8.530  19.694  67.925  1.00  0.00    -0.356 A  
HETATM   41  C   UNL     1      -9.130  18.504  68.335  1.00  0.00    -0.345 A  
ENDBRANCH  34  36
ENDBRANCH  28  30
ENDBRANCH  25  28
ENDBRANCH  20  21
ENDBRANCH   9  17
ENDBRANCH   4   7
TORSDOF 6
ENDMDL
MODEL       54
REMARK 921   NORMALIZED FREE ENERGY PREDICTED BY IDOCK:   -6.88 KCAL/MOL
REMARK 922        TOTAL FREE ENERGY PREDICTED BY IDOCK:   -9.90 KCAL/MOL
REMARK 923 INTER-LIGAND FREE ENERGY PREDICTED BY IDOCK:   -8.86 KCAL/MOL
REMARK 924 INTRA-LIGAND FREE ENERGY PREDICTED BY IDOCK:   -1.04 KCAL/MOL
REMARK 927      BINDING AFFINITY PREDICTED BY RF-SCORE:    0.00 PKD
ROOT
HETATM    1  C   UNL     1      -8.057   2.101  74.376  1.00  0.00    -0.054 C  
HETATM    2  C   UNL     1      -8.319   3.356  73.644  1.00  0.00    -0.075 A  
HETATM    3  C   UNL     1      -9.435   3.739  72.929  1.00  0.00    -0.116 A  
HETATM    4  N   UNL     1      -9.179   5.005  72.451  1.00  0.00    -0.133 NA 
HETATM    5  N   UNL     1      -7.379   4.348  73.621  1.00  0.00    -0.075 NA 
HETATM    6  C   UNL     1      -7.914   5.315  72.911  1.00  0.00    -0.102 A  
ENDROOT
BRANCH   4   7
HETATM    7  C   UNL     1     -10.036   5.820  71.658  1.00  0.00    -0.194 A  
HETATM    8  C   UNL     1      -9.629   6.214  70.378  1.00  0.00    -0.188 A  
HETATM    9  C   UNL     1     -10.431   7.031  69.576  1.00  0.00    -0.220 A  
HETATM   10  F   UNL     1     -14.157   8.275  70.974  1.00  0.00    -0.294 F  
HETATM   11  C   UNL     1     -11.690   7.413  70.035  1.00  0.00     0.052 A  
HETATM   12  F   UNL     1     -14.271   6.479  72.194  1.00  0.00    -0.391 F  
HETATM   13  F   UNL     1     -13.321   8.270  72.981  1.00  0.00    -0.055 F  
HETATM   14  C   UNL     1     -12.121   7.044  71.322  1.00  0.00    -0.403 A  
HETATM   15  C   UNL     1     -13.453   7.512  71.857  1.00  0.00    -0.242 C  
HETATM   16  C   UNL     1     -11.284   6.248  72.128  1.00  0.00    -0.326 A  
BRANCH   9  17
HETATM   17  N   UNL     1     -10.019   7.470  68.300  1.00  0.00    -0.167 N  
HETATM   18  O   UNL     1      -8.446   9.086  68.897  1.00  0.00    -0.126 OA 
HETATM   19  H   UNL     1     -10.490   7.065  67.491  1.00  0.00     0.000 HD 
HETATM   20  C   UNL     1      -9.026   8.407  68.057  1.00  0.00    -0.138 C  
BRANCH  20  21
HETATM   21  C   UNL     1      -8.617   8.547  66.640  1.00  0.00    -0.122 A  
HETATM   22  C   UNL     1      -7.560   7.832  66.084  1.00  0.00    -0.087 A  
HETATM   23  C   UNL     1      -7.186   8.092  64.765  1.00  0.00    -0.078 A  
HETATM   24  C   UNL     1      -7.852   9.072  64.003  1.00  0.00    -0.133 A  
HETATM   25  C   UNL     1      -8.937   9.784  64.559  1.00  0.00    -0.238 A  
HETATM   26  C   UNL     1      -7.395   9.327  62.592  1.00  0.00    -0.099 C  
HETATM   27  C   UNL     1      -9.322   9.476  65.868  1.00  0.00    -0.285 A  
BRANCH  25  28
HETATM   28  N   UNL     1      -9.648  10.724  63.802  1.00  0.00    -0.267 NA 
HETATM   29  H   UNL     1      -9.480  10.677  62.798  1.00  0.00     0.000 HD 
BRANCH  28  30
HETATM   30  C   UNL     1     -10.546  11.714  64.193  1.00  0.00    -0.357 A  
HETATM   31  N   UNL     1     -11.278  12.273  63.220  1.00  0.00    -0.393 NA 
HETATM   32  C   UNL     1     -12.222  13.153  63.601  1.00  0.00    -0.479 A  
HETATM   33  C   UNL     1     -12.491  13.466  64.911  1.00  0.00    -0.447 A  
HETATM   34  C   UNL     1     -11.694  12.850  65.853  1.00  0.00    -0.399 A  
HETATM   35  N   UNL     1     -10.711  12.000  65.491  1.00  0.00    -0.267 NA 
BRANCH  34  36
HETATM   36  C   UNL     1     -11.854  13.028  67.302  1.00  0.00    -0.419 A  
HETATM   37  C   UNL     1     -11.701  11.979  68.210  1.00  0.00    -0.334 A  
HETATM   38  N   UNL     1     -11.807  12.089  69.558  1.00  0.00    -0.323 NA 
HETATM   39  C   UNL     1     -12.068  13.321  70.043  1.00  0.00    -0.315 A  
HETATM   40  C   UNL     1     -12.234  14.439  69.245  1.00  0.00    -0.274 A  
HETATM   41  C   UNL     1     -12.123  14.286  67.865  1.00  0.00    -0.296 A  
ENDBRANCH  34  36
ENDBRANCH  28  30
ENDBRANCH  25  28
ENDBRANCH  20  21
ENDBRANCH   9  17
ENDBRANCH   4   7
TORSDOF 6
ENDMDL
MODEL       55
REMARK 921   NORMALIZED FREE ENERGY PREDICTED BY IDOCK:   -6.83 KCAL/MOL
REMARK 922        TOTAL FREE ENERGY PREDICTED BY IDOCK:   -9.84 KCAL/MOL
REMARK 923 INTER-LIGAND FREE ENERGY PREDICTED BY IDOCK:   -8.56 KCAL/MOL
REMARK 924 INTRA-LIGAND FREE ENERGY PREDICTED BY IDOCK:   -1.29 KCAL/MOL
REMARK 927      BINDING AFFINITY PREDICTED BY RF-SCORE:    0.00 PKD
ROOT
HETATM    1  C   UNL     1     -10.775   2.543  73.836  1.00  0.00    -0.261 C  
HETATM    2  C   UNL     1     -10.667   3.680  72.901  1.00  0.00    -0.101 A  
HETATM    3  C   UNL     1      -9.983   3.772  71.705  1.00  0.00    -0.157 A  
HETATM    4  N   UNL     1     -10.212   5.040  71.220  1.00  0.00    -0.211 NA 
HETATM    5  N   UNL     1     -11.312   4.854  73.169  1.00  0.00    -0.325 NA 
HETATM    6  C   UNL     1     -11.029   5.643  72.157  1.00  0.00    -0.250 A  
ENDROOT
BRANCH   4   7
HETATM    7  C   UNL     1      -9.718   5.606  70.010  1.00  0.00    -0.173 A  
HETATM    8  C   UNL     1      -9.011   6.814  70.048  1.00  0.00    -0.141 A  
HETATM    9  C   UNL     1      -8.527   7.413  68.881  1.00  0.00    -0.129 A  
HETATM   10  F   UNL     1      -9.125   5.545  65.202  1.00  0.00    -0.155 F  
HETATM   11  C   UNL     1      -8.699   6.765  67.659  1.00  0.00    -0.119 A  
HETATM   12  F   UNL     1      -9.169   3.620  66.214  1.00  0.00    -0.134 F  
HETATM   13  F   UNL     1     -11.000   4.771  65.985  1.00  0.00    -0.339 F  
HETATM   14  C   UNL     1      -9.417   5.557  67.589  1.00  0.00    -0.125 A  
HETATM   15  C   UNL     1      -9.671   4.884  66.262  1.00  0.00    -0.190 C  
HETATM   16  C   UNL     1      -9.926   4.987  68.771  1.00  0.00    -0.225 A  
BRANCH   9  17
HETATM   17  N   UNL     1      -7.847   8.648  68.897  1.00  0.00    -0.103 N  
HETATM   18  O   UNL     1      -9.545  10.073  68.169  1.00  0.00    -0.138 OA 
HETATM   19  H   UNL     1      -6.857   8.635  69.143  1.00  0.00     0.000 HD 
HETATM   20  C   UNL     1      -8.415   9.879  68.603  1.00  0.00    -0.114 C  
BRANCH  20  21
HETATM   21  C   UNL     1      -7.566  11.057  68.897  1.00  0.00    -0.134 A  
HETATM   22  C   UNL     1      -6.423  10.988  69.688  1.00  0.00    -0.123 A  
HETATM   23  C   UNL     1      -5.733  12.163  69.986  1.00  0.00    -0.141 A  
HETATM   24  C   UNL     1      -6.187  13.410  69.511  1.00  0.00    -0.114 A  
HETATM   25  C   UNL     1      -7.334  13.480  68.693  1.00  0.00    -0.112 A  
HETATM   26  C   UNL     1      -5.417  14.650  69.881  1.00  0.00    -0.099 C  
HETATM   27  C   UNL     1      -7.985  12.284  68.371  1.00  0.00    -0.152 A  
BRANCH  25  28
HETATM   28  N   UNL     1      -7.773  14.701  68.165  1.00  0.00    -0.116 NA 
HETATM   29  H   UNL     1      -7.165  15.098  67.449  1.00  0.00     0.000 HD 
BRANCH  28  30
HETATM   30  C   UNL     1      -8.900  15.465  68.455  1.00  0.00    -0.183 A  
HETATM   31  N   UNL     1      -9.164  16.479  67.621  1.00  0.00    -0.200 NA 
HETATM   32  C   UNL     1     -10.308  17.156  67.832  1.00  0.00    -0.350 A  
HETATM   33  C   UNL     1     -11.216  16.835  68.812  1.00  0.00    -0.148 A  
HETATM   34  C   UNL     1     -10.871  15.780  69.630  1.00  0.00    -0.300 A  
HETATM   35  N   UNL     1      -9.708  15.118  69.466  1.00  0.00    -0.200 NA 
BRANCH  34  36
HETATM   36  C   UNL     1     -11.728  15.267  70.707  1.00  0.00    -0.377 A  
HETATM   37  C   UNL     1     -12.381  14.036  70.625  1.00  0.00    -0.375 A  
HETATM   38  N   UNL     1     -13.158  13.497  71.598  1.00  0.00    -0.372 NA 
HETATM   39  C   UNL     1     -13.290  14.217  72.732  1.00  0.00    -0.519 A  
HETATM   40  C   UNL     1     -12.687  15.446  72.933  1.00  0.00    -0.532 A  
HETATM   41  C   UNL     1     -11.900  15.969  71.910  1.00  0.00    -0.619 A  
ENDBRANCH  34  36
ENDBRANCH  28  30
ENDBRANCH  25  28
ENDBRANCH  20  21
ENDBRANCH   9  17
ENDBRANCH   4   7
TORSDOF 6
ENDMDL
MODEL       56
REMARK 921   NORMALIZED FREE ENERGY PREDICTED BY IDOCK:   -6.80 KCAL/MOL
REMARK 922        TOTAL FREE ENERGY PREDICTED BY IDOCK:   -9.79 KCAL/MOL
REMARK 923 INTER-LIGAND FREE ENERGY PREDICTED BY IDOCK:   -8.46 KCAL/MOL
REMARK 924 INTRA-LIGAND FREE ENERGY PREDICTED BY IDOCK:   -1.34 KCAL/MOL
REMARK 927      BINDING AFFINITY PREDICTED BY RF-SCORE:    0.00 PKD
ROOT
HETATM    1  C   UNL     1     -11.149  16.324  64.595  1.00  0.00    -0.259 C  
HETATM    2  C   UNL     1     -11.488  14.952  65.023  1.00  0.00    -0.379 A  
HETATM    3  C   UNL     1     -10.850  14.134  65.933  1.00  0.00    -0.294 A  
HETATM    4  N   UNL     1     -11.572  12.962  65.978  1.00  0.00    -0.354 NA 
HETATM    5  N   UNL     1     -12.582  14.321  64.504  1.00  0.00    -0.677 NA 
HETATM    6  C   UNL     1     -12.612  13.145  65.088  1.00  0.00    -0.465 A  
ENDROOT
BRANCH   4   7
HETATM    7  C   UNL     1     -11.306  11.812  66.775  1.00  0.00    -0.320 A  
HETATM    8  C   UNL     1     -10.572  10.749  66.235  1.00  0.00    -0.257 A  
HETATM    9  C   UNL     1     -10.307   9.594  66.976  1.00  0.00    -0.248 A  
HETATM   10  F   UNL     1     -11.655   9.315  70.912  1.00  0.00    -0.289 F  
HETATM   11  C   UNL     1     -10.730   9.523  68.303  1.00  0.00    -0.241 A  
HETATM   12  F   UNL     1     -11.553  11.481  71.075  1.00  0.00    -0.236 F  
HETATM   13  F   UNL     1     -13.363  10.529  70.333  1.00  0.00    -0.366 F  
HETATM   14  C   UNL     1     -11.479  10.570  68.868  1.00  0.00    -0.292 A  
HETATM   15  C   UNL     1     -12.003  10.472  70.281  1.00  0.00    -0.325 C  
HETATM   16  C   UNL     1     -11.765  11.711  68.094  1.00  0.00    -0.365 A  
BRANCH   9  17
HETATM   17  N   UNL     1      -9.605   8.497  66.435  1.00  0.00    -0.231 N  
HETATM   18  O   UNL     1      -7.968   9.613  65.202  1.00  0.00    -0.111 OA 
HETATM   19  H   UNL     1      -9.963   7.565  66.639  1.00  0.00     0.000 HD 
HETATM   20  C   UNL     1      -8.465   8.585  65.649  1.00  0.00    -0.155 C  
BRANCH  20  21
HETATM   21  C   UNL     1      -7.778   7.301  65.380  1.00  0.00    -0.111 A  
HETATM   22  C   UNL     1      -7.456   6.870  64.096  1.00  0.00    -0.101 A  
HETATM   23  C   UNL     1      -6.889   5.607  63.928  1.00  0.00    -0.049 A  
HETATM   24  C   UNL     1      -6.656   4.764  65.033  1.00  0.00    -0.044 A  
HETATM   25  C   UNL     1      -6.964   5.207  66.337  1.00  0.00    -0.067 A  
HETATM   26  C   UNL     1      -6.063   3.402  64.793  1.00  0.00    -0.023 C  
HETATM   27  C   UNL     1      -7.491   6.494  66.486  1.00  0.00    -0.086 A  
BRANCH  25  28
HETATM   28  N   UNL     1      -6.692   4.408  67.455  1.00  0.00    -0.047 NA 
HETATM   29  H   UNL     1      -5.701   4.311  67.677  1.00  0.00     0.000 HD 
BRANCH  28  30
HETATM   30  C   UNL     1      -7.548   3.724  68.314  1.00  0.00    -0.061 A  
HETATM   31  N   UNL     1      -7.426   2.390  68.340  1.00  0.00    -0.047 NA 
HETATM   32  C   UNL     1      -8.174   1.729  69.243  1.00  0.00    -0.044 A  
HETATM   33  C   UNL     1      -9.005   2.348  70.145  1.00  0.00    -0.158 A  
HETATM   34  C   UNL     1      -9.076   3.722  70.054  1.00  0.00    -0.124 A  
HETATM   35  N   UNL     1      -8.370   4.400  69.126  1.00  0.00    -0.078 NA 
BRANCH  34  36
HETATM   36  C   UNL     1      -9.879   4.561  70.955  1.00  0.00    -0.269 A  
HETATM   37  C   UNL     1      -9.765   4.494  72.344  1.00  0.00    -0.159 A  
HETATM   38  N   UNL     1     -10.455   5.263  73.223  1.00  0.00    -0.205 NA 
HETATM   39  C   UNL     1     -11.306   6.167  72.694  1.00  0.00    -0.259 A  
HETATM   40  C   UNL     1     -11.500   6.331  71.334  1.00  0.00    -0.352 A  
HETATM   41  C   UNL     1     -10.777   5.520  70.462  1.00  0.00    -0.310 A  
ENDBRANCH  34  36
ENDBRANCH  28  30
ENDBRANCH  25  28
ENDBRANCH  20  21
ENDBRANCH   9  17
ENDBRANCH   4   7
TORSDOF 6
ENDMDL
MODEL       57
REMARK 921   NORMALIZED FREE ENERGY PREDICTED BY IDOCK:   -6.78 KCAL/MOL
REMARK 922        TOTAL FREE ENERGY PREDICTED BY IDOCK:   -9.77 KCAL/MOL
REMARK 923 INTER-LIGAND FREE ENERGY PREDICTED BY IDOCK:   -8.33 KCAL/MOL
REMARK 924 INTRA-LIGAND FREE ENERGY PREDICTED BY IDOCK:   -1.45 KCAL/MOL
REMARK 927      BINDING AFFINITY PREDICTED BY RF-SCORE:    0.00 PKD
ROOT
HETATM    1  C   UNL     1     -12.632  15.787  74.437  1.00  0.00    -0.693 C  
HETATM    2  C   UNL     1     -12.441  15.413  73.022  1.00  0.00    -0.431 A  
HETATM    3  C   UNL     1     -11.709  16.045  72.038  1.00  0.00    -0.493 A  
HETATM    4  N   UNL     1     -11.848  15.286  70.897  1.00  0.00    -0.309 NA 
HETATM    5  N   UNL     1     -13.031  14.286  72.523  1.00  0.00    -0.412 NA 
HETATM    6  C   UNL     1     -12.662  14.231  71.263  1.00  0.00    -0.357 A  
ENDROOT
BRANCH   4   7
HETATM    7  C   UNL     1     -11.274  15.533  69.618  1.00  0.00    -0.300 A  
HETATM    8  C   UNL     1     -10.923  14.455  68.796  1.00  0.00    -0.264 A  
HETATM    9  C   UNL     1     -10.337  14.654  67.542  1.00  0.00    -0.234 A  
HETATM   10  F   UNL     1      -9.679  18.534  66.165  1.00  0.00    -0.318 F  
HETATM   11  C   UNL     1     -10.154  15.954  67.073  1.00  0.00    -0.268 A  
HETATM   12  F   UNL     1     -11.355  19.220  67.369  1.00  0.00    -0.508 F  
HETATM   13  F   UNL     1      -9.361  19.132  68.230  1.00  0.00    -0.323 F  
HETATM   14  C   UNL     1     -10.484  17.056  67.882  1.00  0.00    -0.354 A  
HETATM   15  C   UNL     1     -10.223  18.467  67.413  1.00  0.00    -0.372 C  
HETATM   16  C   UNL     1     -11.042  16.834  69.156  1.00  0.00    -0.141 A  
BRANCH   9  17
HETATM   17  N   UNL     1      -9.942  13.580  66.718  1.00  0.00    -0.262 N  
HETATM   18  O   UNL     1     -12.008  12.935  65.846  1.00  0.00    -0.406 OA 
HETATM   19  H   UNL     1      -8.956  13.320  66.729  1.00  0.00     0.000 HD 
HETATM   20  C   UNL     1     -10.786  12.850  65.894  1.00  0.00    -0.271 C  
BRANCH  20  21
HETATM   21  C   UNL     1     -10.112  11.918  64.960  1.00  0.00    -0.297 A  
HETATM   22  C   UNL     1      -9.899  12.214  63.617  1.00  0.00    -0.257 A  
HETATM   23  C   UNL     1      -9.337  11.242  62.790  1.00  0.00    -0.362 A  
HETATM   24  C   UNL     1      -9.000   9.969  63.292  1.00  0.00    -0.275 A  
HETATM   25  C   UNL     1      -9.197   9.673  64.658  1.00  0.00    -0.234 A  
HETATM   26  C   UNL     1      -8.417   8.950  62.351  1.00  0.00    -0.212 C  
HETATM   27  C   UNL     1      -9.722  10.678  65.478  1.00  0.00    -0.291 A  
BRANCH  25  28
HETATM   28  N   UNL     1      -8.820   8.434  65.191  1.00  0.00    -0.394 NA 
HETATM   29  H   UNL     1      -9.437   7.660  64.945  1.00  0.00     0.000 HD 
BRANCH  28  30
HETATM   30  C   UNL     1      -7.744   8.082  66.001  1.00  0.00    -0.088 A  
HETATM   31  N   UNL     1      -6.703   7.500  65.389  1.00  0.00    -0.044 NA 
HETATM   32  C   UNL     1      -5.617   7.253  66.145  1.00  0.00    -0.028 A  
HETATM   33  C   UNL     1      -5.513   7.600  67.470  1.00  0.00    -0.035 A  
HETATM   34  C   UNL     1      -6.627   8.193  68.026  1.00  0.00    -0.057 A  
HETATM   35  N   UNL     1      -7.743   8.408  67.299  1.00  0.00    -0.097 NA 
BRANCH  34  36
HETATM   36  C   UNL     1      -6.693   8.667  69.415  1.00  0.00    -0.049 A  
HETATM   37  C   UNL     1      -7.571   9.672  69.825  1.00  0.00    -0.123 A  
HETATM   38  N   UNL     1      -7.698  10.128  71.096  1.00  0.00     0.586 NA 
HETATM   39  C   UNL     1      -6.915   9.545  72.027  1.00  0.00     0.723 A  
HETATM   40  C   UNL     1      -6.011   8.536  71.745  1.00  0.00    -0.051 A  
HETATM   41  C   UNL     1      -5.905   8.096  70.427  1.00  0.00    -0.028 A  
ENDBRANCH  34  36
ENDBRANCH  28  30
ENDBRANCH  25  28
ENDBRANCH  20  21
ENDBRANCH   9  17
ENDBRANCH   4   7
TORSDOF 6
ENDMDL
MODEL       58
REMARK 921   NORMALIZED FREE ENERGY PREDICTED BY IDOCK:   -6.71 KCAL/MOL
REMARK 922        TOTAL FREE ENERGY PREDICTED BY IDOCK:   -9.68 KCAL/MOL
REMARK 923 INTER-LIGAND FREE ENERGY PREDICTED BY IDOCK:   -8.87 KCAL/MOL
REMARK 924 INTRA-LIGAND FREE ENERGY PREDICTED BY IDOCK:   -0.80 KCAL/MOL
REMARK 927      BINDING AFFINITY PREDICTED BY RF-SCORE:    0.00 PKD
ROOT
HETATM    1  C   UNL     1      -5.125   1.600  70.940  1.00  0.00    -0.004 C  
HETATM    2  C   UNL     1      -6.411   2.290  70.715  1.00  0.00    -0.023 A  
HETATM    3  C   UNL     1      -6.812   3.075  69.653  1.00  0.00    -0.034 A  
HETATM    4  N   UNL     1      -8.104   3.469  69.923  1.00  0.00    -0.049 NA 
HETATM    5  N   UNL     1      -7.416   2.187  71.634  1.00  0.00    -0.039 NA 
HETATM    6  C   UNL     1      -8.409   2.892  71.141  1.00  0.00    -0.062 A  
ENDROOT
BRANCH   4   7
HETATM    7  C   UNL     1      -8.944   4.289  69.118  1.00  0.00    -0.107 A  
HETATM    8  C   UNL     1      -9.602   5.383  69.694  1.00  0.00    -0.217 A  
HETATM    9  C   UNL     1     -10.452   6.201  68.944  1.00  0.00    -0.238 A  
HETATM   10  F   UNL     1     -11.001   5.431  64.883  1.00  0.00     0.613 F  
HETATM   11  C   UNL     1     -10.602   5.959  67.579  1.00  0.00    -0.347 A  
HETATM   12  F   UNL     1      -9.017   4.545  64.807  1.00  0.00    -0.131 F  
HETATM   13  F   UNL     1     -10.736   3.319  65.325  1.00  0.00     0.307 F  
HETATM   14  C   UNL     1      -9.965   4.860  66.977  1.00  0.00    -0.238 A  
HETATM   15  C   UNL     1     -10.179   4.547  65.515  1.00  0.00    -0.231 C  
HETATM   16  C   UNL     1      -9.140   4.027  67.757  1.00  0.00    -0.175 A  
BRANCH   9  17
HETATM   17  N   UNL     1     -11.152   7.283  69.515  1.00  0.00    -0.430 N  
HETATM   18  O   UNL     1     -12.143   6.225  71.344  1.00  0.00    -0.259 OA 
HETATM   19  H   UNL     1     -11.116   8.176  69.024  1.00  0.00     0.000 HD 
HETATM   20  C   UNL     1     -11.886   7.231  70.692  1.00  0.00    -0.252 C  
BRANCH  20  21
HETATM   21  C   UNL     1     -12.350   8.539  71.210  1.00  0.00    -0.301 A  
HETATM   22  C   UNL     1     -13.316   8.659  72.205  1.00  0.00    -0.431 A  
HETATM   23  C   UNL     1     -13.759   9.931  72.569  1.00  0.00    -0.077 A  
HETATM   24  C   UNL     1     -13.253  11.083  71.936  1.00  0.00    -0.503 A  
HETATM   25  C   UNL     1     -12.260  10.965  70.940  1.00  0.00    -0.381 A  
HETATM   26  C   UNL     1     -13.781  12.430  72.352  1.00  0.00    -0.192 C  
HETATM   27  C   UNL     1     -11.800   9.682  70.621  1.00  0.00    -0.331 A  
BRANCH  25  28
HETATM   28  N   UNL     1     -11.704  12.099  70.335  1.00  0.00    -0.532 NA 
HETATM   29  H   UNL     1     -11.364  12.806  70.987  1.00  0.00     0.000 HD 
BRANCH  28  30
HETATM   30  C   UNL     1     -11.539  12.423  68.991  1.00  0.00    -0.311 A  
HETATM   31  N   UNL     1     -11.954  11.510  68.102  1.00  0.00    -0.610 NA 
HETATM   32  C   UNL     1     -11.895  11.858  66.803  1.00  0.00    -0.087 A  
HETATM   33  C   UNL     1     -11.481  13.091  66.361  1.00  0.00    -0.384 A  
HETATM   34  C   UNL     1     -11.069  13.974  67.336  1.00  0.00    -0.303 A  
HETATM   35  N   UNL     1     -11.075  13.630  68.640  1.00  0.00    -0.260 NA 
BRANCH  34  36
HETATM   36  C   UNL     1     -10.629  15.348  67.062  1.00  0.00    -0.309 A  
HETATM   37  C   UNL     1     -10.194  15.761  65.802  1.00  0.00    -0.370 A  
HETATM   38  N   UNL     1      -9.806  17.021  65.482  1.00  0.00    -0.544 NA 
HETATM   39  C   UNL     1      -9.862  17.938  66.471  1.00  0.00    -0.343 A  
HETATM   40  C   UNL     1     -10.281  17.652  67.758  1.00  0.00    -0.354 A  
HETATM   41  C   UNL     1     -10.668  16.345  68.050  1.00  0.00    -0.334 A  
ENDBRANCH  34  36
ENDBRANCH  28  30
ENDBRANCH  25  28
ENDBRANCH  20  21
ENDBRANCH   9  17
ENDBRANCH   4   7
TORSDOF 6
ENDMDL
MODEL       59
REMARK 921   NORMALIZED FREE ENERGY PREDICTED BY IDOCK:   -6.67 KCAL/MOL
REMARK 922        TOTAL FREE ENERGY PREDICTED BY IDOCK:   -9.61 KCAL/MOL
REMARK 923 INTER-LIGAND FREE ENERGY PREDICTED BY IDOCK:   -8.56 KCAL/MOL
REMARK 924 INTRA-LIGAND FREE ENERGY PREDICTED BY IDOCK:   -1.06 KCAL/MOL
REMARK 927      BINDING AFFINITY PREDICTED BY RF-SCORE:    0.00 PKD
ROOT
HETATM    1  C   UNL     1     -10.569   3.850  73.783  1.00  0.00    -0.290 C  
HETATM    2  C   UNL     1     -10.250   4.248  72.397  1.00  0.00    -0.181 A  
HETATM    3  C   UNL     1     -10.132   5.510  71.851  1.00  0.00    -0.189 A  
HETATM    4  N   UNL     1      -9.811   5.334  70.524  1.00  0.00    -0.192 NA 
HETATM    5  N   UNL     1     -10.012   3.296  71.446  1.00  0.00    -0.126 NA 
HETATM    6  C   UNL     1      -9.752   3.965  70.346  1.00  0.00    -0.175 A  
ENDROOT
BRANCH   4   7
HETATM    7  C   UNL     1      -9.584   6.345  69.547  1.00  0.00    -0.144 A  
HETATM    8  C   UNL     1      -9.838   7.685  69.864  1.00  0.00    -0.184 A  
HETATM    9  C   UNL     1      -9.649   8.705  68.928  1.00  0.00    -0.159 A  
HETATM   10  F   UNL     1      -8.227   7.772  65.121  1.00  0.00    -0.120 F  
HETATM   11  C   UNL     1      -9.139   8.389  67.669  1.00  0.00    -0.144 A  
HETATM   12  F   UNL     1      -7.211   6.038  65.952  1.00  0.00    -0.067 F  
HETATM   13  F   UNL     1      -9.272   5.872  65.279  1.00  0.00    -0.106 F  
HETATM   14  C   UNL     1      -8.887   7.052  67.318  1.00  0.00    -0.119 A  
HETATM   15  C   UNL     1      -8.404   6.692  65.933  1.00  0.00    -0.137 C  
HETATM   16  C   UNL     1      -9.117   6.034  68.264  1.00  0.00    -0.111 A  
BRANCH   9  17
HETATM   17  N   UNL     1      -9.936  10.055  69.218  1.00  0.00    -0.201 N  
HETATM   18  O   UNL     1     -11.890  10.345  67.977  1.00  0.00    -0.328 OA 
HETATM   19  H   UNL     1      -9.268  10.562  69.798  1.00  0.00     0.000 HD 
HETATM   20  C   UNL     1     -11.053  10.749  68.777  1.00  0.00    -0.259 C  
BRANCH  20  21
HETATM   21  C   UNL     1     -11.253  12.084  69.385  1.00  0.00    -0.263 A  
HETATM   22  C   UNL     1     -12.075  12.299  70.488  1.00  0.00    -0.371 A  
HETATM   23  C   UNL     1     -12.275  13.603  70.940  1.00  0.00    -0.408 A  
HETATM   24  C   UNL     1     -11.672  14.697  70.289  1.00  0.00    -0.355 A  
HETATM   25  C   UNL     1     -10.823  14.480  69.182  1.00  0.00    -0.263 A  
HETATM   26  C   UNL     1     -11.939  16.085  70.805  1.00  0.00    -0.339 C  
HETATM   27  C   UNL     1     -10.602  13.160  68.773  1.00  0.00    -0.225 A  
BRANCH  25  28
HETATM   28  N   UNL     1     -10.170  15.547  68.552  1.00  0.00    -0.212 NA 
HETATM   29  H   UNL     1     -10.730  16.036  67.855  1.00  0.00     0.000 HD 
BRANCH  28  30
HETATM   30  C   UNL     1      -8.883  16.051  68.718  1.00  0.00    -0.227 A  
HETATM   31  N   UNL     1      -8.021  15.276  69.390  1.00  0.00    -0.218 NA 
HETATM   32  C   UNL     1      -6.748  15.707  69.464  1.00  0.00    -0.185 A  
HETATM   33  C   UNL     1      -6.294  16.855  68.861  1.00  0.00    -0.179 A  
HETATM   34  C   UNL     1      -7.242  17.598  68.190  1.00  0.00    -0.218 A  
HETATM   35  N   UNL     1      -8.532  17.208  68.143  1.00  0.00    -0.220 NA 
BRANCH  34  36
HETATM   36  C   UNL     1      -6.941  18.832  67.453  1.00  0.00    -0.211 A  
HETATM   37  C   UNL     1      -7.026  18.917  66.062  1.00  0.00    -0.262 A  
HETATM   38  N   UNL     1      -6.791  20.035  65.331  1.00  0.00    -0.300 NA 
HETATM   39  C   UNL     1      -6.462  21.148  66.021  1.00  0.00    -0.124 A  
HETATM   40  C   UNL     1      -6.354  21.191  67.399  1.00  0.00    -0.430 A  
HETATM   41  C   UNL     1      -6.598  20.021  68.116  1.00  0.00    -0.315 A  
ENDBRANCH  34  36
ENDBRANCH  28  30
ENDBRANCH  25  28
ENDBRANCH  20  21
ENDBRANCH   9  17
ENDBRANCH   4   7
TORSDOF 6
ENDMDL
MODEL       60
REMARK 921   NORMALIZED FREE ENERGY PREDICTED BY IDOCK:   -6.59 KCAL/MOL
REMARK 922        TOTAL FREE ENERGY PREDICTED BY IDOCK:   -9.51 KCAL/MOL
REMARK 923 INTER-LIGAND FREE ENERGY PREDICTED BY IDOCK:   -8.64 KCAL/MOL
REMARK 924 INTRA-LIGAND FREE ENERGY PREDICTED BY IDOCK:   -0.87 KCAL/MOL
REMARK 927      BINDING AFFINITY PREDICTED BY RF-SCORE:    0.00 PKD
ROOT
HETATM    1  C   UNL     1     -12.477  16.516  73.505  1.00  0.00    -0.447 C  
HETATM    2  C   UNL     1     -12.708  15.559  72.404  1.00  0.00    -0.397 A  
HETATM    3  C   UNL     1     -11.841  14.646  71.838  1.00  0.00    -0.189 A  
HETATM    4  N   UNL     1     -12.550  13.991  70.856  1.00  0.00    -0.342 NA 
HETATM    5  N   UNL     1     -13.931  15.488  71.801  1.00  0.00    -0.489 NA 
HETATM    6  C   UNL     1     -13.813  14.550  70.889  1.00  0.00     0.012 A  
ENDROOT
BRANCH   4   7
HETATM    7  C   UNL     1     -12.083  12.957  69.996  1.00  0.00    -0.286 A  
HETATM    8  C   UNL     1     -11.700  11.724  70.538  1.00  0.00    -0.146 A  
HETATM    9  C   UNL     1     -11.216  10.690  69.731  1.00  0.00    -0.297 A  
HETATM   10  F   UNL     1     -10.970  11.237  65.605  1.00  0.00    -0.326 F  
HETATM   11  C   UNL     1     -11.171  10.868  68.349  1.00  0.00    -0.347 A  
HETATM   12  F   UNL     1     -12.614  12.656  65.720  1.00  0.00    -0.486 F  
HETATM   13  F   UNL     1     -10.567  13.339  65.984  1.00  0.00    -0.272 F  
HETATM   14  C   UNL     1     -11.537  12.099  67.777  1.00  0.00    -0.410 A  
HETATM   15  C   UNL     1     -11.423  12.326  66.289  1.00  0.00    -0.380 C  
HETATM   16  C   UNL     1     -11.989  13.140  68.611  1.00  0.00    -0.319 A  
BRANCH   9  17
HETATM   17  N   UNL     1     -10.789   9.457  70.265  1.00  0.00    -0.242 N  
HETATM   18  O   UNL     1     -12.190   9.293  72.123  1.00  0.00    -0.359 OA 
HETATM   19  H   UNL     1     -10.010   8.990  69.800  1.00  0.00     0.000 HD 
HETATM   20  C   UNL     1     -11.342   8.827  71.370  1.00  0.00    -0.294 C  
BRANCH  20  21
HETATM   21  C   UNL     1     -10.876   7.442  71.612  1.00  0.00    -0.246 A  
HETATM   22  C   UNL     1     -10.467   6.989  72.863  1.00  0.00    -0.283 A  
HETATM   23  C   UNL     1      -9.959   5.695  72.983  1.00  0.00    -0.191 A  
HETATM   24  C   UNL     1      -9.842   4.856  71.857  1.00  0.00    -0.241 A  
HETATM   25  C   UNL     1     -10.274   5.306  70.591  1.00  0.00    -0.257 A  
HETATM   26  C   UNL     1      -9.267   3.477  72.038  1.00  0.00    -0.171 C  
HETATM   27  C   UNL     1     -10.821   6.592  70.503  1.00  0.00    -0.323 A  
BRANCH  25  28
HETATM   28  N   UNL     1     -10.218   4.471  69.468  1.00  0.00    -0.073 NA 
HETATM   29  H   UNL     1     -10.991   3.811  69.390  1.00  0.00     0.000 HD 
BRANCH  28  30
HETATM   30  C   UNL     1      -9.282   4.391  68.441  1.00  0.00    -0.137 A  
HETATM   31  N   UNL     1      -7.996   4.523  68.794  1.00  0.00    -0.077 NA 
HETATM   32  C   UNL     1      -7.079   4.342  67.825  1.00  0.00    -0.064 A  
HETATM   33  C   UNL     1      -7.392   3.995  66.533  1.00  0.00    -0.076 A  
HETATM   34  C   UNL     1      -8.736   3.879  66.249  1.00  0.00    -0.115 A  
HETATM   35  N   UNL     1      -9.673   4.102  67.193  1.00  0.00    -0.204 NA 
BRANCH  34  36
HETATM   36  C   UNL     1      -9.263   3.480  64.937  1.00  0.00    -0.144 A  
HETATM   37  C   UNL     1     -10.217   2.473  64.785  1.00  0.00     0.436 A  
HETATM   38  N   UNL     1     -10.762   2.083  63.606  1.00  0.00    -0.110 NA 
HETATM   39  C   UNL     1     -10.345   2.741  62.503  1.00  0.00    -0.120 A  
HETATM   40  C   UNL     1      -9.411   3.760  62.527  1.00  0.00    -0.100 A  
HETATM   41  C   UNL     1      -8.870   4.130  63.757  1.00  0.00    -0.124 A  
ENDBRANCH  34  36
ENDBRANCH  28  30
ENDBRANCH  25  28
ENDBRANCH  20  21
ENDBRANCH   9  17
ENDBRANCH   4   7
TORSDOF 6
ENDMDL
MODEL       61
REMARK 921   NORMALIZED FREE ENERGY PREDICTED BY IDOCK:   -6.59 KCAL/MOL
REMARK 922        TOTAL FREE ENERGY PREDICTED BY IDOCK:   -9.51 KCAL/MOL
REMARK 923 INTER-LIGAND FREE ENERGY PREDICTED BY IDOCK:   -7.98 KCAL/MOL
REMARK 924 INTRA-LIGAND FREE ENERGY PREDICTED BY IDOCK:   -1.53 KCAL/MOL
REMARK 927      BINDING AFFINITY PREDICTED BY RF-SCORE:    0.00 PKD
ROOT
HETATM    1  C   UNL     1      -7.443   4.015  65.320  1.00  0.00    -0.080 C  
HETATM    2  C   UNL     1      -7.701   5.415  64.930  1.00  0.00    -0.088 A  
HETATM    3  C   UNL     1      -7.932   6.520  65.725  1.00  0.00    -0.115 A  
HETATM    4  N   UNL     1      -8.102   7.587  64.872  1.00  0.00    -0.134 NA 
HETATM    5  N   UNL     1      -7.723   5.769  63.611  1.00  0.00    -0.087 NA 
HETATM    6  C   UNL     1      -7.960   7.061  63.603  1.00  0.00    -0.070 A  
ENDROOT
BRANCH   4   7
HETATM    7  C   UNL     1      -8.363   8.942  65.223  1.00  0.00    -0.160 A  
HETATM    8  C   UNL     1      -7.722   9.507  66.332  1.00  0.00    -0.097 A  
HETATM    9  C   UNL     1      -7.966  10.827  66.723  1.00  0.00    -0.138 A  
HETATM   10  F   UNL     1     -10.601  13.180  64.508  1.00  0.00    -0.317 F  
HETATM   11  C   UNL     1      -8.821  11.618  65.957  1.00  0.00    -0.105 A  
HETATM   12  F   UNL     1     -10.123  12.007  62.740  1.00  0.00    -0.346 F  
HETATM   13  F   UNL     1     -11.724  11.372  64.066  1.00  0.00    -0.404 F  
HETATM   14  C   UNL     1      -9.488  11.075  64.845  1.00  0.00    -0.270 A  
HETATM   15  C   UNL     1     -10.470  11.902  64.051  1.00  0.00    -0.373 C  
HETATM   16  C   UNL     1      -9.255   9.733  64.487  1.00  0.00    -0.310 A  
BRANCH   9  17
HETATM   17  N   UNL     1      -7.360  11.399  67.860  1.00  0.00    -0.089 N  
HETATM   18  O   UNL     1      -5.398  12.237  66.914  1.00  0.00    -0.311 OA 
HETATM   19  H   UNL     1      -7.837  11.283  68.754  1.00  0.00     0.000 HD 
HETATM   20  C   UNL     1      -6.166  12.107  67.861  1.00  0.00    -0.079 C  
BRANCH  20  21
HETATM   21  C   UNL     1      -5.839  12.799  69.129  1.00  0.00    -0.081 A  
HETATM   22  C   UNL     1      -5.732  12.135  70.348  1.00  0.00    -0.169 A  
HETATM   23  C   UNL     1      -5.508  12.878  71.507  1.00  0.00    -0.021 A  
HETATM   24  C   UNL     1      -5.405  14.283  71.458  1.00  0.00    -0.186 A  
HETATM   25  C   UNL     1      -5.493  14.956  70.221  1.00  0.00    -0.124 A  
HETATM   26  C   UNL     1      -5.185  15.038  72.741  1.00  0.00     0.029 C  
HETATM   27  C   UNL     1      -5.674  14.187  69.066  1.00  0.00    -0.088 A  
BRANCH  25  28
HETATM   28  N   UNL     1      -5.340  16.346  70.141  1.00  0.00    -0.171 NA 
HETATM   29  H   UNL     1      -4.458  16.699  70.514  1.00  0.00     0.000 HD 
BRANCH  28  30
HETATM   30  C   UNL     1      -6.190  17.327  69.639  1.00  0.00    -0.232 A  
HETATM   31  N   UNL     1      -5.887  18.595  69.950  1.00  0.00    -0.244 NA 
HETATM   32  C   UNL     1      -6.640  19.556  69.382  1.00  0.00    -0.338 A  
HETATM   33  C   UNL     1      -7.652  19.303  68.488  1.00  0.00    -0.369 A  
HETATM   34  C   UNL     1      -7.903  17.974  68.221  1.00  0.00    -0.288 A  
HETATM   35  N   UNL     1      -7.191  16.994  68.814  1.00  0.00    -0.216 NA 
BRANCH  34  36
HETATM   36  C   UNL     1      -8.917  17.509  67.265  1.00  0.00    -0.238 A  
HETATM   37  C   UNL     1      -9.565  18.371  66.379  1.00  0.00    -0.310 A  
HETATM   38  N   UNL     1     -10.486  17.995  65.456  1.00  0.00    -0.608 NA 
HETATM   39  C   UNL     1     -10.777  16.679  65.396  1.00  0.00    -0.215 A  
HETATM   40  C   UNL     1     -10.196  15.728  66.216  1.00  0.00    -0.317 A  
HETATM   41  C   UNL     1      -9.258  16.152  67.155  1.00  0.00    -0.220 A  
ENDBRANCH  34  36
ENDBRANCH  28  30
ENDBRANCH  25  28
ENDBRANCH  20  21
ENDBRANCH   9  17
ENDBRANCH   4   7
TORSDOF 6
ENDMDL
MODEL       62
REMARK 921   NORMALIZED FREE ENERGY PREDICTED BY IDOCK:   -6.55 KCAL/MOL
REMARK 922        TOTAL FREE ENERGY PREDICTED BY IDOCK:   -9.46 KCAL/MOL
REMARK 923 INTER-LIGAND FREE ENERGY PREDICTED BY IDOCK:   -7.91 KCAL/MOL
REMARK 924 INTRA-LIGAND FREE ENERGY PREDICTED BY IDOCK:   -1.55 KCAL/MOL
REMARK 927      BINDING AFFINITY PREDICTED BY RF-SCORE:    0.00 PKD
ROOT
HETATM    1  C   UNL     1      -5.523   1.473  71.560  1.00  0.00    -0.004 C  
HETATM    2  C   UNL     1      -6.722   2.261  71.212  1.00  0.00    -0.027 A  
HETATM    3  C   UNL     1      -6.982   3.011  70.083  1.00  0.00    -0.034 A  
HETATM    4  N   UNL     1      -8.244   3.537  70.244  1.00  0.00    -0.055 NA 
HETATM    5  N   UNL     1      -7.786   2.309  72.067  1.00  0.00    -0.044 NA 
HETATM    6  C   UNL     1      -8.676   3.069  71.470  1.00  0.00    -0.074 A  
ENDROOT
BRANCH   4   7
HETATM    7  C   UNL     1      -8.953   4.378  69.340  1.00  0.00    -0.098 A  
HETATM    8  C   UNL     1      -9.561   5.548  69.813  1.00  0.00    -0.215 A  
HETATM    9  C   UNL     1     -10.283   6.390  68.963  1.00  0.00    -0.183 A  
HETATM   10  F   UNL     1     -10.587   5.461  64.909  1.00  0.00     0.475 F  
HETATM   11  C   UNL     1     -10.350   6.092  67.603  1.00  0.00    -0.258 A  
HETATM   12  F   UNL     1      -8.680   4.422  65.029  1.00  0.00    -0.116 F  
HETATM   13  F   UNL     1     -10.527   3.360  65.464  1.00  0.00     0.121 F  
HETATM   14  C   UNL     1      -9.760   4.918  67.101  1.00  0.00    -0.194 A  
HETATM   15  C   UNL     1      -9.888   4.549  65.643  1.00  0.00    -0.216 C  
HETATM   16  C   UNL     1      -9.066   4.064  67.980  1.00  0.00    -0.179 A  
BRANCH   9  17
HETATM   17  N   UNL     1     -10.935   7.550  69.429  1.00  0.00    -0.421 N  
HETATM   18  O   UNL     1     -12.075   6.682  71.271  1.00  0.00    -0.348 OA 
HETATM   19  H   UNL     1     -10.817   8.404  68.884  1.00  0.00     0.000 HD 
HETATM   20  C   UNL     1     -11.722   7.624  70.569  1.00  0.00    -0.128 C  
BRANCH  20  21
HETATM   21  C   UNL     1     -12.121   8.990  70.979  1.00  0.00    -0.304 A  
HETATM   22  C   UNL     1     -13.065   9.237  71.972  1.00  0.00    -0.512 A  
HETATM   23  C   UNL     1     -13.446  10.554  72.232  1.00  0.00    -0.140 A  
HETATM   24  C   UNL     1     -12.901  11.625  71.496  1.00  0.00    -0.469 A  
HETATM   25  C   UNL     1     -11.930  11.378  70.502  1.00  0.00    -0.356 A  
HETATM   26  C   UNL     1     -13.364  13.024  71.802  1.00  0.00    -0.468 C  
HETATM   27  C   UNL     1     -11.531  10.054  70.288  1.00  0.00    -0.372 A  
BRANCH  25  28
HETATM   28  N   UNL     1     -11.335  12.431  69.795  1.00  0.00    -0.490 NA 
HETATM   29  H   UNL     1     -11.003  13.200  70.377  1.00  0.00     0.000 HD 
BRANCH  28  30
HETATM   30  C   UNL     1     -11.122  12.604  68.430  1.00  0.00    -0.265 A  
HETATM   31  N   UNL     1     -11.308  13.841  67.950  1.00  0.00    -0.283 NA 
HETATM   32  C   UNL     1     -11.003  14.041  66.654  1.00  0.00    -0.300 A  
HETATM   33  C   UNL     1     -10.483  13.069  65.834  1.00  0.00    -0.293 A  
HETATM   34  C   UNL     1     -10.322  11.823  66.402  1.00  0.00    -0.222 A  
HETATM   35  N   UNL     1     -10.665  11.589  67.685  1.00  0.00    -0.201 NA 
BRANCH  34  36
HETATM   36  C   UNL     1      -9.747  10.671  65.696  1.00  0.00    -0.283 A  
HETATM   37  C   UNL     1      -9.422  10.706  64.339  1.00  0.00    -0.269 A  
HETATM   38  N   UNL     1      -8.861   9.686  63.643  1.00  0.00    -0.231 NA 
HETATM   39  C   UNL     1      -8.592   8.559  64.336  1.00  0.00    -0.007 A  
HETATM   40  C   UNL     1      -8.861   8.407  65.684  1.00  0.00    -0.196 A  
HETATM   41  C   UNL     1      -9.442   9.475  66.365  1.00  0.00    -0.251 A  
ENDBRANCH  34  36
ENDBRANCH  28  30
ENDBRANCH  25  28
ENDBRANCH  20  21
ENDBRANCH   9  17
ENDBRANCH   4   7
TORSDOF 6
ENDMDL
MODEL       63
REMARK 921   NORMALIZED FREE ENERGY PREDICTED BY IDOCK:   -6.54 KCAL/MOL
REMARK 922        TOTAL FREE ENERGY PREDICTED BY IDOCK:   -9.44 KCAL/MOL
REMARK 923 INTER-LIGAND FREE ENERGY PREDICTED BY IDOCK:   -7.91 KCAL/MOL
REMARK 924 INTRA-LIGAND FREE ENERGY PREDICTED BY IDOCK:   -1.53 KCAL/MOL
REMARK 927      BINDING AFFINITY PREDICTED BY RF-SCORE:    0.00 PKD
ROOT
HETATM    1  C   UNL     1      -6.048  17.275  69.652  1.00  0.00    -0.244 C  
HETATM    2  C   UNL     1      -6.438  16.086  68.868  1.00  0.00    -0.126 A  
HETATM    3  C   UNL     1      -7.693  15.659  68.486  1.00  0.00    -0.131 A  
HETATM    4  N   UNL     1      -7.510  14.503  67.760  1.00  0.00    -0.151 NA 
HETATM    5  N   UNL     1      -5.483  15.228  68.401  1.00  0.00    -0.099 NA 
HETATM    6  C   UNL     1      -6.143  14.300  67.745  1.00  0.00    -0.118 A  
ENDROOT
BRANCH   4   7
HETATM    7  C   UNL     1      -8.512  13.694  67.152  1.00  0.00    -0.174 A  
HETATM    8  C   UNL     1      -8.246  12.346  66.883  1.00  0.00    -0.089 A  
HETATM    9  C   UNL     1      -9.194  11.523  66.269  1.00  0.00    -0.211 A  
HETATM   10  F   UNL     1     -12.934  13.076  65.273  1.00  0.00    -0.551 F  
HETATM   11  C   UNL     1     -10.455  12.040  65.972  1.00  0.00    -0.284 A  
HETATM   12  F   UNL     1     -12.746  14.507  66.900  1.00  0.00    -0.300 F  
HETATM   13  F   UNL     1     -11.964  14.990  64.929  1.00  0.00    -0.370 F  
HETATM   14  C   UNL     1     -10.746  13.393  66.219  1.00  0.00    -0.290 A  
HETATM   15  C   UNL     1     -12.083  13.980  65.834  1.00  0.00    -0.428 C  
HETATM   16  C   UNL     1      -9.765  14.215  66.807  1.00  0.00    -0.283 A  
BRANCH   9  17
HETATM   17  N   UNL     1      -8.930  10.175  65.955  1.00  0.00    -0.152 N  
HETATM   18  O   UNL     1      -8.254  10.384  63.731  1.00  0.00    -0.161 OA 
HETATM   19  H   UNL     1      -9.124   9.479  66.675  1.00  0.00     0.000 HD 
HETATM   20  C   UNL     1      -8.427   9.717  64.746  1.00  0.00    -0.159 C  
BRANCH  20  21
HETATM   21  C   UNL     1      -8.025   8.291  64.723  1.00  0.00    -0.146 A  
HETATM   22  C   UNL     1      -7.862   7.570  63.544  1.00  0.00    -0.112 A  
HETATM   23  C   UNL     1      -7.569   6.208  63.618  1.00  0.00    -0.082 A  
HETATM   24  C   UNL     1      -7.453   5.558  64.862  1.00  0.00    -0.074 A  
HETATM   25  C   UNL     1      -7.600   6.292  66.059  1.00  0.00    -0.087 A  
HETATM   26  C   UNL     1      -7.158   4.083  64.885  1.00  0.00    -0.066 C  
HETATM   27  C   UNL     1      -7.850   7.665  65.961  1.00  0.00    -0.101 A  
BRANCH  25  28
HETATM   28  N   UNL     1      -7.436   5.678  67.308  1.00  0.00    -0.083 NA 
HETATM   29  H   UNL     1      -6.466   5.512  67.576  1.00  0.00     0.000 HD 
BRANCH  28  30
HETATM   30  C   UNL     1      -8.376   5.258  68.245  1.00  0.00    -0.097 A  
HETATM   31  N   UNL     1      -8.440   3.939  68.475  1.00  0.00    -0.089 NA 
HETATM   32  C   UNL     1      -9.270   3.534  69.453  1.00  0.00    -0.157 A  
HETATM   33  C   UNL     1     -10.005   4.392  70.236  1.00  0.00    -0.248 A  
HETATM   34  C   UNL     1      -9.886   5.732  69.936  1.00  0.00    -0.179 A  
HETATM   35  N   UNL     1      -9.095   6.157  68.929  1.00  0.00    -0.123 NA 
BRANCH  34  36
HETATM   36  C   UNL     1     -10.562   6.801  70.683  1.00  0.00    -0.257 A  
HETATM   37  C   UNL     1      -9.913   7.975  71.068  1.00  0.00    -0.182 A  
HETATM   38  N   UNL     1     -10.492   9.007  71.732  1.00  0.00    -0.354 NA 
HETATM   39  C   UNL     1     -11.803   8.875  72.023  1.00  0.00    -0.368 A  
HETATM   40  C   UNL     1     -12.555   7.763  71.689  1.00  0.00    -0.357 A  
HETATM   41  C   UNL     1     -11.924   6.721  71.012  1.00  0.00    -0.431 A  
ENDBRANCH  34  36
ENDBRANCH  28  30
ENDBRANCH  25  28
ENDBRANCH  20  21
ENDBRANCH   9  17
ENDBRANCH   4   7
TORSDOF 6
ENDMDL
MODEL       64
REMARK 921   NORMALIZED FREE ENERGY PREDICTED BY IDOCK:   -6.52 KCAL/MOL
REMARK 922        TOTAL FREE ENERGY PREDICTED BY IDOCK:   -9.42 KCAL/MOL
REMARK 923 INTER-LIGAND FREE ENERGY PREDICTED BY IDOCK:   -8.31 KCAL/MOL
REMARK 924 INTRA-LIGAND FREE ENERGY PREDICTED BY IDOCK:   -1.11 KCAL/MOL
REMARK 927      BINDING AFFINITY PREDICTED BY RF-SCORE:    0.00 PKD
ROOT
HETATM    1  C   UNL     1     -12.902  16.851  74.134  1.00  0.00     0.388 C  
HETATM    2  C   UNL     1     -12.486  15.889  73.094  1.00  0.00    -0.497 A  
HETATM    3  C   UNL     1     -12.761  14.541  72.984  1.00  0.00    -0.396 A  
HETATM    4  N   UNL     1     -12.149  14.110  71.828  1.00  0.00    -0.174 NA 
HETATM    5  N   UNL     1     -11.721  16.304  72.041  1.00  0.00    -0.499 NA 
HETATM    6  C   UNL     1     -11.538  15.232  71.304  1.00  0.00    -0.380 A  
ENDROOT
BRANCH   4   7
HETATM    7  C   UNL     1     -12.151  12.793  71.288  1.00  0.00     0.362 A  
HETATM    8  C   UNL     1     -11.695  12.578  69.981  1.00  0.00    -0.297 A  
HETATM    9  C   UNL     1     -11.700  11.304  69.406  1.00  0.00    -0.339 A  
HETATM   10  F   UNL     1     -13.026   8.040  71.636  1.00  0.00    -0.304 F  
HETATM   11  C   UNL     1     -12.111  10.213  70.170  1.00  0.00    -0.224 A  
HETATM   12  F   UNL     1     -12.417   9.065  73.454  1.00  0.00     0.280 F  
HETATM   13  F   UNL     1     -14.408   9.385  72.641  1.00  0.00    -0.423 F  
HETATM   14  C   UNL     1     -12.586  10.399  71.480  1.00  0.00    -0.544 A  
HETATM   15  C   UNL     1     -13.101   9.234  72.290  1.00  0.00    -0.441 C  
HETATM   16  C   UNL     1     -12.605  11.695  72.030  1.00  0.00     0.092 A  
BRANCH   9  17
HETATM   17  N   UNL     1     -11.281  11.077  68.079  1.00  0.00    -0.286 N  
HETATM   18  O   UNL     1     -10.969  13.272  67.353  1.00  0.00    -0.263 OA 
HETATM   19  H   UNL     1     -11.263  10.111  67.753  1.00  0.00     0.000 HD 
HETATM   20  C   UNL     1     -10.892  12.060  67.181  1.00  0.00    -0.253 C  
BRANCH  20  21
HETATM   21  C   UNL     1     -10.287  11.569  65.922  1.00  0.00    -0.293 A  
HETATM   22  C   UNL     1     -10.458  12.210  64.699  1.00  0.00    -0.336 A  
HETATM   23  C   UNL     1      -9.925  11.629  63.548  1.00  0.00    -0.429 A  
HETATM   24  C   UNL     1      -9.236  10.402  63.609  1.00  0.00    -0.310 A  
HETATM   25  C   UNL     1      -9.044   9.759  64.851  1.00  0.00    -0.229 A  
HETATM   26  C   UNL     1      -8.701   9.807  62.335  1.00  0.00    -0.237 C  
HETATM   27  C   UNL     1      -9.549  10.382  65.998  1.00  0.00    -0.251 A  
BRANCH  25  28
HETATM   28  N   UNL     1      -8.316   8.566  64.944  1.00  0.00    -0.169 NA 
HETATM   29  H   UNL     1      -7.371   8.614  64.562  1.00  0.00     0.000 HD 
BRANCH  28  30
HETATM   30  C   UNL     1      -8.666   7.325  65.468  1.00  0.00    -0.024 A  
HETATM   31  N   UNL     1      -8.547   6.275  64.645  1.00  0.00     0.062 NA 
HETATM   32  C   UNL     1      -8.782   5.059  65.174  1.00  0.00    -0.150 A  
HETATM   33  C   UNL     1      -9.089   4.849  66.497  1.00  0.00    -0.124 A  
HETATM   34  C   UNL     1      -9.194   5.980  67.278  1.00  0.00    -0.114 A  
HETATM   35  N   UNL     1      -9.008   7.210  66.758  1.00  0.00    -0.131 NA 
BRANCH  34  36
HETATM   36  C   UNL     1      -9.476   5.955  68.720  1.00  0.00    -0.143 A  
HETATM   37  C   UNL     1      -8.466   5.973  69.683  1.00  0.00    -0.126 A  
HETATM   38  N   UNL     1      -8.666   5.982  71.025  1.00  0.00    -0.131 NA 
HETATM   39  C   UNL     1      -9.949   5.985  71.443  1.00  0.00    -0.186 A  
HETATM   40  C   UNL     1     -11.034   5.975  70.585  1.00  0.00    -0.376 A  
HETATM   41  C   UNL     1     -10.790   5.961  69.213  1.00  0.00    -0.414 A  
ENDBRANCH  34  36
ENDBRANCH  28  30
ENDBRANCH  25  28
ENDBRANCH  20  21
ENDBRANCH   9  17
ENDBRANCH   4   7
TORSDOF 6
ENDMDL
MODEL       65
REMARK 921   NORMALIZED FREE ENERGY PREDICTED BY IDOCK:   -6.51 KCAL/MOL
REMARK 922        TOTAL FREE ENERGY PREDICTED BY IDOCK:   -9.40 KCAL/MOL
REMARK 923 INTER-LIGAND FREE ENERGY PREDICTED BY IDOCK:   -7.91 KCAL/MOL
REMARK 924 INTRA-LIGAND FREE ENERGY PREDICTED BY IDOCK:   -1.49 KCAL/MOL
REMARK 927      BINDING AFFINITY PREDICTED BY RF-SCORE:    0.00 PKD
ROOT
HETATM    1  C   UNL     1      -9.676  18.726  69.092  1.00  0.00    -0.243 C  
HETATM    2  C   UNL     1      -9.367  17.422  68.471  1.00  0.00    -0.281 A  
HETATM    3  C   UNL     1     -10.221  16.483  67.931  1.00  0.00    -0.273 A  
HETATM    4  N   UNL     1      -9.431  15.452  67.474  1.00  0.00    -0.204 NA 
HETATM    5  N   UNL     1      -8.072  17.002  68.363  1.00  0.00    -0.235 NA 
HETATM    6  C   UNL     1      -8.136  15.833  67.766  1.00  0.00    -0.144 A  
ENDROOT
BRANCH   4   7
HETATM    7  C   UNL     1      -9.857  14.253  66.834  1.00  0.00    -0.263 A  
HETATM    8  C   UNL     1      -9.167  13.058  67.070  1.00  0.00    -0.232 A  
HETATM    9  C   UNL     1      -9.540  11.864  66.446  1.00  0.00    -0.225 A  
HETATM   10  F   UNL     1     -12.823  11.819  63.875  1.00  0.00    -0.513 F  
HETATM   11  C   UNL     1     -10.660  11.849  65.616  1.00  0.00    -0.311 A  
HETATM   12  F   UNL     1     -13.683  13.480  64.984  1.00  0.00     0.137 F  
HETATM   13  F   UNL     1     -12.327  13.864  63.328  1.00  0.00    -0.519 F  
HETATM   14  C   UNL     1     -11.365  13.036  65.350  1.00  0.00    -0.327 A  
HETATM   15  C   UNL     1     -12.535  13.045  64.396  1.00  0.00    -0.337 C  
HETATM   16  C   UNL     1     -10.953  14.236  65.962  1.00  0.00    -0.312 A  
BRANCH   9  17
HETATM   17  N   UNL     1      -8.833  10.660  66.641  1.00  0.00    -0.139 N  
HETATM   18  O   UNL     1      -7.268  10.806  64.917  1.00  0.00     0.057 OA 
HETATM   19  H   UNL     1      -9.163  10.037  67.379  1.00  0.00     0.000 HD 
HETATM   20  C   UNL     1      -7.724  10.254  65.912  1.00  0.00    -0.137 C  
BRANCH  20  21
HETATM   21  C   UNL     1      -7.019   9.063  66.438  1.00  0.00    -0.080 A  
HETATM   22  C   UNL     1      -5.700   8.760  66.114  1.00  0.00    -0.046 A  
HETATM   23  C   UNL     1      -5.143   7.570  66.584  1.00  0.00    -0.023 A  
HETATM   24  C   UNL     1      -5.900   6.673  67.363  1.00  0.00    -0.013 A  
HETATM   25  C   UNL     1      -7.232   6.987  67.709  1.00  0.00    -0.091 A  
HETATM   26  C   UNL     1      -5.257   5.393  67.825  1.00  0.00    -0.004 C  
HETATM   27  C   UNL     1      -7.756   8.206  67.263  1.00  0.00    -0.098 A  
BRANCH  25  28
HETATM   28  N   UNL     1      -7.986   6.137  68.527  1.00  0.00    -0.107 NA 
HETATM   29  H   UNL     1      -7.807   5.143  68.386  1.00  0.00     0.000 HD 
BRANCH  28  30
HETATM   30  C   UNL     1      -8.941   6.421  69.499  1.00  0.00    -0.136 A  
HETATM   31  N   UNL     1      -9.008   5.573  70.535  1.00  0.00    -0.134 NA 
HETATM   32  C   UNL     1      -9.853   5.898  71.531  1.00  0.00    -0.166 A  
HETATM   33  C   UNL     1     -10.600   7.051  71.553  1.00  0.00    -0.232 A  
HETATM   34  C   UNL     1     -10.476   7.870  70.451  1.00  0.00    -0.218 A  
HETATM   35  N   UNL     1      -9.670   7.542  69.421  1.00  0.00    -0.163 NA 
BRANCH  34  36
HETATM   36  C   UNL     1     -11.163   9.161  70.311  1.00  0.00    -0.249 A  
HETATM   37  C   UNL     1     -11.180   9.877  69.113  1.00  0.00    -0.107 A  
HETATM   38  N   UNL     1     -11.822  11.055  68.915  1.00  0.00    -0.399 NA 
HETATM   39  C   UNL     1     -12.503  11.554  69.967  1.00  0.00    -0.122 A  
HETATM   40  C   UNL     1     -12.566  10.935  71.202  1.00  0.00    -0.532 A  
HETATM   41  C   UNL     1     -11.891   9.727  71.369  1.00  0.00    -0.488 A  
ENDBRANCH  34  36
ENDBRANCH  28  30
ENDBRANCH  25  28
ENDBRANCH  20  21
ENDBRANCH   9  17
ENDBRANCH   4   7
TORSDOF 6
ENDMDL
MODEL       66
REMARK 921   NORMALIZED FREE ENERGY PREDICTED BY IDOCK:   -6.49 KCAL/MOL
REMARK 922        TOTAL FREE ENERGY PREDICTED BY IDOCK:   -9.38 KCAL/MOL
REMARK 923 INTER-LIGAND FREE ENERGY PREDICTED BY IDOCK:   -8.07 KCAL/MOL
REMARK 924 INTRA-LIGAND FREE ENERGY PREDICTED BY IDOCK:   -1.31 KCAL/MOL
REMARK 927      BINDING AFFINITY PREDICTED BY RF-SCORE:    0.00 PKD
ROOT
HETATM    1  C   UNL     1     -13.370  15.869  73.048  1.00  0.00    -0.663 C  
HETATM    2  C   UNL     1     -12.768  15.367  71.796  1.00  0.00    -0.396 A  
HETATM    3  C   UNL     1     -11.597  15.744  71.171  1.00  0.00    -0.419 A  
HETATM    4  N   UNL     1     -11.487  14.962  70.043  1.00  0.00    -0.264 NA 
HETATM    5  N   UNL     1     -13.385  14.375  71.087  1.00  0.00    -0.351 NA 
HETATM    6  C   UNL     1     -12.605  14.152  70.055  1.00  0.00    -0.214 A  
ENDROOT
BRANCH   4   7
HETATM    7  C   UNL     1     -10.442  14.983  69.075  1.00  0.00    -0.245 A  
HETATM    8  C   UNL     1     -10.126  13.814  68.371  1.00  0.00    -0.241 A  
HETATM    9  C   UNL     1      -9.094  13.786  67.429  1.00  0.00    -0.221 A  
HETATM   10  F   UNL     1      -6.942  17.265  66.623  1.00  0.00    -0.183 F  
HETATM   11  C   UNL     1      -8.403  14.962  67.139  1.00  0.00    -0.247 A  
HETATM   12  F   UNL     1      -8.684  18.442  67.179  1.00  0.00    -0.246 F  
HETATM   13  F   UNL     1      -7.246  17.843  68.696  1.00  0.00    -0.230 F  
HETATM   14  C   UNL     1      -8.690  16.147  67.839  1.00  0.00    -0.174 A  
HETATM   15  C   UNL     1      -7.899  17.407  67.584  1.00  0.00    -0.191 C  
HETATM   16  C   UNL     1      -9.710  16.146  68.809  1.00  0.00    -0.233 A  
BRANCH   9  17
HETATM   17  N   UNL     1      -8.737  12.609  66.739  1.00  0.00    -0.349 N  
HETATM   18  O   UNL     1      -6.866  11.952  67.969  1.00  0.00    -0.064 OA 
HETATM   19  H   UNL     1      -9.284  12.365  65.914  1.00  0.00     0.000 HD 
HETATM   20  C   UNL     1      -7.701  11.756  67.093  1.00  0.00    -0.162 C  
BRANCH  20  21
HETATM   21  C   UNL     1      -7.653  10.474  66.353  1.00  0.00    -0.132 A  
HETATM   22  C   UNL     1      -6.736  10.220  65.337  1.00  0.00    -0.123 A  
HETATM   23  C   UNL     1      -6.820   9.018  64.634  1.00  0.00    -0.084 A  
HETATM   24  C   UNL     1      -7.824   8.074  64.929  1.00  0.00    -0.129 A  
HETATM   25  C   UNL     1      -8.742   8.322  65.971  1.00  0.00    -0.155 A  
HETATM   26  C   UNL     1      -7.882   6.804  64.124  1.00  0.00    -0.106 C  
HETATM   27  C   UNL     1      -8.612   9.514  66.692  1.00  0.00    -0.141 A  
BRANCH  25  28
HETATM   28  N   UNL     1      -9.715   7.375  66.317  1.00  0.00    -0.420 NA 
HETATM   29  H   UNL     1     -10.349   7.120  65.560  1.00  0.00     0.000 HD 
BRANCH  28  30
HETATM   30  C   UNL     1      -9.961   6.723  67.523  1.00  0.00    -0.141 A  
HETATM   31  N   UNL     1     -10.991   7.181  68.248  1.00  0.00    -0.088 NA 
HETATM   32  C   UNL     1     -11.302   6.493  69.362  1.00  0.00    -0.332 A  
HETATM   33  C   UNL     1     -10.655   5.346  69.756  1.00  0.00    -0.347 A  
HETATM   34  C   UNL     1      -9.607   4.940  68.958  1.00  0.00    -0.157 A  
HETATM   35  N   UNL     1      -9.249   5.642  67.863  1.00  0.00    -0.107 NA 
BRANCH  34  36
HETATM   36  C   UNL     1      -8.823   3.721  69.195  1.00  0.00    -0.152 A  
HETATM   37  C   UNL     1      -7.855   3.264  68.299  1.00  0.00    -0.059 A  
HETATM   38  N   UNL     1      -7.080   2.166  68.478  1.00  0.00    -0.043 NA 
HETATM   39  C   UNL     1      -7.265   1.479  69.625  1.00  0.00    -0.036 A  
HETATM   40  C   UNL     1      -8.188   1.836  70.592  1.00  0.00    -0.056 A  
HETATM   41  C   UNL     1      -8.969   2.968  70.370  1.00  0.00    -0.167 A  
ENDBRANCH  34  36
ENDBRANCH  28  30
ENDBRANCH  25  28
ENDBRANCH  20  21
ENDBRANCH   9  17
ENDBRANCH   4   7
TORSDOF 6
ENDMDL
MODEL       67
REMARK 921   NORMALIZED FREE ENERGY PREDICTED BY IDOCK:   -6.43 KCAL/MOL
REMARK 922        TOTAL FREE ENERGY PREDICTED BY IDOCK:   -9.29 KCAL/MOL
REMARK 923 INTER-LIGAND FREE ENERGY PREDICTED BY IDOCK:   -8.75 KCAL/MOL
REMARK 924 INTRA-LIGAND FREE ENERGY PREDICTED BY IDOCK:   -0.55 KCAL/MOL
REMARK 927      BINDING AFFINITY PREDICTED BY RF-SCORE:    0.00 PKD
ROOT
HETATM    1  C   UNL     1     -10.053  19.463  65.772  1.00  0.00    -0.266 C  
HETATM    2  C   UNL     1      -9.954  18.198  66.528  1.00  0.00    -0.374 A  
HETATM    3  C   UNL     1     -10.892  17.579  67.330  1.00  0.00    -0.131 A  
HETATM    4  N   UNL     1     -10.308  16.420  67.791  1.00  0.00    -0.279 NA 
HETATM    5  N   UNL     1      -8.808  17.456  66.480  1.00  0.00    -0.257 NA 
HETATM    6  C   UNL     1      -9.044  16.407  67.234  1.00  0.00    -0.200 A  
ENDROOT
BRANCH   4   7
HETATM    7  C   UNL     1     -10.886  15.444  68.652  1.00  0.00    -0.259 A  
HETATM    8  C   UNL     1     -10.570  14.092  68.477  1.00  0.00    -0.260 A  
HETATM    9  C   UNL     1     -11.131  13.100  69.287  1.00  0.00    -0.145 A  
HETATM   10  F   UNL     1     -13.749  14.177  72.349  1.00  0.00    -0.452 F  
HETATM   11  C   UNL     1     -11.977  13.471  70.331  1.00  0.00    -0.367 A  
HETATM   12  F   UNL     1     -12.752  16.104  72.491  1.00  0.00    -0.466 F  
HETATM   13  F   UNL     1     -14.404  15.834  71.103  1.00  0.00    -0.439 F  
HETATM   14  C   UNL     1     -12.323  14.820  70.523  1.00  0.00    -0.398 A  
HETATM   15  C   UNL     1     -13.295  15.224  71.605  1.00  0.00    -0.463 C  
HETATM   16  C   UNL     1     -11.774  15.801  69.675  1.00  0.00    -0.363 A  
BRANCH   9  17
HETATM   17  N   UNL     1     -10.855  11.730  69.100  1.00  0.00    -0.360 N  
HETATM   18  O   UNL     1     -11.714  10.853  71.084  1.00  0.00    -0.217 OA 
HETATM   19  H   UNL     1     -10.348  11.465  68.256  1.00  0.00     0.000 HD 
HETATM   20  C   UNL     1     -11.217  10.713  69.972  1.00  0.00    -0.309 C  
BRANCH  20  21
HETATM   21  C   UNL     1     -11.015   9.337  69.463  1.00  0.00    -0.169 A  
HETATM   22  C   UNL     1     -11.159   8.206  70.261  1.00  0.00    -0.221 A  
HETATM   23  C   UNL     1     -10.862   6.954  69.722  1.00  0.00    -0.295 A  
HETATM   24  C   UNL     1     -10.407   6.826  68.395  1.00  0.00    -0.214 A  
HETATM   25  C   UNL     1     -10.279   7.970  67.578  1.00  0.00    -0.245 A  
HETATM   26  C   UNL     1     -10.080   5.454  67.871  1.00  0.00    -0.215 C  
HETATM   27  C   UNL     1     -10.624   9.210  68.126  1.00  0.00    -0.235 A  
BRANCH  25  28
HETATM   28  N   UNL     1      -9.880   7.861  66.240  1.00  0.00    -0.459 NA 
HETATM   29  H   UNL     1     -10.641   7.912  65.564  1.00  0.00     0.000 HD 
BRANCH  28  30
HETATM   30  C   UNL     1      -8.617   7.695  65.678  1.00  0.00    -0.123 A  
HETATM   31  N   UNL     1      -7.714   8.648  65.947  1.00  0.00    -0.098 NA 
HETATM   32  C   UNL     1      -6.462   8.443  65.497  1.00  0.00    -0.049 A  
HETATM   33  C   UNL     1      -6.068   7.309  64.828  1.00  0.00    -0.037 A  
HETATM   34  C   UNL     1      -7.054   6.377  64.590  1.00  0.00    -0.057 A  
HETATM   35  N   UNL     1      -8.325   6.583  64.991  1.00  0.00    -0.114 NA 
BRANCH  34  36
HETATM   36  C   UNL     1      -6.818   5.089  63.924  1.00  0.00    -0.047 A  
HETATM   37  C   UNL     1      -5.734   4.871  63.071  1.00  0.00    -0.014 A  
HETATM   38  N   UNL     1      -5.449   3.697  62.454  1.00  0.00    -0.005 NA 
HETATM   39  C   UNL     1      -6.282   2.666  62.706  1.00  0.00    -0.010 A  
HETATM   40  C   UNL     1      -7.384   2.756  63.537  1.00  0.00    -0.057 A  
HETATM   41  C   UNL     1      -7.648   3.979  64.150  1.00  0.00    -0.078 A  
ENDBRANCH  34  36
ENDBRANCH  28  30
ENDBRANCH  25  28
ENDBRANCH  20  21
ENDBRANCH   9  17
ENDBRANCH   4   7
TORSDOF 6
ENDMDL
MODEL       68
REMARK 921   NORMALIZED FREE ENERGY PREDICTED BY IDOCK:   -6.38 KCAL/MOL
REMARK 922        TOTAL FREE ENERGY PREDICTED BY IDOCK:   -9.22 KCAL/MOL
REMARK 923 INTER-LIGAND FREE ENERGY PREDICTED BY IDOCK:   -8.02 KCAL/MOL
REMARK 924 INTRA-LIGAND FREE ENERGY PREDICTED BY IDOCK:   -1.21 KCAL/MOL
REMARK 927      BINDING AFFINITY PREDICTED BY RF-SCORE:    0.00 PKD
ROOT
HETATM    1  C   UNL     1     -10.524  17.213  68.941  1.00  0.00    -0.346 C  
HETATM    2  C   UNL     1     -11.069  15.907  69.360  1.00  0.00    -0.322 A  
HETATM    3  C   UNL     1     -10.662  14.634  69.017  1.00  0.00    -0.249 A  
HETATM    4  N   UNL     1     -11.492  13.763  69.686  1.00  0.00    -0.257 NA 
HETATM    5  N   UNL     1     -12.127  15.848  70.222  1.00  0.00    -0.329 NA 
HETATM    6  C   UNL     1     -12.357  14.568  70.402  1.00  0.00    -0.338 A  
ENDROOT
BRANCH   4   7
HETATM    7  C   UNL     1     -11.462  12.340  69.652  1.00  0.00    -0.215 A  
HETATM    8  C   UNL     1     -10.629  11.686  68.735  1.00  0.00    -0.241 A  
HETATM    9  C   UNL     1     -10.585  10.291  68.654  1.00  0.00    -0.208 A  
HETATM   10  F   UNL     1     -12.922   8.002  71.241  1.00  0.00    -0.318 F  
HETATM   11  C   UNL     1     -11.342   9.532  69.546  1.00  0.00    -0.025 A  
HETATM   12  F   UNL     1     -12.833   9.608  72.704  1.00  0.00    -0.395 F  
HETATM   13  F   UNL     1     -14.399   9.596  71.195  1.00  0.00    -0.166 F  
HETATM   14  C   UNL     1     -12.197  10.161  70.469  1.00  0.00    -0.352 A  
HETATM   15  C   UNL     1     -13.074   9.348  71.390  1.00  0.00    -0.347 C  
HETATM   16  C   UNL     1     -12.253  11.567  70.511  1.00  0.00    -0.469 A  
BRANCH   9  17
HETATM   17  N   UNL     1      -9.783   9.617  67.712  1.00  0.00    -0.143 N  
HETATM   18  O   UNL     1     -10.745  10.369  65.724  1.00  0.00    -0.093 OA 
HETATM   19  H   UNL     1      -9.073   8.978  68.072  1.00  0.00     0.000 HD 
HETATM   20  C   UNL     1      -9.879   9.751  66.334  1.00  0.00    -0.235 C  
BRANCH  20  21
HETATM   21  C   UNL     1      -8.792   9.116  65.555  1.00  0.00    -0.229 A  
HETATM   22  C   UNL     1      -7.894   9.841  64.778  1.00  0.00    -0.134 A  
HETATM   23  C   UNL     1      -6.957   9.154  64.006  1.00  0.00    -0.089 A  
HETATM   24  C   UNL     1      -6.920   7.746  63.994  1.00  0.00    -0.066 A  
HETATM   25  C   UNL     1      -7.817   7.008  64.797  1.00  0.00    -0.126 A  
HETATM   26  C   UNL     1      -5.903   7.054  63.127  1.00  0.00    -0.040 C  
HETATM   27  C   UNL     1      -8.720   7.719  65.596  1.00  0.00    -0.132 A  
BRANCH  25  28
HETATM   28  N   UNL     1      -7.764   5.609  64.842  1.00  0.00    -0.093 NA 
HETATM   29  H   UNL     1      -7.165   5.183  64.135  1.00  0.00     0.000 HD 
BRANCH  28  30
HETATM   30  C   UNL     1      -8.394   4.703  65.691  1.00  0.00    -0.116 A  
HETATM   31  N   UNL     1      -8.513   3.447  65.239  1.00  0.00    -0.098 NA 
HETATM   32  C   UNL     1      -9.024   2.541  66.093  1.00  0.00    -0.120 A  
HETATM   33  C   UNL     1      -9.380   2.829  67.389  1.00  0.00    -0.178 A  
HETATM   34  C   UNL     1      -9.228   4.143  67.777  1.00  0.00    -0.152 A  
HETATM   35  N   UNL     1      -8.762   5.076  66.923  1.00  0.00    -0.108 NA 
BRANCH  34  36
HETATM   36  C   UNL     1      -9.518   4.634  69.131  1.00  0.00    -0.224 A  
HETATM   37  C   UNL     1      -9.920   5.946  69.384  1.00  0.00    -0.178 A  
HETATM   38  N   UNL     1     -10.230   6.447  70.606  1.00  0.00    -0.187 NA 
HETATM   39  C   UNL     1     -10.151   5.591  71.646  1.00  0.00    -0.195 A  
HETATM   40  C   UNL     1      -9.772   4.266  71.521  1.00  0.00    -0.244 A  
HETATM   41  C   UNL     1      -9.456   3.789  70.250  1.00  0.00    -0.257 A  
ENDBRANCH  34  36
ENDBRANCH  28  30
ENDBRANCH  25  28
ENDBRANCH  20  21
ENDBRANCH   9  17
ENDBRANCH   4   7
TORSDOF 6
ENDMDL
MODEL       69
REMARK 921   NORMALIZED FREE ENERGY PREDICTED BY IDOCK:   -6.30 KCAL/MOL
REMARK 922        TOTAL FREE ENERGY PREDICTED BY IDOCK:   -9.11 KCAL/MOL
REMARK 923 INTER-LIGAND FREE ENERGY PREDICTED BY IDOCK:   -7.89 KCAL/MOL
REMARK 924 INTRA-LIGAND FREE ENERGY PREDICTED BY IDOCK:   -1.22 KCAL/MOL
REMARK 927      BINDING AFFINITY PREDICTED BY RF-SCORE:    0.00 PKD
ROOT
HETATM    1  C   UNL     1      -9.054  15.151  66.525  1.00  0.00    -0.328 C  
HETATM    2  C   UNL     1      -9.696  13.909  66.999  1.00  0.00    -0.250 A  
HETATM    3  C   UNL     1      -9.586  13.274  68.219  1.00  0.00    -0.221 A  
HETATM    4  N   UNL     1     -10.395  12.161  68.155  1.00  0.00    -0.201 NA 
HETATM    5  N   UNL     1     -10.549  13.222  66.182  1.00  0.00    -0.284 NA 
HETATM    6  C   UNL     1     -10.952  12.192  66.892  1.00  0.00    -0.270 A  
ENDROOT
BRANCH   4   7
HETATM    7  C   UNL     1     -10.613  11.191  69.174  1.00  0.00    -0.204 A  
HETATM    8  C   UNL     1      -9.651  10.201  69.408  1.00  0.00    -0.249 A  
HETATM    9  C   UNL     1      -9.836   9.218  70.384  1.00  0.00    -0.241 A  
HETATM   10  F   UNL     1     -13.291   9.257  72.719  1.00  0.00    -0.484 F  
HETATM   11  C   UNL     1     -10.977   9.259  71.185  1.00  0.00    -0.409 A  
HETATM   12  F   UNL     1     -13.418  11.412  72.452  1.00  0.00    -0.552 F  
HETATM   13  F   UNL     1     -14.348  10.080  71.007  1.00  0.00     0.074 F  
HETATM   14  C   UNL     1     -11.966  10.234  70.965  1.00  0.00    -0.483 A  
HETATM   15  C   UNL     1     -13.238  10.243  71.779  1.00  0.00    -0.430 C  
HETATM   16  C   UNL     1     -11.777  11.195  69.954  1.00  0.00    -0.433 A  
BRANCH   9  17
HETATM   17  N   UNL     1      -8.896   8.191  70.606  1.00  0.00    -0.137 N  
HETATM   18  O   UNL     1      -8.526   8.447  72.895  1.00  0.00    -0.268 OA 
HETATM   19  H   UNL     1      -8.582   7.661  69.794  1.00  0.00     0.000 HD 
HETATM   20  C   UNL     1      -8.364   7.845  71.839  1.00  0.00    -0.121 C  
BRANCH  20  21
HETATM   21  C   UNL     1      -7.565   6.598  71.859  1.00  0.00    -0.096 A  
HETATM   22  C   UNL     1      -6.581   6.345  72.811  1.00  0.00    -0.064 A  
HETATM   23  C   UNL     1      -5.816   5.183  72.702  1.00  0.00    -0.025 A  
HETATM   24  C   UNL     1      -6.017   4.280  71.639  1.00  0.00    -0.017 A  
HETATM   25  C   UNL     1      -7.027   4.525  70.684  1.00  0.00    -0.037 A  
HETATM   26  C   UNL     1      -5.149   3.053  71.556  1.00  0.00     0.000 C  
HETATM   27  C   UNL     1      -7.811   5.674  70.838  1.00  0.00    -0.105 A  
BRANCH  25  28
HETATM   28  N   UNL     1      -7.281   3.615  69.650  1.00  0.00    -0.042 NA 
HETATM   29  H   UNL     1      -6.951   2.667  69.828  1.00  0.00     0.000 HD 
BRANCH  28  30
HETATM   30  C   UNL     1      -7.909   3.789  68.420  1.00  0.00    -0.068 A  
HETATM   31  N   UNL     1      -8.313   2.675  67.794  1.00  0.00    -0.078 NA 
HETATM   32  C   UNL     1      -9.014   2.838  66.657  1.00  0.00    -0.151 A  
HETATM   33  C   UNL     1      -9.362   4.064  66.144  1.00  0.00    -0.174 A  
HETATM   34  C   UNL     1      -8.909   5.161  66.845  1.00  0.00    -0.110 A  
HETATM   35  N   UNL     1      -8.165   5.021  67.961  1.00  0.00    -0.097 NA 
BRANCH  34  36
HETATM   36  C   UNL     1      -9.211   6.550  66.474  1.00  0.00    -0.179 A  
HETATM   37  C   UNL     1     -10.309   7.243  66.986  1.00  0.00    -0.306 A  
HETATM   38  N   UNL     1     -10.620   8.533  66.705  1.00  0.00    -0.242 NA 
HETATM   39  C   UNL     1      -9.784   9.187  65.872  1.00  0.00    -0.266 A  
HETATM   40  C   UNL     1      -8.660   8.610  65.307  1.00  0.00    -0.206 A  
HETATM   41  C   UNL     1      -8.375   7.282  65.616  1.00  0.00    -0.142 A  
ENDBRANCH  34  36
ENDBRANCH  28  30
ENDBRANCH  25  28
ENDBRANCH  20  21
ENDBRANCH   9  17
ENDBRANCH   4   7
TORSDOF 6
ENDMDL
MODEL       70
REMARK 921   NORMALIZED FREE ENERGY PREDICTED BY IDOCK:   -6.18 KCAL/MOL
REMARK 922        TOTAL FREE ENERGY PREDICTED BY IDOCK:   -8.95 KCAL/MOL
REMARK 923 INTER-LIGAND FREE ENERGY PREDICTED BY IDOCK:   -7.63 KCAL/MOL
REMARK 924 INTRA-LIGAND FREE ENERGY PREDICTED BY IDOCK:   -1.33 KCAL/MOL
REMARK 927      BINDING AFFINITY PREDICTED BY RF-SCORE:    0.00 PKD
ROOT
HETATM    1  C   UNL     1      -9.445   1.686  63.283  1.00  0.00    -0.095 C  
HETATM    2  C   UNL     1      -9.679   2.736  64.294  1.00  0.00    -0.143 A  
HETATM    3  C   UNL     1      -9.011   2.981  65.477  1.00  0.00    -0.145 A  
HETATM    4  N   UNL     1      -9.613   4.082  66.045  1.00  0.00    -0.186 NA 
HETATM    5  N   UNL     1     -10.676   3.653  64.115  1.00  0.00    -0.251 NA 
HETATM    6  C   UNL     1     -10.614   4.440  65.164  1.00  0.00    -0.137 A  
ENDROOT
BRANCH   4   7
HETATM    7  C   UNL     1      -9.272   4.717  67.273  1.00  0.00    -0.130 A  
HETATM    8  C   UNL     1      -8.770   6.024  67.263  1.00  0.00    -0.105 A  
HETATM    9  C   UNL     1      -8.404   6.675  68.444  1.00  0.00    -0.122 A  
HETATM   10  F   UNL     1      -8.878   4.731  72.102  1.00  0.00    -0.118 F  
HETATM   11  C   UNL     1      -8.599   6.032  69.666  1.00  0.00    -0.126 A  
HETATM   12  F   UNL     1     -10.515   3.580  71.251  1.00  0.00    -0.059 F  
HETATM   13  F   UNL     1      -8.471   2.859  71.074  1.00  0.00    -0.065 F  
HETATM   14  C   UNL     1      -9.089   4.715  69.707  1.00  0.00    -0.162 A  
HETATM   15  C   UNL     1      -9.236   3.984  71.020  1.00  0.00    -0.134 C  
HETATM   16  C   UNL     1      -9.420   4.063  68.503  1.00  0.00    -0.215 A  
BRANCH   9  17
HETATM   17  N   UNL     1      -7.860   7.976  68.449  1.00  0.00    -0.120 N  
HETATM   18  O   UNL     1      -9.802   9.243  68.711  1.00  0.00    -0.158 OA 
HETATM   19  H   UNL     1      -6.855   8.064  68.298  1.00  0.00     0.000 HD 
HETATM   20  C   UNL     1      -8.582   9.145  68.641  1.00  0.00    -0.128 C  
BRANCH  20  21
HETATM   21  C   UNL     1      -7.770  10.370  68.824  1.00  0.00    -0.104 A  
HETATM   22  C   UNL     1      -6.618  10.406  69.605  1.00  0.00    -0.085 A  
HETATM   23  C   UNL     1      -5.965  11.624  69.793  1.00  0.00    -0.123 A  
HETATM   24  C   UNL     1      -6.463  12.810  69.219  1.00  0.00    -0.105 A  
HETATM   25  C   UNL     1      -7.620  12.773  68.411  1.00  0.00    -0.133 A  
HETATM   26  C   UNL     1      -5.731  14.101  69.472  1.00  0.00    -0.097 C  
HETATM   27  C   UNL     1      -8.233  11.533  68.200  1.00  0.00    -0.149 A  
BRANCH  25  28
HETATM   28  N   UNL     1      -8.102  13.930  67.786  1.00  0.00    -0.157 NA 
HETATM   29  H   UNL     1      -7.512  14.285  67.034  1.00  0.00     0.000 HD 
BRANCH  28  30
HETATM   30  C   UNL     1      -9.254  14.677  68.020  1.00  0.00    -0.197 A  
HETATM   31  N   UNL     1      -9.736  15.371  66.980  1.00  0.00    -0.221 NA 
HETATM   32  C   UNL     1     -10.906  16.010  67.168  1.00  0.00    -0.239 A  
HETATM   33  C   UNL     1     -11.630  15.950  68.334  1.00  0.00    -0.317 A  
HETATM   34  C   UNL     1     -11.067  15.217  69.356  1.00  0.00    -0.280 A  
HETATM   35  N   UNL     1      -9.873  14.607  69.206  1.00  0.00    -0.128 NA 
BRANCH  34  36
HETATM   36  C   UNL     1     -11.708  15.007  70.661  1.00  0.00    -0.357 A  
HETATM   37  C   UNL     1     -12.464  13.870  70.952  1.00  0.00    -0.375 A  
HETATM   38  N   UNL     1     -13.053  13.607  72.146  1.00  0.00    -0.391 NA 
HETATM   39  C   UNL     1     -12.872  14.522  73.121  1.00  0.00    -0.444 A  
HETATM   40  C   UNL     1     -12.138  15.683  72.956  1.00  0.00    -0.590 A  
HETATM   41  C   UNL     1     -11.552  15.921  71.715  1.00  0.00    -0.541 A  
ENDBRANCH  34  36
ENDBRANCH  28  30
ENDBRANCH  25  28
ENDBRANCH  20  21
ENDBRANCH   9  17
ENDBRANCH   4   7
TORSDOF 6
ENDMDL
MODEL       71
REMARK 921   NORMALIZED FREE ENERGY PREDICTED BY IDOCK:   -6.13 KCAL/MOL
REMARK 922        TOTAL FREE ENERGY PREDICTED BY IDOCK:   -8.89 KCAL/MOL
REMARK 923 INTER-LIGAND FREE ENERGY PREDICTED BY IDOCK:   -7.56 KCAL/MOL
REMARK 924 INTRA-LIGAND FREE ENERGY PREDICTED BY IDOCK:   -1.33 KCAL/MOL
REMARK 927      BINDING AFFINITY PREDICTED BY RF-SCORE:    0.00 PKD
ROOT
HETATM    1  C   UNL     1      -7.709  20.875  67.142  1.00  0.00    -0.259 C  
HETATM    2  C   UNL     1      -8.690  19.772  67.139  1.00  0.00    -0.323 A  
HETATM    3  C   UNL     1      -8.487  18.417  66.978  1.00  0.00    -0.253 A  
HETATM    4  N   UNL     1      -9.726  17.822  67.068  1.00  0.00    -0.279 NA 
HETATM    5  N   UNL     1     -10.018  20.033  67.325  1.00  0.00    -0.407 NA 
HETATM    6  C   UNL     1     -10.610  18.862  67.281  1.00  0.00    -0.456 A  
ENDROOT
BRANCH   4   7
HETATM    7  C   UNL     1     -10.029  16.434  66.967  1.00  0.00    -0.261 A  
HETATM    8  C   UNL     1      -9.347  15.516  67.774  1.00  0.00    -0.195 A  
HETATM    9  C   UNL     1      -9.599  14.143  67.691  1.00  0.00    -0.216 A  
HETATM   10  F   UNL     1     -12.496  12.735  65.043  1.00  0.00    -0.458 F  
HETATM   11  C   UNL     1     -10.594  13.683  66.830  1.00  0.00    -0.273 A  
HETATM   12  F   UNL     1     -13.543  14.633  65.217  1.00  0.00    -0.067 F  
HETATM   13  F   UNL     1     -11.982  14.385  63.723  1.00  0.00    -0.381 F  
HETATM   14  C   UNL     1     -11.286  14.581  65.998  1.00  0.00    -0.341 A  
HETATM   15  C   UNL     1     -12.314  14.085  65.009  1.00  0.00    -0.441 C  
HETATM   16  C   UNL     1     -10.993  15.957  66.071  1.00  0.00    -0.139 A  
BRANCH   9  17
HETATM   17  N   UNL     1      -8.895  13.201  68.468  1.00  0.00    -0.346 N  
HETATM   18  O   UNL     1      -7.185  12.629  66.988  1.00  0.00    -0.075 OA 
HETATM   19  H   UNL     1      -9.280  12.965  69.383  1.00  0.00     0.000 HD 
HETATM   20  C   UNL     1      -7.720  12.567  68.089  1.00  0.00    -0.141 C  
BRANCH  20  21
HETATM   21  C   UNL     1      -7.047  11.786  69.152  1.00  0.00    -0.071 A  
HETATM   22  C   UNL     1      -5.790  12.115  69.652  1.00  0.00    -0.107 A  
HETATM   23  C   UNL     1      -5.193  11.272  70.590  1.00  0.00    -0.113 A  
HETATM   24  C   UNL     1      -5.836  10.095  71.021  1.00  0.00    -0.059 A  
HETATM   25  C   UNL     1      -7.119   9.771  70.530  1.00  0.00    -0.122 A  
HETATM   26  C   UNL     1      -5.137   9.211  72.018  1.00  0.00    -0.053 C  
HETATM   27  C   UNL     1      -7.718  10.652  69.623  1.00  0.00    -0.080 A  
BRANCH  25  28
HETATM   28  N   UNL     1      -7.801   8.634  70.984  1.00  0.00    -0.099 NA 
HETATM   29  H   UNL     1      -7.726   8.467  71.987  1.00  0.00     0.000 HD 
BRANCH  28  30
HETATM   30  C   UNL     1      -8.563   7.695  70.295  1.00  0.00    -0.143 A  
HETATM   31  N   UNL     1      -9.825   7.528  70.714  1.00  0.00    -0.178 NA 
HETATM   32  C   UNL     1     -10.601   6.701  69.989  1.00  0.00    -0.224 A  
HETATM   33  C   UNL     1     -10.181   6.070  68.843  1.00  0.00    -0.246 A  
HETATM   34  C   UNL     1      -8.870   6.293  68.478  1.00  0.00    -0.114 A  
HETATM   35  N   UNL     1      -8.062   7.081  69.216  1.00  0.00    -0.119 NA 
BRANCH  34  36
HETATM   36  C   UNL     1      -8.253   5.737  67.266  1.00  0.00    -0.102 A  
HETATM   37  C   UNL     1      -8.347   6.361  66.021  1.00  0.00    -0.132 A  
HETATM   38  N   UNL     1      -7.773   5.912  64.877  1.00  0.00    -0.091 NA 
HETATM   39  C   UNL     1      -7.049   4.778  64.970  1.00  0.00    -0.063 A  
HETATM   40  C   UNL     1      -6.878   4.073  66.148  1.00  0.00    -0.054 A  
HETATM   41  C   UNL     1      -7.486   4.562  67.303  1.00  0.00    -0.078 A  
ENDBRANCH  34  36
ENDBRANCH  28  30
ENDBRANCH  25  28
ENDBRANCH  20  21
ENDBRANCH   9  17
ENDBRANCH   4   7
TORSDOF 6
ENDMDL
MODEL       72
REMARK 921   NORMALIZED FREE ENERGY PREDICTED BY IDOCK:   -6.11 KCAL/MOL
REMARK 922        TOTAL FREE ENERGY PREDICTED BY IDOCK:   -8.86 KCAL/MOL
REMARK 923 INTER-LIGAND FREE ENERGY PREDICTED BY IDOCK:   -7.60 KCAL/MOL
REMARK 924 INTRA-LIGAND FREE ENERGY PREDICTED BY IDOCK:   -1.27 KCAL/MOL
REMARK 927      BINDING AFFINITY PREDICTED BY RF-SCORE:    0.00 PKD
ROOT
HETATM    1  C   UNL     1     -13.665  15.544  72.717  1.00  0.00    -0.642 C  
HETATM    2  C   UNL     1     -12.841  15.044  71.598  1.00  0.00    -0.345 A  
HETATM    3  C   UNL     1     -11.899  15.706  70.837  1.00  0.00    -0.388 A  
HETATM    4  N   UNL     1     -11.412  14.789  69.933  1.00  0.00    -0.269 NA 
HETATM    5  N   UNL     1     -12.952  13.745  71.190  1.00  0.00    -0.319 NA 
HETATM    6  C   UNL     1     -12.093  13.618  70.204  1.00  0.00    -0.361 A  
ENDROOT
BRANCH   4   7
HETATM    7  C   UNL     1     -10.417  15.001  68.936  1.00  0.00    -0.241 A  
HETATM    8  C   UNL     1      -9.734  13.905  68.394  1.00  0.00    -0.226 A  
HETATM    9  C   UNL     1      -8.736  14.071  67.429  1.00  0.00    -0.207 A  
HETATM   10  F   UNL     1      -7.806  17.899  66.063  1.00  0.00    -0.285 F  
HETATM   11  C   UNL     1      -8.456  15.351  66.952  1.00  0.00    -0.287 A  
HETATM   12  F   UNL     1      -9.840  18.526  66.508  1.00  0.00    -0.298 F  
HETATM   13  F   UNL     1      -8.305  18.645  68.044  1.00  0.00    -0.261 F  
HETATM   14  C   UNL     1      -9.117  16.471  67.486  1.00  0.00    -0.200 A  
HETATM   15  C   UNL     1      -8.769  17.866  67.027  1.00  0.00    -0.245 C  
HETATM   16  C   UNL     1     -10.095  16.286  68.482  1.00  0.00    -0.239 A  
BRANCH   9  17
HETATM   17  N   UNL     1      -8.012  12.983  66.901  1.00  0.00    -0.401 N  
HETATM   18  O   UNL     1      -6.665  12.447  68.730  1.00  0.00    -0.081 OA 
HETATM   19  H   UNL     1      -8.182  12.736  65.927  1.00  0.00     0.000 HD 
HETATM   20  C   UNL     1      -7.086  12.222  67.601  1.00  0.00    -0.126 C  
BRANCH  20  21
HETATM   21  C   UNL     1      -6.616  11.000  66.909  1.00  0.00    -0.112 A  
HETATM   22  C   UNL     1      -5.585  11.009  65.973  1.00  0.00    -0.143 A  
HETATM   23  C   UNL     1      -5.266   9.828  65.304  1.00  0.00    -0.046 A  
HETATM   24  C   UNL     1      -5.980   8.639  65.553  1.00  0.00    -0.048 A  
HETATM   25  C   UNL     1      -7.013   8.622  66.515  1.00  0.00    -0.079 A  
HETATM   26  C   UNL     1      -5.609   7.397  64.787  1.00  0.00    -0.033 C  
HETATM   27  C   UNL     1      -7.286   9.808  67.205  1.00  0.00    -0.087 A  
BRANCH  25  28
HETATM   28  N   UNL     1      -7.700   7.440  66.817  1.00  0.00    -0.107 NA 
HETATM   29  H   UNL     1      -7.572   6.688  66.140  1.00  0.00     0.000 HD 
BRANCH  28  30
HETATM   30  C   UNL     1      -8.531   7.119  67.888  1.00  0.00    -0.121 A  
HETATM   31  N   UNL     1      -9.823   6.913  67.599  1.00  0.00    -0.130 NA 
HETATM   32  C   UNL     1     -10.612   6.500  68.608  1.00  0.00    -0.245 A  
HETATM   33  C   UNL     1     -10.155   6.246  69.879  1.00  0.00    -0.216 A  
HETATM   34  C   UNL     1      -8.815   6.483  70.096  1.00  0.00    -0.144 A  
HETATM   35  N   UNL     1      -8.016   6.942  69.111  1.00  0.00    -0.118 NA 
BRANCH  34  36
HETATM   36  C   UNL     1      -8.137   6.235  71.376  1.00  0.00    -0.117 A  
HETATM   37  C   UNL     1      -8.495   5.187  72.225  1.00  0.00    -0.125 A  
HETATM   38  N   UNL     1      -7.888   4.891  73.401  1.00  0.00    -0.095 NA 
HETATM   39  C   UNL     1      -6.848   5.675  73.756  1.00  0.00    -0.081 A  
HETATM   40  C   UNL     1      -6.396   6.739  72.996  1.00  0.00    -0.062 A  
HETATM   41  C   UNL     1      -7.048   7.015  71.796  1.00  0.00    -0.070 A  
ENDBRANCH  34  36
ENDBRANCH  28  30
ENDBRANCH  25  28
ENDBRANCH  20  21
ENDBRANCH   9  17
ENDBRANCH   4   7
TORSDOF 6
ENDMDL
MODEL       73
REMARK 921   NORMALIZED FREE ENERGY PREDICTED BY IDOCK:   -5.99 KCAL/MOL
REMARK 922        TOTAL FREE ENERGY PREDICTED BY IDOCK:   -8.70 KCAL/MOL
REMARK 923 INTER-LIGAND FREE ENERGY PREDICTED BY IDOCK:   -7.41 KCAL/MOL
REMARK 924 INTRA-LIGAND FREE ENERGY PREDICTED BY IDOCK:   -1.30 KCAL/MOL
REMARK 927      BINDING AFFINITY PREDICTED BY RF-SCORE:    0.00 PKD
ROOT
HETATM    1  C   UNL     1      -7.607  20.196  67.303  1.00  0.00    -0.333 C  
HETATM    2  C   UNL     1      -8.548  19.124  66.922  1.00  0.00    -0.299 A  
HETATM    3  C   UNL     1      -8.473  17.766  67.156  1.00  0.00    -0.228 A  
HETATM    4  N   UNL     1      -9.607  17.211  66.607  1.00  0.00    -0.256 NA 
HETATM    5  N   UNL     1      -9.695  19.425  66.243  1.00  0.00    -0.371 NA 
HETATM    6  C   UNL     1     -10.306  18.275  66.071  1.00  0.00    -0.363 A  
ENDROOT
BRANCH   4   7
HETATM    7  C   UNL     1      -9.980  15.837  66.597  1.00  0.00    -0.257 A  
HETATM    8  C   UNL     1      -9.329  14.936  67.448  1.00  0.00    -0.202 A  
HETATM    9  C   UNL     1      -9.651  13.575  67.455  1.00  0.00    -0.227 A  
HETATM   10  F   UNL     1     -12.666  12.157  64.949  1.00  0.00    -0.466 F  
HETATM   11  C   UNL     1     -10.684  13.115  66.640  1.00  0.00    -0.286 A  
HETATM   12  F   UNL     1     -13.614  14.113  65.023  1.00  0.00     0.002 F  
HETATM   13  F   UNL     1     -12.098  13.695  63.521  1.00  0.00    -0.503 F  
HETATM   14  C   UNL     1     -11.348  13.994  65.766  1.00  0.00    -0.312 A  
HETATM   15  C   UNL     1     -12.419  13.492  64.829  1.00  0.00    -0.355 C  
HETATM   16  C   UNL     1     -10.985  15.355  65.749  1.00  0.00    -0.311 A  
BRANCH   9  17
HETATM   17  N   UNL     1      -8.979  12.647  68.277  1.00  0.00    -0.243 N  
HETATM   18  O   UNL     1      -7.484  11.728  66.738  1.00  0.00    -0.131 OA 
HETATM   19  H   UNL     1      -9.299  12.557  69.241  1.00  0.00     0.000 HD 
HETATM   20  C   UNL     1      -7.917  11.847  67.880  1.00  0.00    -0.144 C  
BRANCH  20  21
HETATM   21  C   UNL     1      -7.232  11.113  68.968  1.00  0.00    -0.118 A  
HETATM   22  C   UNL     1      -5.865  11.221  69.211  1.00  0.00    -0.049 A  
HETATM   23  C   UNL     1      -5.288  10.425  70.200  1.00  0.00    -0.044 A  
HETATM   24  C   UNL     1      -6.065   9.511  70.940  1.00  0.00    -0.077 A  
HETATM   25  C   UNL     1      -7.454   9.414  70.709  1.00  0.00    -0.112 A  
HETATM   26  C   UNL     1      -5.388   8.661  71.981  1.00  0.00    -0.044 C  
HETATM   27  C   UNL     1      -8.019  10.253  69.742  1.00  0.00    -0.139 A  
BRANCH  25  28
HETATM   28  N   UNL     1      -8.255   8.552  71.469  1.00  0.00    -0.143 NA 
HETATM   29  H   UNL     1      -8.427   8.863  72.425  1.00  0.00     0.000 HD 
BRANCH  28  30
HETATM   30  C   UNL     1      -8.855   7.340  71.137  1.00  0.00    -0.140 A  
HETATM   31  N   UNL     1     -10.170   7.377  70.879  1.00  0.00    -0.193 NA 
HETATM   32  C   UNL     1     -10.737   6.233  70.455  1.00  0.00    -0.269 A  
HETATM   33  C   UNL     1     -10.039   5.069  70.239  1.00  0.00    -0.339 A  
HETATM   34  C   UNL     1      -8.692   5.112  70.528  1.00  0.00    -0.119 A  
HETATM   35  N   UNL     1      -8.112   6.235  70.998  1.00  0.00    -0.119 NA 
BRANCH  34  36
HETATM   36  C   UNL     1      -7.776   3.982  70.326  1.00  0.00    -0.048 A  
HETATM   37  C   UNL     1      -7.925   2.765  70.994  1.00  0.00    -0.050 A  
HETATM   38  N   UNL     1      -7.130   1.678  70.825  1.00  0.00    -0.032 NA 
HETATM   39  C   UNL     1      -6.129   1.797  69.928  1.00  0.00    -0.024 A  
HETATM   40  C   UNL     1      -5.886   2.948  69.200  1.00  0.00    -0.023 A  
HETATM   41  C   UNL     1      -6.720   4.045  69.403  1.00  0.00    -0.041 A  
ENDBRANCH  34  36
ENDBRANCH  28  30
ENDBRANCH  25  28
ENDBRANCH  20  21
ENDBRANCH   9  17
ENDBRANCH   4   7
TORSDOF 6
ENDMDL
MODEL       74
REMARK 921   NORMALIZED FREE ENERGY PREDICTED BY IDOCK:   -5.97 KCAL/MOL
REMARK 922        TOTAL FREE ENERGY PREDICTED BY IDOCK:   -8.68 KCAL/MOL
REMARK 923 INTER-LIGAND FREE ENERGY PREDICTED BY IDOCK:   -7.40 KCAL/MOL
REMARK 924 INTRA-LIGAND FREE ENERGY PREDICTED BY IDOCK:   -1.28 KCAL/MOL
REMARK 927      BINDING AFFINITY PREDICTED BY RF-SCORE:    0.00 PKD
ROOT
HETATM    1  C   UNL     1      -7.400  16.590  69.127  1.00  0.00    -0.220 C  
HETATM    2  C   UNL     1      -7.741  15.239  68.639  1.00  0.00    -0.135 A  
HETATM    3  C   UNL     1      -8.700  14.852  67.725  1.00  0.00    -0.167 A  
HETATM    4  N   UNL     1      -8.603  13.483  67.612  1.00  0.00    -0.172 NA 
HETATM    5  N   UNL     1      -7.054  14.150  69.095  1.00  0.00    -0.112 NA 
HETATM    6  C   UNL     1      -7.582  13.122  68.470  1.00  0.00    -0.122 A  
ENDROOT
BRANCH   4   7
HETATM    7  C   UNL     1      -9.384  12.625  66.786  1.00  0.00    -0.232 A  
HETATM    8  C   UNL     1      -9.088  11.258  66.731  1.00  0.00    -0.181 A  
HETATM    9  C   UNL     1      -9.816  10.385  65.917  1.00  0.00    -0.235 A  
HETATM   10  F   UNL     1     -12.994  11.850  63.649  1.00  0.00    -0.621 F  
HETATM   11  C   UNL     1     -10.899  10.876  65.190  1.00  0.00    -0.133 A  
HETATM   12  F   UNL     1     -13.290  13.421  65.124  1.00  0.00    -0.355 F  
HETATM   13  F   UNL     1     -11.905  13.724  63.474  1.00  0.00    -0.400 F  
HETATM   14  C   UNL     1     -11.212  12.246  65.215  1.00  0.00    -0.372 A  
HETATM   15  C   UNL     1     -12.338  12.799  64.375  1.00  0.00    -0.424 C  
HETATM   16  C   UNL     1     -10.445  13.115  66.015  1.00  0.00    -0.291 A  
BRANCH   9  17
HETATM   17  N   UNL     1      -9.507   9.013  65.820  1.00  0.00    -0.343 N  
HETATM   18  O   UNL     1      -7.792   9.079  64.240  1.00  0.00    -0.117 OA 
HETATM   19  H   UNL     1     -10.078   8.365  66.362  1.00  0.00     0.000 HD 
HETATM   20  C   UNL     1      -8.490   8.473  65.046  1.00  0.00    -0.164 C  
BRANCH  20  21
HETATM   21  C   UNL     1      -8.214   7.036  65.270  1.00  0.00    -0.128 A  
HETATM   22  C   UNL     1      -7.329   6.303  64.485  1.00  0.00    -0.070 A  
HETATM   23  C   UNL     1      -7.197   4.933  64.711  1.00  0.00    -0.063 A  
HETATM   24  C   UNL     1      -7.955   4.286  65.707  1.00  0.00    -0.095 A  
HETATM   25  C   UNL     1      -8.839   5.031  66.517  1.00  0.00    -0.112 A  
HETATM   26  C   UNL     1      -7.790   2.802  65.894  1.00  0.00    -0.081 C  
HETATM   27  C   UNL     1      -8.923   6.411  66.302  1.00  0.00    -0.166 A  
BRANCH  25  28
HETATM   28  N   UNL     1      -9.563   4.419  67.549  1.00  0.00    -0.169 NA 
HETATM   29  H   UNL     1      -9.952   3.507  67.312  1.00  0.00     0.000 HD 
BRANCH  28  30
HETATM   30  C   UNL     1      -9.841   4.849  68.843  1.00  0.00    -0.170 A  
HETATM   31  N   UNL     1     -10.886   5.676  68.986  1.00  0.00    -0.242 NA 
HETATM   32  C   UNL     1     -11.226   6.012  70.244  1.00  0.00    -0.322 A  
HETATM   33  C   UNL     1     -10.594   5.524  71.362  1.00  0.00    -0.310 A  
HETATM   34  C   UNL     1      -9.529   4.680  71.132  1.00  0.00    -0.156 A  
HETATM   35  N   UNL     1      -9.141   4.367  69.878  1.00  0.00    -0.100 NA 
BRANCH  34  36
HETATM   36  C   UNL     1      -8.755   4.030  72.198  1.00  0.00    -0.121 A  
HETATM   37  C   UNL     1      -7.726   3.125  71.935  1.00  0.00    -0.053 A  
HETATM   38  N   UNL     1      -6.958   2.519  72.875  1.00  0.00    -0.026 NA 
HETATM   39  C   UNL     1      -7.217   2.837  74.161  1.00  0.00    -0.041 A  
HETATM   40  C   UNL     1      -8.206   3.724  74.546  1.00  0.00    -0.085 A  
HETATM   41  C   UNL     1      -8.977   4.324  73.553  1.00  0.00    -0.092 A  
ENDBRANCH  34  36
ENDBRANCH  28  30
ENDBRANCH  25  28
ENDBRANCH  20  21
ENDBRANCH   9  17
ENDBRANCH   4   7
TORSDOF 6
ENDMDL
MODEL       75
REMARK 921   NORMALIZED FREE ENERGY PREDICTED BY IDOCK:   -5.95 KCAL/MOL
REMARK 922        TOTAL FREE ENERGY PREDICTED BY IDOCK:   -8.65 KCAL/MOL
REMARK 923 INTER-LIGAND FREE ENERGY PREDICTED BY IDOCK:   -7.56 KCAL/MOL
REMARK 924 INTRA-LIGAND FREE ENERGY PREDICTED BY IDOCK:   -1.09 KCAL/MOL
REMARK 927      BINDING AFFINITY PREDICTED BY RF-SCORE:    0.00 PKD
ROOT
HETATM    1  C   UNL     1     -10.088   1.769  62.410  1.00  0.00    -0.087 C  
HETATM    2  C   UNL     1     -10.190   2.680  63.568  1.00  0.00    -0.165 A  
HETATM    3  C   UNL     1      -9.374   2.789  64.675  1.00  0.00    -0.147 A  
HETATM    4  N   UNL     1      -9.898   3.798  65.451  1.00  0.00    -0.160 NA 
HETATM    5  N   UNL     1     -11.205   3.593  63.636  1.00  0.00    -0.197 NA 
HETATM    6  C   UNL     1     -11.008   4.244  64.760  1.00  0.00    -0.023 A  
ENDROOT
BRANCH   4   7
HETATM    7  C   UNL     1      -9.401   4.281  66.695  1.00  0.00    -0.169 A  
HETATM    8  C   UNL     1      -9.006   5.619  66.811  1.00  0.00    -0.116 A  
HETATM    9  C   UNL     1      -8.493   6.128  68.008  1.00  0.00    -0.116 A  
HETATM   10  F   UNL     1      -8.189   3.642  71.342  1.00  0.00    -0.063 F  
HETATM   11  C   UNL     1      -8.428   5.300  69.128  1.00  0.00    -0.098 A  
HETATM   12  F   UNL     1      -9.857   2.467  70.588  1.00  0.00    -0.209 F  
HETATM   13  F   UNL     1      -7.825   1.987  69.980  1.00  0.00    -0.042 F  
HETATM   14  C   UNL     1      -8.805   3.948  69.038  1.00  0.00    -0.151 A  
HETATM   15  C   UNL     1      -8.670   3.026  70.225  1.00  0.00    -0.074 C  
HETATM   16  C   UNL     1      -9.287   3.446  67.813  1.00  0.00    -0.243 A  
BRANCH   9  17
HETATM   17  N   UNL     1      -8.055   7.462  68.132  1.00  0.00    -0.123 N  
HETATM   18  O   UNL     1     -10.040   8.497  68.789  1.00  0.00    -0.186 OA 
HETATM   19  H   UNL     1      -7.087   7.663  67.881  1.00  0.00     0.000 HD 
HETATM   20  C   UNL     1      -8.834   8.524  68.568  1.00  0.00    -0.139 C  
BRANCH  20  21
HETATM   21  C   UNL     1      -8.103   9.786  68.825  1.00  0.00    -0.102 A  
HETATM   22  C   UNL     1      -7.080   9.890  69.764  1.00  0.00    -0.106 A  
HETATM   23  C   UNL     1      -6.506  11.138  70.005  1.00  0.00    -0.133 A  
HETATM   24  C   UNL     1      -6.957  12.287  69.325  1.00  0.00     0.004 A  
HETATM   25  C   UNL     1      -7.981  12.180  68.359  1.00  0.00    -0.152 A  
HETATM   26  C   UNL     1      -6.318  13.612  69.639  1.00  0.00    -0.110 C  
HETATM   27  C   UNL     1      -8.512  10.911  68.103  1.00  0.00    -0.131 A  
BRANCH  25  28
HETATM   28  N   UNL     1      -8.409  13.299  67.633  1.00  0.00    -0.168 NA 
HETATM   29  H   UNL     1      -7.809  13.551  66.847  1.00  0.00     0.000 HD 
BRANCH  28  30
HETATM   30  C   UNL     1      -9.516  14.125  67.805  1.00  0.00    -0.207 A  
HETATM   31  N   UNL     1     -10.561  13.594  68.453  1.00  0.00    -0.245 NA 
HETATM   32  C   UNL     1     -11.594  14.417  68.717  1.00  0.00    -0.315 A  
HETATM   33  C   UNL     1     -11.606  15.753  68.397  1.00  0.00    -0.343 A  
HETATM   34  C   UNL     1     -10.494  16.223  67.730  1.00  0.00    -0.295 A  
HETATM   35  N   UNL     1      -9.469  15.406  67.415  1.00  0.00    -0.205 NA 
BRANCH  34  36
HETATM   36  C   UNL     1     -10.308  17.627  67.339  1.00  0.00    -0.360 A  
HETATM   37  C   UNL     1     -10.425  18.061  66.017  1.00  0.00    -0.313 A  
HETATM   38  N   UNL     1     -10.295  19.345  65.602  1.00  0.00    -0.496 NA 
HETATM   39  C   UNL     1     -10.043  20.265  66.557  1.00  0.00    -0.388 A  
HETATM   40  C   UNL     1      -9.912  19.959  67.899  1.00  0.00    -0.552 A  
HETATM   41  C   UNL     1     -10.048  18.628  68.288  1.00  0.00    -0.431 A  
ENDBRANCH  34  36
ENDBRANCH  28  30
ENDBRANCH  25  28
ENDBRANCH  20  21
ENDBRANCH   9  17
ENDBRANCH   4   7
TORSDOF 6
ENDMDL
MODEL       76
REMARK 921   NORMALIZED FREE ENERGY PREDICTED BY IDOCK:   -5.91 KCAL/MOL
REMARK 922        TOTAL FREE ENERGY PREDICTED BY IDOCK:   -8.59 KCAL/MOL
REMARK 923 INTER-LIGAND FREE ENERGY PREDICTED BY IDOCK:   -7.73 KCAL/MOL
REMARK 924 INTRA-LIGAND FREE ENERGY PREDICTED BY IDOCK:   -0.86 KCAL/MOL
REMARK 927      BINDING AFFINITY PREDICTED BY RF-SCORE:    0.00 PKD
ROOT
HETATM    1  C   UNL     1      -5.340   2.843  73.785  1.00  0.00     0.000 C  
HETATM    2  C   UNL     1      -5.675   3.026  72.358  1.00  0.00    -0.008 A  
HETATM    3  C   UNL     1      -6.278   4.095  71.728  1.00  0.00    -0.017 A  
HETATM    4  N   UNL     1      -6.351   3.772  70.391  1.00  0.00    -0.026 NA 
HETATM    5  N   UNL     1      -5.374   2.050  71.451  1.00  0.00    -0.004 NA 
HETATM    6  C   UNL     1      -5.782   2.517  70.293  1.00  0.00    -0.017 A  
ENDROOT
BRANCH   4   7
HETATM    7  C   UNL     1      -6.892   4.562  69.338  1.00  0.00    -0.046 A  
HETATM    8  C   UNL     1      -7.513   5.781  69.635  1.00  0.00    -0.075 A  
HETATM    9  C   UNL     1      -8.076   6.577  68.633  1.00  0.00    -0.118 A  
HETATM   10  F   UNL     1      -7.847   5.351  64.654  1.00  0.00    -0.083 F  
HETATM   11  C   UNL     1      -7.964   6.178  67.302  1.00  0.00    -0.102 A  
HETATM   12  F   UNL     1      -6.019   4.269  65.118  1.00  0.00    -0.020 F  
HETATM   13  F   UNL     1      -7.949   3.298  65.360  1.00  0.00    -0.082 F  
HETATM   14  C   UNL     1      -7.357   4.953  66.975  1.00  0.00    -0.082 A  
HETATM   15  C   UNL     1      -7.295   4.478  65.543  1.00  0.00    -0.080 C  
HETATM   16  C   UNL     1      -6.827   4.149  68.002  1.00  0.00    -0.048 A  
BRANCH   9  17
HETATM   17  N   UNL     1      -8.739   7.788  68.918  1.00  0.00    -0.135 N  
HETATM   18  O   UNL     1     -10.512   7.664  67.406  1.00  0.00    -0.250 OA 
HETATM   19  H   UNL     1      -8.312   8.406  69.608  1.00  0.00     0.000 HD 
HETATM   20  C   UNL     1      -9.927   8.208  68.336  1.00  0.00    -0.190 C  
BRANCH  20  21
HETATM   21  C   UNL     1     -10.547   9.406  68.948  1.00  0.00    -0.231 A  
HETATM   22  C   UNL     1     -10.742   9.539  70.320  1.00  0.00    -0.315 A  
HETATM   23  C   UNL     1     -11.414  10.662  70.802  1.00  0.00    -0.307 A  
HETATM   24  C   UNL     1     -11.907  11.646  69.922  1.00  0.00    -0.434 A  
HETATM   25  C   UNL     1     -11.693  11.522  68.532  1.00  0.00    -0.313 A  
HETATM   26  C   UNL     1     -12.644  12.827  70.493  1.00  0.00    -0.191 C  
HETATM   27  C   UNL     1     -10.978  10.410  68.074  1.00  0.00    -0.347 A  
BRANCH  25  28
HETATM   28  N   UNL     1     -12.126  12.514  67.642  1.00  0.00    -0.426 NA 
HETATM   29  H   UNL     1     -13.139  12.612  67.576  1.00  0.00     0.000 HD 
BRANCH  28  30
HETATM   30  C   UNL     1     -11.405  13.387  66.833  1.00  0.00    -0.323 A  
HETATM   31  N   UNL     1     -11.360  13.091  65.527  1.00  0.00    -0.295 NA 
HETATM   32  C   UNL     1     -10.756  13.984  64.722  1.00  0.00    -0.427 A  
HETATM   33  C   UNL     1     -10.233  15.176  65.162  1.00  0.00    -0.386 A  
HETATM   34  C   UNL     1     -10.317  15.407  66.518  1.00  0.00    -0.289 A  
HETATM   35  N   UNL     1     -10.877  14.504  67.349  1.00  0.00    -0.285 NA 
BRANCH  34  36
HETATM   36  C   UNL     1      -9.849  16.639  67.169  1.00  0.00    -0.257 A  
HETATM   37  C   UNL     1      -8.506  16.862  67.477  1.00  0.00    -0.194 A  
HETATM   38  N   UNL     1      -8.012  17.989  68.048  1.00  0.00    -0.248 NA 
HETATM   39  C   UNL     1      -8.902  18.966  68.322  1.00  0.00    -0.332 A  
HETATM   40  C   UNL     1     -10.256  18.865  68.057  1.00  0.00    -0.452 A  
HETATM   41  C   UNL     1     -10.727  17.690  67.474  1.00  0.00    -0.294 A  
ENDBRANCH  34  36
ENDBRANCH  28  30
ENDBRANCH  25  28
ENDBRANCH  20  21
ENDBRANCH   9  17
ENDBRANCH   4   7
TORSDOF 6
ENDMDL
MODEL       77
REMARK 921   NORMALIZED FREE ENERGY PREDICTED BY IDOCK:   -5.91 KCAL/MOL
REMARK 922        TOTAL FREE ENERGY PREDICTED BY IDOCK:   -8.59 KCAL/MOL
REMARK 923 INTER-LIGAND FREE ENERGY PREDICTED BY IDOCK:   -7.07 KCAL/MOL
REMARK 924 INTRA-LIGAND FREE ENERGY PREDICTED BY IDOCK:   -1.52 KCAL/MOL
REMARK 927      BINDING AFFINITY PREDICTED BY RF-SCORE:    0.00 PKD
ROOT
HETATM    1  C   UNL     1      -9.764   4.186  64.896  1.00  0.00    -0.194 C  
HETATM    2  C   UNL     1      -9.377   4.677  66.234  1.00  0.00    -0.151 A  
HETATM    3  C   UNL     1      -9.575   5.917  66.806  1.00  0.00    -0.148 A  
HETATM    4  N   UNL     1      -9.037   5.855  68.072  1.00  0.00    -0.117 NA 
HETATM    5  N   UNL     1      -8.731   3.850  67.109  1.00  0.00    -0.106 NA 
HETATM    6  C   UNL     1      -8.543   4.570  68.191  1.00  0.00    -0.101 A  
ENDROOT
BRANCH   4   7
HETATM    7  C   UNL     1      -9.001   6.890  69.048  1.00  0.00    -0.132 A  
HETATM    8  C   UNL     1      -8.576   8.174  68.684  1.00  0.00    -0.127 A  
HETATM    9  C   UNL     1      -8.506   9.213  69.616  1.00  0.00    -0.133 A  
HETATM   10  F   UNL     1      -9.657   8.520  73.564  1.00  0.00    -0.231 F  
HETATM   11  C   UNL     1      -8.927   8.983  70.925  1.00  0.00    -0.300 A  
HETATM   12  F   UNL     1     -11.011   6.966  72.871  1.00  0.00    -0.242 F  
HETATM   13  F   UNL     1      -8.943   6.480  73.334  1.00  0.00    -0.124 F  
HETATM   14  C   UNL     1      -9.346   7.702  71.324  1.00  0.00    -0.161 A  
HETATM   15  C   UNL     1      -9.735   7.425  72.756  1.00  0.00    -0.173 C  
HETATM   16  C   UNL     1      -9.377   6.659  70.377  1.00  0.00    -0.160 A  
BRANCH   9  17
HETATM   17  N   UNL     1      -8.043  10.500  69.275  1.00  0.00    -0.192 N  
HETATM   18  O   UNL     1      -5.757  10.085  69.069  1.00  0.00    -0.035 OA 
HETATM   19  H   UNL     1      -8.730  11.254  69.251  1.00  0.00     0.000 HD 
HETATM   20  C   UNL     1      -6.729  10.824  68.970  1.00  0.00    -0.070 C  
BRANCH  20  21
HETATM   21  C   UNL     1      -6.520  12.188  68.431  1.00  0.00    -0.056 A  
HETATM   22  C   UNL     1      -5.298  12.851  68.502  1.00  0.00    -0.061 A  
HETATM   23  C   UNL     1      -5.214  14.167  68.048  1.00  0.00    -0.100 A  
HETATM   24  C   UNL     1      -6.346  14.832  67.538  1.00  0.00    -0.055 A  
HETATM   25  C   UNL     1      -7.582  14.155  67.447  1.00  0.00    -0.158 A  
HETATM   26  C   UNL     1      -6.205  16.259  67.083  1.00  0.00    -0.176 C  
HETATM   27  C   UNL     1      -7.633  12.822  67.867  1.00  0.00    -0.138 A  
BRANCH  25  28
HETATM   28  N   UNL     1      -8.708  14.778  66.894  1.00  0.00    -0.246 NA 
HETATM   29  H   UNL     1      -8.505  15.614  66.347  1.00  0.00     0.000 HD 
BRANCH  28  30
HETATM   30  C   UNL     1     -10.058  14.446  66.967  1.00  0.00    -0.256 A  
HETATM   31  N   UNL     1     -10.800  14.726  65.886  1.00  0.00    -0.319 NA 
HETATM   32  C   UNL     1     -12.081  14.314  65.907  1.00  0.00    -0.404 A  
HETATM   33  C   UNL     1     -12.637  13.600  66.941  1.00  0.00    -0.012 A  
HETATM   34  C   UNL     1     -11.810  13.353  68.016  1.00  0.00    -0.357 A  
HETATM   35  N   UNL     1     -10.536  13.798  68.036  1.00  0.00    -0.247 NA 
BRANCH  34  36
HETATM   36  C   UNL     1     -12.211  12.576  69.196  1.00  0.00    -0.051 A  
HETATM   37  C   UNL     1     -12.033  11.194  69.281  1.00  0.00    -0.351 A  
HETATM   38  N   UNL     1     -12.355  10.429  70.354  1.00  0.00    -0.297 NA 
HETATM   39  C   UNL     1     -12.878  11.073  71.419  1.00  0.00    -0.443 A  
HETATM   40  C   UNL     1     -13.096  12.439  71.456  1.00  0.00    -0.362 A  
HETATM   41  C   UNL     1     -12.757  13.191  70.333  1.00  0.00    -0.080 A  
ENDBRANCH  34  36
ENDBRANCH  28  30
ENDBRANCH  25  28
ENDBRANCH  20  21
ENDBRANCH   9  17
ENDBRANCH   4   7
TORSDOF 6
ENDMDL
MODEL       78
REMARK 921   NORMALIZED FREE ENERGY PREDICTED BY IDOCK:   -5.89 KCAL/MOL
REMARK 922        TOTAL FREE ENERGY PREDICTED BY IDOCK:   -8.56 KCAL/MOL
REMARK 923 INTER-LIGAND FREE ENERGY PREDICTED BY IDOCK:   -6.89 KCAL/MOL
REMARK 924 INTRA-LIGAND FREE ENERGY PREDICTED BY IDOCK:   -1.67 KCAL/MOL
REMARK 927      BINDING AFFINITY PREDICTED BY RF-SCORE:    0.00 PKD
ROOT
HETATM    1  C   UNL     1      -5.896  13.108  71.108  1.00  0.00     0.065 C  
HETATM    2  C   UNL     1      -6.230  12.269  69.940  1.00  0.00    -0.110 A  
HETATM    3  C   UNL     1      -7.368  12.264  69.159  1.00  0.00     0.091 A  
HETATM    4  N   UNL     1      -7.176  11.302  68.193  1.00  0.00    -0.078 NA 
HETATM    5  N   UNL     1      -5.340  11.338  69.485  1.00  0.00    -0.044 NA 
HETATM    6  C   UNL     1      -5.922  10.781  68.448  1.00  0.00    -0.043 A  
ENDROOT
BRANCH   4   7
HETATM    7  C   UNL     1      -8.073  10.929  67.152  1.00  0.00    -0.127 A  
HETATM    8  C   UNL     1      -8.103   9.603  66.704  1.00  0.00    -0.119 A  
HETATM    9  C   UNL     1      -8.954   9.201  65.670  1.00  0.00    -0.203 A  
HETATM   10  F   UNL     1     -11.525  11.976  63.917  1.00  0.00    -0.381 F  
HETATM   11  C   UNL     1      -9.836  10.126  65.114  1.00  0.00    -0.394 A  
HETATM   12  F   UNL     1     -11.552  13.093  65.783  1.00  0.00    -0.324 F  
HETATM   13  F   UNL     1     -10.018  13.497  64.294  1.00  0.00    -0.396 F  
HETATM   14  C   UNL     1      -9.820  11.467  65.535  1.00  0.00    -0.269 A  
HETATM   15  C   UNL     1     -10.720  12.492  64.888  1.00  0.00    -0.295 C  
HETATM   16  C   UNL     1      -8.931  11.861  66.553  1.00  0.00    -0.199 A  
BRANCH   9  17
HETATM   17  N   UNL     1      -8.969   7.879  65.180  1.00  0.00    -0.376 N  
HETATM   18  O   UNL     1      -7.296   8.011  63.559  1.00  0.00    -0.097 OA 
HETATM   19  H   UNL     1      -9.669   7.245  65.565  1.00  0.00     0.000 HD 
HETATM   20  C   UNL     1      -8.109   7.371  64.217  1.00  0.00    -0.055 C  
BRANCH  20  21
HETATM   21  C   UNL     1      -8.169   5.904  64.021  1.00  0.00    -0.066 A  
HETATM   22  C   UNL     1      -7.835   5.287  62.818  1.00  0.00    -0.080 A  
HETATM   23  C   UNL     1      -8.006   3.909  62.694  1.00  0.00    -0.066 A  
HETATM   24  C   UNL     1      -8.523   3.144  63.758  1.00  0.00    -0.090 A  
HETATM   25  C   UNL     1      -8.845   3.764  64.984  1.00  0.00    -0.122 A  
HETATM   26  C   UNL     1      -8.708   1.663  63.563  1.00  0.00    -0.080 C  
HETATM   27  C   UNL     1      -8.624   5.141  65.101  1.00  0.00    -0.150 A  
BRANCH  25  28
HETATM   28  N   UNL     1      -9.310   3.016  66.073  1.00  0.00    -0.321 NA 
HETATM   29  H   UNL     1      -9.963   2.271  65.829  1.00  0.00     0.000 HD 
BRANCH  28  30
HETATM   30  C   UNL     1      -9.030   3.119  67.433  1.00  0.00    -0.158 A  
HETATM   31  N   UNL     1      -7.955   2.450  67.873  1.00  0.00    -0.059 NA 
HETATM   32  C   UNL     1      -7.616   2.628  69.163  1.00  0.00    -0.043 A  
HETATM   33  C   UNL     1      -8.279   3.476  70.017  1.00  0.00    -0.071 A  
HETATM   34  C   UNL     1      -9.374   4.126  69.489  1.00  0.00    -0.168 A  
HETATM   35  N   UNL     1      -9.760   3.927  68.212  1.00  0.00    -0.104 NA 
BRANCH  34  36
HETATM   36  C   UNL     1     -10.185   5.099  70.235  1.00  0.00    -0.342 A  
HETATM   37  C   UNL     1     -11.052   5.994  69.605  1.00  0.00    -0.404 A  
HETATM   38  N   UNL     1     -11.846   6.891  70.241  1.00  0.00    -0.300 NA 
HETATM   39  C   UNL     1     -11.790   6.896  71.589  1.00  0.00    -0.324 A  
HETATM   40  C   UNL     1     -10.977   6.053  72.325  1.00  0.00    -0.310 A  
HETATM   41  C   UNL     1     -10.172   5.148  71.637  1.00  0.00    -0.276 A  
ENDBRANCH  34  36
ENDBRANCH  28  30
ENDBRANCH  25  28
ENDBRANCH  20  21
ENDBRANCH   9  17
ENDBRANCH   4   7
TORSDOF 6
ENDMDL
MODEL       79
REMARK 921   NORMALIZED FREE ENERGY PREDICTED BY IDOCK:   -5.85 KCAL/MOL
REMARK 922        TOTAL FREE ENERGY PREDICTED BY IDOCK:   -8.52 KCAL/MOL
REMARK 923 INTER-LIGAND FREE ENERGY PREDICTED BY IDOCK:   -7.56 KCAL/MOL
REMARK 924 INTRA-LIGAND FREE ENERGY PREDICTED BY IDOCK:   -0.96 KCAL/MOL
REMARK 927      BINDING AFFINITY PREDICTED BY RF-SCORE:    0.00 PKD
ROOT
HETATM    1  C   UNL     1     -12.530  16.088  74.269  1.00  0.00    -0.725 C  
HETATM    2  C   UNL     1     -12.748  15.525  72.921  1.00  0.00    -0.439 A  
HETATM    3  C   UNL     1     -11.870  14.851  72.098  1.00  0.00    -0.310 A  
HETATM    4  N   UNL     1     -12.570  14.529  70.957  1.00  0.00    -0.317 NA 
HETATM    5  N   UNL     1     -13.971  15.631  72.322  1.00  0.00    -0.521 NA 
HETATM    6  C   UNL     1     -13.840  15.031  71.161  1.00  0.00    -0.395 A  
ENDROOT
BRANCH   4   7
HETATM    7  C   UNL     1     -12.088  13.827  69.816  1.00  0.00    -0.340 A  
HETATM    8  C   UNL     1     -11.524  12.555  69.971  1.00  0.00    -0.095 A  
HETATM    9  C   UNL     1     -11.021  11.841  68.880  1.00  0.00    -0.239 A  
HETATM   10  F   UNL     1     -11.261  13.482  65.054  1.00  0.00    -0.300 F  
HETATM   11  C   UNL     1     -11.138  12.381  67.600  1.00  0.00    -0.306 A  
HETATM   12  F   UNL     1     -13.024  14.598  65.670  1.00  0.00    -0.311 F  
HETATM   13  F   UNL     1     -11.043  15.444  65.965  1.00  0.00    -0.324 F  
HETATM   14  C   UNL     1     -11.688  13.661  67.414  1.00  0.00    -0.416 A  
HETATM   15  C   UNL     1     -11.752  14.285  66.041  1.00  0.00    -0.379 C  
HETATM   16  C   UNL     1     -12.158  14.379  68.531  1.00  0.00    -0.278 A  
BRANCH   9  17
HETATM   17  N   UNL     1     -10.415  10.576  69.023  1.00  0.00    -0.203 N  
HETATM   18  O   UNL     1     -12.147   9.392  70.044  1.00  0.00     0.107 OA 
HETATM   19  H   UNL     1      -9.442  10.487  68.730  1.00  0.00     0.000 HD 
HETATM   20  C   UNL     1     -11.034   9.443  69.531  1.00  0.00    -0.173 C  
BRANCH  20  21
HETATM   21  C   UNL     1     -10.272   8.182  69.382  1.00  0.00    -0.211 A  
HETATM   22  C   UNL     1      -9.074   7.938  70.048  1.00  0.00    -0.152 A  
HETATM   23  C   UNL     1      -8.379   6.759  69.781  1.00  0.00    -0.132 A  
HETATM   24  C   UNL     1      -8.864   5.828  68.841  1.00  0.00    -0.110 A  
HETATM   25  C   UNL     1     -10.088   6.064  68.179  1.00  0.00    -0.160 A  
HETATM   26  C   UNL     1      -8.062   4.583  68.575  1.00  0.00    -0.082 C  
HETATM   27  C   UNL     1     -10.790   7.232  68.495  1.00  0.00    -0.106 A  
BRANCH  25  28
HETATM   28  N   UNL     1     -10.617   5.128  67.281  1.00  0.00    -0.137 NA 
HETATM   29  H   UNL     1     -11.403   4.589  67.643  1.00  0.00     0.000 HD 
BRANCH  28  30
HETATM   30  C   UNL     1     -10.248   4.811  65.977  1.00  0.00    -0.278 A  
HETATM   31  N   UNL     1     -11.046   3.955  65.323  1.00  0.00     0.402 NA 
HETATM   32  C   UNL     1     -10.757   3.725  64.029  1.00  0.00    -0.242 A  
HETATM   33  C   UNL     1      -9.733   4.344  63.353  1.00  0.00     0.006 A  
HETATM   34  C   UNL     1      -8.957   5.208  64.096  1.00  0.00     0.067 A  
HETATM   35  N   UNL     1      -9.200   5.419  65.406  1.00  0.00    -0.097 NA 
BRANCH  34  36
HETATM   36  C   UNL     1      -7.844   5.989  63.541  1.00  0.00    -0.104 A  
HETATM   37  C   UNL     1      -6.643   5.403  63.135  1.00  0.00    -0.026 A  
HETATM   38  N   UNL     1      -5.594   6.067  62.589  1.00  0.00    -0.021 NA 
HETATM   39  C   UNL     1      -5.745   7.398  62.421  1.00  0.00    -0.050 A  
HETATM   40  C   UNL     1      -6.889   8.090  62.776  1.00  0.00    -0.085 A  
HETATM   41  C   UNL     1      -7.944   7.375  63.339  1.00  0.00    -0.078 A  
ENDBRANCH  34  36
ENDBRANCH  28  30
ENDBRANCH  25  28
ENDBRANCH  20  21
ENDBRANCH   9  17
ENDBRANCH   4   7
TORSDOF 6
ENDMDL
MODEL       80
REMARK 921   NORMALIZED FREE ENERGY PREDICTED BY IDOCK:   -5.70 KCAL/MOL
REMARK 922        TOTAL FREE ENERGY PREDICTED BY IDOCK:   -8.31 KCAL/MOL
REMARK 923 INTER-LIGAND FREE ENERGY PREDICTED BY IDOCK:   -7.35 KCAL/MOL
REMARK 924 INTRA-LIGAND FREE ENERGY PREDICTED BY IDOCK:   -0.95 KCAL/MOL
REMARK 927      BINDING AFFINITY PREDICTED BY RF-SCORE:    0.00 PKD
ROOT
HETATM    1  C   UNL     1     -10.724   2.609  74.214  1.00  0.00    -0.204 C  
HETATM    2  C   UNL     1     -10.511   3.493  73.050  1.00  0.00    -0.166 A  
HETATM    3  C   UNL     1      -9.706   3.310  71.944  1.00  0.00    -0.163 A  
HETATM    4  N   UNL     1      -9.875   4.422  71.149  1.00  0.00    -0.185 NA 
HETATM    5  N   UNL     1     -11.171   4.685  72.963  1.00  0.00    -0.247 NA 
HETATM    6  C   UNL     1     -10.780   5.215  71.827  1.00  0.00    -0.133 A  
ENDROOT
BRANCH   4   7
HETATM    7  C   UNL     1      -9.254   4.692  69.896  1.00  0.00    -0.125 A  
HETATM    8  C   UNL     1      -8.888   6.004  69.573  1.00  0.00    -0.125 A  
HETATM    9  C   UNL     1      -8.295   6.315  68.346  1.00  0.00    -0.115 A  
HETATM   10  F   UNL     1      -7.522   3.274  65.599  1.00  0.00    -0.070 F  
HETATM   11  C   UNL     1      -8.007   5.288  67.448  1.00  0.00    -0.100 A  
HETATM   12  F   UNL     1      -7.346   1.865  67.246  1.00  0.00    -0.051 F  
HETATM   13  F   UNL     1      -9.288   2.252  66.349  1.00  0.00    -0.128 F  
HETATM   14  C   UNL     1      -8.375   3.963  67.740  1.00  0.00    -0.098 A  
HETATM   15  C   UNL     1      -8.133   2.855  66.743  1.00  0.00    -0.084 C  
HETATM   16  C   UNL     1      -9.002   3.675  68.967  1.00  0.00    -0.179 A  
BRANCH   9  17
HETATM   17  N   UNL     1      -7.956   7.636  67.988  1.00  0.00    -0.121 N  
HETATM   18  O   UNL     1      -9.957   8.336  67.013  1.00  0.00    -0.203 OA 
HETATM   19  H   UNL     1      -6.998   7.938  68.166  1.00  0.00     0.000 HD 
HETATM   20  C   UNL     1      -8.819   8.557  67.412  1.00  0.00    -0.134 C  
BRANCH  20  21
HETATM   21  C   UNL     1      -8.304   9.943  67.326  1.00  0.00    -0.121 A  
HETATM   22  C   UNL     1      -7.008  10.293  67.693  1.00  0.00    -0.084 A  
HETATM   23  C   UNL     1      -6.635  11.637  67.664  1.00  0.00    -0.082 A  
HETATM   24  C   UNL     1      -7.554  12.636  67.286  1.00  0.00    -0.121 A  
HETATM   25  C   UNL     1      -8.863  12.282  66.896  1.00  0.00    -0.207 A  
HETATM   26  C   UNL     1      -7.107  14.073  67.294  1.00  0.00     0.062 C  
HETATM   27  C   UNL     1      -9.201  10.924  66.890  1.00  0.00    -0.175 A  
BRANCH  25  28
HETATM   28  N   UNL     1      -9.777  13.252  66.465  1.00  0.00    -0.268 NA 
HETATM   29  H   UNL     1     -10.051  13.172  65.486  1.00  0.00     0.000 HD 
BRANCH  28  30
HETATM   30  C   UNL     1     -10.373  14.307  67.150  1.00  0.00    -0.262 A  
HETATM   31  N   UNL     1     -11.174  13.977  68.172  1.00  0.00    -0.263 NA 
HETATM   32  C   UNL     1     -11.670  14.991  68.905  1.00  0.00    -0.328 A  
HETATM   33  C   UNL     1     -11.366  16.313  68.685  1.00  0.00    -0.333 A  
HETATM   34  C   UNL     1     -10.537  16.570  67.614  1.00  0.00    -0.321 A  
HETATM   35  N   UNL     1     -10.066  15.573  66.838  1.00  0.00    -0.256 NA 
BRANCH  34  36
HETATM   36  C   UNL     1     -10.071  17.913  67.245  1.00  0.00    -0.344 A  
HETATM   37  C   UNL     1      -8.829  18.140  66.649  1.00  0.00    -0.275 A  
HETATM   38  N   UNL     1      -8.359  19.351  66.259  1.00  0.00    -0.331 NA 
HETATM   39  C   UNL     1      -9.174  20.408  66.460  1.00  0.00    -0.199 A  
HETATM   40  C   UNL     1     -10.428  20.308  67.036  1.00  0.00    -0.320 A  
HETATM   41  C   UNL     1     -10.876  19.048  67.428  1.00  0.00    -0.496 A  
ENDBRANCH  34  36
ENDBRANCH  28  30
ENDBRANCH  25  28
ENDBRANCH  20  21
ENDBRANCH   9  17
ENDBRANCH   4   7
TORSDOF 6
ENDMDL
MODEL       81
REMARK 921   NORMALIZED FREE ENERGY PREDICTED BY IDOCK:   -5.70 KCAL/MOL
REMARK 922        TOTAL FREE ENERGY PREDICTED BY IDOCK:   -8.31 KCAL/MOL
REMARK 923 INTER-LIGAND FREE ENERGY PREDICTED BY IDOCK:   -7.42 KCAL/MOL
REMARK 924 INTRA-LIGAND FREE ENERGY PREDICTED BY IDOCK:   -0.89 KCAL/MOL
REMARK 927      BINDING AFFINITY PREDICTED BY RF-SCORE:    0.00 PKD
ROOT
HETATM    1  C   UNL     1      -9.049  20.304  67.206  1.00  0.00    -0.504 C  
HETATM    2  C   UNL     1      -9.111  18.909  67.684  1.00  0.00    -0.283 A  
HETATM    3  C   UNL     1     -10.143  18.239  68.309  1.00  0.00    -0.386 A  
HETATM    4  N   UNL     1      -9.697  16.956  68.536  1.00  0.00    -0.253 NA 
HETATM    5  N   UNL     1      -8.039  18.078  67.519  1.00  0.00    -0.228 NA 
HETATM    6  C   UNL     1      -8.412  16.927  68.030  1.00  0.00    -0.213 A  
ENDROOT
BRANCH   4   7
HETATM    7  C   UNL     1     -10.409  15.890  69.156  1.00  0.00    -0.237 A  
HETATM    8  C   UNL     1     -10.074  14.565  68.854  1.00  0.00    -0.224 A  
HETATM    9  C   UNL     1     -10.761  13.489  69.424  1.00  0.00     0.095 A  
HETATM   10  F   UNL     1     -13.835  14.217  72.145  1.00  0.00    -0.414 F  
HETATM   11  C   UNL     1     -11.763  13.740  70.360  1.00  0.00    -0.242 A  
HETATM   12  F   UNL     1     -12.868  16.084  72.702  1.00  0.00    -0.443 F  
HETATM   13  F   UNL     1     -14.275  16.040  71.045  1.00  0.00    -0.092 F  
HETATM   14  C   UNL     1     -12.131  15.060  70.673  1.00  0.00    -0.375 A  
HETATM   15  C   UNL     1     -13.263  15.342  71.631  1.00  0.00    -0.478 C  
HETATM   16  C   UNL     1     -11.449  16.131  70.062  1.00  0.00    -0.294 A  
BRANCH   9  17
HETATM   17  N   UNL     1     -10.462  12.150  69.101  1.00  0.00    -0.429 N  
HETATM   18  O   UNL     1     -11.675  11.913  67.122  1.00  0.00    -0.528 OA 
HETATM   19  H   UNL     1      -9.890  11.625  69.762  1.00  0.00     0.000 HD 
HETATM   20  C   UNL     1     -10.885  11.487  67.958  1.00  0.00    -0.213 C  
BRANCH  20  21
HETATM   21  C   UNL     1     -10.269  10.160  67.728  1.00  0.00    -0.232 A  
HETATM   22  C   UNL     1     -10.889   9.156  66.989  1.00  0.00    -0.056 A  
HETATM   23  C   UNL     1     -10.277   7.906  66.897  1.00  0.00    -0.380 A  
HETATM   24  C   UNL     1      -9.056   7.647  67.552  1.00  0.00    -0.131 A  
HETATM   25  C   UNL     1      -8.416   8.669  68.286  1.00  0.00    -0.131 A  
HETATM   26  C   UNL     1      -8.450   6.274  67.439  1.00  0.00    -0.108 C  
HETATM   27  C   UNL     1      -9.027   9.928  68.328  1.00  0.00    -0.119 A  
BRANCH  25  28
HETATM   28  N   UNL     1      -7.177   8.451  68.900  1.00  0.00    -0.076 NA 
HETATM   29  H   UNL     1      -6.387   8.895  68.433  1.00  0.00     0.000 HD 
BRANCH  28  30
HETATM   30  C   UNL     1      -6.843   7.728  70.043  1.00  0.00    -0.049 A  
HETATM   31  N   UNL     1      -6.799   8.417  71.192  1.00  0.00    -0.052 NA 
HETATM   32  C   UNL     1      -6.582   7.708  72.315  1.00  0.00    -0.056 A  
HETATM   33  C   UNL     1      -6.448   6.341  72.342  1.00  0.00    -0.059 A  
HETATM   34  C   UNL     1      -6.504   5.706  71.119  1.00  0.00    -0.040 A  
HETATM   35  N   UNL     1      -6.675   6.402  69.976  1.00  0.00    -0.051 NA 
BRANCH  34  36
HETATM   36  C   UNL     1      -6.420   4.250  70.949  1.00  0.00    -0.030 A  
HETATM   37  C   UNL     1      -7.512   3.474  70.555  1.00  0.00    -0.041 A  
HETATM   38  N   UNL     1      -7.486   2.133  70.352  1.00  0.00    -0.036 NA 
HETATM   39  C   UNL     1      -6.300   1.518  70.540  1.00  0.00    -0.024 A  
HETATM   40  C   UNL     1      -5.147   2.179  70.924  1.00  0.00    -0.004 A  
HETATM   41  C   UNL     1      -5.213   3.556  71.127  1.00  0.00    -0.004 A  
ENDBRANCH  34  36
ENDBRANCH  28  30
ENDBRANCH  25  28
ENDBRANCH  20  21
ENDBRANCH   9  17
ENDBRANCH   4   7
TORSDOF 6
ENDMDL
MODEL       82
REMARK 921   NORMALIZED FREE ENERGY PREDICTED BY IDOCK:   -5.61 KCAL/MOL
REMARK 922        TOTAL FREE ENERGY PREDICTED BY IDOCK:   -8.19 KCAL/MOL
REMARK 923 INTER-LIGAND FREE ENERGY PREDICTED BY IDOCK:   -7.18 KCAL/MOL
REMARK 924 INTRA-LIGAND FREE ENERGY PREDICTED BY IDOCK:   -1.01 KCAL/MOL
REMARK 927      BINDING AFFINITY PREDICTED BY RF-SCORE:    0.00 PKD
ROOT
HETATM    1  C   UNL     1     -10.708  19.681  67.200  1.00  0.00    -0.587 C  
HETATM    2  C   UNL     1     -10.166  18.323  66.992  1.00  0.00    -0.378 A  
HETATM    3  C   UNL     1      -9.331  17.577  67.799  1.00  0.00    -0.257 A  
HETATM    4  N   UNL     1      -9.136  16.375  67.156  1.00  0.00    -0.202 NA 
HETATM    5  N   UNL     1     -10.492  17.618  65.868  1.00  0.00    -0.516 NA 
HETATM    6  C   UNL     1      -9.871  16.467  65.990  1.00  0.00    -0.335 A  
ENDROOT
BRANCH   4   7
HETATM    7  C   UNL     1      -8.348  15.275  67.599  1.00  0.00    -0.164 A  
HETATM    8  C   UNL     1      -8.300  14.104  66.833  1.00  0.00    -0.062 A  
HETATM    9  C   UNL     1      -7.557  12.993  67.243  1.00  0.00    -0.089 A  
HETATM   10  F   UNL     1      -5.365  13.173  70.785  1.00  0.00    -0.104 F  
HETATM   11  C   UNL     1      -6.798  13.074  68.410  1.00  0.00    -0.097 A  
HETATM   12  F   UNL     1      -5.178  15.325  70.532  1.00  0.00    -0.112 F  
HETATM   13  F   UNL     1      -6.897  14.497  71.577  1.00  0.00     0.268 F  
HETATM   14  C   UNL     1      -6.837  14.232  69.206  1.00  0.00    -0.124 A  
HETATM   15  C   UNL     1      -6.076  14.302  70.508  1.00  0.00    -0.180 C  
HETATM   16  C   UNL     1      -7.619  15.328  68.793  1.00  0.00    -0.139 A  
BRANCH   9  17
HETATM   17  N   UNL     1      -7.528  11.793  66.504  1.00  0.00    -0.365 N  
HETATM   18  O   UNL     1      -9.784  11.201  66.573  1.00  0.00    -0.190 OA 
HETATM   19  H   UNL     1      -6.618  11.460  66.186  1.00  0.00     0.000 HD 
HETATM   20  C   UNL     1      -8.637  11.028  66.175  1.00  0.00    -0.175 C  
BRANCH  20  21
HETATM   21  C   UNL     1      -8.390   9.931  65.211  1.00  0.00    -0.153 A  
HETATM   22  C   UNL     1      -8.318  10.134  63.835  1.00  0.00    -0.172 A  
HETATM   23  C   UNL     1      -8.171   9.031  62.995  1.00  0.00    -0.184 A  
HETATM   24  C   UNL     1      -8.110   7.724  63.517  1.00  0.00    -0.054 A  
HETATM   25  C   UNL     1      -8.163   7.517  64.913  1.00  0.00    -0.083 A  
HETATM   26  C   UNL     1      -7.973   6.567  62.564  1.00  0.00    -0.103 C  
HETATM   27  C   UNL     1      -8.268   8.641  65.739  1.00  0.00    -0.126 A  
BRANCH  25  28
HETATM   28  N   UNL     1      -8.051   6.232  65.458  1.00  0.00    -0.122 NA 
HETATM   29  H   UNL     1      -7.305   5.664  65.058  1.00  0.00     0.000 HD 
BRANCH  28  30
HETATM   30  C   UNL     1      -8.789   5.600  66.456  1.00  0.00    -0.123 A  
HETATM   31  N   UNL     1      -8.858   4.263  66.390  1.00  0.00    -0.113 NA 
HETATM   32  C   UNL     1      -9.479   3.637  67.407  1.00  0.00    -0.195 A  
HETATM   33  C   UNL     1      -9.994   4.287  68.503  1.00  0.00    -0.023 A  
HETATM   34  C   UNL     1      -9.884   5.661  68.495  1.00  0.00    -0.143 A  
HETATM   35  N   UNL     1      -9.308   6.312  67.464  1.00  0.00    -0.114 NA 
BRANCH  34  36
HETATM   36  C   UNL     1     -10.341   6.524  69.593  1.00  0.00    -0.234 A  
HETATM   37  C   UNL     1      -9.700   7.718  69.926  1.00  0.00    -0.176 A  
HETATM   38  N   UNL     1     -10.093   8.569  70.907  1.00  0.00    -0.193 NA 
HETATM   39  C   UNL     1     -11.200   8.223  71.597  1.00  0.00    -0.270 A  
HETATM   40  C   UNL     1     -11.924   7.069  71.356  1.00  0.00    -0.380 A  
HETATM   41  C   UNL     1     -11.487   6.217  70.343  1.00  0.00    -0.414 A  
ENDBRANCH  34  36
ENDBRANCH  28  30
ENDBRANCH  25  28
ENDBRANCH  20  21
ENDBRANCH   9  17
ENDBRANCH   4   7
TORSDOF 6
ENDMDL
MODEL       83
REMARK 921   NORMALIZED FREE ENERGY PREDICTED BY IDOCK:   -5.52 KCAL/MOL
REMARK 922        TOTAL FREE ENERGY PREDICTED BY IDOCK:   -8.07 KCAL/MOL
REMARK 923 INTER-LIGAND FREE ENERGY PREDICTED BY IDOCK:   -6.96 KCAL/MOL
REMARK 924 INTRA-LIGAND FREE ENERGY PREDICTED BY IDOCK:   -1.11 KCAL/MOL
REMARK 927      BINDING AFFINITY PREDICTED BY RF-SCORE:    0.00 PKD
ROOT
HETATM    1  C   UNL     1      -6.888  19.929  66.815  1.00  0.00    -0.232 C  
HETATM    2  C   UNL     1      -7.967  18.944  66.599  1.00  0.00    -0.270 A  
HETATM    3  C   UNL     1      -7.947  17.572  66.753  1.00  0.00    -0.241 A  
HETATM    4  N   UNL     1      -9.210  17.125  66.437  1.00  0.00    -0.295 NA 
HETATM    5  N   UNL     1      -9.205  19.357  66.196  1.00  0.00    -0.411 NA 
HETATM    6  C   UNL     1      -9.924  18.261  66.110  1.00  0.00    -0.308 A  
ENDROOT
BRANCH   4   7
HETATM    7  C   UNL     1      -9.680  15.781  66.450  1.00  0.00    -0.282 A  
HETATM    8  C   UNL     1      -9.030  14.826  67.242  1.00  0.00    -0.210 A  
HETATM    9  C   UNL     1      -9.446  13.492  67.267  1.00  0.00    -0.230 A  
HETATM   10  F   UNL     1     -12.740  12.317  64.996  1.00  0.00    -0.504 F  
HETATM   11  C   UNL     1     -10.570  13.115  66.533  1.00  0.00    -0.290 A  
HETATM   12  F   UNL     1     -13.538  14.334  65.154  1.00  0.00    -0.134 F  
HETATM   13  F   UNL     1     -12.176  13.827  63.536  1.00  0.00    -0.520 F  
HETATM   14  C   UNL     1     -11.235  14.048  65.718  1.00  0.00    -0.303 A  
HETATM   15  C   UNL     1     -12.408  13.633  64.864  1.00  0.00    -0.406 C  
HETATM   16  C   UNL     1     -10.779  15.380  65.680  1.00  0.00    -0.381 A  
BRANCH   9  17
HETATM   17  N   UNL     1      -8.780  12.510  68.028  1.00  0.00    -0.179 N  
HETATM   18  O   UNL     1      -6.639  12.647  67.112  1.00  0.00    -0.142 OA 
HETATM   19  H   UNL     1      -9.336  11.980  68.699  1.00  0.00     0.000 HD 
HETATM   20  C   UNL     1      -7.429  12.207  67.940  1.00  0.00    -0.117 C  
BRANCH  20  21
HETATM   21  C   UNL     1      -6.911  11.298  68.988  1.00  0.00    -0.104 A  
HETATM   22  C   UNL     1      -6.044  11.717  69.992  1.00  0.00    -0.158 A  
HETATM   23  C   UNL     1      -5.535  10.773  70.885  1.00  0.00    -0.103 A  
HETATM   24  C   UNL     1      -5.876   9.411  70.772  1.00  0.00    -0.058 A  
HETATM   25  C   UNL     1      -6.770   8.987  69.766  1.00  0.00    -0.049 A  
HETATM   26  C   UNL     1      -5.281   8.432  71.748  1.00  0.00    -0.035 C  
HETATM   27  C   UNL     1      -7.302   9.957  68.909  1.00  0.00    -0.078 A  
BRANCH  25  28
HETATM   28  N   UNL     1      -7.165   7.646  69.667  1.00  0.00    -0.077 NA 
HETATM   29  H   UNL     1      -7.728   7.310  70.449  1.00  0.00     0.000 HD 
BRANCH  28  30
HETATM   30  C   UNL     1      -6.917   6.696  68.681  1.00  0.00    -0.080 A  
HETATM   31  N   UNL     1      -6.770   5.430  69.096  1.00  0.00    -0.051 NA 
HETATM   32  C   UNL     1      -6.636   4.490  68.142  1.00  0.00    -0.042 A  
HETATM   33  C   UNL     1      -6.684   4.758  66.795  1.00  0.00    -0.051 A  
HETATM   34  C   UNL     1      -6.836   6.083  66.449  1.00  0.00    -0.062 A  
HETATM   35  N   UNL     1      -6.926   7.047  67.389  1.00  0.00    -0.076 NA 
BRANCH  34  36
HETATM   36  C   UNL     1      -6.946   6.559  65.064  1.00  0.00    -0.051 A  
HETATM   37  C   UNL     1      -7.819   5.984  64.139  1.00  0.00    -0.117 A  
HETATM   38  N   UNL     1      -7.986   6.399  62.858  1.00  0.00    -0.102 NA 
HETATM   39  C   UNL     1      -7.251   7.462  62.469  1.00  0.00    -0.083 A  
HETATM   40  C   UNL     1      -6.358   8.120  63.295  1.00  0.00    -0.080 A  
HETATM   41  C   UNL     1      -6.210   7.662  64.603  1.00  0.00    -0.044 A  
ENDBRANCH  34  36
ENDBRANCH  28  30
ENDBRANCH  25  28
ENDBRANCH  20  21
ENDBRANCH   9  17
ENDBRANCH   4   7
TORSDOF 6
ENDMDL
MODEL       84
REMARK 921   NORMALIZED FREE ENERGY PREDICTED BY IDOCK:   -5.52 KCAL/MOL
REMARK 922        TOTAL FREE ENERGY PREDICTED BY IDOCK:   -8.07 KCAL/MOL
REMARK 923 INTER-LIGAND FREE ENERGY PREDICTED BY IDOCK:   -8.24 KCAL/MOL
REMARK 924 INTRA-LIGAND FREE ENERGY PREDICTED BY IDOCK:    0.17 KCAL/MOL
REMARK 927      BINDING AFFINITY PREDICTED BY RF-SCORE:    0.00 PKD
ROOT
HETATM    1  C   UNL     1     -10.165   3.736  64.131  1.00  0.00    -0.240 C  
HETATM    2  C   UNL     1     -10.072   4.301  65.492  1.00  0.00    -0.223 A  
HETATM    3  C   UNL     1     -10.447   5.546  65.953  1.00  0.00     0.118 A  
HETATM    4  N   UNL     1     -10.160   5.567  67.300  1.00  0.00    -0.164 NA 
HETATM    5  N   UNL     1      -9.562   3.551  66.513  1.00  0.00    -0.150 NA 
HETATM    6  C   UNL     1      -9.627   4.323  67.574  1.00  0.00    -0.173 A  
ENDROOT
BRANCH   4   7
HETATM    7  C   UNL     1     -10.372   6.639  68.213  1.00  0.00    -0.190 A  
HETATM    8  C   UNL     1      -9.733   7.866  68.002  1.00  0.00    -0.182 A  
HETATM    9  C   UNL     1      -9.897   8.937  68.886  1.00  0.00    -0.177 A  
HETATM   10  F   UNL     1     -12.403   8.515  72.192  1.00  0.00    -0.336 F  
HETATM   11  C   UNL     1     -10.765   8.800  69.969  1.00  0.00    -0.236 A  
HETATM   12  F   UNL     1     -13.567   7.044  71.092  1.00  0.00    -0.426 F  
HETATM   13  F   UNL     1     -11.840   6.416  72.255  1.00  0.00    -0.316 F  
HETATM   14  C   UNL     1     -11.410   7.575  70.214  1.00  0.00    -0.219 A  
HETATM   15  C   UNL     1     -12.294   7.394  71.424  1.00  0.00    -0.361 C  
HETATM   16  C   UNL     1     -11.204   6.497  69.331  1.00  0.00    -0.418 A  
BRANCH   9  17
HETATM   17  N   UNL     1      -9.231  10.167  68.710  1.00  0.00    -0.156 N  
HETATM   18  O   UNL     1      -7.065   9.566  69.337  1.00  0.00    -0.051 OA 
HETATM   19  H   UNL     1      -9.795  10.970  68.431  1.00  0.00     0.000 HD 
HETATM   20  C   UNL     1      -7.870  10.374  68.886  1.00  0.00    -0.115 C  
BRANCH  20  21
HETATM   21  C   UNL     1      -7.363  11.690  68.434  1.00  0.00    -0.096 A  
HETATM   22  C   UNL     1      -6.078  12.143  68.717  1.00  0.00    -0.067 A  
HETATM   23  C   UNL     1      -5.714  13.432  68.328  1.00  0.00    -0.098 A  
HETATM   24  C   UNL     1      -6.631  14.278  67.672  1.00  0.00    -0.172 A  
HETATM   25  C   UNL     1      -7.928  13.813  67.368  1.00  0.00    -0.162 A  
HETATM   26  C   UNL     1      -6.193  15.667  67.295  1.00  0.00    -0.011 C  
HETATM   27  C   UNL     1      -8.257  12.502  67.728  1.00  0.00    -0.166 A  
BRANCH  25  28
HETATM   28  N   UNL     1      -8.838  14.617  66.669  1.00  0.00    -0.397 NA 
HETATM   29  H   UNL     1      -9.222  14.190  65.826  1.00  0.00     0.000 HD 
BRANCH  28  30
HETATM   30  C   UNL     1      -9.307  15.901  66.934  1.00  0.00    -0.225 A  
HETATM   31  N   UNL     1     -10.615  16.014  67.201  1.00  0.00    -0.309 NA 
HETATM   32  C   UNL     1     -11.057  17.234  67.561  1.00  0.00     0.044 A  
HETATM   33  C   UNL     1     -10.241  18.330  67.705  1.00  0.00    -0.397 A  
HETATM   34  C   UNL     1      -8.909  18.132  67.410  1.00  0.00    -0.256 A  
HETATM   35  N   UNL     1      -8.453  16.929  67.002  1.00  0.00    -0.193 NA 
BRANCH  34  36
HETATM   36  C   UNL     1      -7.879  19.171  67.540  1.00  0.00    -0.272 A  
HETATM   37  C   UNL     1      -7.428  19.632  68.778  1.00  0.00    -0.329 A  
HETATM   38  N   UNL     1      -6.460  20.565  68.959  1.00  0.00    -0.241 NA 
HETATM   39  C   UNL     1      -5.892  21.069  67.844  1.00  0.00    -0.337 A  
HETATM   40  C   UNL     1      -6.248  20.687  66.563  1.00  0.00    -0.273 A  
HETATM   41  C   UNL     1      -7.249  19.729  66.416  1.00  0.00    -0.267 A  
ENDBRANCH  34  36
ENDBRANCH  28  30
ENDBRANCH  25  28
ENDBRANCH  20  21
ENDBRANCH   9  17
ENDBRANCH   4   7
TORSDOF 6
ENDMDL
MODEL       85
REMARK 921   NORMALIZED FREE ENERGY PREDICTED BY IDOCK:   -5.47 KCAL/MOL
REMARK 922        TOTAL FREE ENERGY PREDICTED BY IDOCK:   -7.99 KCAL/MOL
REMARK 923 INTER-LIGAND FREE ENERGY PREDICTED BY IDOCK:   -6.85 KCAL/MOL
REMARK 924 INTRA-LIGAND FREE ENERGY PREDICTED BY IDOCK:   -1.15 KCAL/MOL
REMARK 927      BINDING AFFINITY PREDICTED BY RF-SCORE:    0.00 PKD
ROOT
HETATM    1  C   UNL     1     -10.975  20.129  65.580  1.00  0.00     0.010 C  
HETATM    2  C   UNL     1     -10.492  18.747  65.771  1.00  0.00    -0.271 A  
HETATM    3  C   UNL     1      -9.494  18.271  66.597  1.00  0.00    -0.308 A  
HETATM    4  N   UNL     1      -9.447  16.908  66.409  1.00  0.00    -0.271 NA 
HETATM    5  N   UNL     1     -11.062  17.717  65.077  1.00  0.00    -0.601 NA 
HETATM    6  C   UNL     1     -10.427  16.639  65.475  1.00  0.00    -0.267 A  
ENDROOT
BRANCH   4   7
HETATM    7  C   UNL     1      -8.577  15.977  67.045  1.00  0.00    -0.210 A  
HETATM    8  C   UNL     1      -8.544  14.648  66.606  1.00  0.00    -0.129 A  
HETATM    9  C   UNL     1      -7.720  13.698  67.217  1.00  0.00    -0.074 A  
HETATM   10  F   UNL     1      -5.241  14.839  70.370  1.00  0.00    -0.100 F  
HETATM   11  C   UNL     1      -6.868  14.095  68.247  1.00  0.00    -0.107 A  
HETATM   12  F   UNL     1      -5.172  16.854  69.554  1.00  0.00    -0.128 F  
HETATM   13  F   UNL     1      -6.756  16.293  70.934  1.00  0.00     0.691 F  
HETATM   14  C   UNL     1      -6.889  15.419  68.717  1.00  0.00    -0.113 A  
HETATM   15  C   UNL     1      -6.023  15.842  69.879  1.00  0.00    -0.170 C  
HETATM   16  C   UNL     1      -7.751  16.354  68.111  1.00  0.00    -0.161 A  
BRANCH   9  17
HETATM   17  N   UNL     1      -7.703  12.347  66.813  1.00  0.00    -0.385 N  
HETATM   18  O   UNL     1      -9.863  11.701  67.412  1.00  0.00    -0.182 OA 
HETATM   19  H   UNL     1      -6.827  11.980  66.441  1.00  0.00     0.000 HD 
HETATM   20  C   UNL     1      -8.780  11.476  66.882  1.00  0.00    -0.181 C  
BRANCH  20  21
HETATM   21  C   UNL     1      -8.591  10.175  66.201  1.00  0.00    -0.147 A  
HETATM   22  C   UNL     1      -8.196  10.067  64.871  1.00  0.00    -0.154 A  
HETATM   23  C   UNL     1      -8.128   8.803  64.284  1.00  0.00    -0.157 A  
HETATM   24  C   UNL     1      -8.467   7.647  65.013  1.00  0.00    -0.027 A  
HETATM   25  C   UNL     1      -8.850   7.752  66.368  1.00  0.00    -0.155 A  
HETATM   26  C   UNL     1      -8.398   6.310  64.326  1.00  0.00     0.053 C  
HETATM   27  C   UNL     1      -8.868   9.025  66.948  1.00  0.00    -0.129 A  
BRANCH  25  28
HETATM   28  N   UNL     1      -9.139   6.611  67.128  1.00  0.00    -0.126 NA 
HETATM   29  H   UNL     1      -9.204   5.747  66.590  1.00  0.00     0.000 HD 
BRANCH  28  30
HETATM   30  C   UNL     1      -9.354   6.460  68.495  1.00  0.00    -0.122 A  
HETATM   31  N   UNL     1      -8.347   5.928  69.202  1.00  0.00    -0.106 NA 
HETATM   32  C   UNL     1      -8.505   5.876  70.537  1.00  0.00    -0.128 A  
HETATM   33  C   UNL     1      -9.605   6.370  71.196  1.00  0.00    -0.187 A  
HETATM   34  C   UNL     1     -10.597   6.900  70.399  1.00  0.00    -0.219 A  
HETATM   35  N   UNL     1     -10.480   6.920  69.056  1.00  0.00    -0.199 NA 
BRANCH  34  36
HETATM   36  C   UNL     1     -11.828   7.508  70.922  1.00  0.00    -0.293 A  
HETATM   37  C   UNL     1     -12.997   6.776  71.133  1.00  0.00    -0.077 A  
HETATM   38  N   UNL     1     -14.152   7.276  71.640  1.00  0.00    -0.415 NA 
HETATM   39  C   UNL     1     -14.147   8.584  71.973  1.00  0.00    -0.444 A  
HETATM   40  C   UNL     1     -13.049   9.410  71.817  1.00  0.00    -0.488 A  
HETATM   41  C   UNL     1     -11.882   8.862  71.288  1.00  0.00    -0.371 A  
ENDBRANCH  34  36
ENDBRANCH  28  30
ENDBRANCH  25  28
ENDBRANCH  20  21
ENDBRANCH   9  17
ENDBRANCH   4   7
TORSDOF 6
ENDMDL
MODEL       86
REMARK 921   NORMALIZED FREE ENERGY PREDICTED BY IDOCK:   -5.46 KCAL/MOL
REMARK 922        TOTAL FREE ENERGY PREDICTED BY IDOCK:   -7.98 KCAL/MOL
REMARK 923 INTER-LIGAND FREE ENERGY PREDICTED BY IDOCK:   -6.54 KCAL/MOL
REMARK 924 INTRA-LIGAND FREE ENERGY PREDICTED BY IDOCK:   -1.44 KCAL/MOL
REMARK 927      BINDING AFFINITY PREDICTED BY RF-SCORE:    0.00 PKD
ROOT
HETATM    1  C   UNL     1      -9.011  15.026  67.028  1.00  0.00    -0.255 C  
HETATM    2  C   UNL     1      -9.643  13.716  67.283  1.00  0.00    -0.238 A  
HETATM    3  C   UNL     1      -9.617  12.935  68.420  1.00  0.00    -0.176 A  
HETATM    4  N   UNL     1     -10.372  11.817  68.144  1.00  0.00    -0.193 NA 
HETATM    5  N   UNL     1     -10.391  13.114  66.311  1.00  0.00    -0.282 NA 
HETATM    6  C   UNL     1     -10.814  11.992  66.847  1.00  0.00    -0.259 A  
ENDROOT
BRANCH   4   7
HETATM    7  C   UNL     1     -10.643  10.720  69.011  1.00  0.00    -0.219 A  
HETATM    8  C   UNL     1      -9.779   9.618  69.025  1.00  0.00    -0.169 A  
HETATM    9  C   UNL     1     -10.019   8.512  69.846  1.00  0.00    -0.189 A  
HETATM   10  F   UNL     1     -13.338   8.502  72.370  1.00  0.00    -0.348 F  
HETATM   11  C   UNL     1     -11.111   8.532  70.713  1.00  0.00    -0.288 A  
HETATM   12  F   UNL     1     -13.253  10.673  72.452  1.00  0.00    -0.523 F  
HETATM   13  F   UNL     1     -14.383   9.687  70.877  1.00  0.00    -0.193 F  
HETATM   14  C   UNL     1     -12.003   9.618  70.711  1.00  0.00    -0.356 A  
HETATM   15  C   UNL     1     -13.227   9.617  71.594  1.00  0.00    -0.411 C  
HETATM   16  C   UNL     1     -11.762  10.708  69.852  1.00  0.00    -0.395 A  
BRANCH   9  17
HETATM   17  N   UNL     1      -9.182   7.378  69.845  1.00  0.00    -0.145 N  
HETATM   18  O   UNL     1      -8.488   7.365  72.073  1.00  0.00    -0.105 OA 
HETATM   19  H   UNL     1      -9.039   6.902  68.954  1.00  0.00     0.000 HD 
HETATM   20  C   UNL     1      -8.536   6.858  70.957  1.00  0.00    -0.131 C  
BRANCH  20  21
HETATM   21  C   UNL     1      -7.889   5.541  70.758  1.00  0.00    -0.092 A  
HETATM   22  C   UNL     1      -6.958   5.013  71.649  1.00  0.00    -0.053 A  
HETATM   23  C   UNL     1      -6.333   3.805  71.338  1.00  0.00    -0.015 A  
HETATM   24  C   UNL     1      -6.619   3.129  70.135  1.00  0.00    -0.033 A  
HETATM   25  C   UNL     1      -7.577   3.653  69.240  1.00  0.00    -0.052 A  
HETATM   26  C   UNL     1      -5.900   1.841  69.839  1.00  0.00    -0.022 C  
HETATM   27  C   UNL     1      -8.224   4.842  69.593  1.00  0.00    -0.080 A  
BRANCH  25  28
HETATM   28  N   UNL     1      -7.917   2.971  68.065  1.00  0.00    -0.066 NA 
HETATM   29  H   UNL     1      -7.935   1.955  68.153  1.00  0.00     0.000 HD 
BRANCH  28  30
HETATM   30  C   UNL     1      -8.236   3.449  66.797  1.00  0.00    -0.095 A  
HETATM   31  N   UNL     1      -9.115   2.725  66.091  1.00  0.00    -0.140 NA 
HETATM   32  C   UNL     1      -9.509   3.233  64.908  1.00  0.00    -0.151 A  
HETATM   33  C   UNL     1      -9.094   4.450  64.424  1.00  0.00    -0.152 A  
HETATM   34  C   UNL     1      -8.189   5.134  65.209  1.00  0.00    -0.126 A  
HETATM   35  N   UNL     1      -7.745   4.621  66.375  1.00  0.00    -0.091 NA 
BRANCH  34  36
HETATM   36  C   UNL     1      -7.661   6.464  64.878  1.00  0.00    -0.093 A  
HETATM   37  C   UNL     1      -7.115   6.767  63.630  1.00  0.00    -0.060 A  
HETATM   38  N   UNL     1      -6.641   7.982  63.257  1.00  0.00    -0.079 NA 
HETATM   39  C   UNL     1      -6.723   8.968  64.176  1.00  0.00    -0.083 A  
HETATM   40  C   UNL     1      -7.249   8.792  65.443  1.00  0.00    -0.084 A  
HETATM   41  C   UNL     1      -7.722   7.529  65.791  1.00  0.00    -0.098 A  
ENDBRANCH  34  36
ENDBRANCH  28  30
ENDBRANCH  25  28
ENDBRANCH  20  21
ENDBRANCH   9  17
ENDBRANCH   4   7
TORSDOF 6
ENDMDL
MODEL       87
REMARK 921   NORMALIZED FREE ENERGY PREDICTED BY IDOCK:   -5.45 KCAL/MOL
REMARK 922        TOTAL FREE ENERGY PREDICTED BY IDOCK:   -7.98 KCAL/MOL
REMARK 923 INTER-LIGAND FREE ENERGY PREDICTED BY IDOCK:   -6.44 KCAL/MOL
REMARK 924 INTRA-LIGAND FREE ENERGY PREDICTED BY IDOCK:   -1.54 KCAL/MOL
REMARK 927      BINDING AFFINITY PREDICTED BY RF-SCORE:    0.00 PKD
ROOT
HETATM    1  C   UNL     1      -5.950  14.537  70.050  1.00  0.00    -0.141 C  
HETATM    2  C   UNL     1      -6.342  13.412  69.179  1.00  0.00    -0.102 A  
HETATM    3  C   UNL     1      -7.503  13.224  68.456  1.00  0.00    -0.115 A  
HETATM    4  N   UNL     1      -7.366  12.020  67.802  1.00  0.00    -0.103 NA 
HETATM    5  N   UNL     1      -5.492  12.359  68.992  1.00  0.00    -0.062 NA 
HETATM    6  C   UNL     1      -6.121  11.549  68.170  1.00  0.00    -0.045 A  
ENDROOT
BRANCH   4   7
HETATM    7  C   UNL     1      -8.304  11.397  66.931  1.00  0.00    -0.159 A  
HETATM    8  C   UNL     1      -8.311  10.003  66.801  1.00  0.00    -0.125 A  
HETATM    9  C   UNL     1      -9.201   9.354  65.941  1.00  0.00    -0.213 A  
HETATM   10  F   UNL     1     -11.960  11.592  63.757  1.00  0.00    -0.487 F  
HETATM   11  C   UNL     1     -10.145  10.106  65.241  1.00  0.00    -0.344 A  
HETATM   12  F   UNL     1     -11.926  13.109  65.315  1.00  0.00    -0.348 F  
HETATM   13  F   UNL     1     -10.490  13.192  63.684  1.00  0.00    -0.342 F  
HETATM   14  C   UNL     1     -10.154  11.508  65.342  1.00  0.00    -0.304 A  
HETATM   15  C   UNL     1     -11.123  12.337  64.534  1.00  0.00    -0.321 C  
HETATM   16  C   UNL     1      -9.225  12.146  66.188  1.00  0.00    -0.155 A  
BRANCH   9  17
HETATM   17  N   UNL     1      -9.196   7.955  65.768  1.00  0.00    -0.396 N  
HETATM   18  O   UNL     1      -7.572   7.742  64.106  1.00  0.00    -0.098 OA 
HETATM   19  H   UNL     1      -9.869   7.413  66.311  1.00  0.00     0.000 HD 
HETATM   20  C   UNL     1      -8.349   7.255  64.920  1.00  0.00    -0.016 C  
BRANCH  20  21
HETATM   21  C   UNL     1      -8.377   5.782  65.068  1.00  0.00    -0.138 A  
HETATM   22  C   UNL     1      -7.996   4.912  64.051  1.00  0.00    -0.101 A  
HETATM   23  C   UNL     1      -8.138   3.538  64.245  1.00  0.00    -0.086 A  
HETATM   24  C   UNL     1      -8.673   3.027  65.445  1.00  0.00    -0.122 A  
HETATM   25  C   UNL     1      -9.042   3.907  66.485  1.00  0.00    -0.149 A  
HETATM   26  C   UNL     1      -8.825   1.538  65.594  1.00  0.00    -0.124 C  
HETATM   27  C   UNL     1      -8.850   5.278  66.284  1.00  0.00    -0.130 A  
BRANCH  25  28
HETATM   28  N   UNL     1      -9.526   3.420  67.706  1.00  0.00    -0.200 NA 
HETATM   29  H   UNL     1     -10.080   2.567  67.633  1.00  0.00     0.000 HD 
BRANCH  28  30
HETATM   30  C   UNL     1      -9.377   3.906  69.002  1.00  0.00    -0.169 A  
HETATM   31  N   UNL     1      -9.533   3.018  69.993  1.00  0.00    -0.152 NA 
HETATM   32  C   UNL     1      -9.288   3.454  71.243  1.00  0.00    -0.138 A  
HETATM   33  C   UNL     1      -8.854   4.724  71.536  1.00  0.00    -0.151 A  
HETATM   34  C   UNL     1      -8.719   5.578  70.462  1.00  0.00    -0.135 A  
HETATM   35  N   UNL     1      -9.004   5.175  69.207  1.00  0.00    -0.098 NA 
BRANCH  34  36
HETATM   36  C   UNL     1      -8.232   6.960  70.572  1.00  0.00    -0.120 A  
HETATM   37  C   UNL     1      -9.011   8.062  70.217  1.00  0.00    -0.147 A  
HETATM   38  N   UNL     1      -8.628   9.358  70.325  1.00  0.00    -0.204 NA 
HETATM   39  C   UNL     1      -7.396   9.582  70.830  1.00  0.00    -0.084 A  
HETATM   40  C   UNL     1      -6.535   8.574  71.224  1.00  0.00    -0.056 A  
HETATM   41  C   UNL     1      -6.962   7.254  71.093  1.00  0.00    -0.060 A  
ENDBRANCH  34  36
ENDBRANCH  28  30
ENDBRANCH  25  28
ENDBRANCH  20  21
ENDBRANCH   9  17
ENDBRANCH   4   7
TORSDOF 6
ENDMDL
MODEL       88
REMARK 921   NORMALIZED FREE ENERGY PREDICTED BY IDOCK:   -5.40 KCAL/MOL
REMARK 922        TOTAL FREE ENERGY PREDICTED BY IDOCK:   -7.90 KCAL/MOL
REMARK 923 INTER-LIGAND FREE ENERGY PREDICTED BY IDOCK:   -6.57 KCAL/MOL
REMARK 924 INTRA-LIGAND FREE ENERGY PREDICTED BY IDOCK:   -1.33 KCAL/MOL
REMARK 927      BINDING AFFINITY PREDICTED BY RF-SCORE:    0.00 PKD
ROOT
HETATM    1  C   UNL     1     -10.856  19.239  66.977  1.00  0.00    -0.515 C  
HETATM    2  C   UNL     1     -10.117  17.966  66.863  1.00  0.00    -0.348 A  
HETATM    3  C   UNL     1     -10.183  16.838  67.655  1.00  0.00    -0.289 A  
HETATM    4  N   UNL     1      -9.302  15.928  67.115  1.00  0.00    -0.209 NA 
HETATM    5  N   UNL     1      -9.221  17.780  65.849  1.00  0.00    -0.517 NA 
HETATM    6  C   UNL     1      -8.754  16.564  66.019  1.00  0.00    -0.220 A  
ENDROOT
BRANCH   4   7
HETATM    7  C   UNL     1      -9.022  14.613  67.584  1.00  0.00    -0.187 A  
HETATM    8  C   UNL     1      -9.991  13.916  68.316  1.00  0.00    -0.238 A  
HETATM    9  C   UNL     1      -9.748  12.632  68.812  1.00  0.00     0.063 A  
HETATM   10  F   UNL     1      -6.090  10.783  68.045  1.00  0.00    -0.049 F  
HETATM   11  C   UNL     1      -8.536  12.006  68.521  1.00  0.00    -0.093 A  
HETATM   12  F   UNL     1      -5.916  11.943  66.213  1.00  0.00    -0.087 F  
HETATM   13  F   UNL     1      -5.171  12.753  68.089  1.00  0.00    -0.055 F  
HETATM   14  C   UNL     1      -7.539  12.686  67.799  1.00  0.00    -0.141 A  
HETATM   15  C   UNL     1      -6.197  12.045  67.541  1.00  0.00    -0.113 C  
HETATM   16  C   UNL     1      -7.791  13.993  67.338  1.00  0.00    -0.188 A  
BRANCH   9  17
HETATM   17  N   UNL     1     -10.697  11.931  69.583  1.00  0.00    -0.422 N  
HETATM   18  O   UNL     1     -11.841  10.783  67.904  1.00  0.00    -0.553 OA 
HETATM   19  H   UNL     1     -10.706  12.106  70.588  1.00  0.00     0.000 HD 
HETATM   20  C   UNL     1     -11.621  11.023  69.087  1.00  0.00    -0.319 C  
BRANCH  20  21
HETATM   21  C   UNL     1     -12.366  10.250  70.107  1.00  0.00    -0.213 A  
HETATM   22  C   UNL     1     -13.734  10.397  70.319  1.00  0.00     0.950 A  
HETATM   23  C   UNL     1     -14.338   9.695  71.361  1.00  0.00     0.304 A  
HETATM   24  C   UNL     1     -13.581   8.857  72.205  1.00  0.00    -0.502 A  
HETATM   25  C   UNL     1     -12.197   8.692  71.980  1.00  0.00    -0.373 A  
HETATM   26  C   UNL     1     -14.279   8.140  73.329  1.00  0.00     1.165 C  
HETATM   27  C   UNL     1     -11.621   9.372  70.902  1.00  0.00    -0.380 A  
BRANCH  25  28
HETATM   28  N   UNL     1     -11.435   7.823  72.772  1.00  0.00    -0.518 NA 
HETATM   29  H   UNL     1     -11.282   8.144  73.728  1.00  0.00     0.000 HD 
BRANCH  28  30
HETATM   30  C   UNL     1     -10.852   6.595  72.472  1.00  0.00    -0.238 A  
HETATM   31  N   UNL     1     -10.712   5.737  73.492  1.00  0.00    -0.269 NA 
HETATM   32  C   UNL     1     -10.247   4.510  73.192  1.00  0.00    -0.163 A  
HETATM   33  C   UNL     1      -9.957   4.094  71.915  1.00  0.00    -0.253 A  
HETATM   34  C   UNL     1     -10.125   5.036  70.922  1.00  0.00    -0.232 A  
HETATM   35  N   UNL     1     -10.546   6.286  71.206  1.00  0.00    -0.228 NA 
BRANCH  34  36
HETATM   36  C   UNL     1      -9.903   4.768  69.495  1.00  0.00    -0.292 A  
HETATM   37  C   UNL     1      -9.624   3.492  69.004  1.00  0.00    -0.073 A  
HETATM   38  N   UNL     1      -9.440   3.179  67.697  1.00  0.00    -0.199 NA 
HETATM   39  C   UNL     1      -9.551   4.194  66.814  1.00  0.00    -0.208 A  
HETATM   40  C   UNL     1      -9.831   5.499  67.177  1.00  0.00    -0.172 A  
HETATM   41  C   UNL     1     -10.009   5.782  68.530  1.00  0.00    -0.197 A  
ENDBRANCH  34  36
ENDBRANCH  28  30
ENDBRANCH  25  28
ENDBRANCH  20  21
ENDBRANCH   9  17
ENDBRANCH   4   7
TORSDOF 6
ENDMDL
MODEL       89
REMARK 921   NORMALIZED FREE ENERGY PREDICTED BY IDOCK:   -5.30 KCAL/MOL
REMARK 922        TOTAL FREE ENERGY PREDICTED BY IDOCK:   -7.77 KCAL/MOL
REMARK 923 INTER-LIGAND FREE ENERGY PREDICTED BY IDOCK:   -7.18 KCAL/MOL
REMARK 924 INTRA-LIGAND FREE ENERGY PREDICTED BY IDOCK:   -0.59 KCAL/MOL
REMARK 927      BINDING AFFINITY PREDICTED BY RF-SCORE:    0.00 PKD
ROOT
HETATM    1  C   UNL     1      -5.679   2.729  74.529  1.00  0.00    -0.004 C  
HETATM    2  C   UNL     1      -6.155   2.696  73.132  1.00  0.00    -0.008 A  
HETATM    3  C   UNL     1      -6.819   3.665  72.407  1.00  0.00    -0.040 A  
HETATM    4  N   UNL     1      -7.025   3.142  71.150  1.00  0.00    -0.032 NA 
HETATM    5  N   UNL     1      -5.944   1.589  72.359  1.00  0.00    -0.008 NA 
HETATM    6  C   UNL     1      -6.466   1.879  71.190  1.00  0.00    -0.023 A  
ENDROOT
BRANCH   4   7
HETATM    7  C   UNL     1      -7.670   3.769  70.047  1.00  0.00    -0.048 A  
HETATM    8  C   UNL     1      -8.083   5.103  70.152  1.00  0.00    -0.083 A  
HETATM    9  C   UNL     1      -8.738   5.750  69.100  1.00  0.00    -0.113 A  
HETATM   10  F   UNL     1      -9.422   3.707  65.530  1.00  0.00    -0.142 F  
HETATM   11  C   UNL     1      -8.931   5.072  67.897  1.00  0.00    -0.116 A  
HETATM   12  F   UNL     1      -7.670   2.481  65.924  1.00  0.00    -0.074 F  
HETATM   13  F   UNL     1      -9.611   1.883  66.698  1.00  0.00    -0.016 F  
HETATM   14  C   UNL     1      -8.538   3.728  67.766  1.00  0.00    -0.112 A  
HETATM   15  C   UNL     1      -8.808   2.963  66.493  1.00  0.00    -0.146 C  
HETATM   16  C   UNL     1      -7.911   3.083  68.850  1.00  0.00    -0.054 A  
BRANCH   9  17
HETATM   17  N   UNL     1      -9.196   7.079  69.203  1.00  0.00    -0.139 N  
HETATM   18  O   UNL     1     -11.097   6.976  67.855  1.00  0.00    -0.160 OA 
HETATM   19  H   UNL     1      -8.625   7.731  69.741  1.00  0.00     0.000 HD 
HETATM   20  C   UNL     1     -10.360   7.573  68.631  1.00  0.00    -0.200 C  
BRANCH  20  21
HETATM   21  C   UNL     1     -10.747   8.938  69.055  1.00  0.00    -0.148 A  
HETATM   22  C   UNL     1     -10.848   9.316  70.391  1.00  0.00    -0.302 A  
HETATM   23  C   UNL     1     -11.305  10.597  70.700  1.00  0.00    -0.288 A  
HETATM   24  C   UNL     1     -11.677  11.499  69.683  1.00  0.00    -0.419 A  
HETATM   25  C   UNL     1     -11.557  11.124  68.327  1.00  0.00    -0.289 A  
HETATM   26  C   UNL     1     -12.186  12.861  70.072  1.00  0.00    -0.292 C  
HETATM   27  C   UNL     1     -11.055   9.850  68.040  1.00  0.00    -0.220 A  
BRANCH  25  28
HETATM   28  N   UNL     1     -11.870  12.022  67.299  1.00  0.00    -0.598 NA 
HETATM   29  H   UNL     1     -12.467  12.800  67.580  1.00  0.00     0.000 HD 
BRANCH  28  30
HETATM   30  C   UNL     1     -11.503  12.030  65.956  1.00  0.00    -0.338 A  
HETATM   31  N   UNL     1     -12.106  12.940  65.178  1.00  0.00    -0.416 NA 
HETATM   32  C   UNL     1     -11.682  13.026  63.904  1.00  0.00    -0.468 A  
HETATM   33  C   UNL     1     -10.654  12.272  63.389  1.00  0.00    -0.427 A  
HETATM   34  C   UNL     1     -10.086  11.359  64.251  1.00  0.00    -0.297 A  
HETATM   35  N   UNL     1     -10.527  11.224  65.519  1.00  0.00    -0.264 NA 
BRANCH  34  36
HETATM   36  C   UNL     1      -8.954  10.493  63.895  1.00  0.00    -0.232 A  
HETATM   37  C   UNL     1      -8.176  10.704  62.756  1.00  0.00    -0.147 A  
HETATM   38  N   UNL     1      -7.103   9.958  62.393  1.00  0.00    -0.111 NA 
HETATM   39  C   UNL     1      -6.768   8.943  63.218  1.00  0.00    -0.090 A  
HETATM   40  C   UNL     1      -7.457   8.639  64.378  1.00  0.00    -0.108 A  
HETATM   41  C   UNL     1      -8.557   9.425  64.716  1.00  0.00    -0.202 A  
ENDBRANCH  34  36
ENDBRANCH  28  30
ENDBRANCH  25  28
ENDBRANCH  20  21
ENDBRANCH   9  17
ENDBRANCH   4   7
TORSDOF 6
ENDMDL
MODEL       90
REMARK 921   NORMALIZED FREE ENERGY PREDICTED BY IDOCK:   -5.29 KCAL/MOL
REMARK 922        TOTAL FREE ENERGY PREDICTED BY IDOCK:   -7.76 KCAL/MOL
REMARK 923 INTER-LIGAND FREE ENERGY PREDICTED BY IDOCK:   -6.26 KCAL/MOL
REMARK 924 INTRA-LIGAND FREE ENERGY PREDICTED BY IDOCK:   -1.50 KCAL/MOL
REMARK 927      BINDING AFFINITY PREDICTED BY RF-SCORE:    0.00 PKD
ROOT
HETATM    1  C   UNL     1      -9.738   2.010  70.048  1.00  0.00     0.036 C  
HETATM    2  C   UNL     1      -9.245   2.733  68.858  1.00  0.00    -0.161 A  
HETATM    3  C   UNL     1      -8.987   4.078  68.692  1.00  0.00    -0.117 A  
HETATM    4  N   UNL     1      -8.535   4.234  67.401  1.00  0.00    -0.099 NA 
HETATM    5  N   UNL     1      -8.966   2.052  67.707  1.00  0.00    -0.133 NA 
HETATM    6  C   UNL     1      -8.544   2.963  66.860  1.00  0.00    -0.107 A  
ENDROOT
BRANCH   4   7
HETATM    7  C   UNL     1      -8.138   5.444  66.763  1.00  0.00    -0.105 A  
HETATM    8  C   UNL     1      -7.922   6.594  67.532  1.00  0.00    -0.115 A  
HETATM    9  C   UNL     1      -7.552   7.807  66.943  1.00  0.00    -0.099 A  
HETATM   10  F   UNL     1      -7.001   8.010  62.815  1.00  0.00    -0.081 F  
HETATM   11  C   UNL     1      -7.334   7.858  65.567  1.00  0.00    -0.076 A  
HETATM   12  F   UNL     1      -6.469   5.902  62.806  1.00  0.00    -0.024 F  
HETATM   13  F   UNL     1      -8.550   6.500  62.610  1.00  0.00    -0.066 F  
HETATM   14  C   UNL     1      -7.556   6.722  64.768  1.00  0.00    -0.104 A  
HETATM   15  C   UNL     1      -7.394   6.787  63.268  1.00  0.00    -0.076 C  
HETATM   16  C   UNL     1      -7.962   5.519  65.376  1.00  0.00    -0.109 A  
BRANCH   9  17
HETATM   17  N   UNL     1      -7.368   8.984  67.697  1.00  0.00    -0.084 N  
HETATM   18  O   UNL     1      -5.205   8.636  68.500  1.00  0.00    -0.032 OA 
HETATM   19  H   UNL     1      -8.156   9.628  67.760  1.00  0.00     0.000 HD 
HETATM   20  C   UNL     1      -6.202   9.337  68.360  1.00  0.00    -0.053 C  
BRANCH  20  21
HETATM   21  C   UNL     1      -6.170  10.715  68.900  1.00  0.00    -0.044 A  
HETATM   22  C   UNL     1      -5.957  10.996  70.247  1.00  0.00    -0.139 A  
HETATM   23  C   UNL     1      -6.032  12.318  70.684  1.00  0.00     0.042 A  
HETATM   24  C   UNL     1      -6.333  13.362  69.786  1.00  0.00    -0.083 A  
HETATM   25  C   UNL     1      -6.530  13.082  68.417  1.00  0.00    -0.084 A  
HETATM   26  C   UNL     1      -6.423  14.769  70.314  1.00  0.00    -0.145 C  
HETATM   27  C   UNL     1      -6.407  11.754  67.994  1.00  0.00    -0.053 A  
BRANCH  25  28
HETATM   28  N   UNL     1      -6.778  14.110  67.497  1.00  0.00    -0.256 NA 
HETATM   29  H   UNL     1      -5.942  14.510  67.072  1.00  0.00     0.000 HD 
BRANCH  28  30
HETATM   30  C   UNL     1      -7.974  14.676  67.067  1.00  0.00    -0.072 A  
HETATM   31  N   UNL     1      -8.137  15.983  67.312  1.00  0.00    -0.163 NA 
HETATM   32  C   UNL     1      -9.243  16.562  66.807  1.00  0.00    -0.234 A  
HETATM   33  C   UNL     1     -10.167  15.899  66.035  1.00  0.00    -0.353 A  
HETATM   34  C   UNL     1      -9.929  14.557  65.830  1.00  0.00    -0.329 A  
HETATM   35  N   UNL     1      -8.851  13.946  66.366  1.00  0.00     0.002 NA 
BRANCH  34  36
HETATM   36  C   UNL     1     -10.781  13.692  65.004  1.00  0.00    -0.374 A  
HETATM   37  C   UNL     1     -12.087  14.039  64.651  1.00  0.00    -0.440 A  
HETATM   38  N   UNL     1     -12.908  13.297  63.868  1.00  0.00    -0.524 NA 
HETATM   39  C   UNL     1     -12.403  12.141  63.389  1.00  0.00    -0.538 A  
HETATM   40  C   UNL     1     -11.122  11.693  63.662  1.00  0.00    -0.506 A  
HETATM   41  C   UNL     1     -10.309  12.480  64.475  1.00  0.00    -0.362 A  
ENDBRANCH  34  36
ENDBRANCH  28  30
ENDBRANCH  25  28
ENDBRANCH  20  21
ENDBRANCH   9  17
ENDBRANCH   4   7
TORSDOF 6
ENDMDL
MODEL       91
REMARK 921   NORMALIZED FREE ENERGY PREDICTED BY IDOCK:   -5.28 KCAL/MOL
REMARK 922        TOTAL FREE ENERGY PREDICTED BY IDOCK:   -7.74 KCAL/MOL
REMARK 923 INTER-LIGAND FREE ENERGY PREDICTED BY IDOCK:   -6.36 KCAL/MOL
REMARK 924 INTRA-LIGAND FREE ENERGY PREDICTED BY IDOCK:   -1.38 KCAL/MOL
REMARK 927      BINDING AFFINITY PREDICTED BY RF-SCORE:    0.00 PKD
ROOT
HETATM    1  C   UNL     1      -9.552   2.533  70.127  1.00  0.00    -0.085 C  
HETATM    2  C   UNL     1      -9.160   3.212  68.876  1.00  0.00    -0.148 A  
HETATM    3  C   UNL     1      -8.926   4.551  68.640  1.00  0.00    -0.112 A  
HETATM    4  N   UNL     1      -8.579   4.660  67.312  1.00  0.00    -0.104 NA 
HETATM    5  N   UNL     1      -8.970   2.489  67.733  1.00  0.00    -0.137 NA 
HETATM    6  C   UNL     1      -8.623   3.369  66.821  1.00  0.00    -0.114 A  
ENDROOT
BRANCH   4   7
HETATM    7  C   UNL     1      -8.243   5.846  66.600  1.00  0.00    -0.106 A  
HETATM    8  C   UNL     1      -8.016   7.036  67.302  1.00  0.00    -0.111 A  
HETATM    9  C   UNL     1      -7.705   8.227  66.640  1.00  0.00    -0.093 A  
HETATM   10  F   UNL     1      -7.361   8.246  62.484  1.00  0.00    -0.091 F  
HETATM   11  C   UNL     1      -7.556   8.218  65.254  1.00  0.00    -0.094 A  
HETATM   12  F   UNL     1      -6.780   6.152  62.547  1.00  0.00    -0.034 F  
HETATM   13  F   UNL     1      -8.883   6.695  62.427  1.00  0.00     0.015 F  
HETATM   14  C   UNL     1      -7.790   7.041  64.520  1.00  0.00    -0.118 A  
HETATM   15  C   UNL     1      -7.702   7.037  63.013  1.00  0.00    -0.115 C  
HETATM   16  C   UNL     1      -8.137   5.859  65.203  1.00  0.00    -0.131 A  
BRANCH   9  17
HETATM   17  N   UNL     1      -7.512   9.442  67.328  1.00  0.00    -0.091 N  
HETATM   18  O   UNL     1      -5.191   9.431  67.563  1.00  0.00    -0.036 OA 
HETATM   19  H   UNL     1      -8.345   9.970  67.589  1.00  0.00     0.000 HD 
HETATM   20  C   UNL     1      -6.282   9.978  67.679  1.00  0.00    -0.058 C  
BRANCH  20  21
HETATM   21  C   UNL     1      -6.317  11.365  68.200  1.00  0.00    -0.049 A  
HETATM   22  C   UNL     1      -5.387  11.855  69.112  1.00  0.00    -0.051 A  
HETATM   23  C   UNL     1      -5.548  13.145  69.617  1.00  0.00    -0.097 A  
HETATM   24  C   UNL     1      -6.641  13.944  69.229  1.00  0.00    -0.113 A  
HETATM   25  C   UNL     1      -7.575  13.456  68.289  1.00  0.00    -0.135 A  
HETATM   26  C   UNL     1      -6.779  15.320  69.821  1.00  0.00    -0.176 C  
HETATM   27  C   UNL     1      -7.370  12.176  67.763  1.00  0.00    -0.114 A  
BRANCH  25  28
HETATM   28  N   UNL     1      -8.640  14.252  67.848  1.00  0.00    -0.161 NA 
HETATM   29  H   UNL     1      -8.366  15.047  67.271  1.00  0.00     0.000 HD 
BRANCH  28  30
HETATM   30  C   UNL     1     -10.010  14.140  68.067  1.00  0.00    -0.226 A  
HETATM   31  N   UNL     1     -10.697  13.405  67.181  1.00  0.00    -0.263 NA 
HETATM   32  C   UNL     1     -12.002  13.204  67.443  1.00  0.00    -0.327 A  
HETATM   33  C   UNL     1     -12.636  13.670  68.569  1.00  0.00     0.591 A  
HETATM   34  C   UNL     1     -11.862  14.418  69.430  1.00  0.00    -0.325 A  
HETATM   35  N   UNL     1     -10.564  14.671  69.164  1.00  0.00    -0.243 NA 
BRANCH  34  36
HETATM   36  C   UNL     1     -12.351  14.969  70.701  1.00  0.00    -0.404 A  
HETATM   37  C   UNL     1     -13.501  14.493  71.333  1.00  0.00    -0.375 A  
HETATM   38  N   UNL     1     -13.983  14.940  72.520  1.00  0.00    -0.461 NA 
HETATM   39  C   UNL     1     -13.275  15.913  73.129  1.00  0.00    -0.592 A  
HETATM   40  C   UNL     1     -12.117  16.460  72.606  1.00  0.00    -0.554 A  
HETATM   41  C   UNL     1     -11.655  15.979  71.383  1.00  0.00    -0.520 A  
ENDBRANCH  34  36
ENDBRANCH  28  30
ENDBRANCH  25  28
ENDBRANCH  20  21
ENDBRANCH   9  17
ENDBRANCH   4   7
TORSDOF 6
ENDMDL
MODEL       92
REMARK 921   NORMALIZED FREE ENERGY PREDICTED BY IDOCK:   -5.28 KCAL/MOL
REMARK 922        TOTAL FREE ENERGY PREDICTED BY IDOCK:   -7.74 KCAL/MOL
REMARK 923 INTER-LIGAND FREE ENERGY PREDICTED BY IDOCK:   -7.20 KCAL/MOL
REMARK 924 INTRA-LIGAND FREE ENERGY PREDICTED BY IDOCK:   -0.53 KCAL/MOL
REMARK 927      BINDING AFFINITY PREDICTED BY RF-SCORE:    0.00 PKD
ROOT
HETATM    1  C   UNL     1     -12.847  16.877  74.190  1.00  0.00     0.388 C  
HETATM    2  C   UNL     1     -12.466  15.917  73.134  1.00  0.00    -0.497 A  
HETATM    3  C   UNL     1     -12.734  14.567  73.036  1.00  0.00    -0.396 A  
HETATM    4  N   UNL     1     -12.168  14.140  71.856  1.00  0.00    -0.197 NA 
HETATM    5  N   UNL     1     -11.750  16.337  72.049  1.00  0.00    -0.499 NA 
HETATM    6  C   UNL     1     -11.588  15.267  71.306  1.00  0.00    -0.380 A  
ENDROOT
BRANCH   4   7
HETATM    7  C   UNL     1     -12.181  12.822  71.318  1.00  0.00     0.119 A  
HETATM    8  C   UNL     1     -11.772  12.609  69.996  1.00  0.00    -0.289 A  
HETATM    9  C   UNL     1     -11.789  11.335  69.422  1.00  0.00    -0.355 A  
HETATM   10  F   UNL     1     -13.012   8.064  71.702  1.00  0.00    -0.304 F  
HETATM   11  C   UNL     1     -12.165  10.241  70.201  1.00  0.00    -0.251 A  
HETATM   12  F   UNL     1     -12.343   9.095  73.495  1.00  0.00     0.840 F  
HETATM   13  F   UNL     1     -14.364   9.401  72.755  1.00  0.00    -0.388 F  
HETATM   14  C   UNL     1     -12.593  10.426  71.528  1.00  0.00    -0.544 A  
HETATM   15  C   UNL     1     -13.070   9.258  72.357  1.00  0.00    -0.406 C  
HETATM   16  C   UNL     1     -12.601  11.723  72.077  1.00  0.00     0.105 A  
BRANCH   9  17
HETATM   17  N   UNL     1     -11.418  11.108  68.081  1.00  0.00    -0.300 N  
HETATM   18  O   UNL     1     -10.725  13.250  67.468  1.00  0.00    -0.246 OA 
HETATM   19  H   UNL     1     -11.570  10.172  67.704  1.00  0.00     0.000 HD 
HETATM   20  C   UNL     1     -10.862  12.055  67.232  1.00  0.00    -0.246 C  
BRANCH  20  21
HETATM   21  C   UNL     1     -10.353  11.532  65.943  1.00  0.00    -0.293 A  
HETATM   22  C   UNL     1     -10.851  11.943  64.710  1.00  0.00    -0.359 A  
HETATM   23  C   UNL     1     -10.375  11.334  63.549  1.00  0.00    -0.463 A  
HETATM   24  C   UNL     1      -9.416  10.304  63.613  1.00  0.00    -0.348 A  
HETATM   25  C   UNL     1      -8.895   9.899  64.861  1.00  0.00    -0.193 A  
HETATM   26  C   UNL     1      -8.952   9.665  62.332  1.00  0.00    -0.282 C  
HETATM   27  C   UNL     1      -9.355  10.554  66.008  1.00  0.00    -0.215 A  
BRANCH  25  28
HETATM   28  N   UNL     1      -7.901   8.915  64.945  1.00  0.00    -0.115 NA 
HETATM   29  H   UNL     1      -7.113   9.052  64.312  1.00  0.00     0.000 HD 
BRANCH  28  30
HETATM   30  C   UNL     1      -7.810   7.781  65.747  1.00  0.00    -0.104 A  
HETATM   31  N   UNL     1      -7.848   7.983  67.071  1.00  0.00    -0.103 NA 
HETATM   32  C   UNL     1      -7.867   6.887  67.852  1.00  0.00    -0.113 A  
HETATM   33  C   UNL     1      -7.892   5.603  67.364  1.00  0.00    -0.101 A  
HETATM   34  C   UNL     1      -7.850   5.479  65.992  1.00  0.00    -0.104 A  
HETATM   35  N   UNL     1      -7.784   6.563  65.192  1.00  0.00    -0.090 NA 
BRANCH  34  36
HETATM   36  C   UNL     1      -7.907   4.192  65.285  1.00  0.00    -0.086 A  
HETATM   37  C   UNL     1      -7.428   4.027  63.984  1.00  0.00    -0.070 A  
HETATM   38  N   UNL     1      -7.426   2.860  63.294  1.00  0.00    -0.060 NA 
HETATM   39  C   UNL     1      -7.918   1.779  63.936  1.00  0.00    -0.061 A  
HETATM   40  C   UNL     1      -8.414   1.815  65.227  1.00  0.00    -0.099 A  
HETATM   41  C   UNL     1      -8.404   3.034  65.903  1.00  0.00    -0.098 A  
ENDBRANCH  34  36
ENDBRANCH  28  30
ENDBRANCH  25  28
ENDBRANCH  20  21
ENDBRANCH   9  17
ENDBRANCH   4   7
TORSDOF 6
ENDMDL
MODEL       93
REMARK 921   NORMALIZED FREE ENERGY PREDICTED BY IDOCK:   -5.27 KCAL/MOL
REMARK 922        TOTAL FREE ENERGY PREDICTED BY IDOCK:   -7.73 KCAL/MOL
REMARK 923 INTER-LIGAND FREE ENERGY PREDICTED BY IDOCK:   -7.06 KCAL/MOL
REMARK 924 INTRA-LIGAND FREE ENERGY PREDICTED BY IDOCK:   -0.67 KCAL/MOL
REMARK 927      BINDING AFFINITY PREDICTED BY RF-SCORE:    0.00 PKD
ROOT
HETATM    1  C   UNL     1     -10.494   4.684  65.867  1.00  0.00    -0.305 C  
HETATM    2  C   UNL     1      -9.587   5.525  66.674  1.00  0.00    -0.151 A  
HETATM    3  C   UNL     1      -9.738   5.993  67.963  1.00  0.00    -0.119 A  
HETATM    4  N   UNL     1      -8.606   6.721  68.250  1.00  0.00    -0.124 NA 
HETATM    5  N   UNL     1      -8.394   5.942  66.155  1.00  0.00    -0.119 NA 
HETATM    6  C   UNL     1      -7.830   6.647  67.110  1.00  0.00    -0.105 A  
ENDROOT
BRANCH   4   7
HETATM    7  C   UNL     1      -8.298   7.399  69.464  1.00  0.00    -0.132 A  
HETATM    8  C   UNL     1      -7.757   8.690  69.419  1.00  0.00    -0.091 A  
HETATM    9  C   UNL     1      -7.421   9.382  70.586  1.00  0.00    -0.136 A  
HETATM   10  F   UNL     1      -8.107   7.616  74.300  1.00  0.00    -0.166 F  
HETATM   11  C   UNL     1      -7.687   8.800  71.824  1.00  0.00    -0.090 A  
HETATM   12  F   UNL     1      -9.740   6.475  73.429  1.00  0.00    -0.151 F  
HETATM   13  F   UNL     1      -7.713   5.690  73.372  1.00  0.00    -0.093 F  
HETATM   14  C   UNL     1      -8.217   7.500  71.901  1.00  0.00    -0.116 A  
HETATM   15  C   UNL     1      -8.441   6.833  73.236  1.00  0.00    -0.118 C  
HETATM   16  C   UNL     1      -8.517   6.805  70.713  1.00  0.00    -0.133 A  
BRANCH   9  17
HETATM   17  N   UNL     1      -6.840  10.666  70.558  1.00  0.00    -0.138 N  
HETATM   18  O   UNL     1      -7.070  11.184  68.294  1.00  0.00    -0.068 OA 
HETATM   19  H   UNL     1      -6.443  11.020  71.428  1.00  0.00     0.000 HD 
HETATM   20  C   UNL     1      -6.763  11.488  69.442  1.00  0.00    -0.116 C  
BRANCH  20  21
HETATM   21  C   UNL     1      -6.309  12.873  69.702  1.00  0.00    -0.089 A  
HETATM   22  C   UNL     1      -5.639  13.244  70.865  1.00  0.00    -0.195 A  
HETATM   23  C   UNL     1      -5.327  14.588  71.067  1.00  0.00    -0.146 A  
HETATM   24  C   UNL     1      -5.691  15.567  70.121  1.00  0.00    -0.146 A  
HETATM   25  C   UNL     1      -6.353  15.191  68.933  1.00  0.00    -0.090 A  
HETATM   26  C   UNL     1      -5.349  17.006  70.399  1.00  0.00    -0.228 C  
HETATM   27  C   UNL     1      -6.617  13.832  68.731  1.00  0.00    -0.100 A  
BRANCH  25  28
HETATM   28  N   UNL     1      -6.677  16.139  67.954  1.00  0.00    -0.127 NA 
HETATM   29  H   UNL     1      -5.874  16.583  67.509  1.00  0.00     0.000 HD 
BRANCH  28  30
HETATM   30  C   UNL     1      -7.913  16.577  67.487  1.00  0.00    -0.158 A  
HETATM   31  N   UNL     1      -8.098  17.904  67.445  1.00  0.00    -0.209 NA 
HETATM   32  C   UNL     1      -9.248  18.338  66.897  1.00  0.00    -0.282 A  
HETATM   33  C   UNL     1     -10.198  17.507  66.354  1.00  0.00    -0.354 A  
HETATM   34  C   UNL     1      -9.934  16.156  66.438  1.00  0.00    -0.299 A  
HETATM   35  N   UNL     1      -8.810  15.697  67.025  1.00  0.00    -0.209 NA 
BRANCH  34  36
HETATM   36  C   UNL     1     -10.810  15.116  65.882  1.00  0.00    -0.342 A  
HETATM   37  C   UNL     1     -10.699  14.664  64.566  1.00  0.00    -0.131 A  
HETATM   38  N   UNL     1     -11.457  13.687  64.008  1.00  0.00    -0.327 NA 
HETATM   39  C   UNL     1     -12.379  13.110  64.807  1.00  0.00    -0.423 A  
HETATM   40  C   UNL     1     -12.580  13.467  66.128  1.00  0.00    -0.355 A  
HETATM   41  C   UNL     1     -11.785  14.478  66.665  1.00  0.00    -0.384 A  
ENDBRANCH  34  36
ENDBRANCH  28  30
ENDBRANCH  25  28
ENDBRANCH  20  21
ENDBRANCH   9  17
ENDBRANCH   4   7
TORSDOF 6
ENDMDL
MODEL       94
REMARK 921   NORMALIZED FREE ENERGY PREDICTED BY IDOCK:   -5.06 KCAL/MOL
REMARK 922        TOTAL FREE ENERGY PREDICTED BY IDOCK:   -7.45 KCAL/MOL
REMARK 923 INTER-LIGAND FREE ENERGY PREDICTED BY IDOCK:   -7.78 KCAL/MOL
REMARK 924 INTRA-LIGAND FREE ENERGY PREDICTED BY IDOCK:    0.33 KCAL/MOL
REMARK 927      BINDING AFFINITY PREDICTED BY RF-SCORE:    0.00 PKD
ROOT
HETATM    1  C   UNL     1      -9.393   2.156  70.206  1.00  0.00    -0.182 C  
HETATM    2  C   UNL     1      -9.655   3.494  70.773  1.00  0.00    -0.176 A  
HETATM    3  C   UNL     1      -9.974   4.673  70.131  1.00  0.00    -0.233 A  
HETATM    4  N   UNL     1     -10.127   5.625  71.114  1.00  0.00    -0.196 NA 
HETATM    5  N   UNL     1      -9.604   3.690  72.124  1.00  0.00    -0.137 NA 
HETATM    6  C   UNL     1      -9.890   4.959  72.300  1.00  0.00    -0.169 A  
ENDROOT
BRANCH   4   7
HETATM    7  C   UNL     1     -10.461   6.999  70.943  1.00  0.00    -0.214 A  
HETATM    8  C   UNL     1      -9.517   7.881  70.404  1.00  0.00    -0.163 A  
HETATM    9  C   UNL     1      -9.798   9.240  70.239  1.00  0.00    -0.222 A  
HETATM   10  F   UNL     1     -13.551  10.714  71.300  1.00  0.00    -0.324 F  
HETATM   11  C   UNL     1     -11.067   9.718  70.562  1.00  0.00    -0.384 A  
HETATM   12  F   UNL     1     -14.407   8.756  70.896  1.00  0.00    -0.331 F  
HETATM   13  F   UNL     1     -13.614   9.210  72.869  1.00  0.00    -0.480 F  
HETATM   14  C   UNL     1     -12.031   8.859  71.118  1.00  0.00    -0.344 A  
HETATM   15  C   UNL     1     -13.384   9.382  71.538  1.00  0.00    -0.386 C  
HETATM   16  C   UNL     1     -11.717   7.499  71.308  1.00  0.00    -0.312 A  
BRANCH   9  17
HETATM   17  N   UNL     1      -8.845  10.149  69.735  1.00  0.00    -0.351 N  
HETATM   18  O   UNL     1      -8.852   9.556  67.478  1.00  0.00    -0.125 OA 
HETATM   19  H   UNL     1      -8.378  10.759  70.405  1.00  0.00     0.000 HD 
HETATM   20  C   UNL     1      -8.492  10.281  68.399  1.00  0.00    -0.124 C  
BRANCH  20  21
HETATM   21  C   UNL     1      -7.636  11.447  68.080  1.00  0.00    -0.114 A  
HETATM   22  C   UNL     1      -6.468  11.344  67.330  1.00  0.00    -0.098 A  
HETATM   23  C   UNL     1      -5.675  12.478  67.153  1.00  0.00    -0.012 A  
HETATM   24  C   UNL     1      -6.033  13.711  67.734  1.00  0.00    -0.128 A  
HETATM   25  C   UNL     1      -7.227  13.821  68.479  1.00  0.00    -0.108 A  
HETATM   26  C   UNL     1      -5.130  14.898  67.530  1.00  0.00     0.181 C  
HETATM   27  C   UNL     1      -8.028  12.682  68.607  1.00  0.00    -0.030 A  
BRANCH  25  28
HETATM   28  N   UNL     1      -7.630  15.048  69.020  1.00  0.00    -0.147 NA 
HETATM   29  H   UNL     1      -8.548  15.036  69.464  1.00  0.00     0.000 HD 
BRANCH  28  30
HETATM   30  C   UNL     1      -6.987  16.283  69.055  1.00  0.00    -0.188 A  
HETATM   31  N   UNL     1      -6.367  16.600  70.199  1.00  0.00    -0.007 NA 
HETATM   32  C   UNL     1      -5.654  17.742  70.207  1.00  0.00    -0.239 A  
HETATM   33  C   UNL     1      -5.503  18.555  69.109  1.00  0.00    -0.202 A  
HETATM   34  C   UNL     1      -6.172  18.160  67.970  1.00  0.00    -0.176 A  
HETATM   35  N   UNL     1      -6.930  17.044  67.954  1.00  0.00    -0.156 NA 
BRANCH  34  36
HETATM   36  C   UNL     1      -6.101  18.876  66.690  1.00  0.00    -0.182 A  
HETATM   37  C   UNL     1      -5.973  18.218  65.466  1.00  0.00    -0.224 A  
HETATM   38  N   UNL     1      -5.933  18.823  64.252  1.00  0.00    -0.363 NA 
HETATM   39  C   UNL     1      -6.040  20.168  64.246  1.00  0.00    -0.261 A  
HETATM   40  C   UNL     1      -6.178  20.931  65.392  1.00  0.00    -0.259 A  
HETATM   41  C   UNL     1      -6.210  20.274  66.621  1.00  0.00    -0.215 A  
ENDBRANCH  34  36
ENDBRANCH  28  30
ENDBRANCH  25  28
ENDBRANCH  20  21
ENDBRANCH   9  17
ENDBRANCH   4   7
TORSDOF 6
ENDMDL
MODEL       95
REMARK 921   NORMALIZED FREE ENERGY PREDICTED BY IDOCK:   -5.03 KCAL/MOL
REMARK 922        TOTAL FREE ENERGY PREDICTED BY IDOCK:   -7.41 KCAL/MOL
REMARK 923 INTER-LIGAND FREE ENERGY PREDICTED BY IDOCK:   -6.46 KCAL/MOL
REMARK 924 INTRA-LIGAND FREE ENERGY PREDICTED BY IDOCK:   -0.95 KCAL/MOL
REMARK 927      BINDING AFFINITY PREDICTED BY RF-SCORE:    0.00 PKD
ROOT
HETATM    1  C   UNL     1      -5.423   5.245  73.418  1.00  0.00    -0.022 C  
HETATM    2  C   UNL     1      -6.311   5.903  72.439  1.00  0.00    -0.053 A  
HETATM    3  C   UNL     1      -7.585   6.406  72.609  1.00  0.00    -0.103 A  
HETATM    4  N   UNL     1      -7.966   6.925  71.392  1.00  0.00    -0.107 NA 
HETATM    5  N   UNL     1      -5.894   6.095  71.153  1.00  0.00    -0.025 NA 
HETATM    6  C   UNL     1      -6.891   6.705  70.553  1.00  0.00    -0.062 A  
ENDROOT
BRANCH   4   7
HETATM    7  C   UNL     1      -9.201   7.557  71.070  1.00  0.00    -0.152 A  
HETATM    8  C   UNL     1      -9.245   8.510  70.044  1.00  0.00    -0.155 A  
HETATM    9  C   UNL     1     -10.432   9.169  69.711  1.00  0.00    -0.223 A  
HETATM   10  F   UNL     1     -13.950   8.239  71.747  1.00  0.00    -0.359 F  
HETATM   11  C   UNL     1     -11.611   8.827  70.371  1.00  0.00    -0.105 A  
HETATM   12  F   UNL     1     -13.179   6.239  72.116  1.00  0.00    -0.309 F  
HETATM   13  F   UNL     1     -12.737   7.849  73.509  1.00  0.00     0.754 F  
HETATM   14  C   UNL     1     -11.595   7.883  71.414  1.00  0.00    -0.304 A  
HETATM   15  C   UNL     1     -12.852   7.558  72.184  1.00  0.00    -0.103 C  
HETATM   16  C   UNL     1     -10.382   7.255  71.758  1.00  0.00    -0.215 A  
BRANCH   9  17
HETATM   17  N   UNL     1     -10.487  10.159  68.708  1.00  0.00    -0.193 N  
HETATM   18  O   UNL     1     -12.621  11.023  69.086  1.00  0.00    -0.378 OA 
HETATM   19  H   UNL     1      -9.689  10.230  68.076  1.00  0.00     0.000 HD 
HETATM   20  C   UNL     1     -11.537  11.043  68.511  1.00  0.00    -0.310 C  
BRANCH  20  21
HETATM   21  C   UNL     1     -11.279  12.132  67.542  1.00  0.00    -0.357 A  
HETATM   22  C   UNL     1     -11.698  13.444  67.747  1.00  0.00    -0.394 A  
HETATM   23  C   UNL     1     -11.490  14.387  66.741  1.00  0.00    -0.381 A  
HETATM   24  C   UNL     1     -10.879  14.026  65.524  1.00  0.00    -0.311 A  
HETATM   25  C   UNL     1     -10.435  12.701  65.322  1.00  0.00    -0.289 A  
HETATM   26  C   UNL     1     -10.698  15.078  64.464  1.00  0.00    -0.076 C  
HETATM   27  C   UNL     1     -10.615  11.782  66.361  1.00  0.00    -0.293 A  
BRANCH  25  28
HETATM   28  N   UNL     1      -9.777  12.332  64.142  1.00  0.00    -0.544 NA 
HETATM   29  H   UNL     1      -9.766  13.051  63.418  1.00  0.00     0.000 HD 
BRANCH  28  30
HETATM   30  C   UNL     1      -9.136  11.147  63.791  1.00  0.00    -0.071 A  
HETATM   31  N   UNL     1      -8.411  11.172  62.664  1.00  0.00    -0.124 NA 
HETATM   32  C   UNL     1      -7.703  10.065  62.374  1.00  0.00    -0.125 A  
HETATM   33  C   UNL     1      -7.657   8.954  63.181  1.00  0.00    -0.105 A  
HETATM   34  C   UNL     1      -8.431   9.006  64.321  1.00  0.00    -0.170 A  
HETATM   35  N   UNL     1      -9.184  10.087  64.608  1.00  0.00    -0.238 NA 
BRANCH  34  36
HETATM   36  C   UNL     1      -8.483   7.933  65.323  1.00  0.00    -0.119 A  
HETATM   37  C   UNL     1      -7.364   7.174  65.670  1.00  0.00    -0.079 A  
HETATM   38  N   UNL     1      -7.344   6.193  66.607  1.00  0.00    -0.080 NA 
HETATM   39  C   UNL     1      -8.504   5.955  67.254  1.00  0.00    -0.103 A  
HETATM   40  C   UNL     1      -9.677   6.645  67.004  1.00  0.00    -0.197 A  
HETATM   41  C   UNL     1      -9.660   7.642  66.030  1.00  0.00     0.019 A  
ENDBRANCH  34  36
ENDBRANCH  28  30
ENDBRANCH  25  28
ENDBRANCH  20  21
ENDBRANCH   9  17
ENDBRANCH   4   7
TORSDOF 6
ENDMDL
MODEL       96
REMARK 921   NORMALIZED FREE ENERGY PREDICTED BY IDOCK:   -4.99 KCAL/MOL
REMARK 922        TOTAL FREE ENERGY PREDICTED BY IDOCK:   -7.35 KCAL/MOL
REMARK 923 INTER-LIGAND FREE ENERGY PREDICTED BY IDOCK:   -6.09 KCAL/MOL
REMARK 924 INTRA-LIGAND FREE ENERGY PREDICTED BY IDOCK:   -1.26 KCAL/MOL
REMARK 927      BINDING AFFINITY PREDICTED BY RF-SCORE:    0.00 PKD
ROOT
HETATM    1  C   UNL     1      -6.457  20.607  69.122  1.00  0.00    -0.098 C  
HETATM    2  C   UNL     1      -6.456  19.150  68.886  1.00  0.00    -0.268 A  
HETATM    3  C   UNL     1      -7.504  18.311  68.566  1.00  0.00    -0.288 A  
HETATM    4  N   UNL     1      -6.971  17.048  68.443  1.00  0.00    -0.173 NA 
HETATM    5  N   UNL     1      -5.291  18.441  68.966  1.00  0.00    -0.194 NA 
HETATM    6  C   UNL     1      -5.622  17.199  68.696  1.00  0.00    -0.135 A  
ENDROOT
BRANCH   4   7
HETATM    7  C   UNL     1      -7.662  15.845  68.119  1.00  0.00    -0.132 A  
HETATM    8  C   UNL     1      -7.330  14.656  68.778  1.00  0.00    -0.131 A  
HETATM    9  C   UNL     1      -7.969  13.450  68.475  1.00  0.00    -0.107 A  
HETATM   10  F   UNL     1     -10.988  13.382  65.601  1.00  0.00    -0.280 F  
HETATM   11  C   UNL     1      -9.002  13.442  67.539  1.00  0.00    -0.207 A  
HETATM   12  F   UNL     1     -11.440  15.459  66.061  1.00  0.00    -0.295 F  
HETATM   13  F   UNL     1      -9.936  14.978  64.567  1.00  0.00    -0.221 F  
HETATM   14  C   UNL     1      -9.349  14.618  66.852  1.00  0.00    -0.258 A  
HETATM   15  C   UNL     1     -10.417  14.605  65.785  1.00  0.00    -0.325 C  
HETATM   16  C   UNL     1      -8.670  15.817  67.147  1.00  0.00    -0.228 A  
BRANCH   9  17
HETATM   17  N   UNL     1      -7.620  12.236  69.101  1.00  0.00    -0.333 N  
HETATM   18  O   UNL     1      -5.761  11.625  67.829  1.00  0.00    -0.045 OA 
HETATM   19  H   UNL     1      -8.225  11.905  69.853  1.00  0.00     0.000 HD 
HETATM   20  C   UNL     1      -6.520  11.454  68.777  1.00  0.00    -0.056 C  
BRANCH  20  21
HETATM   21  C   UNL     1      -6.234  10.341  69.711  1.00  0.00    -0.060 A  
HETATM   22  C   UNL     1      -5.746  10.541  71.000  1.00  0.00    -0.041 A  
HETATM   23  C   UNL     1      -5.420   9.432  71.780  1.00  0.00    -0.073 A  
HETATM   24  C   UNL     1      -5.563   8.124  71.277  1.00  0.00    -0.033 A  
HETATM   25  C   UNL     1      -6.075   7.918  69.977  1.00  0.00    -0.026 A  
HETATM   26  C   UNL     1      -5.176   6.963  72.153  1.00  0.00    -0.036 C  
HETATM   27  C   UNL     1      -6.436   9.044  69.229  1.00  0.00    -0.045 A  
BRANCH  25  28
HETATM   28  N   UNL     1      -6.276   6.626  69.475  1.00  0.00    -0.036 NA 
HETATM   29  H   UNL     1      -5.435   6.173  69.120  1.00  0.00     0.000 HD 
BRANCH  28  30
HETATM   30  C   UNL     1      -7.433   5.858  69.380  1.00  0.00    -0.087 A  
HETATM   31  N   UNL     1      -7.788   5.465  68.149  1.00  0.00    -0.091 NA 
HETATM   32  C   UNL     1      -8.843   4.635  68.058  1.00  0.00    -0.106 A  
HETATM   33  C   UNL     1      -9.529   4.150  69.145  1.00  0.00    -0.248 A  
HETATM   34  C   UNL     1      -9.104   4.602  70.376  1.00  0.00    -0.113 A  
HETATM   35  N   UNL     1      -8.078   5.470  70.488  1.00  0.00    -0.102 NA 
BRANCH  34  36
HETATM   36  C   UNL     1      -9.687   4.167  71.653  1.00  0.00    -0.246 A  
HETATM   37  C   UNL     1      -9.187   3.083  72.377  1.00  0.00    -0.098 A  
HETATM   38  N   UNL     1      -9.664   2.656  73.573  1.00  0.00    -0.094 NA 
HETATM   39  C   UNL     1     -10.694   3.353  74.095  1.00  0.00    -0.185 A  
HETATM   40  C   UNL     1     -11.270   4.448  73.476  1.00  0.00    -0.375 A  
HETATM   41  C   UNL     1     -10.757   4.855  72.246  1.00  0.00    -0.218 A  
ENDBRANCH  34  36
ENDBRANCH  28  30
ENDBRANCH  25  28
ENDBRANCH  20  21
ENDBRANCH   9  17
ENDBRANCH   4   7
TORSDOF 6
ENDMDL
MODEL       97
REMARK 921   NORMALIZED FREE ENERGY PREDICTED BY IDOCK:   -4.90 KCAL/MOL
REMARK 922        TOTAL FREE ENERGY PREDICTED BY IDOCK:   -7.23 KCAL/MOL
REMARK 923 INTER-LIGAND FREE ENERGY PREDICTED BY IDOCK:   -6.25 KCAL/MOL
REMARK 924 INTRA-LIGAND FREE ENERGY PREDICTED BY IDOCK:   -0.98 KCAL/MOL
REMARK 927      BINDING AFFINITY PREDICTED BY RF-SCORE:    0.00 PKD
ROOT
HETATM    1  C   UNL     1      -9.878  20.213  69.797  1.00  0.00     0.279 C  
HETATM    2  C   UNL     1      -9.492  18.944  69.149  1.00  0.00    -0.151 A  
HETATM    3  C   UNL     1     -10.258  18.067  68.409  1.00  0.00    -0.391 A  
HETATM    4  N   UNL     1      -9.421  17.044  68.022  1.00  0.00    -0.250 NA 
HETATM    5  N   UNL     1      -8.205  18.493  69.232  1.00  0.00     0.075 NA 
HETATM    6  C   UNL     1      -8.188  17.368  68.554  1.00  0.00    -0.268 A  
ENDROOT
BRANCH   4   7
HETATM    7  C   UNL     1      -9.753  15.903  67.239  1.00  0.00    -0.224 A  
HETATM    8  C   UNL     1      -8.912  14.784  67.253  1.00  0.00    -0.210 A  
HETATM    9  C   UNL     1      -9.190  13.651  66.482  1.00  0.00    -0.179 A  
HETATM   10  F   UNL     1     -12.639  13.548  64.140  1.00  0.00    -0.385 F  
HETATM   11  C   UNL     1     -10.363  13.610  65.730  1.00  0.00    -0.304 A  
HETATM   12  F   UNL     1     -13.597  14.916  65.534  1.00  0.00     0.100 F  
HETATM   13  F   UNL     1     -12.429  15.696  63.873  1.00  0.00    -0.398 F  
HETATM   14  C   UNL     1     -11.221  14.723  65.687  1.00  0.00    -0.343 A  
HETATM   15  C   UNL     1     -12.456  14.716  64.819  1.00  0.00    -0.273 C  
HETATM   16  C   UNL     1     -10.905  15.868  66.443  1.00  0.00    -0.193 A  
BRANCH   9  17
HETATM   17  N   UNL     1      -8.334  12.531  66.454  1.00  0.00    -0.390 N  
HETATM   18  O   UNL     1      -7.829  12.329  68.723  1.00  0.00    -0.093 OA 
HETATM   19  H   UNL     1      -8.109  12.137  65.541  1.00  0.00     0.000 HD 
HETATM   20  C   UNL     1      -7.773  11.922  67.567  1.00  0.00    -0.151 C  
BRANCH  20  21
HETATM   21  C   UNL     1      -7.088  10.635  67.311  1.00  0.00    -0.089 A  
HETATM   22  C   UNL     1      -5.715  10.537  67.100  1.00  0.00    -0.042 A  
HETATM   23  C   UNL     1      -5.166   9.297  66.776  1.00  0.00    -0.038 A  
HETATM   24  C   UNL     1      -5.981   8.155  66.648  1.00  0.00    -0.045 A  
HETATM   25  C   UNL     1      -7.371   8.247  66.880  1.00  0.00    -0.084 A  
HETATM   26  C   UNL     1      -5.340   6.845  66.275  1.00  0.00    -0.022 C  
HETATM   27  C   UNL     1      -7.893   9.493  67.246  1.00  0.00    -0.098 A  
BRANCH  25  28
HETATM   28  N   UNL     1      -8.193   7.116  66.810  1.00  0.00    -0.112 NA 
HETATM   29  H   UNL     1      -8.486   6.861  65.868  1.00  0.00     0.000 HD 
BRANCH  28  30
HETATM   30  C   UNL     1      -8.677   6.280  67.814  1.00  0.00    -0.113 A  
HETATM   31  N   UNL     1      -8.938   5.014  67.460  1.00  0.00    -0.109 NA 
HETATM   32  C   UNL     1      -9.305   4.173  68.445  1.00  0.00    -0.155 A  
HETATM   33  C   UNL     1      -9.380   4.534  69.769  1.00  0.00    -0.223 A  
HETATM   34  C   UNL     1      -9.097   5.853  70.050  1.00  0.00    -0.144 A  
HETATM   35  N   UNL     1      -8.773   6.724  69.073  1.00  0.00    -0.130 NA 
BRANCH  34  36
HETATM   36  C   UNL     1      -9.088   6.416  71.407  1.00  0.00    -0.145 A  
HETATM   37  C   UNL     1     -10.252   6.829  72.058  1.00  0.00    -0.191 A  
HETATM   38  N   UNL     1     -10.308   7.326  73.319  1.00  0.00    -0.305 NA 
HETATM   39  C   UNL     1      -9.139   7.410  73.986  1.00  0.00    -0.243 A  
HETATM   40  C   UNL     1      -7.922   7.026  73.451  1.00  0.00    -0.111 A  
HETATM   41  C   UNL     1      -7.903   6.524  72.152  1.00  0.00    -0.098 A  
ENDBRANCH  34  36
ENDBRANCH  28  30
ENDBRANCH  25  28
ENDBRANCH  20  21
ENDBRANCH   9  17
ENDBRANCH   4   7
TORSDOF 6
ENDMDL
MODEL       98
REMARK 921   NORMALIZED FREE ENERGY PREDICTED BY IDOCK:   -4.88 KCAL/MOL
REMARK 922        TOTAL FREE ENERGY PREDICTED BY IDOCK:   -7.20 KCAL/MOL
REMARK 923 INTER-LIGAND FREE ENERGY PREDICTED BY IDOCK:   -6.13 KCAL/MOL
REMARK 924 INTRA-LIGAND FREE ENERGY PREDICTED BY IDOCK:   -1.07 KCAL/MOL
REMARK 927      BINDING AFFINITY PREDICTED BY RF-SCORE:    0.00 PKD
ROOT
HETATM    1  C   UNL     1      -9.188   1.758  70.701  1.00  0.00    -0.161 C  
HETATM    2  C   UNL     1      -9.676   3.016  71.299  1.00  0.00    -0.138 A  
HETATM    3  C   UNL     1      -9.716   4.287  70.762  1.00  0.00    -0.204 A  
HETATM    4  N   UNL     1     -10.273   5.101  71.722  1.00  0.00    -0.203 NA 
HETATM    5  N   UNL     1     -10.190   3.021  72.565  1.00  0.00    -0.160 NA 
HETATM    6  C   UNL     1     -10.539   4.267  72.791  1.00  0.00    -0.165 A  
ENDROOT
BRANCH   4   7
HETATM    7  C   UNL     1     -10.523   6.500  71.632  1.00  0.00    -0.213 A  
HETATM    8  C   UNL     1      -9.577   7.336  71.026  1.00  0.00    -0.158 A  
HETATM    9  C   UNL     1      -9.774   8.717  70.936  1.00  0.00    -0.204 A  
HETATM   10  F   UNL     1     -13.286  10.399  72.426  1.00  0.00    -0.504 F  
HETATM   11  C   UNL     1     -10.967   9.267  71.404  1.00  0.00    -0.429 A  
HETATM   12  F   UNL     1     -14.317   8.522  72.050  1.00  0.00    -0.425 F  
HETATM   13  F   UNL     1     -13.298   8.843  73.944  1.00  0.00     1.144 F  
HETATM   14  C   UNL     1     -11.929   8.454  72.028  1.00  0.00    -0.419 A  
HETATM   15  C   UNL     1     -13.191   9.051  72.602  1.00  0.00    -0.312 C  
HETATM   16  C   UNL     1     -11.696   7.070  72.140  1.00  0.00    -0.321 A  
BRANCH   9  17
HETATM   17  N   UNL     1      -8.815   9.578  70.365  1.00  0.00    -0.243 N  
HETATM   18  O   UNL     1      -8.131   8.296  68.539  1.00  0.00    -0.120 OA 
HETATM   19  H   UNL     1      -8.617  10.450  70.855  1.00  0.00     0.000 HD 
HETATM   20  C   UNL     1      -8.118   9.335  69.190  1.00  0.00    -0.106 C  
BRANCH  20  21
HETATM   21  C   UNL     1      -7.328  10.476  68.672  1.00  0.00    -0.091 A  
HETATM   22  C   UNL     1      -5.987  10.367  68.316  1.00  0.00    -0.040 A  
HETATM   23  C   UNL     1      -5.295  11.513  67.922  1.00  0.00    -0.046 A  
HETATM   24  C   UNL     1      -5.931  12.770  67.896  1.00  0.00    -0.118 A  
HETATM   25  C   UNL     1      -7.296  12.879  68.239  1.00  0.00    -0.118 A  
HETATM   26  C   UNL     1      -5.133  13.977  67.485  1.00  0.00     0.216 C  
HETATM   27  C   UNL     1      -7.981  11.710  68.589  1.00  0.00    -0.127 A  
BRANCH  25  28
HETATM   28  N   UNL     1      -7.963  14.109  68.169  1.00  0.00    -0.131 NA 
HETATM   29  H   UNL     1      -7.363  14.925  68.284  1.00  0.00     0.000 HD 
BRANCH  28  30
HETATM   30  C   UNL     1      -9.309  14.403  67.969  1.00  0.00    -0.200 A  
HETATM   31  N   UNL     1      -9.890  15.189  68.886  1.00  0.00    -0.221 NA 
HETATM   32  C   UNL     1     -11.160  15.565  68.646  1.00  0.00    -0.297 A  
HETATM   33  C   UNL     1     -11.855  15.224  67.511  1.00  0.00    -0.041 A  
HETATM   34  C   UNL     1     -11.189  14.413  66.617  1.00  0.00    -0.339 A  
HETATM   35  N   UNL     1      -9.933  13.986  66.860  1.00  0.00    -0.257 NA 
BRANCH  34  36
HETATM   36  C   UNL     1     -11.753  13.975  65.333  1.00  0.00    -0.344 A  
HETATM   37  C   UNL     1     -12.114  14.871  64.326  1.00  0.00    -0.353 A  
HETATM   38  N   UNL     1     -12.610  14.525  63.112  1.00  0.00     0.021 NA 
HETATM   39  C   UNL     1     -12.746  13.204  62.872  1.00  0.00     0.784 A  
HETATM   40  C   UNL     1     -12.417  12.220  63.787  1.00  0.00    -0.619 A  
HETATM   41  C   UNL     1     -11.915  12.615  65.026  1.00  0.00    -0.467 A  
ENDBRANCH  34  36
ENDBRANCH  28  30
ENDBRANCH  25  28
ENDBRANCH  20  21
ENDBRANCH   9  17
ENDBRANCH   4   7
TORSDOF 6
ENDMDL
MODEL       99
REMARK 921   NORMALIZED FREE ENERGY PREDICTED BY IDOCK:   -4.82 KCAL/MOL
REMARK 922        TOTAL FREE ENERGY PREDICTED BY IDOCK:   -7.12 KCAL/MOL
REMARK 923 INTER-LIGAND FREE ENERGY PREDICTED BY IDOCK:   -5.69 KCAL/MOL
REMARK 924 INTRA-LIGAND FREE ENERGY PREDICTED BY IDOCK:   -1.43 KCAL/MOL
REMARK 927      BINDING AFFINITY PREDICTED BY RF-SCORE:    0.00 PKD
ROOT
HETATM    1  C   UNL     1      -9.376   3.569  68.126  1.00  0.00    -0.236 C  
HETATM    2  C   UNL     1      -9.043   4.701  67.239  1.00  0.00    -0.123 A  
HETATM    3  C   UNL     1      -9.087   6.057  67.492  1.00  0.00    -0.109 A  
HETATM    4  N   UNL     1      -8.668   6.684  66.340  1.00  0.00    -0.136 NA 
HETATM    5  N   UNL     1      -8.609   4.471  65.965  1.00  0.00    -0.114 NA 
HETATM    6  C   UNL     1      -8.390   5.662  65.454  1.00  0.00    -0.144 A  
ENDROOT
BRANCH   4   7
HETATM    7  C   UNL     1      -8.542   8.084  66.114  1.00  0.00    -0.148 A  
HETATM    8  C   UNL     1      -7.969   8.897  67.100  1.00  0.00    -0.096 A  
HETATM    9  C   UNL     1      -7.846  10.279  66.926  1.00  0.00    -0.112 A  
HETATM   10  F   UNL     1      -9.137  12.033  63.371  1.00  0.00    -0.071 F  
HETATM   11  C   UNL     1      -8.247  10.853  65.721  1.00  0.00    -0.113 A  
HETATM   12  F   UNL     1      -8.743  10.163  62.333  1.00  0.00    -0.151 F  
HETATM   13  F   UNL     1     -10.678  10.503  63.264  1.00  0.00    -0.136 F  
HETATM   14  C   UNL     1      -8.837  10.064  64.718  1.00  0.00    -0.222 A  
HETATM   15  C   UNL     1      -9.340  10.687  63.438  1.00  0.00    -0.297 C  
HETATM   16  C   UNL     1      -8.984   8.679  64.926  1.00  0.00    -0.007 A  
BRANCH   9  17
HETATM   17  N   UNL     1      -7.309  11.118  67.924  1.00  0.00    -0.089 N  
HETATM   18  O   UNL     1      -5.233  11.616  66.981  1.00  0.00    -0.085 OA 
HETATM   19  H   UNL     1      -7.865  11.259  68.767  1.00  0.00     0.000 HD 
HETATM   20  C   UNL     1      -6.084  11.766  67.851  1.00  0.00    -0.050 C  
BRANCH  20  21
HETATM   21  C   UNL     1      -5.828  12.763  68.916  1.00  0.00    -0.071 A  
HETATM   22  C   UNL     1      -5.302  12.424  70.160  1.00  0.00    -0.113 A  
HETATM   23  C   UNL     1      -5.177  13.414  71.135  1.00  0.00    -0.172 A  
HETATM   24  C   UNL     1      -5.589  14.737  70.882  1.00  0.00    -0.140 A  
HETATM   25  C   UNL     1      -6.104  15.087  69.615  1.00  0.00    -0.126 A  
HETATM   26  C   UNL     1      -5.452  15.761  71.976  1.00  0.00     0.458 C  
HETATM   27  C   UNL     1      -6.180  14.088  68.638  1.00  0.00    -0.088 A  
BRANCH  25  28
HETATM   28  N   UNL     1      -6.470  16.407  69.323  1.00  0.00    -0.184 NA 
HETATM   29  H   UNL     1      -5.687  17.054  69.227  1.00  0.00     0.000 HD 
BRANCH  28  30
HETATM   30  C   UNL     1      -7.724  16.985  69.141  1.00  0.00    -0.114 A  
HETATM   31  N   UNL     1      -7.772  18.073  68.361  1.00  0.00    -0.278 NA 
HETATM   32  C   UNL     1      -8.992  18.575  68.094  1.00  0.00    -0.306 A  
HETATM   33  C   UNL     1     -10.163  18.012  68.540  1.00  0.00    -0.392 A  
HETATM   34  C   UNL     1     -10.029  16.896  69.338  1.00  0.00    -0.113 A  
HETATM   35  N   UNL     1      -8.815  16.403  69.656  1.00  0.00     0.182 NA 
BRANCH  34  36
HETATM   36  C   UNL     1     -11.165  16.135  69.877  1.00  0.00    -0.349 A  
HETATM   37  C   UNL     1     -11.703  15.024  69.225  1.00  0.00    -0.323 A  
HETATM   38  N   UNL     1     -12.728  14.266  69.688  1.00  0.00    -0.050 NA 
HETATM   39  C   UNL     1     -13.249  14.622  70.881  1.00  0.00    -0.337 A  
HETATM   40  C   UNL     1     -12.797  15.697  71.624  1.00  0.00    -0.533 A  
HETATM   41  C   UNL     1     -11.745  16.455  71.114  1.00  0.00    -0.203 A  
ENDBRANCH  34  36
ENDBRANCH  28  30
ENDBRANCH  25  28
ENDBRANCH  20  21
ENDBRANCH   9  17
ENDBRANCH   4   7
TORSDOF 6
ENDMDL
MODEL      100
REMARK 921   NORMALIZED FREE ENERGY PREDICTED BY IDOCK:   -4.75 KCAL/MOL
REMARK 922        TOTAL FREE ENERGY PREDICTED BY IDOCK:   -7.02 KCAL/MOL
REMARK 923 INTER-LIGAND FREE ENERGY PREDICTED BY IDOCK:   -5.89 KCAL/MOL
REMARK 924 INTRA-LIGAND FREE ENERGY PREDICTED BY IDOCK:   -1.13 KCAL/MOL
REMARK 927      BINDING AFFINITY PREDICTED BY RF-SCORE:    0.00 PKD
ROOT
HETATM    1  C   UNL     1     -11.125   2.711  73.764  1.00  0.00    -0.306 C  
HETATM    2  C   UNL     1     -10.589   3.825  72.958  1.00  0.00    -0.167 A  
HETATM    3  C   UNL     1      -9.772   3.791  71.846  1.00  0.00    -0.167 A  
HETATM    4  N   UNL     1      -9.573   5.099  71.465  1.00  0.00    -0.151 NA 
HETATM    5  N   UNL     1     -10.900   5.116  73.277  1.00  0.00    -0.268 NA 
HETATM    6  C   UNL     1     -10.288   5.852  72.376  1.00  0.00    -0.197 A  
ENDROOT
BRANCH   4   7
HETATM    7  C   UNL     1      -8.800   5.572  70.367  1.00  0.00    -0.131 A  
HETATM    8  C   UNL     1      -8.228   6.850  70.422  1.00  0.00    -0.124 A  
HETATM    9  C   UNL     1      -7.481   7.360  69.357  1.00  0.00    -0.091 A  
HETATM   10  F   UNL     1      -6.861   5.020  65.962  1.00  0.00    -0.054 F  
HETATM   11  C   UNL     1      -7.248   6.558  68.240  1.00  0.00    -0.085 A  
HETATM   12  F   UNL     1      -7.041   3.234  67.190  1.00  0.00    -0.054 F  
HETATM   13  F   UNL     1      -8.815   4.133  66.310  1.00  0.00    -0.112 F  
HETATM   14  C   UNL     1      -7.819   5.277  68.152  1.00  0.00    -0.088 A  
HETATM   15  C   UNL     1      -7.633   4.429  66.917  1.00  0.00    -0.085 C  
HETATM   16  C   UNL     1      -8.599   4.794  69.221  1.00  0.00    -0.098 A  
BRANCH   9  17
HETATM   17  N   UNL     1      -6.931   8.659  69.378  1.00  0.00    -0.052 N  
HETATM   18  O   UNL     1      -8.285   9.716  67.799  1.00  0.00    -0.112 OA 
HETATM   19  H   UNL     1      -6.118   8.813  69.974  1.00  0.00     0.000 HD 
HETATM   20  C   UNL     1      -7.406   9.742  68.654  1.00  0.00    -0.074 C  
BRANCH  20  21
HETATM   21  C   UNL     1      -6.807  11.052  69.002  1.00  0.00    -0.084 A  
HETATM   22  C   UNL     1      -5.628  11.175  69.732  1.00  0.00    -0.062 A  
HETATM   23  C   UNL     1      -5.184  12.447  70.091  1.00  0.00    -0.101 A  
HETATM   24  C   UNL     1      -5.918  13.597  69.740  1.00  0.00    -0.121 A  
HETATM   25  C   UNL     1      -7.103  13.476  68.983  1.00  0.00    -0.066 A  
HETATM   26  C   UNL     1      -5.404  14.944  70.172  1.00  0.00    -0.113 C  
HETATM   27  C   UNL     1      -7.507  12.193  68.596  1.00  0.00    -0.105 A  
BRANCH  25  28
HETATM   28  N   UNL     1      -7.820  14.608  68.576  1.00  0.00    -0.126 NA 
HETATM   29  H   UNL     1      -7.243  15.418  68.350  1.00  0.00     0.000 HD 
BRANCH  28  30
HETATM   30  C   UNL     1      -9.190  14.813  68.430  1.00  0.00    -0.189 A  
HETATM   31  N   UNL     1      -9.785  15.559  69.370  1.00  0.00    -0.269 NA 
HETATM   32  C   UNL     1     -11.085  15.850  69.181  1.00  0.00    -0.302 A  
HETATM   33  C   UNL     1     -11.801  15.463  68.073  1.00  0.00    -0.128 A  
HETATM   34  C   UNL     1     -11.117  14.698  67.152  1.00  0.00    -0.326 A  
HETATM   35  N   UNL     1      -9.827  14.355  67.345  1.00  0.00    -0.222 NA 
BRANCH  34  36
HETATM   36  C   UNL     1     -11.701  14.223  65.890  1.00  0.00    -0.375 A  
HETATM   37  C   UNL     1     -12.467  15.043  65.060  1.00  0.00     0.055 A  
HETATM   38  N   UNL     1     -13.004  14.670  63.872  1.00  0.00    -0.247 NA 
HETATM   39  C   UNL     1     -12.758  13.406  63.470  1.00  0.00     0.176 A  
HETATM   40  C   UNL     1     -12.009  12.502  64.201  1.00  0.00    -0.508 A  
HETATM   41  C   UNL     1     -11.477  12.919  65.419  1.00  0.00    -0.360 A  
ENDBRANCH  34  36
ENDBRANCH  28  30
ENDBRANCH  25  28
ENDBRANCH  20  21
ENDBRANCH   9  17
ENDBRANCH   4   7
TORSDOF 6
ENDMDL
MODEL      101
REMARK 921   NORMALIZED FREE ENERGY PREDICTED BY IDOCK:   -4.74 KCAL/MOL
REMARK 922        TOTAL FREE ENERGY PREDICTED BY IDOCK:   -7.01 KCAL/MOL
REMARK 923 INTER-LIGAND FREE ENERGY PREDICTED BY IDOCK:   -5.79 KCAL/MOL
REMARK 924 INTRA-LIGAND FREE ENERGY PREDICTED BY IDOCK:   -1.22 KCAL/MOL
REMARK 927      BINDING AFFINITY PREDICTED BY RF-SCORE:    0.00 PKD
ROOT
HETATM    1  C   UNL     1      -9.699   2.051  70.032  1.00  0.00     0.036 C  
HETATM    2  C   UNL     1      -9.283   2.779  68.817  1.00  0.00    -0.169 A  
HETATM    3  C   UNL     1      -9.011   4.122  68.647  1.00  0.00    -0.114 A  
HETATM    4  N   UNL     1      -8.655   4.285  67.327  1.00  0.00    -0.103 NA 
HETATM    5  N   UNL     1      -9.106   2.108  67.640  1.00  0.00    -0.157 NA 
HETATM    6  C   UNL     1      -8.732   3.022  66.774  1.00  0.00    -0.129 A  
ENDROOT
BRANCH   4   7
HETATM    7  C   UNL     1      -8.283   5.495  66.675  1.00  0.00    -0.105 A  
HETATM    8  C   UNL     1      -7.997   6.634  67.437  1.00  0.00    -0.114 A  
HETATM    9  C   UNL     1      -7.649   7.847  66.835  1.00  0.00    -0.099 A  
HETATM   10  F   UNL     1      -7.377   8.084  62.681  1.00  0.00    -0.088 F  
HETATM   11  C   UNL     1      -7.525   7.909  65.448  1.00  0.00    -0.080 A  
HETATM   12  F   UNL     1      -6.881   5.968  62.617  1.00  0.00    -0.036 F  
HETATM   13  F   UNL     1      -8.961   6.599  62.568  1.00  0.00     0.145 F  
HETATM   14  C   UNL     1      -7.819   6.785  64.656  1.00  0.00    -0.116 A  
HETATM   15  C   UNL     1      -7.758   6.862  63.149  1.00  0.00    -0.107 C  
HETATM   16  C   UNL     1      -8.201   5.582  65.279  1.00  0.00    -0.136 A  
BRANCH   9  17
HETATM   17  N   UNL     1      -7.395   9.014  67.585  1.00  0.00    -0.084 N  
HETATM   18  O   UNL     1      -5.149   8.687  68.126  1.00  0.00    -0.033 OA 
HETATM   19  H   UNL     1      -8.180   9.644  67.751  1.00  0.00     0.000 HD 
HETATM   20  C   UNL     1      -6.165   9.374  68.116  1.00  0.00    -0.053 C  
BRANCH  20  21
HETATM   21  C   UNL     1      -6.090  10.743  68.675  1.00  0.00    -0.039 A  
HETATM   22  C   UNL     1      -5.718  11.003  69.991  1.00  0.00    -0.089 A  
HETATM   23  C   UNL     1      -5.761  12.316  70.460  1.00  0.00    -0.161 A  
HETATM   24  C   UNL     1      -6.187  13.370  69.627  1.00  0.00    -0.120 A  
HETATM   25  C   UNL     1      -6.546  13.111  68.287  1.00  0.00    -0.097 A  
HETATM   26  C   UNL     1      -6.235  14.765  70.190  1.00  0.00    -0.166 C  
HETATM   27  C   UNL     1      -6.454  11.793  67.826  1.00  0.00    -0.075 A  
BRANCH  25  28
HETATM   28  N   UNL     1      -6.922  14.149  67.425  1.00  0.00    -0.323 NA 
HETATM   29  H   UNL     1      -6.144  14.624  66.967  1.00  0.00     0.000 HD 
BRANCH  28  30
HETATM   30  C   UNL     1      -8.180  14.642  67.090  1.00  0.00    -0.201 A  
HETATM   31  N   UNL     1      -9.181  13.751  67.060  1.00  0.00    -0.242 NA 
HETATM   32  C   UNL     1     -10.418  14.236  66.841  1.00  0.00    -0.272 A  
HETATM   33  C   UNL     1     -10.699  15.572  66.693  1.00  0.00    -0.306 A  
HETATM   34  C   UNL     1      -9.616  16.424  66.734  1.00  0.00    -0.248 A  
HETATM   35  N   UNL     1      -8.363  15.956  66.906  1.00  0.00    -0.221 NA 
BRANCH  34  36
HETATM   36  C   UNL     1      -9.721  17.886  66.633  1.00  0.00    -0.319 A  
HETATM   37  C   UNL     1     -10.658  18.517  65.814  1.00  0.00    -0.231 A  
HETATM   38  N   UNL     1     -10.822  19.859  65.703  1.00  0.00    -0.343 NA 
HETATM   39  C   UNL     1     -10.014  20.629  66.461  1.00  0.00    -0.031 A  
HETATM   40  C   UNL     1      -9.051  20.121  67.315  1.00  0.00    -0.480 A  
HETATM   41  C   UNL     1      -8.909  18.738  67.399  1.00  0.00    -0.285 A  
ENDBRANCH  34  36
ENDBRANCH  28  30
ENDBRANCH  25  28
ENDBRANCH  20  21
ENDBRANCH   9  17
ENDBRANCH   4   7
TORSDOF 6
ENDMDL
MODEL      102
REMARK 921   NORMALIZED FREE ENERGY PREDICTED BY IDOCK:   -4.67 KCAL/MOL
REMARK 922        TOTAL FREE ENERGY PREDICTED BY IDOCK:   -6.92 KCAL/MOL
REMARK 923 INTER-LIGAND FREE ENERGY PREDICTED BY IDOCK:   -6.65 KCAL/MOL
REMARK 924 INTRA-LIGAND FREE ENERGY PREDICTED BY IDOCK:   -0.27 KCAL/MOL
REMARK 927      BINDING AFFINITY PREDICTED BY RF-SCORE:    0.00 PKD
ROOT
HETATM    1  C   UNL     1      -9.973   1.471  63.386  1.00  0.00    -0.120 C  
HETATM    2  C   UNL     1     -10.252   2.675  64.194  1.00  0.00    -0.022 A  
HETATM    3  C   UNL     1      -9.630   3.127  65.340  1.00  0.00    -0.035 A  
HETATM    4  N   UNL     1     -10.260   4.299  65.691  1.00  0.00    -0.224 NA 
HETATM    5  N   UNL     1     -11.249   3.533  63.827  1.00  0.00    -0.207 NA 
HETATM    6  C   UNL     1     -11.231   4.489  64.728  1.00  0.00     0.338 A  
ENDROOT
BRANCH   4   7
HETATM    7  C   UNL     1      -9.969   5.138  66.805  1.00  0.00    -0.206 A  
HETATM    8  C   UNL     1      -9.527   6.449  66.588  1.00  0.00    -0.191 A  
HETATM    9  C   UNL     1      -9.211   7.298  67.653  1.00  0.00    -0.126 A  
HETATM   10  F   UNL     1      -9.655   5.944  71.572  1.00  0.00    -0.159 F  
HETATM   11  C   UNL     1      -9.396   6.850  68.960  1.00  0.00    -0.135 A  
HETATM   12  F   UNL     1     -11.223   4.594  70.902  1.00  0.00     0.272 F  
HETATM   13  F   UNL     1      -9.145   3.954  70.861  1.00  0.00    -0.126 F  
HETATM   14  C   UNL     1      -9.826   5.535  69.208  1.00  0.00    -0.233 A  
HETATM   15  C   UNL     1      -9.961   5.017  70.620  1.00  0.00    -0.230 C  
HETATM   16  C   UNL     1     -10.107   4.684  68.122  1.00  0.00    -0.072 A  
BRANCH   9  17
HETATM   17  N   UNL     1      -8.728   8.607  67.453  1.00  0.00    -0.133 N  
HETATM   18  O   UNL     1     -10.671   9.838  67.845  1.00  0.00    -0.245 OA 
HETATM   19  H   UNL     1      -7.756   8.709  67.160  1.00  0.00     0.000 HD 
HETATM   20  C   UNL     1      -9.467   9.769  67.623  1.00  0.00    -0.144 C  
BRANCH  20  21
HETATM   21  C   UNL     1      -8.692  11.030  67.569  1.00  0.00    -0.128 A  
HETATM   22  C   UNL     1      -7.449  11.180  68.176  1.00  0.00    -0.093 A  
HETATM   23  C   UNL     1      -6.829  12.429  68.152  1.00  0.00    -0.081 A  
HETATM   24  C   UNL     1      -7.451  13.535  67.538  1.00  0.00    -0.177 A  
HETATM   25  C   UNL     1      -8.703  13.380  66.905  1.00  0.00    -0.142 A  
HETATM   26  C   UNL     1      -6.749  14.866  67.559  1.00  0.00    -0.167 C  
HETATM   27  C   UNL     1      -9.285  12.108  66.904  1.00  0.00    -0.203 A  
BRANCH  25  28
HETATM   28  N   UNL     1      -9.315  14.451  66.242  1.00  0.00    -0.449 NA 
HETATM   29  H   UNL     1      -9.639  14.239  65.298  1.00  0.00     0.000 HD 
BRANCH  28  30
HETATM   30  C   UNL     1      -9.555  15.759  66.655  1.00  0.00    -0.247 A  
HETATM   31  N   UNL     1     -10.704  15.975  67.311  1.00  0.00    -0.313 NA 
HETATM   32  C   UNL     1     -10.896  17.212  67.806  1.00  0.00    -0.270 A  
HETATM   33  C   UNL     1      -9.973  18.225  67.710  1.00  0.00    -0.343 A  
HETATM   34  C   UNL     1      -8.818  17.923  67.020  1.00  0.00    -0.250 A  
HETATM   35  N   UNL     1      -8.625  16.705  66.476  1.00  0.00    -0.257 NA 
BRANCH  34  36
HETATM   36  C   UNL     1      -7.701  18.862  66.846  1.00  0.00    -0.250 A  
HETATM   37  C   UNL     1      -7.637  20.086  67.513  1.00  0.00    -0.292 A  
HETATM   38  N   UNL     1      -6.619  20.978  67.415  1.00  0.00    -0.351 NA 
HETATM   39  C   UNL     1      -5.590  20.632  66.614  1.00  0.00    -0.183 A  
HETATM   40  C   UNL     1      -5.536  19.444  65.906  1.00  0.00    -0.174 A  
HETATM   41  C   UNL     1      -6.602  18.555  66.028  1.00  0.00    -0.284 A  
ENDBRANCH  34  36
ENDBRANCH  28  30
ENDBRANCH  25  28
ENDBRANCH  20  21
ENDBRANCH   9  17
ENDBRANCH   4   7
TORSDOF 6
ENDMDL
MODEL      103
REMARK 921   NORMALIZED FREE ENERGY PREDICTED BY IDOCK:   -4.57 KCAL/MOL
REMARK 922        TOTAL FREE ENERGY PREDICTED BY IDOCK:   -6.78 KCAL/MOL
REMARK 923 INTER-LIGAND FREE ENERGY PREDICTED BY IDOCK:   -6.06 KCAL/MOL
REMARK 924 INTRA-LIGAND FREE ENERGY PREDICTED BY IDOCK:   -0.73 KCAL/MOL
REMARK 927      BINDING AFFINITY PREDICTED BY RF-SCORE:    0.00 PKD
ROOT
HETATM    1  C   UNL     1      -9.189   1.755  70.693  1.00  0.00    -0.161 C  
HETATM    2  C   UNL     1      -9.686   3.028  71.253  1.00  0.00    -0.138 A  
HETATM    3  C   UNL     1      -9.744   4.278  70.673  1.00  0.00    -0.204 A  
HETATM    4  N   UNL     1     -10.302   5.119  71.610  1.00  0.00    -0.211 NA 
HETATM    5  N   UNL     1     -10.190   3.070  72.521  1.00  0.00    -0.160 NA 
HETATM    6  C   UNL     1     -10.551   4.319  72.708  1.00  0.00    -0.165 A  
ENDROOT
BRANCH   4   7
HETATM    7  C   UNL     1     -10.568   6.511  71.474  1.00  0.00    -0.229 A  
HETATM    8  C   UNL     1      -9.619   7.343  70.867  1.00  0.00    -0.166 A  
HETATM    9  C   UNL     1      -9.832   8.718  70.733  1.00  0.00    -0.205 A  
HETATM   10  F   UNL     1     -13.400  10.393  72.093  1.00  0.00    -0.506 F  
HETATM   11  C   UNL     1     -11.042   9.265  71.158  1.00  0.00    -0.411 A  
HETATM   12  F   UNL     1     -14.397   8.492  71.746  1.00  0.00    -0.422 F  
HETATM   13  F   UNL     1     -13.427   8.880  73.654  1.00  0.00     0.330 F  
HETATM   14  C   UNL     1     -12.009   8.457  71.782  1.00  0.00    -0.380 A  
HETATM   15  C   UNL     1     -13.292   9.052  72.310  1.00  0.00    -0.467 C  
HETATM   16  C   UNL     1     -11.761   7.079  71.939  1.00  0.00    -0.333 A  
BRANCH   9  17
HETATM   17  N   UNL     1      -8.871   9.576  70.161  1.00  0.00    -0.220 N  
HETATM   18  O   UNL     1      -7.728   8.073  68.790  1.00  0.00    -0.104 OA 
HETATM   19  H   UNL     1      -8.858  10.544  70.480  1.00  0.00     0.000 HD 
HETATM   20  C   UNL     1      -7.942   9.209  69.198  1.00  0.00    -0.097 C  
BRANCH  20  21
HETATM   21  C   UNL     1      -7.183  10.326  68.589  1.00  0.00    -0.081 A  
HETATM   22  C   UNL     1      -5.799  10.307  68.436  1.00  0.00    -0.040 A  
HETATM   23  C   UNL     1      -5.157  11.439  67.934  1.00  0.00    -0.044 A  
HETATM   24  C   UNL     1      -5.887  12.596  67.597  1.00  0.00    -0.140 A  
HETATM   25  C   UNL     1      -7.292  12.611  67.733  1.00  0.00    -0.128 A  
HETATM   26  C   UNL     1      -5.142  13.797  67.081  1.00  0.00     0.755 C  
HETATM   27  C   UNL     1      -7.919  11.450  68.197  1.00  0.00    -0.133 A  
BRANCH  25  28
HETATM   28  N   UNL     1      -8.043  13.731  67.354  1.00  0.00    -0.201 NA 
HETATM   29  H   UNL     1      -8.117  13.873  66.347  1.00  0.00     0.000 HD 
BRANCH  28  30
HETATM   30  C   UNL     1      -8.705  14.684  68.123  1.00  0.00    -0.168 A  
HETATM   31  N   UNL     1      -8.882  14.388  69.418  1.00  0.00     0.203 NA 
HETATM   32  C   UNL     1      -9.426  15.346  70.191  1.00  0.00     0.277 A  
HETATM   33  C   UNL     1      -9.760  16.597  69.733  1.00  0.00     0.302 A  
HETATM   34  C   UNL     1      -9.549  16.824  68.390  1.00  0.00    -0.241 A  
HETATM   35  N   UNL     1      -9.048  15.862  67.588  1.00  0.00    -0.197 NA 
BRANCH  34  36
HETATM   36  C   UNL     1      -9.809  18.109  67.727  1.00  0.00    -0.314 A  
HETATM   37  C   UNL     1      -9.523  19.336  68.327  1.00  0.00    -0.359 A  
HETATM   38  N   UNL     1      -9.713  20.550  67.753  1.00  0.00    -0.350 NA 
HETATM   39  C   UNL     1     -10.206  20.552  66.497  1.00  0.00    -0.066 A  
HETATM   40  C   UNL     1     -10.522  19.402  65.796  1.00  0.00    -0.478 A  
HETATM   41  C   UNL     1     -10.318  18.173  66.420  1.00  0.00    -0.404 A  
ENDBRANCH  34  36
ENDBRANCH  28  30
ENDBRANCH  25  28
ENDBRANCH  20  21
ENDBRANCH   9  17
ENDBRANCH   4   7
TORSDOF 6
ENDMDL
MODEL      104
REMARK 921   NORMALIZED FREE ENERGY PREDICTED BY IDOCK:   -4.35 KCAL/MOL
REMARK 922        TOTAL FREE ENERGY PREDICTED BY IDOCK:   -6.48 KCAL/MOL
REMARK 923 INTER-LIGAND FREE ENERGY PREDICTED BY IDOCK:   -5.20 KCAL/MOL
REMARK 924 INTRA-LIGAND FREE ENERGY PREDICTED BY IDOCK:   -1.28 KCAL/MOL
REMARK 927      BINDING AFFINITY PREDICTED BY RF-SCORE:    0.00 PKD
ROOT
HETATM    1  C   UNL     1     -10.850   1.861  73.213  1.00  0.00    -0.252 C  
HETATM    2  C   UNL     1     -10.504   2.910  72.233  1.00  0.00     0.044 A  
HETATM    3  C   UNL     1      -9.847   2.801  71.024  1.00  0.00     0.014 A  
HETATM    4  N   UNL     1      -9.788   4.070  70.494  1.00  0.00    -0.187 NA 
HETATM    5  N   UNL     1     -10.852   4.211  72.466  1.00  0.00    -0.032 NA 
HETATM    6  C   UNL     1     -10.419   4.877  71.420  1.00  0.00    -0.100 A  
ENDROOT
BRANCH   4   7
HETATM    7  C   UNL     1      -9.207   4.464  69.255  1.00  0.00    -0.139 A  
HETATM    8  C   UNL     1      -8.590   5.717  69.146  1.00  0.00    -0.105 A  
HETATM    9  C   UNL     1      -8.026   6.151  67.943  1.00  0.00    -0.110 A  
HETATM   10  F   UNL     1      -8.101   3.647  64.610  1.00  0.00    -0.087 F  
HETATM   11  C   UNL     1      -8.023   5.294  66.843  1.00  0.00    -0.101 A  
HETATM   12  F   UNL     1      -8.123   1.923  65.935  1.00  0.00    -0.073 F  
HETATM   13  F   UNL     1      -9.992   2.860  65.338  1.00  0.00    -0.020 F  
HETATM   14  C   UNL     1      -8.646   4.036  66.919  1.00  0.00    -0.105 A  
HETATM   15  C   UNL     1      -8.711   3.130  65.713  1.00  0.00    -0.128 C  
HETATM   16  C   UNL     1      -9.239   3.631  68.131  1.00  0.00    -0.221 A  
BRANCH   9  17
HETATM   17  N   UNL     1      -7.436   7.424  67.805  1.00  0.00    -0.099 N  
HETATM   18  O   UNL     1      -9.081   8.517  66.562  1.00  0.00    -0.154 OA 
HETATM   19  H   UNL     1      -6.501   7.551  68.190  1.00  0.00     0.000 HD 
HETATM   20  C   UNL     1      -8.026   8.517  67.187  1.00  0.00    -0.101 C  
BRANCH  20  21
HETATM   21  C   UNL     1      -7.311   9.804  67.354  1.00  0.00    -0.090 A  
HETATM   22  C   UNL     1      -5.937   9.885  67.559  1.00  0.00    -0.054 A  
HETATM   23  C   UNL     1      -5.360  11.133  67.795  1.00  0.00    -0.040 A  
HETATM   24  C   UNL     1      -6.149  12.299  67.845  1.00  0.00    -0.082 A  
HETATM   25  C   UNL     1      -7.540  12.221  67.618  1.00  0.00    -0.144 A  
HETATM   26  C   UNL     1      -5.479  13.617  68.126  1.00  0.00    -0.114 C  
HETATM   27  C   UNL     1      -8.091  10.965  67.340  1.00  0.00    -0.114 A  
BRANCH  25  28
HETATM   28  N   UNL     1      -8.337  13.373  67.609  1.00  0.00    -0.165 NA 
HETATM   29  H   UNL     1      -7.820  14.246  67.508  1.00  0.00     0.000 HD 
BRANCH  28  30
HETATM   30  C   UNL     1      -9.717  13.525  67.716  1.00  0.00    -0.226 A  
HETATM   31  N   UNL     1     -10.324  14.176  66.714  1.00  0.00    -0.272 NA 
HETATM   32  C   UNL     1     -11.668  14.236  66.756  1.00  0.00    -0.405 A  
HETATM   33  C   UNL     1     -12.429  13.638  67.732  1.00  0.00     0.224 A  
HETATM   34  C   UNL     1     -11.730  12.989  68.728  1.00  0.00    -0.324 A  
HETATM   35  N   UNL     1     -10.381  12.957  68.730  1.00  0.00    -0.179 NA 
BRANCH  34  36
HETATM   36  C   UNL     1     -12.367  12.261  69.833  1.00  0.00    -0.121 A  
HETATM   37  C   UNL     1     -12.322  10.870  69.941  1.00  0.00    -0.285 A  
HETATM   38  N   UNL     1     -12.864  10.147  70.953  1.00  0.00    -0.361 NA 
HETATM   39  C   UNL     1     -13.482  10.844  71.929  1.00  0.00    -0.202 A  
HETATM   40  C   UNL     1     -13.586  12.224  71.936  1.00  0.00    -0.195 A  
HETATM   41  C   UNL     1     -13.021  12.933  70.878  1.00  0.00    -0.101 A  
ENDBRANCH  34  36
ENDBRANCH  28  30
ENDBRANCH  25  28
ENDBRANCH  20  21
ENDBRANCH   9  17
ENDBRANCH   4   7
TORSDOF 6
ENDMDL
MODEL      105
REMARK 921   NORMALIZED FREE ENERGY PREDICTED BY IDOCK:   -4.22 KCAL/MOL
REMARK 922        TOTAL FREE ENERGY PREDICTED BY IDOCK:   -6.31 KCAL/MOL
REMARK 923 INTER-LIGAND FREE ENERGY PREDICTED BY IDOCK:   -6.11 KCAL/MOL
REMARK 924 INTRA-LIGAND FREE ENERGY PREDICTED BY IDOCK:   -0.21 KCAL/MOL
REMARK 927      BINDING AFFINITY PREDICTED BY RF-SCORE:    0.00 PKD
ROOT
HETATM    1  C   UNL     1      -6.798  19.672  68.203  1.00  0.00    -0.314 C  
HETATM    2  C   UNL     1      -7.550  18.435  67.909  1.00  0.00    -0.246 A  
HETATM    3  C   UNL     1      -8.217  17.588  68.770  1.00  0.00    -0.222 A  
HETATM    4  N   UNL     1      -8.761  16.589  67.993  1.00  0.00    -0.186 NA 
HETATM    5  N   UNL     1      -7.665  17.990  66.623  1.00  0.00    -0.225 NA 
HETATM    6  C   UNL     1      -8.389  16.897  66.699  1.00  0.00    -0.253 A  
ENDROOT
BRANCH   4   7
HETATM    7  C   UNL     1      -9.543  15.482  68.430  1.00  0.00    -0.199 A  
HETATM    8  C   UNL     1      -9.267  14.201  67.937  1.00  0.00    -0.196 A  
HETATM    9  C   UNL     1     -10.023  13.091  68.324  1.00  0.00    -0.235 A  
HETATM   10  F   UNL     1     -13.130  13.567  71.064  1.00  0.00    -0.371 F  
HETATM   11  C   UNL     1     -11.037  13.252  69.267  1.00  0.00    -0.208 A  
HETATM   12  F   UNL     1     -12.085  15.273  71.916  1.00  0.00    -0.328 F  
HETATM   13  F   UNL     1     -13.447  15.555  70.244  1.00  0.00    -0.274 F  
HETATM   14  C   UNL     1     -11.345  14.528  69.770  1.00  0.00    -0.305 A  
HETATM   15  C   UNL     1     -12.488  14.724  70.737  1.00  0.00    -0.337 C  
HETATM   16  C   UNL     1     -10.594  15.640  69.342  1.00  0.00    -0.253 A  
BRANCH   9  17
HETATM   17  N   UNL     1      -9.784  11.801  67.808  1.00  0.00    -0.179 N  
HETATM   18  O   UNL     1      -9.528  12.295  65.542  1.00  0.00    -0.154 OA 
HETATM   19  H   UNL     1      -9.827  11.020  68.462  1.00  0.00     0.000 HD 
HETATM   20  C   UNL     1      -9.496  11.509  66.482  1.00  0.00    -0.204 C  
BRANCH  20  21
HETATM   21  C   UNL     1      -9.068  10.116  66.217  1.00  0.00    -0.180 A  
HETATM   22  C   UNL     1      -9.592   9.347  65.182  1.00  0.00    -0.195 A  
HETATM   23  C   UNL     1      -9.196   8.015  65.059  1.00  0.00     0.584 A  
HETATM   24  C   UNL     1      -8.291   7.441  65.975  1.00  0.00    -0.143 A  
HETATM   25  C   UNL     1      -7.744   8.224  67.014  1.00  0.00    -0.096 A  
HETATM   26  C   UNL     1      -7.915   5.993  65.810  1.00  0.00    -0.113 C  
HETATM   27  C   UNL     1      -8.122   9.569  67.091  1.00  0.00    -0.106 A  
BRANCH  25  28
HETATM   28  N   UNL     1      -6.803   7.690  67.903  1.00  0.00    -0.066 NA 
HETATM   29  H   UNL     1      -6.118   8.360  68.250  1.00  0.00     0.000 HD 
BRANCH  28  30
HETATM   30  C   UNL     1      -6.646   6.395  68.392  1.00  0.00    -0.058 A  
HETATM   31  N   UNL     1      -5.518   5.761  68.046  1.00  0.00    -0.008 NA 
HETATM   32  C   UNL     1      -5.308   4.551  68.598  1.00  0.00    -0.011 A  
HETATM   33  C   UNL     1      -6.157   3.972  69.511  1.00  0.00    -0.027 A  
HETATM   34  C   UNL     1      -7.296   4.687  69.813  1.00  0.00    -0.054 A  
HETATM   35  N   UNL     1      -7.548   5.880  69.236  1.00  0.00    -0.087 NA 
BRANCH  34  36
HETATM   36  C   UNL     1      -8.300   4.250  70.792  1.00  0.00    -0.091 A  
HETATM   37  C   UNL     1      -9.115   5.147  71.485  1.00  0.00    -0.144 A  
HETATM   38  N   UNL     1     -10.078   4.801  72.375  1.00  0.00    -0.173 NA 
HETATM   39  C   UNL     1     -10.257   3.480  72.586  1.00  0.00    -0.166 A  
HETATM   40  C   UNL     1      -9.517   2.496  71.955  1.00  0.00    -0.185 A  
HETATM   41  C   UNL     1      -8.534   2.890  71.051  1.00  0.00    -0.096 A  
ENDBRANCH  34  36
ENDBRANCH  28  30
ENDBRANCH  25  28
ENDBRANCH  20  21
ENDBRANCH   9  17
ENDBRANCH   4   7
TORSDOF 6
ENDMDL
MODEL      106
REMARK 921   NORMALIZED FREE ENERGY PREDICTED BY IDOCK:   -4.20 KCAL/MOL
REMARK 922        TOTAL FREE ENERGY PREDICTED BY IDOCK:   -6.29 KCAL/MOL
REMARK 923 INTER-LIGAND FREE ENERGY PREDICTED BY IDOCK:   -5.10 KCAL/MOL
REMARK 924 INTRA-LIGAND FREE ENERGY PREDICTED BY IDOCK:   -1.18 KCAL/MOL
REMARK 927      BINDING AFFINITY PREDICTED BY RF-SCORE:    0.00 PKD
ROOT
HETATM    1  C   UNL     1      -6.145  20.809  71.030  1.00  0.00     0.375 C  
HETATM    2  C   UNL     1      -6.243  19.469  70.418  1.00  0.00    -0.143 A  
HETATM    3  C   UNL     1      -7.304  18.879  69.761  1.00  0.00     0.337 A  
HETATM    4  N   UNL     1      -6.878  17.628  69.374  1.00  0.00    -0.193 NA 
HETATM    5  N   UNL     1      -5.174  18.619  70.449  1.00  0.00    -0.220 NA 
HETATM    6  C   UNL     1      -5.574  17.537  69.822  1.00  0.00    -0.227 A  
ENDROOT
BRANCH   4   7
HETATM    7  C   UNL     1      -7.619  16.644  68.661  1.00  0.00    -0.214 A  
HETATM    8  C   UNL     1      -7.304  15.289  68.819  1.00  0.00    -0.131 A  
HETATM    9  C   UNL     1      -7.994  14.292  68.122  1.00  0.00    -0.140 A  
HETATM   10  F   UNL     1     -11.114  15.348  65.566  1.00  0.00    -0.322 F  
HETATM   11  C   UNL     1      -9.059  14.650  67.297  1.00  0.00    -0.215 A  
HETATM   12  F   UNL     1     -11.479  17.115  66.780  1.00  0.00     0.277 F  
HETATM   13  F   UNL     1     -10.045  17.194  65.147  1.00  0.00    -0.019 F  
HETATM   14  C   UNL     1      -9.390  16.003  67.109  1.00  0.00    -0.222 A  
HETATM   15  C   UNL     1     -10.495  16.406  66.162  1.00  0.00    -0.314 C  
HETATM   16  C   UNL     1      -8.661  16.995  67.794  1.00  0.00    -0.222 A  
BRANCH   9  17
HETATM   17  N   UNL     1      -7.664  12.927  68.239  1.00  0.00    -0.129 N  
HETATM   18  O   UNL     1      -5.532  12.925  67.291  1.00  0.00    -0.321 OA 
HETATM   19  H   UNL     1      -8.376  12.304  68.621  1.00  0.00     0.000 HD 
HETATM   20  C   UNL     1      -6.449  12.361  67.877  1.00  0.00    -0.095 C  
BRANCH  20  21
HETATM   21  C   UNL     1      -6.254  10.953  68.293  1.00  0.00    -0.049 A  
HETATM   22  C   UNL     1      -5.323  10.570  69.255  1.00  0.00    -0.038 A  
HETATM   23  C   UNL     1      -5.144   9.213  69.521  1.00  0.00    -0.035 A  
HETATM   24  C   UNL     1      -5.877   8.234  68.822  1.00  0.00    -0.043 A  
HETATM   25  C   UNL     1      -6.836   8.621  67.861  1.00  0.00    -0.067 A  
HETATM   26  C   UNL     1      -5.629   6.783  69.133  1.00  0.00    -0.017 C  
HETATM   27  C   UNL     1      -7.030   9.989  67.641  1.00  0.00    -0.085 A  
BRANCH  25  28
HETATM   28  N   UNL     1      -7.615   7.668  67.192  1.00  0.00    -0.102 NA 
HETATM   29  H   UNL     1      -7.195   7.298  66.340  1.00  0.00     0.000 HD 
BRANCH  28  30
HETATM   30  C   UNL     1      -8.868   7.142  67.497  1.00  0.00    -0.119 A  
HETATM   31  N   UNL     1      -9.700   6.949  66.465  1.00  0.00    -0.158 NA 
HETATM   32  C   UNL     1     -10.871   6.343  66.735  1.00  0.00    -0.291 A  
HETATM   33  C   UNL     1     -11.225   5.888  67.982  1.00  0.00     0.112 A  
HETATM   34  C   UNL     1     -10.316   6.126  68.991  1.00  0.00    -0.211 A  
HETATM   35  N   UNL     1      -9.157   6.772  68.751  1.00  0.00    -0.133 NA 
BRANCH  34  36
HETATM   36  C   UNL     1     -10.500   5.682  70.379  1.00  0.00    -0.355 A  
HETATM   37  C   UNL     1     -11.420   6.277  71.243  1.00  0.00    -0.291 A  
HETATM   38  N   UNL     1     -11.655   5.891  72.522  1.00  0.00    -0.303 NA 
HETATM   39  C   UNL     1     -10.942   4.839  72.975  1.00  0.00    -0.272 A  
HETATM   40  C   UNL     1     -10.006   4.163  72.212  1.00  0.00    -0.240 A  
HETATM   41  C   UNL     1      -9.789   4.591  70.904  1.00  0.00    -0.269 A  
ENDBRANCH  34  36
ENDBRANCH  28  30
ENDBRANCH  25  28
ENDBRANCH  20  21
ENDBRANCH   9  17
ENDBRANCH   4   7
TORSDOF 6
ENDMDL
MODEL      107
REMARK 921   NORMALIZED FREE ENERGY PREDICTED BY IDOCK:   -4.18 KCAL/MOL
REMARK 922        TOTAL FREE ENERGY PREDICTED BY IDOCK:   -6.25 KCAL/MOL
REMARK 923 INTER-LIGAND FREE ENERGY PREDICTED BY IDOCK:   -5.25 KCAL/MOL
REMARK 924 INTRA-LIGAND FREE ENERGY PREDICTED BY IDOCK:   -1.00 KCAL/MOL
REMARK 927      BINDING AFFINITY PREDICTED BY RF-SCORE:    0.00 PKD
ROOT
HETATM    1  C   UNL     1     -11.122  20.237  65.298  1.00  0.00     0.426 C  
HETATM    2  C   UNL     1     -10.606  18.876  65.547  1.00  0.00    -0.007 A  
HETATM    3  C   UNL     1      -9.584  18.463  66.377  1.00  0.00    -0.310 A  
HETATM    4  N   UNL     1      -9.510  17.093  66.255  1.00  0.00    -0.365 NA 
HETATM    5  N   UNL     1     -11.165  17.803  64.914  1.00  0.00    -0.498 NA 
HETATM    6  C   UNL     1     -10.500  16.758  65.352  1.00  0.00    -0.193 A  
ENDROOT
BRANCH   4   7
HETATM    7  C   UNL     1      -8.609  16.213  66.919  1.00  0.00    -0.221 A  
HETATM    8  C   UNL     1      -8.578  14.858  66.567  1.00  0.00    -0.131 A  
HETATM    9  C   UNL     1      -7.725  13.956  67.209  1.00  0.00    -0.084 A  
HETATM   10  F   UNL     1      -5.147  15.321  70.188  1.00  0.00    -0.095 F  
HETATM   11  C   UNL     1      -6.840  14.426  68.179  1.00  0.00    -0.126 A  
HETATM   12  F   UNL     1      -5.126  17.278  69.240  1.00  0.00    -0.138 F  
HETATM   13  F   UNL     1      -6.654  16.798  70.710  1.00  0.00     0.558 F  
HETATM   14  C   UNL     1      -6.857  15.779  68.561  1.00  0.00    -0.119 A  
HETATM   15  C   UNL     1      -5.955  16.284  69.661  1.00  0.00    -0.176 C  
HETATM   16  C   UNL     1      -7.749  16.665  67.927  1.00  0.00    -0.170 A  
BRANCH   9  17
HETATM   17  N   UNL     1      -7.708  12.582  66.895  1.00  0.00    -0.382 N  
HETATM   18  O   UNL     1      -8.862  11.717  68.729  1.00  0.00    -0.122 OA 
HETATM   19  H   UNL     1      -7.203  12.299  66.055  1.00  0.00     0.000 HD 
HETATM   20  C   UNL     1      -8.323  11.583  67.636  1.00  0.00    -0.135 C  
BRANCH  20  21
HETATM   21  C   UNL     1      -8.358  10.247  66.997  1.00  0.00    -0.126 A  
HETATM   22  C   UNL     1      -8.358  10.067  65.617  1.00  0.00    -0.148 A  
HETATM   23  C   UNL     1      -8.481   8.777  65.101  1.00  0.00    -0.192 A  
HETATM   24  C   UNL     1      -8.620   7.665  65.956  1.00  0.00    -0.165 A  
HETATM   25  C   UNL     1      -8.601   7.843  67.356  1.00  0.00    -0.125 A  
HETATM   26  C   UNL     1      -8.773   6.298  65.347  1.00  0.00    -0.055 C  
HETATM   27  C   UNL     1      -8.432   9.141  67.851  1.00  0.00    -0.117 A  
BRANCH  25  28
HETATM   28  N   UNL     1      -8.684   6.748  68.225  1.00  0.00    -0.123 NA 
HETATM   29  H   UNL     1      -7.977   6.029  68.072  1.00  0.00     0.000 HD 
BRANCH  28  30
HETATM   30  C   UNL     1      -9.571   6.476  69.263  1.00  0.00    -0.139 A  
HETATM   31  N   UNL     1     -10.660   7.253  69.335  1.00  0.00    -0.227 NA 
HETATM   32  C   UNL     1     -11.574   6.930  70.270  1.00  0.00    -0.311 A  
HETATM   33  C   UNL     1     -11.464   5.843  71.103  1.00  0.00    -0.152 A  
HETATM   34  C   UNL     1     -10.314   5.095  70.967  1.00  0.00    -0.208 A  
HETATM   35  N   UNL     1      -9.364   5.427  70.070  1.00  0.00    -0.143 NA 
BRANCH  34  36
HETATM   36  C   UNL     1     -10.035   3.878  71.741  1.00  0.00    -0.234 A  
HETATM   37  C   UNL     1     -10.814   3.485  72.831  1.00  0.00    -0.044 A  
HETATM   38  N   UNL     1     -10.623   2.359  73.563  1.00  0.00    -0.137 NA 
HETATM   39  C   UNL     1      -9.602   1.561  73.185  1.00  0.00    -0.072 A  
HETATM   40  C   UNL     1      -8.765   1.840  72.120  1.00  0.00    -0.087 A  
HETATM   41  C   UNL     1      -8.989   3.008  71.394  1.00  0.00    -0.156 A  
ENDBRANCH  34  36
ENDBRANCH  28  30
ENDBRANCH  25  28
ENDBRANCH  20  21
ENDBRANCH   9  17
ENDBRANCH   4   7
TORSDOF 6
ENDMDL
MODEL      108
REMARK 921   NORMALIZED FREE ENERGY PREDICTED BY IDOCK:   -3.35 KCAL/MOL
REMARK 922        TOTAL FREE ENERGY PREDICTED BY IDOCK:   -5.14 KCAL/MOL
REMARK 923 INTER-LIGAND FREE ENERGY PREDICTED BY IDOCK:   -3.96 KCAL/MOL
REMARK 924 INTRA-LIGAND FREE ENERGY PREDICTED BY IDOCK:   -1.18 KCAL/MOL
REMARK 927      BINDING AFFINITY PREDICTED BY RF-SCORE:    0.00 PKD
ROOT
HETATM    1  C   UNL     1      -5.125   2.047  70.636  1.00  0.00    -0.004 C  
HETATM    2  C   UNL     1      -6.457   2.655  70.448  1.00  0.00    -0.028 A  
HETATM    3  C   UNL     1      -6.919   3.461  69.427  1.00  0.00    -0.041 A  
HETATM    4  N   UNL     1      -8.233   3.749  69.720  1.00  0.00    -0.053 NA 
HETATM    5  N   UNL     1      -7.447   2.438  71.364  1.00  0.00    -0.039 NA 
HETATM    6  C   UNL     1      -8.490   3.094  70.909  1.00  0.00    -0.065 A  
ENDROOT
BRANCH   4   7
HETATM    7  C   UNL     1      -9.134   4.547  68.959  1.00  0.00    -0.122 A  
HETATM    8  C   UNL     1      -9.763   5.646  69.557  1.00  0.00    -0.206 A  
HETATM    9  C   UNL     1     -10.670   6.442  68.852  1.00  0.00    -0.288 A  
HETATM   10  F   UNL     1     -11.483   5.590  64.852  1.00  0.00     1.080 F  
HETATM   11  C   UNL     1     -10.909   6.173  67.505  1.00  0.00    -0.422 A  
HETATM   12  F   UNL     1      -9.499   4.720  64.659  1.00  0.00    -0.157 F  
HETATM   13  F   UNL     1     -11.168   3.489  65.314  1.00  0.00     0.533 F  
HETATM   14  C   UNL     1     -10.303   5.068  66.881  1.00  0.00    -0.267 A  
HETATM   15  C   UNL     1     -10.611   4.725  65.443  1.00  0.00    -0.067 C  
HETATM   16  C   UNL     1      -9.418   4.258  67.619  1.00  0.00    -0.217 A  
BRANCH   9  17
HETATM   17  N   UNL     1     -11.340   7.529  69.449  1.00  0.00    -0.441 N  
HETATM   18  O   UNL     1     -12.017   6.553  71.458  1.00  0.00    -0.326 OA 
HETATM   19  H   UNL     1     -11.418   8.388  68.905  1.00  0.00     0.000 HD 
HETATM   20  C   UNL     1     -11.904   7.524  70.717  1.00  0.00    -0.228 C  
BRANCH  20  21
HETATM   21  C   UNL     1     -12.360   8.841  71.215  1.00  0.00    -0.313 A  
HETATM   22  C   UNL     1     -13.068   8.997  72.404  1.00  0.00    -0.487 A  
HETATM   23  C   UNL     1     -13.537  10.264  72.752  1.00  0.00     0.725 A  
HETATM   24  C   UNL     1     -13.316  11.375  71.913  1.00  0.00    -0.409 A  
HETATM   25  C   UNL     1     -12.582  11.222  70.717  1.00  0.00    -0.332 A  
HETATM   26  C   UNL     1     -13.862  12.715  72.326  1.00  0.00    -0.310 C  
HETATM   27  C   UNL     1     -12.084   9.951  70.410  1.00  0.00    -0.230 A  
BRANCH  25  28
HETATM   28  N   UNL     1     -12.304  12.321  69.894  1.00  0.00    -0.120 NA 
HETATM   29  H   UNL     1     -12.792  13.179  70.152  1.00  0.00     0.000 HD 
BRANCH  28  30
HETATM   30  C   UNL     1     -11.473  12.438  68.783  1.00  0.00    -0.304 A  
HETATM   31  N   UNL     1     -12.070  12.387  67.585  1.00  0.00    -0.449 NA 
HETATM   32  C   UNL     1     -11.291  12.605  66.509  1.00  0.00    -0.326 A  
HETATM   33  C   UNL     1      -9.953  12.912  66.585  1.00  0.00    -0.251 A  
HETATM   34  C   UNL     1      -9.414  12.944  67.853  1.00  0.00    -0.208 A  
HETATM   35  N   UNL     1     -10.166  12.683  68.941  1.00  0.00    -0.063 NA 
BRANCH  34  36
HETATM   36  C   UNL     1      -8.014  13.289  68.137  1.00  0.00    -0.150 A  
HETATM   37  C   UNL     1      -7.511  13.377  69.436  1.00  0.00     0.370 A  
HETATM   38  N   UNL     1      -6.224  13.661  69.759  1.00  0.00    -0.124 NA 
HETATM   39  C   UNL     1      -5.375  13.860  68.729  1.00  0.00    -0.082 A  
HETATM   40  C   UNL     1      -5.753  13.793  67.400  1.00  0.00     0.243 A  
HETATM   41  C   UNL     1      -7.085  13.504  67.108  1.00  0.00     0.218 A  
ENDBRANCH  34  36
ENDBRANCH  28  30
ENDBRANCH  25  28
ENDBRANCH  20  21
ENDBRANCH   9  17
ENDBRANCH   4   7
TORSDOF 6
ENDMDL
MODEL      109
REMARK 921   NORMALIZED FREE ENERGY PREDICTED BY IDOCK:   -3.09 KCAL/MOL
REMARK 922        TOTAL FREE ENERGY PREDICTED BY IDOCK:   -4.78 KCAL/MOL
REMARK 923 INTER-LIGAND FREE ENERGY PREDICTED BY IDOCK:   -3.77 KCAL/MOL
REMARK 924 INTRA-LIGAND FREE ENERGY PREDICTED BY IDOCK:   -1.01 KCAL/MOL
REMARK 927      BINDING AFFINITY PREDICTED BY RF-SCORE:    0.00 PKD
ROOT
HETATM    1  C   UNL     1     -10.726   3.764  63.817  1.00  0.00    -0.246 C  
HETATM    2  C   UNL     1     -10.366   4.395  65.103  1.00  0.00    -0.173 A  
HETATM    3  C   UNL     1      -9.136   4.490  65.721  1.00  0.00    -0.136 A  
HETATM    4  N   UNL     1      -9.339   5.184  66.893  1.00  0.00    -0.124 NA 
HETATM    5  N   UNL     1     -11.324   5.009  65.859  1.00  0.00     0.317 NA 
HETATM    6  C   UNL     1     -10.690   5.471  66.912  1.00  0.00    -0.230 A  
ENDROOT
BRANCH   4   7
HETATM    7  C   UNL     1      -8.365   5.534  67.871  1.00  0.00    -0.099 A  
HETATM    8  C   UNL     1      -8.050   6.881  68.084  1.00  0.00    -0.119 A  
HETATM    9  C   UNL     1      -7.085   7.266  69.020  1.00  0.00    -0.080 A  
HETATM   10  F   UNL     1      -5.139   4.360  71.290  1.00  0.00     0.000 F  
HETATM   11  C   UNL     1      -6.465   6.291  69.800  1.00  0.00    -0.043 A  
HETATM   12  F   UNL     1      -6.886   3.078  71.102  1.00  0.00    -0.029 F  
HETATM   13  F   UNL     1      -5.324   3.017  69.591  1.00  0.00    -0.009 F  
HETATM   14  C   UNL     1      -6.751   4.930  69.599  1.00  0.00    -0.051 A  
HETATM   15  C   UNL     1      -6.033   3.862  70.389  1.00  0.00    -0.018 C  
HETATM   16  C   UNL     1      -7.702   4.560  68.628  1.00  0.00    -0.071 A  
BRANCH   9  17
HETATM   17  N   UNL     1      -6.727   8.615  69.220  1.00  0.00    -0.049 N  
HETATM   18  O   UNL     1      -8.620   9.390  70.342  1.00  0.00    -0.199 OA 
HETATM   19  H   UNL     1      -5.841   8.929  68.824  1.00  0.00     0.000 HD 
HETATM   20  C   UNL     1      -7.483   9.550  69.912  1.00  0.00    -0.113 C  
BRANCH  20  21
HETATM   21  C   UNL     1      -6.808  10.841  70.181  1.00  0.00    -0.074 A  
HETATM   22  C   UNL     1      -6.098  11.094  71.351  1.00  0.00     0.825 A  
HETATM   23  C   UNL     1      -5.569  12.367  71.560  1.00  0.00     0.261 A  
HETATM   24  C   UNL     1      -5.757  13.395  70.615  1.00  0.00    -0.182 A  
HETATM   25  C   UNL     1      -6.461  13.135  69.419  1.00  0.00    -0.095 A  
HETATM   26  C   UNL     1      -5.184  14.757  70.901  1.00  0.00    -0.132 C  
HETATM   27  C   UNL     1      -6.945  11.839  69.210  1.00  0.00    -0.065 A  
BRANCH  25  28
HETATM   28  N   UNL     1      -6.614  14.126  68.441  1.00  0.00    -0.095 NA 
HETATM   29  H   UNL     1      -6.046  13.990  67.605  1.00  0.00     0.000 HD 
BRANCH  28  30
HETATM   30  C   UNL     1      -7.413  15.266  68.419  1.00  0.00    -0.111 A  
HETATM   31  N   UNL     1      -8.587  15.184  69.061  1.00  0.00    -0.206 NA 
HETATM   32  C   UNL     1      -9.318  16.311  69.136  1.00  0.00    -0.236 A  
HETATM   33  C   UNL     1      -8.906  17.522  68.633  1.00  0.00    -0.255 A  
HETATM   34  C   UNL     1      -7.689  17.524  67.986  1.00  0.00    -0.211 A  
HETATM   35  N   UNL     1      -6.962  16.395  67.859  1.00  0.00    -0.133 NA 
BRANCH  34  36
HETATM   36  C   UNL     1      -7.067  18.727  67.418  1.00  0.00    -0.213 A  
HETATM   37  C   UNL     1      -6.776  19.857  68.185  1.00  0.00    -0.278 A  
HETATM   38  N   UNL     1      -6.176  20.982  67.723  1.00  0.00    -0.333 NA 
HETATM   39  C   UNL     1      -5.829  20.988  66.419  1.00  0.00    -0.258 A  
HETATM   40  C   UNL     1      -6.058  19.927  65.560  1.00  0.00    -0.228 A  
HETATM   41  C   UNL     1      -6.681  18.790  66.070  1.00  0.00    -0.278 A  
ENDBRANCH  34  36
ENDBRANCH  28  30
ENDBRANCH  25  28
ENDBRANCH  20  21
ENDBRANCH   9  17
ENDBRANCH   4   7
TORSDOF 6
ENDMDL
MODEL      110
REMARK 921   NORMALIZED FREE ENERGY PREDICTED BY IDOCK:   -3.03 KCAL/MOL
REMARK 922        TOTAL FREE ENERGY PREDICTED BY IDOCK:   -4.70 KCAL/MOL
REMARK 923 INTER-LIGAND FREE ENERGY PREDICTED BY IDOCK:   -4.17 KCAL/MOL
REMARK 924 INTRA-LIGAND FREE ENERGY PREDICTED BY IDOCK:   -0.53 KCAL/MOL
REMARK 927      BINDING AFFINITY PREDICTED BY RF-SCORE:    0.00 PKD
ROOT
HETATM    1  C   UNL     1      -9.528   2.328  64.775  1.00  0.00    -0.076 C  
HETATM    2  C   UNL     1      -9.599   3.621  65.485  1.00  0.00    -0.149 A  
HETATM    3  C   UNL     1      -9.034   4.836  65.156  1.00  0.00    -0.152 A  
HETATM    4  N   UNL     1      -9.412   5.723  66.139  1.00  0.00    -0.151 NA 
HETATM    5  N   UNL     1     -10.315   3.730  66.643  1.00  0.00     0.567 NA 
HETATM    6  C   UNL     1     -10.191   4.985  67.009  1.00  0.00    -0.208 A  
ENDROOT
BRANCH   4   7
HETATM    7  C   UNL     1      -9.077   7.103  66.234  1.00  0.00    -0.147 A  
HETATM    8  C   UNL     1      -9.843   7.949  67.046  1.00  0.00    -0.293 A  
HETATM    9  C   UNL     1      -9.560   9.314  67.151  1.00  0.00    -0.159 A  
HETATM   10  F   UNL     1      -6.321  10.914  65.070  1.00  0.00    -0.074 F  
HETATM   11  C   UNL     1      -8.454   9.834  66.481  1.00  0.00    -0.127 A  
HETATM   12  F   UNL     1      -5.336   8.978  65.163  1.00  0.00    -0.037 F  
HETATM   13  F   UNL     1      -6.684   9.435  63.519  1.00  0.00    -0.090 F  
HETATM   14  C   UNL     1      -7.674   9.013  65.649  1.00  0.00    -0.091 A  
HETATM   15  C   UNL     1      -6.518   9.582  64.862  1.00  0.00    -0.085 C  
HETATM   16  C   UNL     1      -7.996   7.647  65.529  1.00  0.00    -0.120 A  
BRANCH   9  17
HETATM   17  N   UNL     1     -10.345  10.186  67.932  1.00  0.00    -0.181 N  
HETATM   18  O   UNL     1     -11.773   8.658  68.966  1.00  0.00     0.824 OA 
HETATM   19  H   UNL     1     -10.167  11.186  67.839  1.00  0.00     0.000 HD 
HETATM   20  C   UNL     1     -11.339   9.795  68.817  1.00  0.00     0.072 C  
BRANCH  20  21
HETATM   21  C   UNL     1     -11.876  10.868  69.686  1.00  0.00    -0.416 A  
HETATM   22  C   UNL     1     -12.558  10.612  70.872  1.00  0.00    -0.503 A  
HETATM   23  C   UNL     1     -13.107  11.679  71.582  1.00  0.00    -0.456 A  
HETATM   24  C   UNL     1     -12.992  13.001  71.107  1.00  0.00    -0.265 A  
HETATM   25  C   UNL     1     -12.284  13.265  69.915  1.00  0.00    -0.246 A  
HETATM   26  C   UNL     1     -13.622  14.114  71.901  1.00  0.00    -0.504 C  
HETATM   27  C   UNL     1     -11.704  12.184  69.243  1.00  0.00    -0.386 A  
BRANCH  25  28
HETATM   28  N   UNL     1     -12.110  14.576  69.453  1.00  0.00    -0.426 NA 
HETATM   29  H   UNL     1     -12.485  15.297  70.068  1.00  0.00     0.000 HD 
BRANCH  28  30
HETATM   30  C   UNL     1     -11.512  15.059  68.292  1.00  0.00    -0.332 A  
HETATM   31  N   UNL     1     -11.018  16.303  68.349  1.00  0.00    -0.337 NA 
HETATM   32  C   UNL     1     -10.345  16.739  67.268  1.00  0.00    -0.304 A  
HETATM   33  C   UNL     1     -10.111  15.970  66.153  1.00  0.00    -0.346 A  
HETATM   34  C   UNL     1     -10.653  14.703  66.171  1.00  0.00    -0.312 A  
HETATM   35  N   UNL     1     -11.370  14.262  67.225  1.00  0.00    -0.318 NA 
BRANCH  34  36
HETATM   36  C   UNL     1     -10.478  13.723  65.090  1.00  0.00    -0.399 A  
HETATM   37  C   UNL     1     -10.867  13.979  63.774  1.00  0.00     0.930 A  
HETATM   38  N   UNL     1     -10.703  13.127  62.731  1.00  0.00     1.670 NA 
HETATM   39  C   UNL     1     -10.104  11.949  63.003  1.00  0.00    -0.154 A  
HETATM   40  C   UNL     1      -9.669  11.585  64.265  1.00  0.00    -0.229 A  
HETATM   41  C   UNL     1      -9.858  12.484  65.312  1.00  0.00    -0.157 A  
ENDBRANCH  34  36
ENDBRANCH  28  30
ENDBRANCH  25  28
ENDBRANCH  20  21
ENDBRANCH   9  17
ENDBRANCH   4   7
TORSDOF 6
ENDMDL
MODEL      111
REMARK 921   NORMALIZED FREE ENERGY PREDICTED BY IDOCK:   -2.87 KCAL/MOL
REMARK 922        TOTAL FREE ENERGY PREDICTED BY IDOCK:   -4.49 KCAL/MOL
REMARK 923 INTER-LIGAND FREE ENERGY PREDICTED BY IDOCK:   -2.95 KCAL/MOL
REMARK 924 INTRA-LIGAND FREE ENERGY PREDICTED BY IDOCK:   -1.54 KCAL/MOL
REMARK 927      BINDING AFFINITY PREDICTED BY RF-SCORE:    0.00 PKD
ROOT
HETATM    1  C   UNL     1      -5.484  10.712  72.964  1.00  0.00     0.720 C  
HETATM    2  C   UNL     1      -5.871  10.116  71.669  1.00  0.00     0.205 A  
HETATM    3  C   UNL     1      -6.909  10.450  70.824  1.00  0.00     0.313 A  
HETATM    4  N   UNL     1      -6.826   9.599  69.745  1.00  0.00    -0.061 NA 
HETATM    5  N   UNL     1      -5.148   9.082  71.145  1.00  0.00    -0.028 NA 
HETATM    6  C   UNL     1      -5.732   8.796  70.004  1.00  0.00    -0.027 A  
ENDROOT
BRANCH   4   7
HETATM    7  C   UNL     1      -7.680   9.558  68.607  1.00  0.00    -0.081 A  
HETATM    8  C   UNL     1      -7.815   8.367  67.884  1.00  0.00    -0.107 A  
HETATM    9  C   UNL     1      -8.627   8.290  66.748  1.00  0.00    -0.127 A  
HETATM   10  F   UNL     1     -10.763  11.650  65.510  1.00  0.00    -0.294 F  
HETATM   11  C   UNL     1      -9.366   9.408  66.361  1.00  0.00    -0.241 A  
HETATM   12  F   UNL     1     -10.807  12.351  67.568  1.00  0.00    -0.224 F  
HETATM   13  F   UNL     1      -9.137  12.873  66.277  1.00  0.00    -0.218 F  
HETATM   14  C   UNL     1      -9.240  10.621  67.061  1.00  0.00    -0.167 A  
HETATM   15  C   UNL     1      -9.981  11.856  66.607  1.00  0.00    -0.199 C  
HETATM   16  C   UNL     1      -8.391  10.687  68.182  1.00  0.00    -0.121 A  
BRANCH   9  17
HETATM   17  N   UNL     1      -8.744   7.110  65.985  1.00  0.00    -0.151 N  
HETATM   18  O   UNL     1      -7.738   7.794  63.994  1.00  0.00    -0.113 OA 
HETATM   19  H   UNL     1      -9.238   6.325  66.410  1.00  0.00     0.000 HD 
HETATM   20  C   UNL     1      -8.242   6.931  64.704  1.00  0.00    -0.025 C  
BRANCH  20  21
HETATM   21  C   UNL     1      -8.294   5.543  64.190  1.00  0.00    -0.102 A  
HETATM   22  C   UNL     1      -8.279   5.238  62.831  1.00  0.00    -0.106 A  
HETATM   23  C   UNL     1      -8.421   3.909  62.434  1.00  0.00    -0.077 A  
HETATM   24  C   UNL     1      -8.592   2.883  63.384  1.00  0.00    -0.086 A  
HETATM   25  C   UNL     1      -8.588   3.187  64.762  1.00  0.00    -0.100 A  
HETATM   26  C   UNL     1      -8.763   1.468  62.900  1.00  0.00    -0.068 C  
HETATM   27  C   UNL     1      -8.401   4.522  65.139  1.00  0.00    -0.122 A  
BRANCH  25  28
HETATM   28  N   UNL     1      -8.703   2.177  65.726  1.00  0.00    -0.115 NA 
HETATM   29  H   UNL     1      -9.367   1.440  65.492  1.00  0.00     0.000 HD 
BRANCH  28  30
HETATM   30  C   UNL     1      -8.062   2.012  66.951  1.00  0.00    -0.077 A  
HETATM   31  N   UNL     1      -6.785   1.607  66.906  1.00  0.00    -0.034 NA 
HETATM   32  C   UNL     1      -6.126   1.546  68.078  1.00  0.00    -0.024 A  
HETATM   33  C   UNL     1      -6.676   1.913  69.283  1.00  0.00    -0.029 A  
HETATM   34  C   UNL     1      -7.994   2.317  69.246  1.00  0.00    -0.045 A  
HETATM   35  N   UNL     1      -8.687   2.341  68.089  1.00  0.00    -0.084 NA 
BRANCH  34  36
HETATM   36  C   UNL     1      -8.740   2.781  70.423  1.00  0.00    -0.128 A  
HETATM   37  C   UNL     1      -8.907   1.996  71.564  1.00  0.00    -0.066 A  
HETATM   38  N   UNL     1      -9.558   2.382  72.690  1.00  0.00    -0.094 NA 
HETATM   39  C   UNL     1     -10.068   3.631  72.693  1.00  0.00    -0.164 A  
HETATM   40  C   UNL     1      -9.961   4.505  71.626  1.00  0.00    -0.266 A  
HETATM   41  C   UNL     1      -9.289   4.072  70.485  1.00  0.00    -0.220 A  
ENDBRANCH  34  36
ENDBRANCH  28  30
ENDBRANCH  25  28
ENDBRANCH  20  21
ENDBRANCH   9  17
ENDBRANCH   4   7
TORSDOF 6
ENDMDL
MODEL      112
REMARK 921   NORMALIZED FREE ENERGY PREDICTED BY IDOCK:   -2.61 KCAL/MOL
REMARK 922        TOTAL FREE ENERGY PREDICTED BY IDOCK:   -4.13 KCAL/MOL
REMARK 923 INTER-LIGAND FREE ENERGY PREDICTED BY IDOCK:   -3.16 KCAL/MOL
REMARK 924 INTRA-LIGAND FREE ENERGY PREDICTED BY IDOCK:   -0.97 KCAL/MOL
REMARK 927      BINDING AFFINITY PREDICTED BY RF-SCORE:    0.00 PKD
ROOT
HETATM    1  C   UNL     1     -11.185  20.372  64.987  1.00  0.00     0.981 C  
HETATM    2  C   UNL     1     -10.503  19.151  65.461  1.00  0.00    -0.016 A  
HETATM    3  C   UNL     1      -9.488  19.015  66.386  1.00  0.00    -0.347 A  
HETATM    4  N   UNL     1      -9.219  17.668  66.478  1.00  0.00    -0.270 NA 
HETATM    5  N   UNL     1     -10.870  17.927  64.977  1.00  0.00    -0.646 NA 
HETATM    6  C   UNL     1     -10.096  17.065  65.597  1.00  0.00    -0.112 A  
ENDROOT
BRANCH   4   7
HETATM    7  C   UNL     1      -8.250  17.033  67.305  1.00  0.00    -0.186 A  
HETATM    8  C   UNL     1      -7.881  15.707  67.049  1.00  0.00    -0.266 A  
HETATM    9  C   UNL     1      -6.949  15.040  67.850  1.00  0.00    -0.156 A  
HETATM   10  F   UNL     1      -5.155  17.050  71.033  1.00  0.00    -0.218 F  
HETATM   11  C   UNL     1      -6.327  15.730  68.890  1.00  0.00    -0.116 A  
HETATM   12  F   UNL     1      -5.426  18.927  69.969  1.00  0.00    -0.193 F  
HETATM   13  F   UNL     1      -7.002  18.174  71.265  1.00  0.00     2.185 F  
HETATM   14  C   UNL     1      -6.686  17.058  69.179  1.00  0.00    -0.241 A  
HETATM   15  C   UNL     1      -6.071  17.790  70.347  1.00  0.00     0.216 C  
HETATM   16  C   UNL     1      -7.653  17.701  68.381  1.00  0.00    -0.260 A  
BRANCH   9  17
HETATM   17  N   UNL     1      -6.595  13.693  67.631  1.00  0.00    -0.169 N  
HETATM   18  O   UNL     1      -6.715  12.866  69.809  1.00  0.00     0.003 OA 
HETATM   19  H   UNL     1      -6.341  13.424  66.680  1.00  0.00     0.000 HD 
HETATM   20  C   UNL     1      -6.565  12.704  68.603  1.00  0.00    -0.083 C  
BRANCH  20  21
HETATM   21  C   UNL     1      -6.378  11.324  68.100  1.00  0.00    -0.052 A  
HETATM   22  C   UNL     1      -6.157  11.031  66.757  1.00  0.00    -0.104 A  
HETATM   23  C   UNL     1      -6.080   9.696  66.359  1.00  0.00    -0.060 A  
HETATM   24  C   UNL     1      -6.239   8.651  67.291  1.00  0.00    -0.056 A  
HETATM   25  C   UNL     1      -6.444   8.946  68.656  1.00  0.00    -0.054 A  
HETATM   26  C   UNL     1      -6.169   7.229  66.804  1.00  0.00    -0.043 C  
HETATM   27  C   UNL     1      -6.473  10.291  69.040  1.00  0.00    -0.045 A  
BRANCH  25  28
HETATM   28  N   UNL     1      -6.550   7.925  69.608  1.00  0.00    -0.037 NA 
HETATM   29  H   UNL     1      -5.698   7.380  69.745  1.00  0.00     0.000 HD 
BRANCH  28  30
HETATM   30  C   UNL     1      -7.625   7.527  70.399  1.00  0.00    -0.090 A  
HETATM   31  N   UNL     1      -7.447   6.421  71.134  1.00  0.00    -0.084 NA 
HETATM   32  C   UNL     1      -8.439   6.089  71.981  1.00  0.00    -0.121 A  
HETATM   33  C   UNL     1      -9.579   6.838  72.152  1.00  0.00    -0.152 A  
HETATM   34  C   UNL     1      -9.687   7.960  71.359  1.00  0.00    -0.164 A  
HETATM   35  N   UNL     1      -8.726   8.286  70.471  1.00  0.00    -0.136 NA 
BRANCH  34  36
HETATM   36  C   UNL     1     -10.812   8.903  71.426  1.00  0.00    -0.378 A  
HETATM   37  C   UNL     1     -11.772   8.857  72.438  1.00  0.00    -0.196 A  
HETATM   38  N   UNL     1     -12.812   9.718  72.568  1.00  0.00    -0.172 NA 
HETATM   39  C   UNL     1     -12.904  10.697  71.644  1.00  0.00    -0.465 A  
HETATM   40  C   UNL     1     -12.010  10.850  70.599  1.00  0.00    -0.467 A  
HETATM   41  C   UNL     1     -10.957   9.944  70.495  1.00  0.00    -0.391 A  
ENDBRANCH  34  36
ENDBRANCH  28  30
ENDBRANCH  25  28
ENDBRANCH  20  21
ENDBRANCH   9  17
ENDBRANCH   4   7
TORSDOF 6
ENDMDL
MODEL      113
REMARK 921   NORMALIZED FREE ENERGY PREDICTED BY IDOCK:   -2.34 KCAL/MOL
REMARK 922        TOTAL FREE ENERGY PREDICTED BY IDOCK:   -3.77 KCAL/MOL
REMARK 923 INTER-LIGAND FREE ENERGY PREDICTED BY IDOCK:   -2.14 KCAL/MOL
REMARK 924 INTRA-LIGAND FREE ENERGY PREDICTED BY IDOCK:   -1.63 KCAL/MOL
REMARK 927      BINDING AFFINITY PREDICTED BY RF-SCORE:    0.00 PKD
ROOT
HETATM    1  C   UNL     1      -7.843  16.439  68.582  1.00  0.00    -0.211 C  
HETATM    2  C   UNL     1      -8.194  15.028  68.839  1.00  0.00    -0.178 A  
HETATM    3  C   UNL     1      -7.431  13.890  68.676  1.00  0.00    -0.122 A  
HETATM    4  N   UNL     1      -8.220  12.831  69.066  1.00  0.00     0.274 NA 
HETATM    5  N   UNL     1      -9.432  14.704  69.318  1.00  0.00    -0.065 NA 
HETATM    6  C   UNL     1      -9.421  13.397  69.447  1.00  0.00     0.955 A  
ENDROOT
BRANCH   4   7
HETATM    7  C   UNL     1      -7.870  11.450  69.079  1.00  0.00    -0.043 A  
HETATM    8  C   UNL     1      -8.132  10.658  67.955  1.00  0.00    -0.111 A  
HETATM    9  C   UNL     1      -7.824   9.295  67.934  1.00  0.00    -0.092 A  
HETATM   10  F   UNL     1      -6.016   7.539  71.257  1.00  0.00    -0.035 F  
HETATM   11  C   UNL     1      -7.187   8.723  69.035  1.00  0.00    -0.072 A  
HETATM   12  F   UNL     1      -5.128   9.460  71.758  1.00  0.00    -0.039 F  
HETATM   13  F   UNL     1      -7.107   8.950  72.500  1.00  0.00    -0.083 F  
HETATM   14  C   UNL     1      -6.924   9.491  70.183  1.00  0.00    -0.092 A  
HETATM   15  C   UNL     1      -6.300   8.864  71.407  1.00  0.00    -0.073 C  
HETATM   16  C   UNL     1      -7.273  10.855  70.197  1.00  0.00     0.292 A  
BRANCH   9  17
HETATM   17  N   UNL     1      -8.115   8.474  66.825  1.00  0.00    -0.097 N  
HETATM   18  O   UNL     1      -6.110   8.634  65.644  1.00  0.00    -0.051 OA 
HETATM   19  H   UNL     1      -9.055   8.082  66.767  1.00  0.00     0.000 HD 
HETATM   20  C   UNL     1      -7.228   8.158  65.807  1.00  0.00    -0.068 C  
BRANCH  20  21
HETATM   21  C   UNL     1      -7.685   7.108  64.868  1.00  0.00    -0.117 A  
HETATM   22  C   UNL     1      -7.800   7.316  63.497  1.00  0.00    -0.108 A  
HETATM   23  C   UNL     1      -8.323   6.299  62.699  1.00  0.00     0.003 A  
HETATM   24  C   UNL     1      -8.749   5.080  63.263  1.00  0.00    -0.080 A  
HETATM   25  C   UNL     1      -8.616   4.860  64.651  1.00  0.00    -0.149 A  
HETATM   26  C   UNL     1      -9.327   4.025  62.360  1.00  0.00    -0.114 C  
HETATM   27  C   UNL     1      -8.048   5.877  65.426  1.00  0.00    -0.130 A  
BRANCH  25  28
HETATM   28  N   UNL     1      -8.982   3.637  65.227  1.00  0.00    -0.129 NA 
HETATM   29  H   UNL     1      -9.717   3.135  64.729  1.00  0.00     0.000 HD 
BRANCH  28  30
HETATM   30  C   UNL     1      -8.511   2.992  66.368  1.00  0.00    -0.107 A  
HETATM   31  N   UNL     1      -7.397   2.261  66.222  1.00  0.00    -0.064 NA 
HETATM   32  C   UNL     1      -6.876   1.721  67.339  1.00  0.00    -0.038 A  
HETATM   33  C   UNL     1      -7.397   1.914  68.596  1.00  0.00    -0.043 A  
HETATM   34  C   UNL     1      -8.543   2.677  68.662  1.00  0.00    -0.075 A  
HETATM   35  N   UNL     1      -9.109   3.189  67.550  1.00  0.00    -0.161 NA 
BRANCH  34  36
HETATM   36  C   UNL     1      -9.223   3.024  69.917  1.00  0.00    -0.225 A  
HETATM   37  C   UNL     1      -9.295   2.147  71.000  1.00  0.00    -0.133 A  
HETATM   38  N   UNL     1      -9.881   2.423  72.192  1.00  0.00    -0.142 NA 
HETATM   39  C   UNL     1     -10.421   3.652  72.327  1.00  0.00    -0.000 A  
HETATM   40  C   UNL     1     -10.407   4.610  71.329  1.00  0.00    -0.148 A  
HETATM   41  C   UNL     1      -9.800   4.288  70.117  1.00  0.00    -0.271 A  
ENDBRANCH  34  36
ENDBRANCH  28  30
ENDBRANCH  25  28
ENDBRANCH  20  21
ENDBRANCH   9  17
ENDBRANCH   4   7
TORSDOF 6
ENDMDL
MODEL      114
REMARK 921   NORMALIZED FREE ENERGY PREDICTED BY IDOCK:   -2.17 KCAL/MOL
REMARK 922        TOTAL FREE ENERGY PREDICTED BY IDOCK:   -3.53 KCAL/MOL
REMARK 923 INTER-LIGAND FREE ENERGY PREDICTED BY IDOCK:   -2.34 KCAL/MOL
REMARK 924 INTRA-LIGAND FREE ENERGY PREDICTED BY IDOCK:   -1.19 KCAL/MOL
REMARK 927      BINDING AFFINITY PREDICTED BY RF-SCORE:    0.00 PKD
ROOT
HETATM    1  C   UNL     1      -7.233  15.749  66.729  1.00  0.00    -0.002 C  
HETATM    2  C   UNL     1      -8.215  15.254  67.714  1.00  0.00    -0.147 A  
HETATM    3  C   UNL     1      -8.658  13.967  67.940  1.00  0.00    -0.180 A  
HETATM    4  N   UNL     1      -9.564  14.041  68.975  1.00  0.00     0.001 NA 
HETATM    5  N   UNL     1      -8.820  16.122  68.578  1.00  0.00    -0.191 NA 
HETATM    6  C   UNL     1      -9.612  15.379  69.316  1.00  0.00    -0.268 A  
ENDROOT
BRANCH   4   7
HETATM    7  C   UNL     1     -10.289  12.969  69.569  1.00  0.00     0.664 A  
HETATM    8  C   UNL     1      -9.847  11.652  69.394  1.00  0.00     0.452 A  
HETATM    9  C   UNL     1     -10.542  10.570  69.942  1.00  0.00    -0.211 A  
HETATM   10  F   UNL     1     -13.970  11.259  72.215  1.00  0.00    -0.214 F  
HETATM   11  C   UNL     1     -11.667  10.811  70.731  1.00  0.00    -0.400 A  
HETATM   12  F   UNL     1     -13.182  13.209  72.767  1.00  0.00    -0.558 F  
HETATM   13  F   UNL     1     -14.365  12.986  70.956  1.00  0.00     0.900 F  
HETATM   14  C   UNL     1     -12.141  12.121  70.913  1.00  0.00    -0.181 A  
HETATM   15  C   UNL     1     -13.399  12.386  71.705  1.00  0.00    -0.176 C  
HETATM   16  C   UNL     1     -11.447  13.196  70.324  1.00  0.00     0.075 A  
BRANCH   9  17
HETATM   17  N   UNL     1     -10.134   9.235  69.744  1.00  0.00    -0.193 N  
HETATM   18  O   UNL     1     -11.778   8.509  68.255  1.00  0.00     1.317 OA 
HETATM   19  H   UNL     1      -9.331   8.907  70.279  1.00  0.00     0.000 HD 
HETATM   20  C   UNL     1     -10.736   8.333  68.879  1.00  0.00    -0.062 C  
BRANCH  20  21
HETATM   21  C   UNL     1     -10.004   7.062  68.674  1.00  0.00    -0.156 A  
HETATM   22  C   UNL     1     -10.332   5.884  69.339  1.00  0.00    -0.313 A  
HETATM   23  C   UNL     1      -9.533   4.756  69.153  1.00  0.00    -0.215 A  
HETATM   24  C   UNL     1      -8.398   4.801  68.319  1.00  0.00    -0.091 A  
HETATM   25  C   UNL     1      -8.074   5.990  67.629  1.00  0.00    -0.106 A  
HETATM   26  C   UNL     1      -7.557   3.562  68.171  1.00  0.00    -0.061 C  
HETATM   27  C   UNL     1      -8.915   7.096  67.797  1.00  0.00    -0.122 A  
BRANCH  25  28
HETATM   28  N   UNL     1      -6.982   6.043  66.754  1.00  0.00    -0.066 NA 
HETATM   29  H   UNL     1      -6.170   5.503  67.054  1.00  0.00     0.000 HD 
BRANCH  28  30
HETATM   30  C   UNL     1      -6.819   6.710  65.543  1.00  0.00    -0.052 A  
HETATM   31  N   UNL     1      -6.006   6.132  64.649  1.00  0.00    -0.025 NA 
HETATM   32  C   UNL     1      -5.925   6.714  63.438  1.00  0.00    -0.034 A  
HETATM   33  C   UNL     1      -6.652   7.821  63.072  1.00  0.00    -0.075 A  
HETATM   34  C   UNL     1      -7.465   8.357  64.048  1.00  0.00    -0.111 A  
HETATM   35  N   UNL     1      -7.526   7.817  65.283  1.00  0.00    -0.078 NA 
BRANCH  34  36
HETATM   36  C   UNL     1      -8.344   9.514  63.835  1.00  0.00    -0.172 A  
HETATM   37  C   UNL     1      -9.272   9.938  64.788  1.00  0.00    -0.254 A  
HETATM   38  N   UNL     1     -10.087  11.015  64.661  1.00  0.00    -0.286 NA 
HETATM   39  C   UNL     1      -9.970  11.727  63.521  1.00  0.00    -0.408 A  
HETATM   40  C   UNL     1      -9.084  11.411  62.507  1.00  0.00    -0.177 A  
HETATM   41  C   UNL     1      -8.266  10.295  62.672  1.00  0.00    -0.170 A  
ENDBRANCH  34  36
ENDBRANCH  28  30
ENDBRANCH  25  28
ENDBRANCH  20  21
ENDBRANCH   9  17
ENDBRANCH   4   7
TORSDOF 6
ENDMDL
MODEL      115
REMARK 921   NORMALIZED FREE ENERGY PREDICTED BY IDOCK:   -1.96 KCAL/MOL
REMARK 922        TOTAL FREE ENERGY PREDICTED BY IDOCK:   -3.26 KCAL/MOL
REMARK 923 INTER-LIGAND FREE ENERGY PREDICTED BY IDOCK:   -3.06 KCAL/MOL
REMARK 924 INTRA-LIGAND FREE ENERGY PREDICTED BY IDOCK:   -0.20 KCAL/MOL
REMARK 927      BINDING AFFINITY PREDICTED BY RF-SCORE:    0.00 PKD
ROOT
HETATM    1  C   UNL     1      -6.646   3.564  73.738  1.00  0.00    -0.034 C  
HETATM    2  C   UNL     1      -7.011   4.110  72.415  1.00  0.00    -0.051 A  
HETATM    3  C   UNL     1      -8.037   4.966  72.071  1.00  0.00    -0.111 A  
HETATM    4  N   UNL     1      -7.934   5.175  70.714  1.00  0.00    -0.094 NA 
HETATM    5  N   UNL     1      -6.277   3.783  71.311  1.00  0.00    -0.014 NA 
HETATM    6  C   UNL     1      -6.842   4.429  70.316  1.00  0.00    -0.034 A  
ENDROOT
BRANCH   4   7
HETATM    7  C   UNL     1      -8.770   5.989  69.898  1.00  0.00    -0.131 A  
HETATM    8  C   UNL     1      -9.040   7.308  70.281  1.00  0.00    -0.152 A  
HETATM    9  C   UNL     1      -9.872   8.134  69.520  1.00  0.00    -0.181 A  
HETATM   10  F   UNL     1     -11.541   6.683  65.984  1.00  0.00     0.754 F  
HETATM   11  C   UNL     1     -10.397   7.653  68.321  1.00  0.00    -0.238 A  
HETATM   12  F   UNL     1      -9.847   5.337  65.766  1.00  0.00    -0.177 F  
HETATM   13  F   UNL     1     -11.591   4.714  66.906  1.00  0.00     1.345 F  
HETATM   14  C   UNL     1     -10.154   6.329  67.917  1.00  0.00    -0.169 A  
HETATM   15  C   UNL     1     -10.777   5.777  66.657  1.00  0.00    -0.262 C  
HETATM   16  C   UNL     1      -9.341   5.502  68.716  1.00  0.00    -0.152 A  
BRANCH   9  17
HETATM   17  N   UNL     1     -10.186   9.452  69.910  1.00  0.00    -0.207 N  
HETATM   18  O   UNL     1     -11.705  10.037  68.238  1.00  0.00    -0.085 OA 
HETATM   19  H   UNL     1      -9.692   9.832  70.717  1.00  0.00     0.000 HD 
HETATM   20  C   UNL     1     -11.114  10.274  69.286  1.00  0.00    -0.245 C  
BRANCH  20  21
HETATM   21  C   UNL     1     -11.433  11.530  70.001  1.00  0.00    -0.304 A  
HETATM   22  C   UNL     1     -12.489  11.641  70.901  1.00  0.00    -0.440 A  
HETATM   23  C   UNL     1     -12.773  12.886  71.462  1.00  0.00    -0.339 A  
HETATM   24  C   UNL     1     -12.018  14.025  71.119  1.00  0.00    -0.257 A  
HETATM   25  C   UNL     1     -10.935  13.911  70.222  1.00  0.00     0.478 A  
HETATM   26  C   UNL     1     -12.381  15.349  71.737  1.00  0.00    -0.453 C  
HETATM   27  C   UNL     1     -10.641  12.645  69.705  1.00  0.00     0.572 A  
BRANCH  25  28
HETATM   28  N   UNL     1     -10.137  15.019  69.907  1.00  0.00    -0.473 NA 
HETATM   29  H   UNL     1      -9.295  15.112  70.475  1.00  0.00     0.000 HD 
BRANCH  28  30
HETATM   30  C   UNL     1     -10.301  16.014  68.948  1.00  0.00    -0.235 A  
HETATM   31  N   UNL     1     -11.561  16.393  68.692  1.00  0.00    -0.238 NA 
HETATM   32  C   UNL     1     -11.723  17.427  67.845  1.00  0.00     1.142 A  
HETATM   33  C   UNL     1     -10.681  18.121  67.278  1.00  0.00    -0.336 A  
HETATM   34  C   UNL     1      -9.416  17.669  67.590  1.00  0.00    -0.258 A  
HETATM   35  N   UNL     1      -9.232  16.606  68.400  1.00  0.00    -0.218 NA 
BRANCH  34  36
HETATM   36  C   UNL     1      -8.180  18.303  67.113  1.00  0.00    -0.239 A  
HETATM   37  C   UNL     1      -7.465  17.823  66.014  1.00  0.00    -0.249 A  
HETATM   38  N   UNL     1      -6.337  18.384  65.510  1.00  0.00    -0.271 NA 
HETATM   39  C   UNL     1      -5.893  19.500  66.124  1.00  0.00    -0.163 A  
HETATM   40  C   UNL     1      -6.518  20.074  67.216  1.00  0.00    -0.228 A  
HETATM   41  C   UNL     1      -7.672  19.467  67.709  1.00  0.00    -0.321 A  
ENDBRANCH  34  36
ENDBRANCH  28  30
ENDBRANCH  25  28
ENDBRANCH  20  21
ENDBRANCH   9  17
ENDBRANCH   4   7
TORSDOF 6
ENDMDL
MODEL      116
REMARK 921   NORMALIZED FREE ENERGY PREDICTED BY IDOCK:   -1.68 KCAL/MOL
REMARK 922        TOTAL FREE ENERGY PREDICTED BY IDOCK:   -2.88 KCAL/MOL
REMARK 923 INTER-LIGAND FREE ENERGY PREDICTED BY IDOCK:   -1.62 KCAL/MOL
REMARK 924 INTRA-LIGAND FREE ENERGY PREDICTED BY IDOCK:   -1.26 KCAL/MOL
REMARK 927      BINDING AFFINITY PREDICTED BY RF-SCORE:    0.00 PKD
ROOT
HETATM    1  C   UNL     1     -10.732   3.770  63.826  1.00  0.00    -0.246 C  
HETATM    2  C   UNL     1     -10.374   4.331  65.144  1.00  0.00    -0.195 A  
HETATM    3  C   UNL     1      -9.147   4.378  65.774  1.00  0.00    -0.135 A  
HETATM    4  N   UNL     1      -9.349   5.015  66.978  1.00  0.00    -0.122 NA 
HETATM    5  N   UNL     1     -11.329   4.920  65.923  1.00  0.00     0.383 NA 
HETATM    6  C   UNL     1     -10.696   5.319  67.003  1.00  0.00    -0.091 A  
ENDROOT
BRANCH   4   7
HETATM    7  C   UNL     1      -8.378   5.302  67.979  1.00  0.00    -0.098 A  
HETATM    8  C   UNL     1      -8.050   6.632  68.266  1.00  0.00    -0.111 A  
HETATM    9  C   UNL     1      -7.088   6.957  69.226  1.00  0.00    -0.084 A  
HETATM   10  F   UNL     1      -5.187   3.913  71.350  1.00  0.00     0.000 F  
HETATM   11  C   UNL     1      -6.483   5.935  69.957  1.00  0.00    -0.039 A  
HETATM   12  F   UNL     1      -6.946   2.662  71.083  1.00  0.00    -0.030 F  
HETATM   13  F   UNL     1      -5.375   2.665  69.580  1.00  0.00    -0.010 F  
HETATM   14  C   UNL     1      -6.782   4.589  69.682  1.00  0.00    -0.041 A  
HETATM   15  C   UNL     1      -6.080   3.474  70.418  1.00  0.00    -0.019 C  
HETATM   16  C   UNL     1      -7.730   4.282  68.687  1.00  0.00    -0.066 A  
BRANCH   9  17
HETATM   17  N   UNL     1      -6.717   8.289  69.500  1.00  0.00    -0.038 N  
HETATM   18  O   UNL     1      -8.615   9.027  70.640  1.00  0.00    -0.170 OA 
HETATM   19  H   UNL     1      -5.823   8.613  69.131  1.00  0.00     0.000 HD 
HETATM   20  C   UNL     1      -7.471   9.196  70.231  1.00  0.00    -0.099 C  
BRANCH  20  21
HETATM   21  C   UNL     1      -6.785  10.463  70.574  1.00  0.00    -0.039 A  
HETATM   22  C   UNL     1      -6.088  10.648  71.765  1.00  0.00     0.890 A  
HETATM   23  C   UNL     1      -5.547  11.902  72.046  1.00  0.00     0.804 A  
HETATM   24  C   UNL     1      -5.710  12.979  71.152  1.00  0.00    -0.027 A  
HETATM   25  C   UNL     1      -6.400  12.788  69.934  1.00  0.00    -0.030 A  
HETATM   26  C   UNL     1      -5.125  14.317  71.514  1.00  0.00    -0.150 C  
HETATM   27  C   UNL     1      -6.896  11.510  69.654  1.00  0.00    -0.038 A  
BRANCH  25  28
HETATM   28  N   UNL     1      -6.528  13.829  69.006  1.00  0.00    -0.099 NA 
HETATM   29  H   UNL     1      -5.661  14.091  68.539  1.00  0.00     0.000 HD 
BRANCH  28  30
HETATM   30  C   UNL     1      -7.643  14.566  68.614  1.00  0.00    -0.131 A  
HETATM   31  N   UNL     1      -7.889  15.687  69.306  1.00  0.00    -0.218 NA 
HETATM   32  C   UNL     1      -8.901  16.460  68.868  1.00  0.00    -0.256 A  
HETATM   33  C   UNL     1      -9.646  16.180  67.748  1.00  0.00    -0.223 A  
HETATM   34  C   UNL     1      -9.332  15.008  67.093  1.00  0.00    -0.215 A  
HETATM   35  N   UNL     1      -8.353  14.196  67.541  1.00  0.00    -0.172 NA 
BRANCH  34  36
HETATM   36  C   UNL     1      -9.990  14.559  65.859  1.00  0.00    -0.352 A  
HETATM   37  C   UNL     1      -9.566  13.437  65.146  1.00  0.00     0.217 A  
HETATM   38  N   UNL     1     -10.151  12.958  64.020  1.00  0.00    -0.316 NA 
HETATM   39  C   UNL     1     -11.237  13.626  63.575  1.00  0.00     0.483 A  
HETATM   40  C   UNL     1     -11.756  14.746  64.198  1.00  0.00    -0.165 A  
HETATM   41  C   UNL     1     -11.124  15.211  65.350  1.00  0.00    -0.371 A  
ENDBRANCH  34  36
ENDBRANCH  28  30
ENDBRANCH  25  28
ENDBRANCH  20  21
ENDBRANCH   9  17
ENDBRANCH   4   7
TORSDOF 6
ENDMDL
MODEL      117
REMARK 921   NORMALIZED FREE ENERGY PREDICTED BY IDOCK:   -1.66 KCAL/MOL
REMARK 922        TOTAL FREE ENERGY PREDICTED BY IDOCK:   -2.85 KCAL/MOL
REMARK 923 INTER-LIGAND FREE ENERGY PREDICTED BY IDOCK:   -1.75 KCAL/MOL
REMARK 924 INTRA-LIGAND FREE ENERGY PREDICTED BY IDOCK:   -1.10 KCAL/MOL
REMARK 927      BINDING AFFINITY PREDICTED BY RF-SCORE:    0.00 PKD
ROOT
HETATM    1  C   UNL     1     -10.726   3.764  63.817  1.00  0.00    -0.246 C  
HETATM    2  C   UNL     1     -10.366   4.395  65.103  1.00  0.00    -0.173 A  
HETATM    3  C   UNL     1      -9.136   4.490  65.721  1.00  0.00    -0.136 A  
HETATM    4  N   UNL     1      -9.339   5.184  66.893  1.00  0.00    -0.124 NA 
HETATM    5  N   UNL     1     -11.324   5.009  65.859  1.00  0.00     0.317 NA 
HETATM    6  C   UNL     1     -10.690   5.471  66.912  1.00  0.00    -0.230 A  
ENDROOT
BRANCH   4   7
HETATM    7  C   UNL     1      -8.365   5.534  67.871  1.00  0.00    -0.099 A  
HETATM    8  C   UNL     1      -8.050   6.881  68.084  1.00  0.00    -0.119 A  
HETATM    9  C   UNL     1      -7.085   7.266  69.020  1.00  0.00    -0.080 A  
HETATM   10  F   UNL     1      -5.139   4.360  71.290  1.00  0.00     0.000 F  
HETATM   11  C   UNL     1      -6.465   6.291  69.800  1.00  0.00    -0.043 A  
HETATM   12  F   UNL     1      -6.886   3.078  71.102  1.00  0.00    -0.029 F  
HETATM   13  F   UNL     1      -5.324   3.017  69.591  1.00  0.00    -0.009 F  
HETATM   14  C   UNL     1      -6.751   4.930  69.599  1.00  0.00    -0.051 A  
HETATM   15  C   UNL     1      -6.033   3.862  70.389  1.00  0.00    -0.018 C  
HETATM   16  C   UNL     1      -7.702   4.560  68.628  1.00  0.00    -0.071 A  
BRANCH   9  17
HETATM   17  N   UNL     1      -6.727   8.615  69.220  1.00  0.00    -0.049 N  
HETATM   18  O   UNL     1      -8.620   9.390  70.342  1.00  0.00    -0.199 OA 
HETATM   19  H   UNL     1      -5.841   8.929  68.824  1.00  0.00     0.000 HD 
HETATM   20  C   UNL     1      -7.483   9.550  69.912  1.00  0.00    -0.113 C  
BRANCH  20  21
HETATM   21  C   UNL     1      -6.808  10.841  70.181  1.00  0.00    -0.074 A  
HETATM   22  C   UNL     1      -6.098  11.094  71.351  1.00  0.00     0.825 A  
HETATM   23  C   UNL     1      -5.569  12.367  71.560  1.00  0.00     0.261 A  
HETATM   24  C   UNL     1      -5.757  13.395  70.615  1.00  0.00    -0.182 A  
HETATM   25  C   UNL     1      -6.461  13.135  69.419  1.00  0.00    -0.095 A  
HETATM   26  C   UNL     1      -5.184  14.757  70.901  1.00  0.00    -0.132 C  
HETATM   27  C   UNL     1      -6.945  11.839  69.210  1.00  0.00    -0.065 A  
BRANCH  25  28
HETATM   28  N   UNL     1      -6.614  14.126  68.441  1.00  0.00    -0.095 NA 
HETATM   29  H   UNL     1      -6.046  13.990  67.605  1.00  0.00     0.000 HD 
BRANCH  28  30
HETATM   30  C   UNL     1      -7.413  15.266  68.419  1.00  0.00    -0.111 A  
HETATM   31  N   UNL     1      -6.996  16.271  67.637  1.00  0.00    -0.132 NA 
HETATM   32  C   UNL     1      -7.815  17.334  67.528  1.00  0.00    -0.181 A  
HETATM   33  C   UNL     1      -9.047  17.414  68.132  1.00  0.00    -0.267 A  
HETATM   34  C   UNL     1      -9.403  16.341  68.919  1.00  0.00    -0.248 A  
HETATM   35  N   UNL     1      -8.578  15.286  69.081  1.00  0.00    -0.221 NA 
BRANCH  34  36
HETATM   36  C   UNL     1     -10.693  16.227  69.613  1.00  0.00    -0.338 A  
HETATM   37  C   UNL     1     -11.915  16.269  68.940  1.00  0.00     0.091 A  
HETATM   38  N   UNL     1     -13.133  16.140  69.522  1.00  0.00     0.880 NA 
HETATM   39  C   UNL     1     -13.145  15.943  70.857  1.00  0.00     0.111 A  
HETATM   40  C   UNL     1     -12.001  15.877  71.632  1.00  0.00    -0.553 A  
HETATM   41  C   UNL     1     -10.768  16.019  71.000  1.00  0.00     0.242 A  
ENDBRANCH  34  36
ENDBRANCH  28  30
ENDBRANCH  25  28
ENDBRANCH  20  21
ENDBRANCH   9  17
ENDBRANCH   4   7
TORSDOF 6
ENDMDL
MODEL      118
REMARK 921   NORMALIZED FREE ENERGY PREDICTED BY IDOCK:   -0.95 KCAL/MOL
REMARK 922        TOTAL FREE ENERGY PREDICTED BY IDOCK:   -1.90 KCAL/MOL
REMARK 923 INTER-LIGAND FREE ENERGY PREDICTED BY IDOCK:   -0.73 KCAL/MOL
REMARK 924 INTRA-LIGAND FREE ENERGY PREDICTED BY IDOCK:   -1.16 KCAL/MOL
REMARK 927      BINDING AFFINITY PREDICTED BY RF-SCORE:    0.00 PKD
ROOT
HETATM    1  C   UNL     1      -5.483  17.661  71.738  1.00  0.00     0.555 C  
HETATM    2  C   UNL     1      -5.997  16.672  70.771  1.00  0.00     0.472 A  
HETATM    3  C   UNL     1      -7.301  16.367  70.436  1.00  0.00     1.709 A  
HETATM    4  N   UNL     1      -7.239  15.382  69.476  1.00  0.00    -0.197 NA 
HETATM    5  N   UNL     1      -5.131  15.904  70.046  1.00  0.00    -0.119 NA 
HETATM    6  C   UNL     1      -5.890  15.151  69.285  1.00  0.00    -0.097 A  
ENDROOT
BRANCH   4   7
HETATM    7  C   UNL     1      -8.329  14.744  68.819  1.00  0.00    -0.168 A  
HETATM    8  C   UNL     1      -8.116  13.547  68.126  1.00  0.00    -0.154 A  
HETATM    9  C   UNL     1      -9.154  12.900  67.450  1.00  0.00    -0.197 A  
HETATM   10  F   UNL     1     -12.998  14.513  67.547  1.00  0.00     0.259 F  
HETATM   11  C   UNL     1     -10.444  13.426  67.517  1.00  0.00    -0.236 A  
HETATM   12  F   UNL     1     -12.546  15.413  69.474  1.00  0.00    -0.279 F  
HETATM   13  F   UNL     1     -12.086  16.484  67.638  1.00  0.00     0.338 F  
HETATM   14  C   UNL     1     -10.685  14.634  68.194  1.00  0.00    -0.242 A  
HETATM   15  C   UNL     1     -12.064  15.249  68.212  1.00  0.00     0.016 C  
HETATM   16  C   UNL     1      -9.619  15.289  68.840  1.00  0.00    -0.220 A  
BRANCH   9  17
HETATM   17  N   UNL     1      -8.950  11.714  66.714  1.00  0.00    -0.183 N  
HETATM   18  O   UNL     1      -9.189  12.521  64.538  1.00  0.00     0.446 OA 
HETATM   19  H   UNL     1      -8.812  10.853  67.243  1.00  0.00     0.000 HD 
HETATM   20  C   UNL     1      -8.920  11.624  65.330  1.00  0.00     0.090 C  
BRANCH  20  21
HETATM   21  C   UNL     1      -8.474  10.321  64.787  1.00  0.00    -0.179 A  
HETATM   22  C   UNL     1      -8.862   9.849  63.536  1.00  0.00    -0.251 A  
HETATM   23  C   UNL     1      -8.466   8.572  63.141  1.00  0.00    -0.061 A  
HETATM   24  C   UNL     1      -7.697   7.755  63.994  1.00  0.00    -0.126 A  
HETATM   25  C   UNL     1      -7.286   8.239  65.254  1.00  0.00    -0.081 A  
HETATM   26  C   UNL     1      -7.316   6.376  63.527  1.00  0.00    -0.066 C  
HETATM   27  C   UNL     1      -7.658   9.539  65.612  1.00  0.00    -0.101 A  
BRANCH  25  28
HETATM   28  N   UNL     1      -6.476   7.466  66.096  1.00  0.00    -0.044 NA 
HETATM   29  H   UNL     1      -5.497   7.750  66.123  1.00  0.00     0.000 HD 
BRANCH  28  30
HETATM   30  C   UNL     1      -6.785   6.374  66.903  1.00  0.00    -0.060 A  
HETATM   31  N   UNL     1      -6.091   5.250  66.676  1.00  0.00    -0.029 NA 
HETATM   32  C   UNL     1      -6.307   4.223  67.519  1.00  0.00    -0.037 A  
HETATM   33  C   UNL     1      -7.154   4.287  68.599  1.00  0.00    -0.052 A  
HETATM   34  C   UNL     1      -7.832   5.476  68.763  1.00  0.00    -0.095 A  
HETATM   35  N   UNL     1      -7.665   6.502  67.904  1.00  0.00    -0.103 NA 
BRANCH  34  36
HETATM   36  C   UNL     1      -8.750   5.747  69.878  1.00  0.00    -0.128 A  
HETATM   37  C   UNL     1      -8.302   5.996  71.177  1.00  0.00    -0.124 A  
HETATM   38  N   UNL     1      -9.099   6.282  72.237  1.00  0.00    -0.141 NA 
HETATM   39  C   UNL     1     -10.425   6.337  71.996  1.00  0.00    -0.207 A  
HETATM   40  C   UNL     1     -10.988   6.116  70.752  1.00  0.00    -0.365 A  
HETATM   41  C   UNL     1     -10.138   5.821  69.688  1.00  0.00    -0.276 A  
ENDBRANCH  34  36
ENDBRANCH  28  30
ENDBRANCH  25  28
ENDBRANCH  20  21
ENDBRANCH   9  17
ENDBRANCH   4   7
TORSDOF 6
ENDMDL
MODEL      119
REMARK 921   NORMALIZED FREE ENERGY PREDICTED BY IDOCK:   -0.86 KCAL/MOL
REMARK 922        TOTAL FREE ENERGY PREDICTED BY IDOCK:   -1.77 KCAL/MOL
REMARK 923 INTER-LIGAND FREE ENERGY PREDICTED BY IDOCK:   -2.54 KCAL/MOL
REMARK 924 INTRA-LIGAND FREE ENERGY PREDICTED BY IDOCK:    0.77 KCAL/MOL
REMARK 927      BINDING AFFINITY PREDICTED BY RF-SCORE:    0.00 PKD
ROOT
HETATM    1  C   UNL     1      -6.600  19.659  68.328  1.00  0.00    -0.294 C  
HETATM    2  C   UNL     1      -7.446  18.465  68.131  1.00  0.00    -0.267 A  
HETATM    3  C   UNL     1      -8.273  17.818  69.026  1.00  0.00    -0.040 A  
HETATM    4  N   UNL     1      -8.845  16.768  68.342  1.00  0.00    -0.228 NA 
HETATM    5  N   UNL     1      -7.489  17.847  66.914  1.00  0.00    -0.192 NA 
HETATM    6  C   UNL     1      -8.326  16.846  67.064  1.00  0.00    -0.200 A  
ENDROOT
BRANCH   4   7
HETATM    7  C   UNL     1      -9.774  15.813  68.843  1.00  0.00    -0.225 A  
HETATM    8  C   UNL     1      -9.540  14.447  68.643  1.00  0.00    -0.208 A  
HETATM    9  C   UNL     1     -10.437  13.477  69.100  1.00  0.00     0.035 A  
HETATM   10  F   UNL     1     -13.858  14.649  71.175  1.00  0.00    -0.412 F  
HETATM   11  C   UNL     1     -11.560  13.875  69.824  1.00  0.00    -0.335 A  
HETATM   12  F   UNL     1     -12.806  16.427  71.857  1.00  0.00    -0.411 F  
HETATM   13  F   UNL     1     -13.880  16.456  69.966  1.00  0.00     1.580 F  
HETATM   14  C   UNL     1     -11.828  15.240  70.029  1.00  0.00    -0.365 A  
HETATM   15  C   UNL     1     -13.078  15.683  70.750  1.00  0.00    -0.292 C  
HETATM   16  C   UNL     1     -10.929  16.203  69.531  1.00  0.00    -0.341 A  
BRANCH   9  17
HETATM   17  N   UNL     1     -10.236  12.100  68.873  1.00  0.00    -0.413 N  
HETATM   18  O   UNL     1      -9.061  12.172  66.858  1.00  0.00    -0.191 OA 
HETATM   19  H   UNL     1     -10.652  11.450  69.540  1.00  0.00     0.000 HD 
HETATM   20  C   UNL     1      -9.519  11.558  67.816  1.00  0.00    -0.168 C  
BRANCH  20  21
HETATM   21  C   UNL     1      -9.259  10.103  67.905  1.00  0.00    -0.144 A  
HETATM   22  C   UNL     1      -8.400   9.544  68.847  1.00  0.00    -0.121 A  
HETATM   23  C   UNL     1      -8.144   8.173  68.802  1.00  0.00    -0.120 A  
HETATM   24  C   UNL     1      -8.728   7.359  67.811  1.00  0.00    -0.126 A  
HETATM   25  C   UNL     1      -9.614   7.921  66.866  1.00  0.00    -0.203 A  
HETATM   26  C   UNL     1      -8.401   5.891  67.794  1.00  0.00    -0.108 C  
HETATM   27  C   UNL     1      -9.890   9.290  66.958  1.00  0.00    -0.257 A  
BRANCH  25  28
HETATM   28  N   UNL     1     -10.248   7.123  65.906  1.00  0.00     0.137 NA 
HETATM   29  H   UNL     1     -10.912   7.619  65.312  1.00  0.00     0.000 HD 
BRANCH  28  30
HETATM   30  C   UNL     1     -10.123   5.764  65.626  1.00  0.00     0.446 A  
HETATM   31  N   UNL     1     -11.222   5.017  65.797  1.00  0.00     0.115 NA 
HETATM   32  C   UNL     1     -11.141   3.725  65.429  1.00  0.00     1.244 A  
HETATM   33  C   UNL     1     -10.023   3.162  64.861  1.00  0.00     0.045 A  
HETATM   34  C   UNL     1      -8.934   3.996  64.720  1.00  0.00    -0.135 A  
HETATM   35  N   UNL     1      -8.979   5.282  65.125  1.00  0.00    -0.139 NA 
BRANCH  34  36
HETATM   36  C   UNL     1      -7.666   3.587  64.102  1.00  0.00    -0.077 A  
HETATM   37  C   UNL     1      -6.428   4.052  64.548  1.00  0.00    -0.042 A  
HETATM   38  N   UNL     1      -5.225   3.687  64.037  1.00  0.00    -0.008 NA 
HETATM   39  C   UNL     1      -5.246   2.793  63.026  1.00  0.00    -0.007 A  
HETATM   40  C   UNL     1      -6.408   2.256  62.503  1.00  0.00    -0.010 A  
HETATM   41  C   UNL     1      -7.625   2.658  63.050  1.00  0.00    -0.062 A  
ENDBRANCH  34  36
ENDBRANCH  28  30
ENDBRANCH  25  28
ENDBRANCH  20  21
ENDBRANCH   9  17
ENDBRANCH   4   7
TORSDOF 6
ENDMDL
MODEL      120
REMARK 921   NORMALIZED FREE ENERGY PREDICTED BY IDOCK:   -0.83 KCAL/MOL
REMARK 922        TOTAL FREE ENERGY PREDICTED BY IDOCK:   -1.73 KCAL/MOL
REMARK 923 INTER-LIGAND FREE ENERGY PREDICTED BY IDOCK:   -1.08 KCAL/MOL
REMARK 924 INTRA-LIGAND FREE ENERGY PREDICTED BY IDOCK:   -0.64 KCAL/MOL
REMARK 927      BINDING AFFINITY PREDICTED BY RF-SCORE:    0.00 PKD
ROOT
HETATM    1  C   UNL     1     -14.214  16.223  72.358  1.00  0.00     0.614 C  
HETATM    2  C   UNL     1     -13.304  16.039  71.210  1.00  0.00     0.504 A  
HETATM    3  C   UNL     1     -11.925  16.062  71.171  1.00  0.00    -0.398 A  
HETATM    4  N   UNL     1     -11.567  15.826  69.862  1.00  0.00    -0.332 NA 
HETATM    5  N   UNL     1     -13.809  15.796  69.965  1.00  0.00     0.891 NA 
HETATM    6  C   UNL     1     -12.760  15.671  69.185  1.00  0.00     0.574 A  
ENDROOT
BRANCH   4   7
HETATM    7  C   UNL     1     -10.250  15.753  69.326  1.00  0.00    -0.248 A  
HETATM    8  C   UNL     1      -9.680  14.503  69.054  1.00  0.00    -0.124 A  
HETATM    9  C   UNL     1      -8.383  14.386  68.546  1.00  0.00    -0.157 A  
HETATM   10  F   UNL     1      -6.166  17.825  67.745  1.00  0.00    -0.155 F  
HETATM   11  C   UNL     1      -7.662  15.541  68.247  1.00  0.00    -0.115 A  
HETATM   12  F   UNL     1      -8.019  18.910  67.400  1.00  0.00    -0.244 F  
HETATM   13  F   UNL     1      -7.191  18.782  69.406  1.00  0.00    -0.295 F  
HETATM   14  C   UNL     1      -8.202  16.809  68.521  1.00  0.00    -0.242 A  
HETATM   15  C   UNL     1      -7.401  18.064  68.269  1.00  0.00    -0.259 C  
HETATM   16  C   UNL     1      -9.498  16.905  69.065  1.00  0.00    -0.199 A  
BRANCH   9  17
HETATM   17  N   UNL     1      -7.780  13.135  68.303  1.00  0.00    -0.133 N  
HETATM   18  O   UNL     1      -8.903  11.816  69.866  1.00  0.00     1.596 OA 
HETATM   19  H   UNL     1      -7.031  13.102  67.612  1.00  0.00     0.000 HD 
HETATM   20  C   UNL     1      -8.123  11.945  68.929  1.00  0.00     0.067 C  
BRANCH  20  21
HETATM   21  C   UNL     1      -7.506  10.726  68.358  1.00  0.00    -0.095 A  
HETATM   22  C   UNL     1      -6.818  10.721  67.148  1.00  0.00    -0.086 A  
HETATM   23  C   UNL     1      -6.347   9.511  66.641  1.00  0.00    -0.066 A  
HETATM   24  C   UNL     1      -6.571   8.301  67.327  1.00  0.00    -0.058 A  
HETATM   25  C   UNL     1      -7.252   8.305  68.564  1.00  0.00    -0.088 A  
HETATM   26  C   UNL     1      -6.060   7.020  66.725  1.00  0.00    -0.037 C  
HETATM   27  C   UNL     1      -7.678   9.537  69.074  1.00  0.00    -0.076 A  
BRANCH  25  28
HETATM   28  N   UNL     1      -7.440   7.123  69.290  1.00  0.00    -0.091 NA 
HETATM   29  H   UNL     1      -6.590   6.581  69.448  1.00  0.00     0.000 HD 
BRANCH  28  30
HETATM   30  C   UNL     1      -8.593   6.562  69.832  1.00  0.00    -0.139 A  
HETATM   31  N   UNL     1      -9.756   6.949  69.290  1.00  0.00    -0.156 NA 
HETATM   32  C   UNL     1     -10.867   6.334  69.735  1.00  0.00    -0.336 A  
HETATM   33  C   UNL     1     -10.860   5.324  70.666  1.00  0.00    -0.118 A  
HETATM   34  C   UNL     1      -9.625   4.984  71.177  1.00  0.00    -0.166 A  
HETATM   35  N   UNL     1      -8.504   5.619  70.779  1.00  0.00    -0.122 NA 
BRANCH  34  36
HETATM   36  C   UNL     1      -9.412   3.906  72.151  1.00  0.00    -0.191 A  
HETATM   37  C   UNL     1      -8.152   3.363  72.407  1.00  0.00    -0.068 A  
HETATM   38  N   UNL     1      -7.889   2.389  73.315  1.00  0.00    -0.046 NA 
HETATM   39  C   UNL     1      -8.940   1.930  74.026  1.00  0.00    -0.065 A  
HETATM   40  C   UNL     1     -10.234   2.393  73.868  1.00  0.00    -0.184 A  
HETATM   41  C   UNL     1     -10.466   3.390  72.923  1.00  0.00    -0.240 A  
ENDBRANCH  34  36
ENDBRANCH  28  30
ENDBRANCH  25  28
ENDBRANCH  20  21
ENDBRANCH   9  17
ENDBRANCH   4   7
TORSDOF 6
ENDMDL
MODEL      121
REMARK 921   NORMALIZED FREE ENERGY PREDICTED BY IDOCK:   -0.71 KCAL/MOL
REMARK 922        TOTAL FREE ENERGY PREDICTED BY IDOCK:   -1.56 KCAL/MOL
REMARK 923 INTER-LIGAND FREE ENERGY PREDICTED BY IDOCK:   -0.37 KCAL/MOL
REMARK 924 INTRA-LIGAND FREE ENERGY PREDICTED BY IDOCK:   -1.20 KCAL/MOL
REMARK 927      BINDING AFFINITY PREDICTED BY RF-SCORE:    0.00 PKD
ROOT
HETATM    1  C   UNL     1     -11.881  20.495  68.095  1.00  0.00     3.233 C  
HETATM    2  C   UNL     1     -10.988  19.366  67.769  1.00  0.00    -0.162 A  
HETATM    3  C   UNL     1     -10.730  18.215  68.487  1.00  0.00     0.015 A  
HETATM    4  N   UNL     1      -9.833  17.482  67.741  1.00  0.00    -0.276 NA 
HETATM    5  N   UNL     1     -10.277  19.366  66.603  1.00  0.00    -0.397 NA 
HETATM    6  C   UNL     1      -9.603  18.238  66.609  1.00  0.00    -0.315 A  
ENDROOT
BRANCH   4   7
HETATM    7  C   UNL     1      -9.270  16.216  68.067  1.00  0.00    -0.195 A  
HETATM    8  C   UNL     1     -10.086  15.208  68.595  1.00  0.00    -0.222 A  
HETATM    9  C   UNL     1      -9.569  13.958  68.947  1.00  0.00     0.028 A  
HETATM   10  F   UNL     1      -5.520  13.161  68.352  1.00  0.00    -0.062 F  
HETATM   11  C   UNL     1      -8.222  13.687  68.711  1.00  0.00     0.021 A  
HETATM   12  F   UNL     1      -5.504  14.590  66.712  1.00  0.00     0.813 F  
HETATM   13  F   UNL     1      -5.126  15.263  68.745  1.00  0.00    -0.088 F  
HETATM   14  C   UNL     1      -7.375  14.683  68.194  1.00  0.00    -0.127 A  
HETATM   15  C   UNL     1      -5.900  14.423  68.004  1.00  0.00    -0.143 C  
HETATM   16  C   UNL     1      -7.908  15.948  67.878  1.00  0.00    -0.148 A  
BRANCH   9  17
HETATM   17  N   UNL     1     -10.369  12.946  69.516  1.00  0.00    -0.083 N  
HETATM   18  O   UNL     1     -11.775  12.461  67.718  1.00  0.00    -0.335 OA 
HETATM   19  H   UNL     1     -10.206  12.716  70.496  1.00  0.00     0.000 HD 
HETATM   20  C   UNL     1     -11.358  12.238  68.850  1.00  0.00    -0.287 C  
BRANCH  20  21
HETATM   21  C   UNL     1     -11.913  11.077  69.584  1.00  0.00    -0.424 A  
HETATM   22  C   UNL     1     -13.280  10.858  69.731  1.00  0.00     0.748 A  
HETATM   23  C   UNL     1     -13.714   9.789  70.514  1.00  0.00     0.401 A  
HETATM   24  C   UNL     1     -12.792   8.945  71.165  1.00  0.00    -0.182 A  
HETATM   25  C   UNL     1     -11.406   9.155  71.002  1.00  0.00    -0.309 A  
HETATM   26  C   UNL     1     -13.314   7.820  72.016  1.00  0.00    -0.227 C  
HETATM   27  C   UNL     1     -10.993  10.206  70.177  1.00  0.00    -0.376 A  
BRANCH  25  28
HETATM   28  N   UNL     1     -10.470   8.297  71.596  1.00  0.00    -0.222 NA 
HETATM   29  H   UNL     1     -10.724   7.972  72.528  1.00  0.00     0.000 HD 
BRANCH  28  30
HETATM   30  C   UNL     1      -9.252   7.815  71.125  1.00  0.00    -0.146 A  
HETATM   31  N   UNL     1      -8.852   6.631  71.610  1.00  0.00    -0.134 NA 
HETATM   32  C   UNL     1      -7.729   6.108  71.083  1.00  0.00    -0.106 A  
HETATM   33  C   UNL     1      -7.016   6.698  70.067  1.00  0.00    -0.062 A  
HETATM   34  C   UNL     1      -7.491   7.914  69.624  1.00  0.00    -0.092 A  
HETATM   35  N   UNL     1      -8.588   8.478  70.170  1.00  0.00    -0.128 NA 
BRANCH  34  36
HETATM   36  C   UNL     1      -6.887   8.676  68.523  1.00  0.00    -0.064 A  
HETATM   37  C   UNL     1      -7.292   8.529  67.196  1.00  0.00    -0.084 A  
HETATM   38  N   UNL     1      -6.794   9.225  66.144  1.00  0.00    -0.084 NA 
HETATM   39  C   UNL     1      -5.840  10.138  66.424  1.00  0.00    -0.062 A  
HETATM   40  C   UNL     1      -5.361  10.379  67.699  1.00  0.00    -0.044 A  
HETATM   41  C   UNL     1      -5.894   9.641  68.754  1.00  0.00    -0.039 A  
ENDBRANCH  34  36
ENDBRANCH  28  30
ENDBRANCH  25  28
ENDBRANCH  20  21
ENDBRANCH   9  17
ENDBRANCH   4   7
TORSDOF 6
ENDMDL
MODEL      122
REMARK 921   NORMALIZED FREE ENERGY PREDICTED BY IDOCK:   -0.55 KCAL/MOL
REMARK 922        TOTAL FREE ENERGY PREDICTED BY IDOCK:   -1.35 KCAL/MOL
REMARK 923 INTER-LIGAND FREE ENERGY PREDICTED BY IDOCK:   -0.24 KCAL/MOL
REMARK 924 INTRA-LIGAND FREE ENERGY PREDICTED BY IDOCK:   -1.11 KCAL/MOL
REMARK 927      BINDING AFFINITY PREDICTED BY RF-SCORE:    0.00 PKD
ROOT
HETATM    1  C   UNL     1     -11.209   3.202  64.083  1.00  0.00     0.659 C  
HETATM    2  C   UNL     1     -10.767   3.999  65.245  1.00  0.00     0.094 A  
HETATM    3  C   UNL     1      -9.501   4.160  65.770  1.00  0.00    -0.177 A  
HETATM    4  N   UNL     1      -9.628   5.012  66.844  1.00  0.00    -0.141 NA 
HETATM    5  N   UNL     1     -11.674   4.726  65.964  1.00  0.00     1.752 NA 
HETATM    6  C   UNL     1     -10.973   5.319  66.904  1.00  0.00     0.212 A  
ENDROOT
BRANCH   4   7
HETATM    7  C   UNL     1      -8.594   5.479  67.704  1.00  0.00    -0.108 A  
HETATM    8  C   UNL     1      -8.277   6.843  67.730  1.00  0.00    -0.117 A  
HETATM    9  C   UNL     1      -7.255   7.340  68.545  1.00  0.00    -0.094 A  
HETATM   10  F   UNL     1      -5.139   4.734  71.018  1.00  0.00    -0.003 F  
HETATM   11  C   UNL     1      -6.576   6.468  69.395  1.00  0.00    -0.044 A  
HETATM   12  F   UNL     1      -6.884   3.438  71.105  1.00  0.00    -0.029 F  
HETATM   13  F   UNL     1      -5.425   3.193  69.512  1.00  0.00    -0.013 F  
HETATM   14  C   UNL     1      -6.864   5.092  69.382  1.00  0.00    -0.053 A  
HETATM   15  C   UNL     1      -6.086   4.130  70.246  1.00  0.00    -0.018 C  
HETATM   16  C   UNL     1      -7.874   4.606  68.529  1.00  0.00    -0.080 A  
BRANCH   9  17
HETATM   17  N   UNL     1      -6.896   8.703  68.554  1.00  0.00    -0.063 N  
HETATM   18  O   UNL     1      -8.691   9.602  69.744  1.00  0.00    -0.173 OA 
HETATM   19  H   UNL     1      -6.052   8.969  68.047  1.00  0.00     0.000 HD 
HETATM   20  C   UNL     1      -7.598   9.712  69.198  1.00  0.00    -0.082 C  
BRANCH  20  21
HETATM   21  C   UNL     1      -6.916  11.025  69.253  1.00  0.00    -0.116 A  
HETATM   22  C   UNL     1      -6.086  11.403  70.305  1.00  0.00    -0.145 A  
HETATM   23  C   UNL     1      -5.556  12.693  70.320  1.00  0.00    -0.153 A  
HETATM   24  C   UNL     1      -5.861  13.614  69.298  1.00  0.00    -0.085 A  
HETATM   25  C   UNL     1      -6.687  13.227  68.221  1.00  0.00    -0.103 A  
HETATM   26  C   UNL     1      -5.280  15.000  69.375  1.00  0.00    -0.091 C  
HETATM   27  C   UNL     1      -7.173  11.915  68.205  1.00  0.00    -0.085 A  
BRANCH  25  28
HETATM   28  N   UNL     1      -6.962  14.109  67.168  1.00  0.00    -0.390 NA 
HETATM   29  H   UNL     1      -6.137  14.465  66.686  1.00  0.00     0.000 HD 
BRANCH  28  30
HETATM   30  C   UNL     1      -8.173  14.579  66.668  1.00  0.00     0.239 A  
HETATM   31  N   UNL     1      -8.879  13.725  65.915  1.00  0.00     0.558 NA 
HETATM   32  C   UNL     1     -10.098  14.133  65.516  1.00  0.00    -0.336 A  
HETATM   33  C   UNL     1     -10.654  15.338  65.872  1.00  0.00    -0.345 A  
HETATM   34  C   UNL     1      -9.864  16.161  66.646  1.00  0.00    -0.249 A  
HETATM   35  N   UNL     1      -8.622  15.791  67.019  1.00  0.00    -0.199 NA 
BRANCH  34  36
HETATM   36  C   UNL     1     -10.298  17.468  67.156  1.00  0.00    -0.330 A  
HETATM   37  C   UNL     1     -10.408  17.745  68.519  1.00  0.00    -0.364 A  
HETATM   38  N   UNL     1     -10.774  18.940  69.048  1.00  0.00     0.496 NA 
HETATM   39  C   UNL     1     -11.036  19.931  68.171  1.00  0.00     0.614 A  
HETATM   40  C   UNL     1     -10.956  19.782  66.799  1.00  0.00    -0.305 A  
HETATM   41  C   UNL     1     -10.582  18.538  66.292  1.00  0.00    -0.370 A  
ENDBRANCH  34  36
ENDBRANCH  28  30
ENDBRANCH  25  28
ENDBRANCH  20  21
ENDBRANCH   9  17
ENDBRANCH   4   7
TORSDOF 6
ENDMDL
MODEL      123
REMARK 921   NORMALIZED FREE ENERGY PREDICTED BY IDOCK:    0.03 KCAL/MOL
REMARK 922        TOTAL FREE ENERGY PREDICTED BY IDOCK:   -0.58 KCAL/MOL
REMARK 923 INTER-LIGAND FREE ENERGY PREDICTED BY IDOCK:   -1.05 KCAL/MOL
REMARK 924 INTRA-LIGAND FREE ENERGY PREDICTED BY IDOCK:    0.47 KCAL/MOL
REMARK 927      BINDING AFFINITY PREDICTED BY RF-SCORE:    0.00 PKD
ROOT
HETATM    1  C   UNL     1     -13.030  16.816  73.802  1.00  0.00     0.294 C  
HETATM    2  C   UNL     1     -12.729  16.167  72.510  1.00  0.00    -0.357 A  
HETATM    3  C   UNL     1     -11.613  15.453  72.125  1.00  0.00    -0.462 A  
HETATM    4  N   UNL     1     -11.833  15.052  70.826  1.00  0.00    -0.297 NA 
HETATM    5  N   UNL     1     -13.633  16.221  71.487  1.00  0.00     0.614 NA 
HETATM    6  C   UNL     1     -13.080  15.551  70.502  1.00  0.00    -0.215 A  
ENDROOT
BRANCH   4   7
HETATM    7  C   UNL     1     -10.965  14.285  69.999  1.00  0.00     0.060 A  
HETATM    8  C   UNL     1     -10.960  12.889  70.104  1.00  0.00     0.819 A  
HETATM    9  C   UNL     1     -10.108  12.101  69.325  1.00  0.00     0.396 A  
HETATM   10  F   UNL     1      -7.568  13.919  66.564  1.00  0.00     0.335 F  
HETATM   11  C   UNL     1      -9.288  12.713  68.379  1.00  0.00    -0.148 A  
HETATM   12  F   UNL     1      -8.983  15.560  66.378  1.00  0.00    -0.254 F  
HETATM   13  F   UNL     1      -7.442  15.619  67.912  1.00  0.00    -0.113 F  
HETATM   14  C   UNL     1      -9.262  14.114  68.259  1.00  0.00    -0.198 A  
HETATM   15  C   UNL     1      -8.324  14.791  67.288  1.00  0.00    -0.212 C  
HETATM   16  C   UNL     1     -10.103  14.893  69.077  1.00  0.00    -0.237 A  
BRANCH   9  17
HETATM   17  N   UNL     1     -10.062  10.697  69.447  1.00  0.00    -0.339 N  
HETATM   18  O   UNL     1     -12.271  10.156  68.924  1.00  0.00     0.094 OA 
HETATM   19  H   UNL     1      -9.183  10.282  69.755  1.00  0.00     0.000 HD 
HETATM   20  C   UNL     1     -11.116   9.834  69.180  1.00  0.00    -0.123 C  
BRANCH  20  21
HETATM   21  C   UNL     1     -10.770   8.394  69.166  1.00  0.00    -0.123 A  
HETATM   22  C   UNL     1      -9.902   7.814  70.087  1.00  0.00    -0.184 A  
HETATM   23  C   UNL     1      -9.564   6.469  69.945  1.00  0.00    -0.163 A  
HETATM   24  C   UNL     1     -10.075   5.701  68.879  1.00  0.00    -0.254 A  
HETATM   25  C   UNL     1     -10.970   6.282  67.955  1.00  0.00    -0.327 A  
HETATM   26  C   UNL     1      -9.660   4.260  68.760  1.00  0.00    -0.219 C  
HETATM   27  C   UNL     1     -11.330   7.621  68.143  1.00  0.00     0.643 A  
BRANCH  25  28
HETATM   28  N   UNL     1     -11.533   5.525  66.920  1.00  0.00     0.286 NA 
HETATM   29  H   UNL     1     -12.550   5.566  66.868  1.00  0.00     0.000 HD 
BRANCH  28  30
HETATM   30  C   UNL     1     -10.935   4.725  65.950  1.00  0.00     0.122 A  
HETATM   31  N   UNL     1     -11.615   4.564  64.807  1.00  0.00     0.236 NA 
HETATM   32  C   UNL     1     -10.999   3.881  63.825  1.00  0.00    -0.012 A  
HETATM   33  C   UNL     1      -9.719   3.390  63.924  1.00  0.00    -0.153 A  
HETATM   34  C   UNL     1      -9.087   3.595  65.131  1.00  0.00    -0.143 A  
HETATM   35  N   UNL     1      -9.703   4.237  66.145  1.00  0.00    -0.196 NA 
BRANCH  34  36
HETATM   36  C   UNL     1      -7.707   3.177  65.412  1.00  0.00    -0.081 A  
HETATM   37  C   UNL     1      -7.399   2.161  66.319  1.00  0.00    -0.061 A  
HETATM   38  N   UNL     1      -6.149   1.713  66.596  1.00  0.00    -0.019 NA 
HETATM   39  C   UNL     1      -5.136   2.299  65.924  1.00  0.00    -0.005 A  
HETATM   40  C   UNL     1      -5.315   3.311  64.997  1.00  0.00    -0.009 A  
HETATM   41  C   UNL     1      -6.613   3.748  64.742  1.00  0.00    -0.043 A  
ENDBRANCH  34  36
ENDBRANCH  28  30
ENDBRANCH  25  28
ENDBRANCH  20  21
ENDBRANCH   9  17
ENDBRANCH   4   7
TORSDOF 6
ENDMDL
MODEL      124
REMARK 921   NORMALIZED FREE ENERGY PREDICTED BY IDOCK:    0.08 KCAL/MOL
REMARK 922        TOTAL FREE ENERGY PREDICTED BY IDOCK:   -0.50 KCAL/MOL
REMARK 923 INTER-LIGAND FREE ENERGY PREDICTED BY IDOCK:   -0.09 KCAL/MOL
REMARK 924 INTRA-LIGAND FREE ENERGY PREDICTED BY IDOCK:   -0.41 KCAL/MOL
REMARK 927      BINDING AFFINITY PREDICTED BY RF-SCORE:    0.00 PKD
ROOT
HETATM    1  C   UNL     1      -5.181   5.079  73.228  1.00  0.00    -0.009 C  
HETATM    2  C   UNL     1      -6.150   5.669  72.283  1.00  0.00    -0.039 A  
HETATM    3  C   UNL     1      -7.411   6.175  72.520  1.00  0.00    -0.097 A  
HETATM    4  N   UNL     1      -7.892   6.614  71.307  1.00  0.00    -0.101 NA 
HETATM    5  N   UNL     1      -5.836   5.780  70.958  1.00  0.00    -0.020 NA 
HETATM    6  C   UNL     1      -6.883   6.345  70.401  1.00  0.00    -0.058 A  
ENDROOT
BRANCH   4   7
HETATM    7  C   UNL     1      -9.154   7.217  71.043  1.00  0.00    -0.153 A  
HETATM    8  C   UNL     1      -9.208   8.454  70.387  1.00  0.00    -0.161 A  
HETATM    9  C   UNL     1     -10.426   9.090  70.128  1.00  0.00    -0.214 A  
HETATM   10  F   UNL     1     -13.994   7.252  71.256  1.00  0.00    -0.454 F  
HETATM   11  C   UNL     1     -11.616   8.453  70.476  1.00  0.00    -0.136 A  
HETATM   12  F   UNL     1     -13.031   5.313  71.055  1.00  0.00     2.590 F  
HETATM   13  F   UNL     1     -12.928   6.388  72.942  1.00  0.00     0.370 F  
HETATM   14  C   UNL     1     -11.592   7.217  71.147  1.00  0.00    -0.323 A  
HETATM   15  C   UNL     1     -12.873   6.553  71.592  1.00  0.00    -0.047 C  
HETATM   16  C   UNL     1     -10.354   6.608  71.429  1.00  0.00    -0.225 A  
BRANCH   9  17
HETATM   17  N   UNL     1     -10.497  10.352  69.505  1.00  0.00    -0.236 N  
HETATM   18  O   UNL     1     -12.604  10.214  68.512  1.00  0.00     1.016 OA 
HETATM   19  H   UNL     1      -9.678  10.956  69.574  1.00  0.00     0.000 HD 
HETATM   20  C   UNL     1     -11.590  10.840  68.804  1.00  0.00    -0.280 C  
BRANCH  20  21
HETATM   21  C   UNL     1     -11.518  12.270  68.426  1.00  0.00    -0.356 A  
HETATM   22  C   UNL     1     -12.635  13.099  68.381  1.00  0.00     0.727 A  
HETATM   23  C   UNL     1     -12.489  14.410  67.928  1.00  0.00     0.210 A  
HETATM   24  C   UNL     1     -11.235  14.895  67.505  1.00  0.00    -0.334 A  
HETATM   25  C   UNL     1     -10.097  14.062  67.568  1.00  0.00    -0.237 A  
HETATM   26  C   UNL     1     -11.137  16.310  67.005  1.00  0.00     0.017 C  
HETATM   27  C   UNL     1     -10.260  12.765  68.067  1.00  0.00    -0.228 A  
BRANCH  25  28
HETATM   28  N   UNL     1      -8.832  14.539  67.204  1.00  0.00    -0.217 NA 
HETATM   29  H   UNL     1      -8.833  15.463  66.772  1.00  0.00     0.000 HD 
BRANCH  28  30
HETATM   30  C   UNL     1      -7.571  13.962  67.332  1.00  0.00    -0.142 A  
HETATM   31  N   UNL     1      -6.568  14.787  67.663  1.00  0.00    -0.200 NA 
HETATM   32  C   UNL     1      -5.368  14.223  67.892  1.00  0.00    -0.063 A  
HETATM   33  C   UNL     1      -5.140  12.868  67.846  1.00  0.00    -0.101 A  
HETATM   34  C   UNL     1      -6.222  12.087  67.499  1.00  0.00    -0.113 A  
HETATM   35  N   UNL     1      -7.422  12.636  67.219  1.00  0.00    -0.138 NA 
BRANCH  34  36
HETATM   36  C   UNL     1      -6.183  10.620  67.434  1.00  0.00    -0.057 A  
HETATM   37  C   UNL     1      -5.936   9.824  68.554  1.00  0.00    -0.042 A  
HETATM   38  N   UNL     1      -5.919   8.468  68.561  1.00  0.00    -0.044 NA 
HETATM   39  C   UNL     1      -6.174   7.856  67.385  1.00  0.00    -0.054 A  
HETATM   40  C   UNL     1      -6.440   8.535  66.210  1.00  0.00    -0.061 A  
HETATM   41  C   UNL     1      -6.444   9.928  66.240  1.00  0.00    -0.077 A  
ENDBRANCH  34  36
ENDBRANCH  28  30
ENDBRANCH  25  28
ENDBRANCH  20  21
ENDBRANCH   9  17
ENDBRANCH   4   7
TORSDOF 6
ENDMDL
MODEL      125
REMARK 921   NORMALIZED FREE ENERGY PREDICTED BY IDOCK:    0.09 KCAL/MOL
REMARK 922        TOTAL FREE ENERGY PREDICTED BY IDOCK:   -0.49 KCAL/MOL
REMARK 923 INTER-LIGAND FREE ENERGY PREDICTED BY IDOCK:    0.52 KCAL/MOL
REMARK 924 INTRA-LIGAND FREE ENERGY PREDICTED BY IDOCK:   -1.01 KCAL/MOL
REMARK 927      BINDING AFFINITY PREDICTED BY RF-SCORE:    0.00 PKD
ROOT
HETATM    1  C   UNL     1     -11.410  18.217  72.904  1.00  0.00     2.436 C  
HETATM    2  C   UNL     1     -11.075  17.346  71.759  1.00  0.00     1.805 A  
HETATM    3  C   UNL     1     -10.083  17.487  70.810  1.00  0.00     2.646 A  
HETATM    4  N   UNL     1     -10.188  16.401  69.970  1.00  0.00    -0.040 NA 
HETATM    5  N   UNL     1     -11.791  16.206  71.530  1.00  0.00    -0.473 NA 
HETATM    6  C   UNL     1     -11.244  15.663  70.466  1.00  0.00    -0.362 A  
ENDROOT
BRANCH   4   7
HETATM    7  C   UNL     1      -9.379  16.103  68.836  1.00  0.00    -0.235 A  
HETATM    8  C   UNL     1      -9.310  14.787  68.361  1.00  0.00    -0.197 A  
HETATM    9  C   UNL     1      -8.512  14.448  67.265  1.00  0.00    -0.212 A  
HETATM   10  F   UNL     1      -6.336  17.414  65.302  1.00  0.00     0.027 F  
HETATM   11  C   UNL     1      -7.816  15.451  66.592  1.00  0.00     0.010 A  
HETATM   12  F   UNL     1      -7.824  18.877  65.914  1.00  0.00    -0.287 F  
HETATM   13  F   UNL     1      -6.140  18.430  67.214  1.00  0.00    -0.156 F  
HETATM   14  C   UNL     1      -7.856  16.778  67.054  1.00  0.00    -0.229 A  
HETATM   15  C   UNL     1      -7.048  17.859  66.376  1.00  0.00    -0.257 C  
HETATM   16  C   UNL     1      -8.639  17.094  68.181  1.00  0.00    -0.232 A  
BRANCH   9  17
HETATM   17  N   UNL     1      -8.400  13.123  66.797  1.00  0.00    -0.419 N  
HETATM   18  O   UNL     1     -10.628  12.672  66.273  1.00  0.00    -0.248 OA 
HETATM   19  H   UNL     1      -7.479  12.687  66.840  1.00  0.00     0.000 HD 
HETATM   20  C   UNL     1      -9.442  12.363  66.284  1.00  0.00    -0.220 C  
BRANCH  20  21
HETATM   21  C   UNL     1      -9.045  11.083  65.655  1.00  0.00    -0.223 A  
HETATM   22  C   UNL     1      -9.508  10.677  64.406  1.00  0.00    -0.317 A  
HETATM   23  C   UNL     1      -9.154   9.415  63.929  1.00  0.00    -0.087 A  
HETATM   24  C   UNL     1      -8.351   8.549  64.698  1.00  0.00    -0.156 A  
HETATM   25  C   UNL     1      -7.865   8.965  65.956  1.00  0.00    -0.102 A  
HETATM   26  C   UNL     1      -8.017   7.190  64.145  1.00  0.00    -0.085 C  
HETATM   27  C   UNL     1      -8.197  10.252  66.395  1.00  0.00    -0.129 A  
BRANCH  25  28
HETATM   28  N   UNL     1      -7.022   8.142  66.714  1.00  0.00    -0.072 NA 
HETATM   29  H   UNL     1      -6.047   8.440  66.738  1.00  0.00     0.000 HD 
BRANCH  28  30
HETATM   30  C   UNL     1      -7.294   6.985  67.439  1.00  0.00    -0.092 A  
HETATM   31  N   UNL     1      -6.595   5.893  67.102  1.00  0.00    -0.054 NA 
HETATM   32  C   UNL     1      -6.773   4.799  67.866  1.00  0.00    -0.054 A  
HETATM   33  C   UNL     1      -7.587   4.766  68.974  1.00  0.00    -0.067 A  
HETATM   34  C   UNL     1      -8.271   5.929  69.253  1.00  0.00    -0.113 A  
HETATM   35  N   UNL     1      -8.143   7.022  68.474  1.00  0.00    -0.123 NA 
BRANCH  34  36
HETATM   36  C   UNL     1      -9.156   6.098  70.414  1.00  0.00    -0.158 A  
HETATM   37  C   UNL     1     -10.447   6.618  70.305  1.00  0.00    -0.209 A  
HETATM   38  N   UNL     1     -11.318   6.769  71.334  1.00  0.00    -0.266 NA 
HETATM   39  C   UNL     1     -10.891   6.367  72.549  1.00  0.00    -0.238 A  
HETATM   40  C   UNL     1      -9.637   5.830  72.782  1.00  0.00    -0.159 A  
HETATM   41  C   UNL     1      -8.768   5.695  71.701  1.00  0.00    -0.136 A  
ENDBRANCH  34  36
ENDBRANCH  28  30
ENDBRANCH  25  28
ENDBRANCH  20  21
ENDBRANCH   9  17
ENDBRANCH   4   7
TORSDOF 6
ENDMDL
MODEL      126
REMARK 921   NORMALIZED FREE ENERGY PREDICTED BY IDOCK:    0.89 KCAL/MOL
REMARK 922        TOTAL FREE ENERGY PREDICTED BY IDOCK:    0.59 KCAL/MOL
REMARK 923 INTER-LIGAND FREE ENERGY PREDICTED BY IDOCK:    1.08 KCAL/MOL
REMARK 924 INTRA-LIGAND FREE ENERGY PREDICTED BY IDOCK:   -0.50 KCAL/MOL
REMARK 927      BINDING AFFINITY PREDICTED BY RF-SCORE:    0.00 PKD
ROOT
HETATM    1  C   UNL     1      -5.191   5.044  73.218  1.00  0.00    -0.009 C  
HETATM    2  C   UNL     1      -6.230   5.756  72.447  1.00  0.00    -0.044 A  
HETATM    3  C   UNL     1      -7.481   6.182  72.844  1.00  0.00    -0.097 A  
HETATM    4  N   UNL     1      -8.048   6.802  71.752  1.00  0.00    -0.102 NA 
HETATM    5  N   UNL     1      -6.007   6.093  71.142  1.00  0.00    -0.030 NA 
HETATM    6  C   UNL     1      -7.097   6.714  70.754  1.00  0.00    -0.069 A  
ENDROOT
BRANCH   4   7
HETATM    7  C   UNL     1      -9.334   7.407  71.673  1.00  0.00    -0.149 A  
HETATM    8  C   UNL     1      -9.441   8.800  71.583  1.00  0.00    -0.358 A  
HETATM    9  C   UNL     1     -10.685   9.435  71.524  1.00  0.00    -0.297 A  
HETATM   10  F   UNL     1     -14.170   7.146  71.538  1.00  0.00    -0.477 F  
HETATM   11  C   UNL     1     -11.844   8.661  71.493  1.00  0.00    -0.366 A  
HETATM   12  F   UNL     1     -13.069   5.508  70.624  1.00  0.00     2.543 F  
HETATM   13  F   UNL     1     -13.128   5.705  72.789  1.00  0.00    -0.096 F  
HETATM   14  C   UNL     1     -11.769   7.261  71.594  1.00  0.00    -0.316 A  
HETATM   15  C   UNL     1     -13.021   6.419  71.634  1.00  0.00     0.194 C  
HETATM   16  C   UNL     1     -10.507   6.642  71.688  1.00  0.00    -0.232 A  
BRANCH   9  17
HETATM   17  N   UNL     1     -10.812  10.838  71.473  1.00  0.00     1.412 N  
HETATM   18  O   UNL     1     -12.964  11.035  70.594  1.00  0.00    -0.254 OA 
HETATM   19  H   UNL     1     -10.002  11.392  71.750  1.00  0.00     0.000 HD 
HETATM   20  C   UNL     1     -11.949  11.526  71.075  1.00  0.00     0.010 C  
BRANCH  20  21
HETATM   21  C   UNL     1     -11.923  12.988  71.311  1.00  0.00     0.446 A  
HETATM   22  C   UNL     1     -12.723  13.616  72.262  1.00  0.00    -0.237 A  
HETATM   23  C   UNL     1     -12.699  15.007  72.356  1.00  0.00    -0.426 A  
HETATM   24  C   UNL     1     -11.893  15.778  71.495  1.00  0.00    -0.514 A  
HETATM   25  C   UNL     1     -11.067  15.142  70.543  1.00  0.00    -0.262 A  
HETATM   26  C   UNL     1     -11.921  17.277  71.623  1.00  0.00     2.449 C  
HETATM   27  C   UNL     1     -11.074  13.744  70.496  1.00  0.00     0.650 A  
BRANCH  25  28
HETATM   28  N   UNL     1     -10.217  15.884  69.712  1.00  0.00    -0.278 NA 
HETATM   29  H   UNL     1     -10.386  16.890  69.721  1.00  0.00     0.000 HD 
BRANCH  28  30
HETATM   30  C   UNL     1      -9.180  15.479  68.877  1.00  0.00    -0.218 A  
HETATM   31  N   UNL     1      -8.177  16.351  68.705  1.00  0.00    -0.211 NA 
HETATM   32  C   UNL     1      -7.121  15.927  67.985  1.00  0.00    -0.130 A  
HETATM   33  C   UNL     1      -7.009  14.659  67.469  1.00  0.00    -0.193 A  
HETATM   34  C   UNL     1      -8.082  13.822  67.688  1.00  0.00    -0.177 A  
HETATM   35  N   UNL     1      -9.170  14.241  68.366  1.00  0.00    -0.193 NA 
BRANCH  34  36
HETATM   36  C   UNL     1      -8.131  12.422  67.247  1.00  0.00    -0.182 A  
HETATM   37  C   UNL     1      -9.198  11.902  66.512  1.00  0.00    -0.214 A  
HETATM   38  N   UNL     1      -9.283  10.628  66.052  1.00  0.00    -0.176 NA 
HETATM   39  C   UNL     1      -8.240   9.817  66.325  1.00  0.00    -0.116 A  
HETATM   40  C   UNL     1      -7.125  10.219  67.038  1.00  0.00    -0.090 A  
HETATM   41  C   UNL     1      -7.074  11.533  67.499  1.00  0.00    -0.106 A  
ENDBRANCH  34  36
ENDBRANCH  28  30
ENDBRANCH  25  28
ENDBRANCH  20  21
ENDBRANCH   9  17
ENDBRANCH   4   7
TORSDOF 6
ENDMDL
MODEL      127
REMARK 921   NORMALIZED FREE ENERGY PREDICTED BY IDOCK:    3.47 KCAL/MOL
REMARK 922        TOTAL FREE ENERGY PREDICTED BY IDOCK:    4.08 KCAL/MOL
REMARK 923 INTER-LIGAND FREE ENERGY PREDICTED BY IDOCK:    4.06 KCAL/MOL
REMARK 924 INTRA-LIGAND FREE ENERGY PREDICTED BY IDOCK:    0.03 KCAL/MOL
REMARK 927      BINDING AFFINITY PREDICTED BY RF-SCORE:    0.00 PKD
ROOT
HETATM    1  C   UNL     1     -12.483  21.003  69.109  1.00  0.00     5.587 C  
HETATM    2  C   UNL     1     -11.514  20.051  68.530  1.00  0.00     2.168 A  
HETATM    3  C   UNL     1     -11.009  18.881  69.060  1.00  0.00     1.383 A  
HETATM    4  N   UNL     1     -10.150  18.364  68.116  1.00  0.00    -0.363 NA 
HETATM    5  N   UNL     1     -10.993  20.272  67.287  1.00  0.00     0.168 NA 
HETATM    6  C   UNL     1     -10.190  19.257  67.064  1.00  0.00    -0.398 A  
ENDROOT
BRANCH   4   7
HETATM    7  C   UNL     1      -9.389  17.163  68.205  1.00  0.00    -0.264 A  
HETATM    8  C   UNL     1     -10.029  15.959  68.521  1.00  0.00    -0.216 A  
HETATM    9  C   UNL     1      -9.316  14.762  68.639  1.00  0.00    -0.198 A  
HETATM   10  F   UNL     1      -5.201  14.739  67.963  1.00  0.00    -0.100 F  
HETATM   11  C   UNL     1      -7.946  14.756  68.376  1.00  0.00    -0.138 A  
HETATM   12  F   UNL     1      -5.436  16.436  66.623  1.00  0.00    -0.109 F  
HETATM   13  F   UNL     1      -5.137  16.764  68.752  1.00  0.00    -0.113 F  
HETATM   14  C   UNL     1      -7.275  15.952  68.069  1.00  0.00    -0.142 A  
HETATM   15  C   UNL     1      -5.781  15.968  67.854  1.00  0.00    -0.136 C  
HETATM   16  C   UNL     1      -8.005  17.153  67.989  1.00  0.00    -0.212 A  
BRANCH   9  17
HETATM   17  N   UNL     1      -9.937  13.548  68.995  1.00  0.00    -0.425 N  
HETATM   18  O   UNL     1     -11.050  13.045  67.006  1.00  0.00    -0.267 OA 
HETATM   19  H   UNL     1      -9.818  13.224  69.954  1.00  0.00     0.000 HD 
HETATM   20  C   UNL     1     -10.698  12.757  68.145  1.00  0.00    -0.226 C  
BRANCH  20  21
HETATM   21  C   UNL     1     -11.065  11.424  68.675  1.00  0.00    -0.290 A  
HETATM   22  C   UNL     1     -12.369  11.080  69.021  1.00  0.00     0.006 A  
HETATM   23  C   UNL     1     -12.610   9.833  69.596  1.00  0.00     0.859 A  
HETATM   24  C   UNL     1     -11.555   8.932  69.843  1.00  0.00     0.204 A  
HETATM   25  C   UNL     1     -10.235   9.271  69.475  1.00  0.00    -0.207 A  
HETATM   26  C   UNL     1     -11.868   7.608  70.486  1.00  0.00    -0.102 C  
HETATM   27  C   UNL     1     -10.023  10.509  68.860  1.00  0.00    -0.213 A  
BRANCH  25  28
HETATM   28  N   UNL     1      -9.179   8.370  69.661  1.00  0.00    -0.159 NA 
HETATM   29  H   UNL     1      -8.262   8.805  69.762  1.00  0.00     0.000 HD 
BRANCH  28  30
HETATM   30  C   UNL     1      -9.171   6.980  69.732  1.00  0.00    -0.147 A  
HETATM   31  N   UNL     1      -9.270   6.444  70.956  1.00  0.00    -0.154 NA 
HETATM   32  C   UNL     1      -9.370   5.104  71.026  1.00  0.00    -0.151 A  
HETATM   33  C   UNL     1      -9.417   4.283  69.925  1.00  0.00    -0.260 A  
HETATM   34  C   UNL     1      -9.308   4.910  68.702  1.00  0.00    -0.135 A  
HETATM   35  N   UNL     1      -9.160   6.248  68.611  1.00  0.00    -0.127 NA 
BRANCH  34  36
HETATM   36  C   UNL     1      -9.375   4.207  67.414  1.00  0.00    -0.204 A  
HETATM   37  C   UNL     1     -10.063   4.719  66.313  1.00  0.00    -0.264 A  
HETATM   38  N   UNL     1     -10.134   4.131  65.092  1.00  0.00    -0.215 NA 
HETATM   39  C   UNL     1      -9.470   2.965  64.946  1.00  0.00    -0.123 A  
HETATM   40  C   UNL     1      -8.748   2.362  65.960  1.00  0.00    -0.123 A  
HETATM   41  C   UNL     1      -8.702   2.993  67.201  1.00  0.00    -0.140 A  
ENDBRANCH  34  36
ENDBRANCH  28  30
ENDBRANCH  25  28
ENDBRANCH  20  21
ENDBRANCH   9  17
ENDBRANCH   4   7
TORSDOF 6
ENDMDL
MODEL      128
REMARK 921   NORMALIZED FREE ENERGY PREDICTED BY IDOCK:    3.65 KCAL/MOL
REMARK 922        TOTAL FREE ENERGY PREDICTED BY IDOCK:    4.32 KCAL/MOL
REMARK 923 INTER-LIGAND FREE ENERGY PREDICTED BY IDOCK:    4.12 KCAL/MOL
REMARK 924 INTRA-LIGAND FREE ENERGY PREDICTED BY IDOCK:    0.21 KCAL/MOL
REMARK 927      BINDING AFFINITY PREDICTED BY RF-SCORE:    0.00 PKD
ROOT
HETATM    1  C   UNL     1     -12.154  17.547  73.655  1.00  0.00     0.801 C  
HETATM    2  C   UNL     1     -11.817  16.931  72.356  1.00  0.00     0.314 A  
HETATM    3  C   UNL     1     -10.848  15.997  72.052  1.00  0.00     1.026 A  
HETATM    4  N   UNL     1     -10.955  15.747  70.702  1.00  0.00    -0.336 NA 
HETATM    5  N   UNL     1     -12.520  17.266  71.234  1.00  0.00     3.893 NA 
HETATM    6  C   UNL     1     -11.993  16.549  70.268  1.00  0.00     0.626 A  
ENDROOT
BRANCH   4   7
HETATM    7  C   UNL     1     -10.170  14.850  69.923  1.00  0.00     0.008 A  
HETATM    8  C   UNL     1     -10.429  13.475  69.977  1.00  0.00     1.154 A  
HETATM    9  C   UNL     1      -9.668  12.560  69.245  1.00  0.00     0.727 A  
HETATM   10  F   UNL     1      -6.601  13.935  66.777  1.00  0.00     0.415 F  
HETATM   11  C   UNL     1      -8.668  13.030  68.395  1.00  0.00    -0.115 A  
HETATM   12  F   UNL     1      -7.671  15.812  66.534  1.00  0.00    -0.266 F  
HETATM   13  F   UNL     1      -6.290  15.555  68.194  1.00  0.00    -0.095 F  
HETATM   14  C   UNL     1      -8.377  14.404  68.329  1.00  0.00    -0.158 A  
HETATM   15  C   UNL     1      -7.248  14.916  67.467  1.00  0.00    -0.201 C  
HETATM   16  C   UNL     1      -9.132  15.307  69.101  1.00  0.00    -0.236 A  
BRANCH   9  17
HETATM   17  N   UNL     1      -9.889  11.169  69.317  1.00  0.00    -0.423 N  
HETATM   18  O   UNL     1     -12.106  11.057  68.600  1.00  0.00    -0.551 OA 
HETATM   19  H   UNL     1      -9.130  10.592  69.680  1.00  0.00     0.000 HD 
HETATM   20  C   UNL     1     -11.055  10.522  68.936  1.00  0.00    -0.261 C  
BRANCH  20  21
HETATM   21  C   UNL     1     -10.978   9.044  68.896  1.00  0.00     0.019 A  
HETATM   22  C   UNL     1     -11.262   8.241  69.997  1.00  0.00    -0.081 A  
HETATM   23  C   UNL     1     -11.077   6.862  69.896  1.00  0.00    -0.333 A  
HETATM   24  C   UNL     1     -10.597   6.280  68.706  1.00  0.00    -0.313 A  
HETATM   25  C   UNL     1     -10.328   7.090  67.581  1.00  0.00    -0.211 A  
HETATM   26  C   UNL     1     -10.395   4.790  68.657  1.00  0.00     0.033 C  
HETATM   27  C   UNL     1     -10.561   8.465  67.692  1.00  0.00    -0.265 A  
BRANCH  25  28
HETATM   28  N   UNL     1      -9.901   6.529  66.371  1.00  0.00    -0.363 NA 
HETATM   29  H   UNL     1     -10.478   6.767  65.565  1.00  0.00     0.000 HD 
BRANCH  28  30
HETATM   30  C   UNL     1      -8.820   5.699  66.085  1.00  0.00    -0.142 A  
HETATM   31  N   UNL     1      -8.343   5.751  64.834  1.00  0.00    -0.137 NA 
HETATM   32  C   UNL     1      -7.234   5.033  64.577  1.00  0.00    -0.058 A  
HETATM   33  C   UNL     1      -6.562   4.300  65.526  1.00  0.00    -0.044 A  
HETATM   34  C   UNL     1      -7.117   4.296  66.788  1.00  0.00    -0.067 A  
HETATM   35  N   UNL     1      -8.253   4.972  67.056  1.00  0.00    -0.107 NA 
BRANCH  34  36
HETATM   36  C   UNL     1      -6.523   3.604  67.940  1.00  0.00    -0.037 A  
HETATM   37  C   UNL     1      -5.772   2.435  67.808  1.00  0.00    -0.019 A  
HETATM   38  N   UNL     1      -5.175   1.770  68.829  1.00  0.00    -0.011 NA 
HETATM   39  C   UNL     1      -5.320   2.302  70.061  1.00  0.00    -0.012 A  
HETATM   40  C   UNL     1      -6.035   3.458  70.317  1.00  0.00    -0.019 A  
HETATM   41  C   UNL     1      -6.638   4.111  69.244  1.00  0.00    -0.040 A  
ENDBRANCH  34  36
ENDBRANCH  28  30
ENDBRANCH  25  28
ENDBRANCH  20  21
ENDBRANCH   9  17
ENDBRANCH   4   7
TORSDOF 6
ENDMDL
MODEL      129
REMARK 921   NORMALIZED FREE ENERGY PREDICTED BY IDOCK:    3.73 KCAL/MOL
REMARK 922        TOTAL FREE ENERGY PREDICTED BY IDOCK:    4.43 KCAL/MOL
REMARK 923 INTER-LIGAND FREE ENERGY PREDICTED BY IDOCK:    4.09 KCAL/MOL
REMARK 924 INTRA-LIGAND FREE ENERGY PREDICTED BY IDOCK:    0.34 KCAL/MOL
REMARK 927      BINDING AFFINITY PREDICTED BY RF-SCORE:    0.00 PKD
ROOT
HETATM    1  C   UNL     1     -12.486  21.003  69.110  1.00  0.00     5.587 C  
HETATM    2  C   UNL     1     -11.508  20.053  68.544  1.00  0.00     2.168 A  
HETATM    3  C   UNL     1     -11.011  18.881  69.077  1.00  0.00     1.383 A  
HETATM    4  N   UNL     1     -10.137  18.367  68.146  1.00  0.00    -0.363 NA 
HETATM    5  N   UNL     1     -10.965  20.279  67.310  1.00  0.00     0.168 NA 
HETATM    6  C   UNL     1     -10.159  19.264  67.097  1.00  0.00    -0.377 A  
ENDROOT
BRANCH   4   7
HETATM    7  C   UNL     1      -9.378  17.166  68.243  1.00  0.00    -0.265 A  
HETATM    8  C   UNL     1     -10.023  15.960  68.542  1.00  0.00    -0.216 A  
HETATM    9  C   UNL     1      -9.313  14.763  68.667  1.00  0.00    -0.198 A  
HETATM   10  F   UNL     1      -5.186  14.742  68.066  1.00  0.00    -0.100 F  
HETATM   11  C   UNL     1      -7.939  14.757  68.429  1.00  0.00    -0.138 A  
HETATM   12  F   UNL     1      -5.397  16.445  66.730  1.00  0.00    -0.131 F  
HETATM   13  F   UNL     1      -5.136  16.763  68.865  1.00  0.00    -0.117 F  
HETATM   14  C   UNL     1      -7.262  15.955  68.140  1.00  0.00    -0.134 A  
HETATM   15  C   UNL     1      -5.764  15.971  67.952  1.00  0.00    -0.136 C  
HETATM   16  C   UNL     1      -7.991  17.157  68.052  1.00  0.00    -0.212 A  
BRANCH   9  17
HETATM   17  N   UNL     1      -9.941  13.547  69.006  1.00  0.00    -0.425 N  
HETATM   18  O   UNL     1      -9.700  12.375  67.002  1.00  0.00    -0.203 OA 
HETATM   19  H   UNL     1     -10.362  13.479  69.932  1.00  0.00     0.000 HD 
HETATM   20  C   UNL     1     -10.032  12.435  68.181  1.00  0.00    -0.215 C  
BRANCH  20  21
HETATM   21  C   UNL     1     -10.541  11.203  68.828  1.00  0.00    -0.233 A  
HETATM   22  C   UNL     1     -11.785  10.652  68.532  1.00  0.00    -0.200 A  
HETATM   23  C   UNL     1     -12.222   9.541  69.254  1.00  0.00     1.218 A  
HETATM   24  C   UNL     1     -11.431   8.986  70.279  1.00  0.00    -0.147 A  
HETATM   25  C   UNL     1     -10.161   9.532  70.567  1.00  0.00    -0.287 A  
HETATM   26  C   UNL     1     -11.960   7.801  71.041  1.00  0.00    -0.281 C  
HETATM   27  C   UNL     1      -9.725  10.619  69.802  1.00  0.00     0.104 A  
BRANCH  25  28
HETATM   28  N   UNL     1      -9.335   8.964  71.546  1.00  0.00    -0.266 NA 
HETATM   29  H   UNL     1      -8.512   9.518  71.781  1.00  0.00     0.000 HD 
BRANCH  28  30
HETATM   30  C   UNL     1      -9.450   7.769  72.251  1.00  0.00    -0.170 A  
HETATM   31  N   UNL     1     -10.199   7.802  73.362  1.00  0.00    -0.315 NA 
HETATM   32  C   UNL     1     -10.402   6.630  73.992  1.00  0.00    -0.351 A  
HETATM   33  C   UNL     1      -9.925   5.425  73.535  1.00  0.00    -0.187 A  
HETATM   34  C   UNL     1      -9.163   5.475  72.387  1.00  0.00    -0.144 A  
HETATM   35  N   UNL     1      -8.908   6.645  71.766  1.00  0.00    -0.130 NA 
BRANCH  34  36
HETATM   36  C   UNL     1      -8.599   4.290  71.728  1.00  0.00    -0.118 A  
HETATM   37  C   UNL     1      -7.240   3.977  71.778  1.00  0.00    -0.057 A  
HETATM   38  N   UNL     1      -6.668   2.883  71.215  1.00  0.00    -0.030 NA 
HETATM   39  C   UNL     1      -7.496   2.034  70.571  1.00  0.00    -0.032 A  
HETATM   40  C   UNL     1      -8.860   2.232  70.459  1.00  0.00    -0.134 A  
HETATM   41  C   UNL     1      -9.411   3.370  71.046  1.00  0.00    -0.227 A  
ENDBRANCH  34  36
ENDBRANCH  28  30
ENDBRANCH  25  28
ENDBRANCH  20  21
ENDBRANCH   9  17
ENDBRANCH   4   7
TORSDOF 6
ENDMDL
MODEL      130
REMARK 921   NORMALIZED FREE ENERGY PREDICTED BY IDOCK:    4.39 KCAL/MOL
REMARK 922        TOTAL FREE ENERGY PREDICTED BY IDOCK:    5.32 KCAL/MOL
REMARK 923 INTER-LIGAND FREE ENERGY PREDICTED BY IDOCK:    5.80 KCAL/MOL
REMARK 924 INTRA-LIGAND FREE ENERGY PREDICTED BY IDOCK:   -0.48 KCAL/MOL
REMARK 927      BINDING AFFINITY PREDICTED BY RF-SCORE:    0.00 PKD
ROOT
HETATM    1  C   UNL     1      -5.514  17.676  71.759  1.00  0.00     0.555 C  
HETATM    2  C   UNL     1      -6.118  16.803  70.733  1.00  0.00     0.710 A  
HETATM    3  C   UNL     1      -7.446  16.619  70.406  1.00  0.00     2.143 A  
HETATM    4  N   UNL     1      -7.474  15.708  69.374  1.00  0.00    -0.217 NA 
HETATM    5  N   UNL     1      -5.323  16.030  69.933  1.00  0.00    -0.126 NA 
HETATM    6  C   UNL     1      -6.150  15.394  69.136  1.00  0.00    -0.108 A  
ENDROOT
BRANCH   4   7
HETATM    7  C   UNL     1      -8.620  15.203  68.696  1.00  0.00    -0.172 A  
HETATM    8  C   UNL     1      -8.505  14.057  67.901  1.00  0.00    -0.170 A  
HETATM    9  C   UNL     1      -9.600  13.540  67.202  1.00  0.00    -0.241 A  
HETATM   10  F   UNL     1     -13.320  15.394  67.538  1.00  0.00     2.139 F  
HETATM   11  C   UNL     1     -10.849  14.144  67.348  1.00  0.00    -0.291 A  
HETATM   12  F   UNL     1     -12.765  16.095  69.521  1.00  0.00    -0.094 F  
HETATM   13  F   UNL     1     -12.273  17.285  67.768  1.00  0.00     0.940 F  
HETATM   14  C   UNL     1     -10.991  15.304  68.130  1.00  0.00    -0.292 A  
HETATM   15  C   UNL     1     -12.323  16.007  68.236  1.00  0.00     0.895 C  
HETATM   16  C   UNL     1      -9.868  15.829  68.799  1.00  0.00    -0.214 A  
BRANCH   9  17
HETATM   17  N   UNL     1      -9.494  12.410  66.366  1.00  0.00    -0.241 N  
HETATM   18  O   UNL     1     -10.301  13.293  64.362  1.00  0.00    -0.413 OA 
HETATM   19  H   UNL     1      -9.175  11.540  66.791  1.00  0.00     0.000 HD 
HETATM   20  C   UNL     1      -9.789  12.386  65.010  1.00  0.00    -0.114 C  
BRANCH  20  21
HETATM   21  C   UNL     1      -9.395  11.150  64.296  1.00  0.00    -0.183 A  
HETATM   22  C   UNL     1     -10.046  10.697  63.151  1.00  0.00    -0.192 A  
HETATM   23  C   UNL     1      -9.665   9.476  62.594  1.00  0.00     0.780 A  
HETATM   24  C   UNL     1      -8.649   8.697  63.182  1.00  0.00    -0.035 A  
HETATM   25  C   UNL     1      -7.975   9.163  64.331  1.00  0.00    -0.137 A  
HETATM   26  C   UNL     1      -8.293   7.377  62.553  1.00  0.00     0.005 C  
HETATM   27  C   UNL     1      -8.343  10.411  64.847  1.00  0.00    -0.165 A  
BRANCH  25  28
HETATM   28  N   UNL     1      -6.926   8.431  64.901  1.00  0.00    -0.074 NA 
HETATM   29  H   UNL     1      -6.001   8.840  64.769  1.00  0.00     0.000 HD 
BRANCH  28  30
HETATM   30  C   UNL     1      -6.935   7.237  65.618  1.00  0.00    -0.060 A  
HETATM   31  N   UNL     1      -6.296   7.245  66.796  1.00  0.00    -0.046 NA 
HETATM   32  C   UNL     1      -6.389   6.129  67.543  1.00  0.00    -0.037 A  
HETATM   33  C   UNL     1      -7.125   5.027  67.181  1.00  0.00    -0.069 A  
HETATM   34  C   UNL     1      -7.751   5.097  65.955  1.00  0.00    -0.091 A  
HETATM   35  N   UNL     1      -7.633   6.187  65.169  1.00  0.00    -0.085 NA 
BRANCH  34  36
HETATM   36  C   UNL     1      -8.611   4.035  65.414  1.00  0.00    -0.114 A  
HETATM   37  C   UNL     1      -9.540   3.349  66.198  1.00  0.00    -0.049 A  
HETATM   38  N   UNL     1     -10.381   2.384  65.748  1.00  0.00     1.500 NA 
HETATM   39  C   UNL     1     -10.307   2.084  64.434  1.00  0.00     0.351 A  
HETATM   40  C   UNL     1      -9.432   2.700  63.556  1.00  0.00    -0.101 A  
HETATM   41  C   UNL     1      -8.581   3.683  64.056  1.00  0.00    -0.091 A  
ENDBRANCH  34  36
ENDBRANCH  28  30
ENDBRANCH  25  28
ENDBRANCH  20  21
ENDBRANCH   9  17
ENDBRANCH   4   7
TORSDOF 6
ENDMDL
MODEL      131
REMARK 921   NORMALIZED FREE ENERGY PREDICTED BY IDOCK:    4.47 KCAL/MOL
REMARK 922        TOTAL FREE ENERGY PREDICTED BY IDOCK:    5.43 KCAL/MOL
REMARK 923 INTER-LIGAND FREE ENERGY PREDICTED BY IDOCK:    6.45 KCAL/MOL
REMARK 924 INTRA-LIGAND FREE ENERGY PREDICTED BY IDOCK:   -1.02 KCAL/MOL
REMARK 927      BINDING AFFINITY PREDICTED BY RF-SCORE:    0.00 PKD
ROOT
HETATM    1  C   UNL     1      -6.418   5.736  73.057  1.00  0.00    -0.064 C  
HETATM    2  C   UNL     1      -6.848   6.019  71.673  1.00  0.00    -0.068 A  
HETATM    3  C   UNL     1      -7.288   7.201  71.114  1.00  0.00    -0.075 A  
HETATM    4  N   UNL     1      -7.552   6.934  69.789  1.00  0.00    -0.101 NA 
HETATM    5  N   UNL     1      -6.833   5.027  70.732  1.00  0.00    -0.039 NA 
HETATM    6  C   UNL     1      -7.252   5.596  69.625  1.00  0.00    -0.065 A  
ENDROOT
BRANCH   4   7
HETATM    7  C   UNL     1      -8.028   7.843  68.801  1.00  0.00    -0.124 A  
HETATM    8  C   UNL     1      -8.939   8.843  69.161  1.00  0.00    -0.140 A  
HETATM    9  C   UNL     1      -9.447   9.742  68.218  1.00  0.00    -0.139 A  
HETATM   10  F   UNL     1      -8.176   9.507  64.254  1.00  0.00    -0.125 F  
HETATM   11  C   UNL     1      -8.990   9.680  66.902  1.00  0.00    -0.151 A  
HETATM   12  F   UNL     1      -6.290   8.664  64.933  1.00  0.00    -0.061 F  
HETATM   13  F   UNL     1      -7.980   7.358  64.523  1.00  0.00    -0.120 F  
HETATM   14  C   UNL     1      -8.085   8.678  66.509  1.00  0.00    -0.103 A  
HETATM   15  C   UNL     1      -7.639   8.558  65.072  1.00  0.00    -0.093 C  
HETATM   16  C   UNL     1      -7.612   7.760  67.467  1.00  0.00    -0.109 A  
BRANCH   9  17
HETATM   17  N   UNL     1     -10.394  10.730  68.554  1.00  0.00    -0.176 N  
HETATM   18  O   UNL     1      -9.271  11.818  70.287  1.00  0.00     2.714 OA 
HETATM   19  H   UNL     1     -11.284  10.715  68.056  1.00  0.00     0.000 HD 
HETATM   20  C   UNL     1     -10.214  11.721  69.509  1.00  0.00     0.498 C  
BRANCH  20  21
HETATM   21  C   UNL     1     -11.255  12.775  69.535  1.00  0.00    -0.147 A  
HETATM   22  C   UNL     1     -12.383  12.704  70.347  1.00  0.00    -0.315 A  
HETATM   23  C   UNL     1     -13.356  13.698  70.242  1.00  0.00     0.673 A  
HETATM   24  C   UNL     1     -13.217  14.755  69.320  1.00  0.00     1.508 A  
HETATM   25  C   UNL     1     -12.065  14.838  68.509  1.00  0.00    -0.175 A  
HETATM   26  C   UNL     1     -14.307  15.788  69.232  1.00  0.00     5.907 C  
HETATM   27  C   UNL     1     -11.081  13.854  68.662  1.00  0.00    -0.290 A  
BRANCH  25  28
HETATM   28  N   UNL     1     -11.879  15.908  67.624  1.00  0.00     0.025 NA 
HETATM   29  H   UNL     1     -12.558  15.953  66.864  1.00  0.00     0.000 HD 
BRANCH  28  30
HETATM   30  C   UNL     1     -10.923  16.919  67.607  1.00  0.00    -0.165 A  
HETATM   31  N   UNL     1     -11.326  18.113  67.151  1.00  0.00     0.475 NA 
HETATM   32  C   UNL     1     -10.440  19.123  67.230  1.00  0.00    -0.456 A  
HETATM   33  C   UNL     1      -9.187  18.999  67.782  1.00  0.00    -0.339 A  
HETATM   34  C   UNL     1      -8.848  17.739  68.228  1.00  0.00    -0.277 A  
HETATM   35  N   UNL     1      -9.703  16.702  68.116  1.00  0.00    -0.238 NA 
BRANCH  34  36
HETATM   36  C   UNL     1      -7.571  17.419  68.880  1.00  0.00    -0.224 A  
HETATM   37  C   UNL     1      -7.311  16.173  69.452  1.00  0.00    -0.196 A  
HETATM   38  N   UNL     1      -6.143  15.810  70.039  1.00  0.00    -0.163 NA 
HETATM   39  C   UNL     1      -5.162  16.737  70.052  1.00  0.00    -0.183 A  
HETATM   40  C   UNL     1      -5.298  18.004  69.513  1.00  0.00    -0.200 A  
HETATM   41  C   UNL     1      -6.514  18.341  68.922  1.00  0.00    -0.233 A  
ENDBRANCH  34  36
ENDBRANCH  28  30
ENDBRANCH  25  28
ENDBRANCH  20  21
ENDBRANCH   9  17
ENDBRANCH   4   7
TORSDOF 6
ENDMDL
MODEL      132
REMARK 921   NORMALIZED FREE ENERGY PREDICTED BY IDOCK:    5.03 KCAL/MOL
REMARK 922        TOTAL FREE ENERGY PREDICTED BY IDOCK:    6.18 KCAL/MOL
REMARK 923 INTER-LIGAND FREE ENERGY PREDICTED BY IDOCK:    6.84 KCAL/MOL
REMARK 924 INTRA-LIGAND FREE ENERGY PREDICTED BY IDOCK:   -0.67 KCAL/MOL
REMARK 927      BINDING AFFINITY PREDICTED BY RF-SCORE:    0.00 PKD
ROOT
HETATM    1  C   UNL     1     -12.253   5.886  66.777  1.00  0.00     4.053 C  
HETATM    2  C   UNL     1     -11.179   6.871  67.014  1.00  0.00    -0.085 A  
HETATM    3  C   UNL     1     -10.447   7.114  68.158  1.00  0.00    -0.200 A  
HETATM    4  N   UNL     1      -9.564   8.125  67.851  1.00  0.00    -0.152 NA 
HETATM    5  N   UNL     1     -10.774   7.702  66.008  1.00  0.00     1.412 NA 
HETATM    6  C   UNL     1      -9.815   8.433  66.528  1.00  0.00    -0.268 A  
ENDROOT
BRANCH   4   7
HETATM    7  C   UNL     1      -8.597   8.720  68.710  1.00  0.00    -0.137 A  
HETATM    8  C   UNL     1      -8.419  10.109  68.697  1.00  0.00    -0.122 A  
HETATM    9  C   UNL     1      -7.466  10.730  69.509  1.00  0.00    -0.110 A  
HETATM   10  F   UNL     1      -5.140   8.427  72.092  1.00  0.00    -0.034 F  
HETATM   11  C   UNL     1      -6.718   9.958  70.396  1.00  0.00    -0.136 A  
HETATM   12  F   UNL     1      -6.747   6.965  72.197  1.00  0.00    -0.055 F  
HETATM   13  F   UNL     1      -5.244   6.821  70.631  1.00  0.00    -0.017 F  
HETATM   14  C   UNL     1      -6.865   8.560  70.422  1.00  0.00    -0.037 A  
HETATM   15  C   UNL     1      -6.008   7.708  71.327  1.00  0.00    -0.035 C  
HETATM   16  C   UNL     1      -7.806   7.949  69.571  1.00  0.00    -0.110 A  
BRANCH   9  17
HETATM   17  N   UNL     1      -7.247  12.123  69.481  1.00  0.00    -0.327 N  
HETATM   18  O   UNL     1      -8.600  12.726  67.678  1.00  0.00    -0.158 OA 
HETATM   19  H   UNL     1      -6.577  12.505  70.148  1.00  0.00     0.000 HD 
HETATM   20  C   UNL     1      -7.869  13.015  68.619  1.00  0.00    -0.050 C  
BRANCH  20  21
HETATM   21  C   UNL     1      -7.647  14.448  68.919  1.00  0.00    -0.128 A  
HETATM   22  C   UNL     1      -7.123  14.896  70.128  1.00  0.00     0.050 A  
HETATM   23  C   UNL     1      -7.030  16.269  70.359  1.00  0.00     1.090 A  
HETATM   24  C   UNL     1      -7.474  17.197  69.396  1.00  0.00     0.061 A  
HETATM   25  C   UNL     1      -7.988  16.745  68.162  1.00  0.00    -0.181 A  
HETATM   26  C   UNL     1      -7.372  18.667  69.706  1.00  0.00     0.407 C  
HETATM   27  C   UNL     1      -8.031  15.365  67.935  1.00  0.00    -0.144 A  
BRANCH  25  28
HETATM   28  N   UNL     1      -8.385  17.650  67.169  1.00  0.00    -0.214 NA 
HETATM   29  H   UNL     1      -7.730  18.414  67.004  1.00  0.00     0.000 HD 
BRANCH  28  30
HETATM   30  C   UNL     1      -9.525  17.681  66.370  1.00  0.00    -0.259 A  
HETATM   31  N   UNL     1      -9.844  18.867  65.833  1.00  0.00    -0.484 NA 
HETATM   32  C   UNL     1     -10.882  18.884  64.976  1.00  0.00     1.290 A  
HETATM   33  C   UNL     1     -11.583  17.763  64.603  1.00  0.00     2.840 A  
HETATM   34  C   UNL     1     -11.194  16.583  65.199  1.00  0.00    -0.027 A  
HETATM   35  N   UNL     1     -10.187  16.550  66.097  1.00  0.00    -0.332 NA 
BRANCH  34  36
HETATM   36  C   UNL     1     -11.797  15.278  64.900  1.00  0.00    -0.170 A  
HETATM   37  C   UNL     1     -12.431  15.003  63.687  1.00  0.00     0.702 A  
HETATM   38  N   UNL     1     -12.978  13.810  63.343  1.00  0.00    -0.044 NA 
HETATM   39  C   UNL     1     -12.882  12.818  64.253  1.00  0.00    -0.158 A  
HETATM   40  C   UNL     1     -12.272  12.967  65.486  1.00  0.00    -0.527 A  
HETATM   41  C   UNL     1     -11.726  14.208  65.806  1.00  0.00    -0.360 A  
ENDBRANCH  34  36
ENDBRANCH  28  30
ENDBRANCH  25  28
ENDBRANCH  20  21
ENDBRANCH   9  17
ENDBRANCH   4   7
TORSDOF 6
ENDMDL
MODEL      133
REMARK 921   NORMALIZED FREE ENERGY PREDICTED BY IDOCK:    5.82 KCAL/MOL
REMARK 922        TOTAL FREE ENERGY PREDICTED BY IDOCK:    7.25 KCAL/MOL
REMARK 923 INTER-LIGAND FREE ENERGY PREDICTED BY IDOCK:    7.86 KCAL/MOL
REMARK 924 INTRA-LIGAND FREE ENERGY PREDICTED BY IDOCK:   -0.61 KCAL/MOL
REMARK 927      BINDING AFFINITY PREDICTED BY RF-SCORE:    0.00 PKD
ROOT
HETATM    1  C   UNL     1     -10.999  18.815  72.577  1.00  0.00     3.574 C  
HETATM    2  C   UNL     1     -10.864  18.180  71.251  1.00  0.00     2.839 A  
HETATM    3  C   UNL     1      -9.831  18.259  70.340  1.00  0.00     2.088 A  
HETATM    4  N   UNL     1     -10.192  17.474  69.268  1.00  0.00    -0.260 NA 
HETATM    5  N   UNL     1     -11.855  17.369  70.773  1.00  0.00     2.450 NA 
HETATM    6  C   UNL     1     -11.431  16.961  69.599  1.00  0.00     0.619 A  
ENDROOT
BRANCH   4   7
HETATM    7  C   UNL     1      -9.446  17.237  68.079  1.00  0.00    -0.271 A  
HETATM    8  C   UNL     1      -9.486  15.975  67.474  1.00  0.00    -0.223 A  
HETATM    9  C   UNL     1      -8.752  15.695  66.318  1.00  0.00    -0.290 A  
HETATM   10  F   UNL     1      -6.443  18.693  64.566  1.00  0.00    -0.218 F  
HETATM   11  C   UNL     1      -8.011  16.713  65.718  1.00  0.00     0.535 A  
HETATM   12  F   UNL     1      -7.803  20.182  65.380  1.00  0.00    -0.319 F  
HETATM   13  F   UNL     1      -6.110  19.495  66.559  1.00  0.00    -0.167 F  
HETATM   14  C   UNL     1      -7.942  17.986  66.309  1.00  0.00    -0.276 A  
HETATM   15  C   UNL     1      -7.084  19.073  65.707  1.00  0.00    -0.253 C  
HETATM   16  C   UNL     1      -8.661  18.238  67.494  1.00  0.00    -0.253 A  
BRANCH   9  17
HETATM   17  N   UNL     1      -8.750  14.419  65.718  1.00  0.00     0.244 N  
HETATM   18  O   UNL     1     -11.040  13.975  65.666  1.00  0.00    -0.296 OA 
HETATM   19  H   UNL     1      -7.844  13.999  65.514  1.00  0.00     0.000 HD 
HETATM   20  C   UNL     1      -9.882  13.689  65.384  1.00  0.00    -0.126 C  
BRANCH  20  21
HETATM   21  C   UNL     1      -9.638  12.477  64.568  1.00  0.00     0.178 A  
HETATM   22  C   UNL     1     -10.438  12.120  63.486  1.00  0.00    -0.490 A  
HETATM   23  C   UNL     1     -10.190  10.915  62.829  1.00  0.00     0.016 A  
HETATM   24  C   UNL     1      -9.157  10.056  63.255  1.00  0.00    -0.300 A  
HETATM   25  C   UNL     1      -8.332  10.426  64.339  1.00  0.00    -0.142 A  
HETATM   26  C   UNL     1      -8.946   8.758  62.524  1.00  0.00     0.092 C  
HETATM   27  C   UNL     1      -8.572  11.659  64.956  1.00  0.00     0.576 A  
BRANCH  25  28
HETATM   28  N   UNL     1      -7.266   9.614  64.746  1.00  0.00    -0.113 NA 
HETATM   29  H   UNL     1      -6.374  10.099  64.840  1.00  0.00     0.000 HD 
BRANCH  28  30
HETATM   30  C   UNL     1      -7.220   8.255  65.044  1.00  0.00    -0.080 A  
HETATM   31  N   UNL     1      -6.326   7.525  64.363  1.00  0.00    -0.044 NA 
HETATM   32  C   UNL     1      -6.201   6.233  64.718  1.00  0.00    -0.030 A  
HETATM   33  C   UNL     1      -6.900   5.654  65.750  1.00  0.00    -0.057 A  
HETATM   34  C   UNL     1      -7.801   6.470  66.400  1.00  0.00    -0.104 A  
HETATM   35  N   UNL     1      -7.976   7.755  66.030  1.00  0.00    -0.103 NA 
BRANCH  34  36
HETATM   36  C   UNL     1      -8.610   6.042  67.549  1.00  0.00    -0.106 A  
HETATM   37  C   UNL     1      -9.019   6.924  68.550  1.00  0.00    -0.122 A  
HETATM   38  N   UNL     1      -9.791   6.594  69.616  1.00  0.00    -0.157 NA 
HETATM   39  C   UNL     1     -10.197   5.309  69.691  1.00  0.00    -0.278 A  
HETATM   40  C   UNL     1      -9.862   4.344  68.757  1.00  0.00    -0.149 A  
HETATM   41  C   UNL     1      -9.064   4.720  67.679  1.00  0.00    -0.128 A  
ENDBRANCH  34  36
ENDBRANCH  28  30
ENDBRANCH  25  28
ENDBRANCH  20  21
ENDBRANCH   9  17
ENDBRANCH   4   7
TORSDOF 6
ENDMDL
MODEL      134
REMARK 921   NORMALIZED FREE ENERGY PREDICTED BY IDOCK:    6.14 KCAL/MOL
REMARK 922        TOTAL FREE ENERGY PREDICTED BY IDOCK:    7.69 KCAL/MOL
REMARK 923 INTER-LIGAND FREE ENERGY PREDICTED BY IDOCK:    7.73 KCAL/MOL
REMARK 924 INTRA-LIGAND FREE ENERGY PREDICTED BY IDOCK:   -0.04 KCAL/MOL
REMARK 927      BINDING AFFINITY PREDICTED BY RF-SCORE:    0.00 PKD
ROOT
HETATM    1  C   UNL     1     -12.862  21.196  69.062  1.00  0.00     6.298 C  
HETATM    2  C   UNL     1     -11.871  20.464  68.248  1.00  0.00     3.266 A  
HETATM    3  C   UNL     1     -11.180  19.305  68.538  1.00  0.00     1.316 A  
HETATM    4  N   UNL     1     -10.389  19.037  67.443  1.00  0.00    -0.396 NA 
HETATM    5  N   UNL     1     -11.531  20.920  67.007  1.00  0.00     3.168 NA 
HETATM    6  C   UNL     1     -10.654  20.056  66.549  1.00  0.00    -0.343 A  
ENDROOT
BRANCH   4   7
HETATM    7  C   UNL     1      -9.496  17.942  67.269  1.00  0.00    -0.263 A  
HETATM    8  C   UNL     1      -9.952  16.635  67.481  1.00  0.00    -0.264 A  
HETATM    9  C   UNL     1      -9.102  15.533  67.341  1.00  0.00    -0.199 A  
HETATM   10  F   UNL     1      -5.136  16.122  66.195  1.00  0.00     0.609 F  
HETATM   11  C   UNL     1      -7.787  15.736  66.923  1.00  0.00    -0.271 A  
HETATM   12  F   UNL     1      -5.732  17.934  65.150  1.00  0.00    -0.169 F  
HETATM   13  F   UNL     1      -5.191  18.019  67.255  1.00  0.00    -0.124 F  
HETATM   14  C   UNL     1      -7.298  17.037  66.715  1.00  0.00    -0.266 A  
HETATM   15  C   UNL     1      -5.857  17.271  66.333  1.00  0.00    -0.187 C  
HETATM   16  C   UNL     1      -8.161  18.136  66.895  1.00  0.00    -0.254 A  
BRANCH   9  17
HETATM   17  N   UNL     1      -9.533  14.214  67.588  1.00  0.00    -0.207 N  
HETATM   18  O   UNL     1      -9.591  13.376  65.411  1.00  0.00    -0.064 OA 
HETATM   19  H   UNL     1      -9.752  13.965  68.552  1.00  0.00     0.000 HD 
HETATM   20  C   UNL     1      -9.685  13.227  66.625  1.00  0.00    -0.270 C  
BRANCH  20  21
HETATM   21  C   UNL     1      -9.937  11.864  67.146  1.00  0.00    -0.209 A  
HETATM   22  C   UNL     1     -10.155  10.765  66.319  1.00  0.00    -0.285 A  
HETATM   23  C   UNL     1     -10.473   9.536  66.895  1.00  0.00    -0.279 A  
HETATM   24  C   UNL     1     -10.590   9.399  68.292  1.00  0.00    -0.256 A  
HETATM   25  C   UNL     1     -10.350  10.506  69.134  1.00  0.00    -0.220 A  
HETATM   26  C   UNL     1     -10.957   8.054  68.861  1.00  0.00     0.114 C  
HETATM   27  C   UNL     1      -9.990  11.719  68.536  1.00  0.00    -0.203 A  
BRANCH  25  28
HETATM   28  N   UNL     1     -10.408  10.381  70.528  1.00  0.00    -0.330 NA 
HETATM   29  H   UNL     1     -10.482  11.265  71.031  1.00  0.00     0.000 HD 
BRANCH  28  30
HETATM   30  C   UNL     1     -10.380   9.251  71.341  1.00  0.00    -0.321 A  
HETATM   31  N   UNL     1     -11.545   8.887  71.895  1.00  0.00    -0.354 NA 
HETATM   32  C   UNL     1     -11.551   7.738  72.596  1.00  0.00    -0.344 A  
HETATM   33  C   UNL     1     -10.454   6.921  72.730  1.00  0.00    -0.252 A  
HETATM   34  C   UNL     1      -9.294   7.366  72.133  1.00  0.00    -0.135 A  
HETATM   35  N   UNL     1      -9.255   8.537  71.465  1.00  0.00    -0.198 NA 
BRANCH  34  36
HETATM   36  C   UNL     1      -8.033   6.613  72.136  1.00  0.00    -0.097 A  
HETATM   37  C   UNL     1      -7.255   6.446  70.989  1.00  0.00    -0.078 A  
HETATM   38  N   UNL     1      -6.069   5.789  70.938  1.00  0.00    -0.029 NA 
HETATM   39  C   UNL     1      -5.615   5.274  72.099  1.00  0.00    -0.017 A  
HETATM   40  C   UNL     1      -6.291   5.380  73.301  1.00  0.00    -0.057 A  
HETATM   41  C   UNL     1      -7.509   6.058  73.314  1.00  0.00    -0.097 A  
ENDBRANCH  34  36
ENDBRANCH  28  30
ENDBRANCH  25  28
ENDBRANCH  20  21
ENDBRANCH   9  17
ENDBRANCH   4   7
TORSDOF 6
ENDMDL
MODEL      135
REMARK 921   NORMALIZED FREE ENERGY PREDICTED BY IDOCK:    9.67 KCAL/MOL
REMARK 922        TOTAL FREE ENERGY PREDICTED BY IDOCK:   12.45 KCAL/MOL
REMARK 923 INTER-LIGAND FREE ENERGY PREDICTED BY IDOCK:   13.19 KCAL/MOL
REMARK 924 INTRA-LIGAND FREE ENERGY PREDICTED BY IDOCK:   -0.75 KCAL/MOL
REMARK 927      BINDING AFFINITY PREDICTED BY RF-SCORE:    0.00 PKD
ROOT
HETATM    1  C   UNL     1     -12.935  20.528  69.662  1.00  0.00    10.106 C  
HETATM    2  C   UNL     1     -11.945  20.158  68.631  1.00  0.00     4.129 A  
HETATM    3  C   UNL     1     -11.127  19.049  68.557  1.00  0.00     0.967 A  
HETATM    4  N   UNL     1     -10.401  19.175  67.394  1.00  0.00    -0.401 NA 
HETATM    5  N   UNL     1     -11.745  20.967  67.548  1.00  0.00     3.712 NA 
HETATM    6  C   UNL     1     -10.828  20.361  66.829  1.00  0.00     0.499 A  
ENDROOT
BRANCH   4   7
HETATM    7  C   UNL     1      -9.424  18.274  66.881  1.00  0.00    -0.290 A  
HETATM    8  C   UNL     1      -9.662  16.895  66.927  1.00  0.00    -0.264 A  
HETATM    9  C   UNL     1      -8.720  15.976  66.454  1.00  0.00    -0.327 A  
HETATM   10  F   UNL     1      -5.149  17.351  64.798  1.00  0.00     0.202 F  
HETATM   11  C   UNL     1      -7.544  16.445  65.869  1.00  0.00     0.723 A  
HETATM   12  F   UNL     1      -6.156  19.185  64.208  1.00  0.00    -0.308 F  
HETATM   13  F   UNL     1      -5.245  19.030  66.176  1.00  0.00    -0.152 F  
HETATM   14  C   UNL     1      -7.273  17.823  65.821  1.00  0.00    -0.154 A  
HETATM   15  C   UNL     1      -5.971  18.337  65.256  1.00  0.00    -0.180 C  
HETATM   16  C   UNL     1      -8.219  18.732  66.334  1.00  0.00    -0.299 A  
BRANCH   9  17
HETATM   17  N   UNL     1      -8.926  14.584  66.527  1.00  0.00    -0.432 N  
HETATM   18  O   UNL     1     -11.226  14.477  66.151  1.00  0.00    -0.328 OA 
HETATM   19  H   UNL     1      -8.120  14.002  66.757  1.00  0.00     0.000 HD 
HETATM   20  C   UNL     1     -10.136  13.940  66.311  1.00  0.00    -0.300 C  
BRANCH  20  21
HETATM   21  C   UNL     1     -10.064  12.463  66.226  1.00  0.00    -0.257 A  
HETATM   22  C   UNL     1     -10.783  11.722  65.292  1.00  0.00    -0.338 A  
HETATM   23  C   UNL     1     -10.724  10.330  65.341  1.00  0.00     0.158 A  
HETATM   24  C   UNL     1      -9.964   9.670  66.327  1.00  0.00    -0.335 A  
HETATM   25  C   UNL     1      -9.218  10.419  67.263  1.00  0.00    -0.142 A  
HETATM   26  C   UNL     1      -9.952   8.166  66.349  1.00  0.00    -0.238 C  
HETATM   27  C   UNL     1      -9.257  11.815  67.168  1.00  0.00    -0.179 A  
BRANCH  25  28
HETATM   28  N   UNL     1      -8.413   9.786  68.219  1.00  0.00    -0.114 NA 
HETATM   29  H   UNL     1      -7.410   9.881  68.059  1.00  0.00     0.000 HD 
BRANCH  28  30
HETATM   30  C   UNL     1      -8.753   9.049  69.350  1.00  0.00    -0.142 A  
HETATM   31  N   UNL     1      -7.739   8.484  70.020  1.00  0.00    -0.083 NA 
HETATM   32  C   UNL     1      -8.046   7.859  71.172  1.00  0.00    -0.092 A  
HETATM   33  C   UNL     1      -9.314   7.813  71.700  1.00  0.00    -0.174 A  
HETATM   34  C   UNL     1     -10.301   8.417  70.951  1.00  0.00    -0.194 A  
HETATM   35  N   UNL     1     -10.023   9.008  69.771  1.00  0.00    -0.189 NA 
BRANCH  34  36
HETATM   36  C   UNL     1     -11.707   8.503  71.369  1.00  0.00    -0.346 A  
HETATM   37  C   UNL     1     -12.518   9.596  71.058  1.00  0.00    -0.296 A  
HETATM   38  N   UNL     1     -13.828   9.717  71.389  1.00  0.00    -0.209 NA 
HETATM   39  C   UNL     1     -14.377   8.684  72.062  1.00  0.00    -0.422 A  
HETATM   40  C   UNL     1     -13.678   7.545  72.420  1.00  0.00     0.184 A  
HETATM   41  C   UNL     1     -12.333   7.458  72.067  1.00  0.00    -0.301 A  
ENDBRANCH  34  36
ENDBRANCH  28  30
ENDBRANCH  25  28
ENDBRANCH  20  21
ENDBRANCH   9  17
ENDBRANCH   4   7
TORSDOF 6
ENDMDL
MODEL      136
REMARK 921   NORMALIZED FREE ENERGY PREDICTED BY IDOCK:   10.06 KCAL/MOL
REMARK 922        TOTAL FREE ENERGY PREDICTED BY IDOCK:   12.98 KCAL/MOL
REMARK 923 INTER-LIGAND FREE ENERGY PREDICTED BY IDOCK:   13.64 KCAL/MOL
REMARK 924 INTRA-LIGAND FREE ENERGY PREDICTED BY IDOCK:   -0.65 KCAL/MOL
REMARK 927      BINDING AFFINITY PREDICTED BY RF-SCORE:    0.00 PKD
ROOT
HETATM    1  C   UNL     1     -12.938  20.527  69.663  1.00  0.00    10.106 C  
HETATM    2  C   UNL     1     -11.949  20.144  68.636  1.00  0.00     4.129 A  
HETATM    3  C   UNL     1     -11.138  19.029  68.571  1.00  0.00     0.967 A  
HETATM    4  N   UNL     1     -10.411  19.142  67.407  1.00  0.00    -0.401 NA 
HETATM    5  N   UNL     1     -11.744  20.942  67.547  1.00  0.00     3.712 NA 
HETATM    6  C   UNL     1     -10.831  20.325  66.833  1.00  0.00     0.253 A  
ENDROOT
BRANCH   4   7
HETATM    7  C   UNL     1      -9.439  18.231  66.903  1.00  0.00    -0.290 A  
HETATM    8  C   UNL     1      -9.682  16.853  66.964  1.00  0.00    -0.255 A  
HETATM    9  C   UNL     1      -8.746  15.925  66.499  1.00  0.00    -0.315 A  
HETATM   10  F   UNL     1      -5.172  17.266  64.820  1.00  0.00     0.485 F  
HETATM   11  C   UNL     1      -7.569  16.382  65.907  1.00  0.00     0.723 A  
HETATM   12  F   UNL     1      -6.174  19.098  64.212  1.00  0.00    -0.308 F  
HETATM   13  F   UNL     1      -5.258  18.961  66.179  1.00  0.00    -0.148 F  
HETATM   14  C   UNL     1      -7.292  17.759  65.843  1.00  0.00    -0.234 A  
HETATM   15  C   UNL     1      -5.989  18.261  65.269  1.00  0.00    -0.180 C  
HETATM   16  C   UNL     1      -8.233  18.677  66.348  1.00  0.00    -0.295 A  
BRANCH   9  17
HETATM   17  N   UNL     1      -8.957  14.534  66.588  1.00  0.00    -0.375 N  
HETATM   18  O   UNL     1     -11.259  14.434  66.223  1.00  0.00    -0.325 OA 
HETATM   19  H   UNL     1      -8.153  13.952  66.822  1.00  0.00     0.000 HD 
HETATM   20  C   UNL     1     -10.170  13.893  66.385  1.00  0.00    -0.292 C  
BRANCH  20  21
HETATM   21  C   UNL     1     -10.105  12.415  66.316  1.00  0.00    -0.257 A  
HETATM   22  C   UNL     1     -10.833  11.668  65.394  1.00  0.00    -0.336 A  
HETATM   23  C   UNL     1     -10.779  10.276  65.458  1.00  0.00     0.117 A  
HETATM   24  C   UNL     1     -10.016   9.624  66.447  1.00  0.00    -0.323 A  
HETATM   25  C   UNL     1      -9.262  10.380  67.370  1.00  0.00    -0.142 A  
HETATM   26  C   UNL     1     -10.011   8.120  66.484  1.00  0.00    -0.302 C  
HETATM   27  C   UNL     1      -9.296  11.774  67.260  1.00  0.00    -0.171 A  
BRANCH  25  28
HETATM   28  N   UNL     1      -8.454   9.754  68.328  1.00  0.00    -0.114 NA 
HETATM   29  H   UNL     1      -7.452   9.841  68.161  1.00  0.00     0.000 HD 
BRANCH  28  30
HETATM   30  C   UNL     1      -8.791   9.032  69.470  1.00  0.00    -0.146 A  
HETATM   31  N   UNL     1      -9.382   9.719  70.457  1.00  0.00    -0.155 NA 
HETATM   32  C   UNL     1      -9.806   9.011  71.520  1.00  0.00    -0.310 A  
HETATM   33  C   UNL     1      -9.701   7.645  71.618  1.00  0.00    -0.191 A  
HETATM   34  C   UNL     1      -9.079   7.011  70.563  1.00  0.00    -0.156 A  
HETATM   35  N   UNL     1      -8.606   7.707  69.509  1.00  0.00    -0.132 NA 
BRANCH  34  36
HETATM   36  C   UNL     1      -8.908   5.555  70.470  1.00  0.00    -0.145 A  
HETATM   37  C   UNL     1      -9.809   4.654  71.040  1.00  0.00    -0.198 A  
HETATM   38  N   UNL     1      -9.719   3.303  70.960  1.00  0.00    -0.164 NA 
HETATM   39  C   UNL     1      -8.677   2.808  70.261  1.00  0.00    -0.074 A  
HETATM   40  C   UNL     1      -7.723   3.599  69.645  1.00  0.00    -0.051 A  
HETATM   41  C   UNL     1      -7.846   4.983  69.752  1.00  0.00    -0.071 A  
ENDBRANCH  34  36
ENDBRANCH  28  30
ENDBRANCH  25  28
ENDBRANCH  20  21
ENDBRANCH   9  17
ENDBRANCH   4   7
TORSDOF 6
ENDMDL
MODEL      137
REMARK 921   NORMALIZED FREE ENERGY PREDICTED BY IDOCK:   10.12 KCAL/MOL
REMARK 922        TOTAL FREE ENERGY PREDICTED BY IDOCK:   13.06 KCAL/MOL
REMARK 923 INTER-LIGAND FREE ENERGY PREDICTED BY IDOCK:   13.86 KCAL/MOL
REMARK 924 INTRA-LIGAND FREE ENERGY PREDICTED BY IDOCK:   -0.80 KCAL/MOL
REMARK 927      BINDING AFFINITY PREDICTED BY RF-SCORE:    0.00 PKD
ROOT
HETATM    1  C   UNL     1     -12.938  20.527  69.663  1.00  0.00    10.106 C  
HETATM    2  C   UNL     1     -11.945  20.159  68.634  1.00  0.00     4.129 A  
HETATM    3  C   UNL     1     -11.121  19.054  68.564  1.00  0.00     0.967 A  
HETATM    4  N   UNL     1     -10.395  19.180  67.401  1.00  0.00    -0.401 NA 
HETATM    5  N   UNL     1     -11.749  20.965  67.549  1.00  0.00     3.712 NA 
HETATM    6  C   UNL     1     -10.828  20.362  66.832  1.00  0.00     0.497 A  
ENDROOT
BRANCH   4   7
HETATM    7  C   UNL     1      -9.414  18.283  66.893  1.00  0.00    -0.290 A  
HETATM    8  C   UNL     1      -9.641  16.902  66.947  1.00  0.00    -0.262 A  
HETATM    9  C   UNL     1      -8.695  15.987  66.479  1.00  0.00    -0.303 A  
HETATM   10  F   UNL     1      -5.136  17.375  64.806  1.00  0.00     0.202 F  
HETATM   11  C   UNL     1      -7.523  16.459  65.888  1.00  0.00     0.866 A  
HETATM   12  F   UNL     1      -6.158  19.198  64.206  1.00  0.00    -0.308 F  
HETATM   13  F   UNL     1      -5.241  19.062  66.173  1.00  0.00    -0.152 F  
HETATM   14  C   UNL     1      -7.262  17.839  65.831  1.00  0.00    -0.260 A  
HETATM   15  C   UNL     1      -5.964  18.358  65.259  1.00  0.00    -0.221 C  
HETATM   16  C   UNL     1      -8.213  18.745  66.340  1.00  0.00    -0.299 A  
BRANCH   9  17
HETATM   17  N   UNL     1      -8.891  14.593  66.562  1.00  0.00    -0.446 N  
HETATM   18  O   UNL     1     -11.096  14.522  67.320  1.00  0.00    -0.294 OA 
HETATM   19  H   UNL     1      -8.093  13.994  66.347  1.00  0.00     0.000 HD 
HETATM   20  C   UNL     1     -10.080  13.970  66.912  1.00  0.00    -0.259 C  
BRANCH  20  21
HETATM   21  C   UNL     1     -10.110  12.502  66.719  1.00  0.00    -0.233 A  
HETATM   22  C   UNL     1     -11.222  11.826  66.225  1.00  0.00    -0.370 A  
HETATM   23  C   UNL     1     -11.194  10.433  66.160  1.00  0.00     0.487 A  
HETATM   24  C   UNL     1     -10.067   9.709  66.598  1.00  0.00    -0.307 A  
HETATM   25  C   UNL     1      -8.931  10.394  67.081  1.00  0.00    -0.139 A  
HETATM   26  C   UNL     1     -10.098   8.206  66.526  1.00  0.00    -0.286 C  
HETATM   27  C   UNL     1      -8.965  11.792  67.097  1.00  0.00    -0.177 A  
BRANCH  25  28
HETATM   28  N   UNL     1      -7.780   9.698  67.472  1.00  0.00    -0.095 NA 
HETATM   29  H   UNL     1      -7.226   9.326  66.701  1.00  0.00     0.000 HD 
BRANCH  28  30
HETATM   30  C   UNL     1      -7.266   9.430  68.737  1.00  0.00    -0.073 A  
HETATM   31  N   UNL     1      -6.028   9.879  68.986  1.00  0.00    -0.035 NA 
HETATM   32  C   UNL     1      -5.564   9.717  70.239  1.00  0.00    -0.045 A  
HETATM   33  C   UNL     1      -6.299   9.165  71.260  1.00  0.00    -0.078 A  
HETATM   34  C   UNL     1      -7.562   8.726  70.924  1.00  0.00    -0.102 A  
HETATM   35  N   UNL     1      -8.029   8.836  69.663  1.00  0.00    -0.093 NA 
BRANCH  34  36
HETATM   36  C   UNL     1      -8.508   8.144  71.885  1.00  0.00    -0.196 A  
HETATM   37  C   UNL     1      -8.103   7.302  72.923  1.00  0.00    -0.106 A  
HETATM   38  N   UNL     1      -8.924   6.761  73.856  1.00  0.00    -0.148 NA 
HETATM   39  C   UNL     1     -10.232   7.082  73.767  1.00  0.00    -0.363 A  
HETATM   40  C   UNL     1     -10.752   7.911  72.789  1.00  0.00    -0.435 A  
HETATM   41  C   UNL     1      -9.878   8.445  71.844  1.00  0.00    -0.328 A  
ENDBRANCH  34  36
ENDBRANCH  28  30
ENDBRANCH  25  28
ENDBRANCH  20  21
ENDBRANCH   9  17
ENDBRANCH   4   7
TORSDOF 6
ENDMDL
MODEL      138
REMARK 921   NORMALIZED FREE ENERGY PREDICTED BY IDOCK:   10.80 KCAL/MOL
REMARK 922        TOTAL FREE ENERGY PREDICTED BY IDOCK:   13.98 KCAL/MOL
REMARK 923 INTER-LIGAND FREE ENERGY PREDICTED BY IDOCK:   15.02 KCAL/MOL
REMARK 924 INTRA-LIGAND FREE ENERGY PREDICTED BY IDOCK:   -1.03 KCAL/MOL
REMARK 927      BINDING AFFINITY PREDICTED BY RF-SCORE:    0.00 PKD
ROOT
HETATM    1  C   UNL     1      -8.789   1.608  73.694  1.00  0.00    -0.061 C  
HETATM    2  C   UNL     1      -9.416   2.675  72.889  1.00  0.00    -0.092 A  
HETATM    3  C   UNL     1      -9.250   4.043  72.960  1.00  0.00    -0.110 A  
HETATM    4  N   UNL     1     -10.053   4.587  71.983  1.00  0.00    -0.193 NA 
HETATM    5  N   UNL     1     -10.299   2.357  71.896  1.00  0.00    -0.012 NA 
HETATM    6  C   UNL     1     -10.659   3.506  71.372  1.00  0.00     0.833 A  
ENDROOT
BRANCH   4   7
HETATM    7  C   UNL     1     -10.217   5.965  71.666  1.00  0.00    -0.202 A  
HETATM    8  C   UNL     1     -10.263   6.368  70.326  1.00  0.00    -0.236 A  
HETATM    9  C   UNL     1     -10.402   7.714  69.973  1.00  0.00    -0.223 A  
HETATM   10  F   UNL     1     -10.767  10.602  72.958  1.00  0.00     5.697 F  
HETATM   11  C   UNL     1     -10.560   8.669  70.976  1.00  0.00    -0.278 A  
HETATM   12  F   UNL     1     -11.646   9.105  74.266  1.00  0.00     5.292 F  
HETATM   13  F   UNL     1      -9.488   9.365  74.206  1.00  0.00     2.800 F  
HETATM   14  C   UNL     1     -10.505   8.296  72.330  1.00  0.00    -0.404 A  
HETATM   15  C   UNL     1     -10.602   9.332  73.424  1.00  0.00     4.292 C  
HETATM   16  C   UNL     1     -10.329   6.939  72.666  1.00  0.00    -0.228 A  
BRANCH   9  17
HETATM   17  N   UNL     1     -10.411   8.142  68.630  1.00  0.00    -0.300 N  
HETATM   18  O   UNL     1      -8.796   9.824  68.713  1.00  0.00    -0.122 OA 
HETATM   19  H   UNL     1     -11.087   7.705  68.003  1.00  0.00     0.000 HD 
HETATM   20  C   UNL     1      -9.575   9.109  68.091  1.00  0.00    -0.144 C  
BRANCH  20  21
HETATM   21  C   UNL     1      -9.617   9.236  66.616  1.00  0.00    -0.263 A  
HETATM   22  C   UNL     1      -8.860   8.434  65.766  1.00  0.00    -0.204 A  
HETATM   23  C   UNL     1      -8.893   8.681  64.394  1.00  0.00     0.095 A  
HETATM   24  C   UNL     1      -9.665   9.735  63.866  1.00  0.00     0.226 A  
HETATM   25  C   UNL     1     -10.448  10.537  64.724  1.00  0.00    -0.128 A  
HETATM   26  C   UNL     1      -9.648   9.972  62.380  1.00  0.00    -0.100 C  
HETATM   27  C   UNL     1     -10.434  10.243  66.092  1.00  0.00    -0.200 A  
BRANCH  25  28
HETATM   28  N   UNL     1     -11.265  11.555  64.216  1.00  0.00    -0.319 NA 
HETATM   29  H   UNL     1     -12.112  11.229  63.751  1.00  0.00     0.000 HD 
BRANCH  28  30
HETATM   30  C   UNL     1     -11.114  12.939  64.240  1.00  0.00    -0.378 A  
HETATM   31  N   UNL     1     -11.642  13.615  63.210  1.00  0.00     0.199 NA 
HETATM   32  C   UNL     1     -11.593  14.958  63.277  1.00  0.00     2.099 A  
HETATM   33  C   UNL     1     -11.079  15.651  64.346  1.00  0.00    -0.178 A  
HETATM   34  C   UNL     1     -10.555  14.885  65.365  1.00  0.00    -0.373 A  
HETATM   35  N   UNL     1     -10.551  13.538  65.298  1.00  0.00    -0.313 NA 
BRANCH  34  36
HETATM   36  C   UNL     1      -9.996  15.443  66.604  1.00  0.00    -0.271 A  
HETATM   37  C   UNL     1      -9.571  14.641  67.665  1.00  0.00    -0.212 A  
HETATM   38  N   UNL     1      -9.020  15.097  68.818  1.00  0.00    -0.187 NA 
HETATM   39  C   UNL     1      -8.869  16.434  68.925  1.00  0.00    -0.256 A  
HETATM   40  C   UNL     1      -9.245  17.329  67.941  1.00  0.00    -0.247 A  
HETATM   41  C   UNL     1      -9.811  16.824  66.772  1.00  0.00    -0.282 A  
ENDBRANCH  34  36
ENDBRANCH  28  30
ENDBRANCH  25  28
ENDBRANCH  20  21
ENDBRANCH   9  17
ENDBRANCH   4   7
TORSDOF 6
ENDMDL
MODEL      139
REMARK 921   NORMALIZED FREE ENERGY PREDICTED BY IDOCK:   10.96 KCAL/MOL
REMARK 922        TOTAL FREE ENERGY PREDICTED BY IDOCK:   14.20 KCAL/MOL
REMARK 923 INTER-LIGAND FREE ENERGY PREDICTED BY IDOCK:   15.50 KCAL/MOL
REMARK 924 INTRA-LIGAND FREE ENERGY PREDICTED BY IDOCK:   -1.30 KCAL/MOL
REMARK 927      BINDING AFFINITY PREDICTED BY RF-SCORE:    0.00 PKD
ROOT
HETATM    1  C   UNL     1      -5.125   2.685  66.643  1.00  0.00    -0.005 C  
HETATM    2  C   UNL     1      -6.277   3.467  67.133  1.00  0.00    -0.035 A  
HETATM    3  C   UNL     1      -7.339   4.001  66.431  1.00  0.00    -0.076 A  
HETATM    4  N   UNL     1      -8.144   4.628  67.356  1.00  0.00    -0.101 NA 
HETATM    5  N   UNL     1      -6.402   3.746  68.465  1.00  0.00    -0.032 NA 
HETATM    6  C   UNL     1      -7.517   4.432  68.571  1.00  0.00    -0.064 A  
ENDROOT
BRANCH   4   7
HETATM    7  C   UNL     1      -9.362   5.323  67.112  1.00  0.00    -0.122 A  
HETATM    8  C   UNL     1      -9.666   6.471  67.854  1.00  0.00    -0.126 A  
HETATM    9  C   UNL     1     -10.861   7.171  67.660  1.00  0.00    -0.209 A  
HETATM   10  F   UNL     1     -13.562   5.875  64.760  1.00  0.00     3.904 F  
HETATM   11  C   UNL     1     -11.742   6.752  66.664  1.00  0.00     1.813 A  
HETATM   12  F   UNL     1     -11.908   5.022  63.636  1.00  0.00     1.221 F  
HETATM   13  F   UNL     1     -12.906   3.843  65.166  1.00  0.00     4.562 F  
HETATM   14  C   UNL     1     -11.470   5.596  65.912  1.00  0.00     1.299 A  
HETATM   15  C   UNL     1     -12.452   5.094  64.881  1.00  0.00     4.857 C  
HETATM   16  C   UNL     1     -10.277   4.885  66.146  1.00  0.00    -0.309 A  
BRANCH   9  17
HETATM   17  N   UNL     1     -11.201   8.305  68.426  1.00  0.00    -0.154 N  
HETATM   18  O   UNL     1     -12.792   7.383  69.861  1.00  0.00     1.019 OA 
HETATM   19  H   UNL     1     -10.762   9.190  68.172  1.00  0.00     0.000 HD 
HETATM   20  C   UNL     1     -12.084   8.314  69.496  1.00  0.00     1.581 C  
BRANCH  20  21
HETATM   21  C   UNL     1     -12.117   9.569  70.282  1.00  0.00     0.031 A  
HETATM   22  C   UNL     1     -12.593   9.632  71.588  1.00  0.00    -0.493 A  
HETATM   23  C   UNL     1     -12.671  10.872  72.222  1.00  0.00     0.258 A  
HETATM   24  C   UNL     1     -12.290  12.053  71.554  1.00  0.00     0.014 A  
HETATM   25  C   UNL     1     -11.788  11.989  70.237  1.00  0.00    -0.270 A  
HETATM   26  C   UNL     1     -12.414  13.367  72.277  1.00  0.00     0.138 C  
HETATM   27  C   UNL     1     -11.678  10.730  69.636  1.00  0.00    -0.395 A  
BRANCH  25  28
HETATM   28  N   UNL     1     -11.352  13.143  69.572  1.00  0.00    -0.437 NA 
HETATM   29  H   UNL     1     -11.446  14.004  70.110  1.00  0.00     0.000 HD 
BRANCH  28  30
HETATM   30  C   UNL     1     -10.813  13.310  68.300  1.00  0.00    -0.256 A  
HETATM   31  N   UNL     1     -10.876  14.545  67.784  1.00  0.00    -0.259 NA 
HETATM   32  C   UNL     1     -10.264  14.740  66.601  1.00  0.00    -0.269 A  
HETATM   33  C   UNL     1      -9.559  13.766  65.936  1.00  0.00    -0.152 A  
HETATM   34  C   UNL     1      -9.541  12.523  66.532  1.00  0.00    -0.242 A  
HETATM   35  N   UNL     1     -10.187  12.294  67.694  1.00  0.00    -0.200 NA 
BRANCH  34  36
HETATM   36  C   UNL     1      -8.810  11.368  65.993  1.00  0.00    -0.177 A  
HETATM   37  C   UNL     1      -7.601  10.926  66.532  1.00  0.00    -0.142 A  
HETATM   38  N   UNL     1      -6.898   9.850  66.097  1.00  0.00    -0.092 NA 
HETATM   39  C   UNL     1      -7.431   9.158  65.069  1.00  0.00    -0.105 A  
HETATM   40  C   UNL     1      -8.625   9.494  64.457  1.00  0.00    -0.206 A  
HETATM   41  C   UNL     1      -9.317  10.608  64.928  1.00  0.00    -0.271 A  
ENDBRANCH  34  36
ENDBRANCH  28  30
ENDBRANCH  25  28
ENDBRANCH  20  21
ENDBRANCH   9  17
ENDBRANCH   4   7
TORSDOF 6
ENDMDL
MODEL      140
REMARK 921   NORMALIZED FREE ENERGY PREDICTED BY IDOCK:   11.06 KCAL/MOL
REMARK 922        TOTAL FREE ENERGY PREDICTED BY IDOCK:   14.33 KCAL/MOL
REMARK 923 INTER-LIGAND FREE ENERGY PREDICTED BY IDOCK:   14.93 KCAL/MOL
REMARK 924 INTRA-LIGAND FREE ENERGY PREDICTED BY IDOCK:   -0.60 KCAL/MOL
REMARK 927      BINDING AFFINITY PREDICTED BY RF-SCORE:    0.00 PKD
ROOT
HETATM    1  C   UNL     1      -5.125   2.685  66.643  1.00  0.00    -0.005 C  
HETATM    2  C   UNL     1      -6.277   3.467  67.133  1.00  0.00    -0.035 A  
HETATM    3  C   UNL     1      -7.339   4.001  66.431  1.00  0.00    -0.076 A  
HETATM    4  N   UNL     1      -8.144   4.628  67.356  1.00  0.00    -0.101 NA 
HETATM    5  N   UNL     1      -6.402   3.746  68.465  1.00  0.00    -0.032 NA 
HETATM    6  C   UNL     1      -7.517   4.432  68.571  1.00  0.00    -0.064 A  
ENDROOT
BRANCH   4   7
HETATM    7  C   UNL     1      -9.362   5.323  67.112  1.00  0.00    -0.122 A  
HETATM    8  C   UNL     1      -9.666   6.471  67.854  1.00  0.00    -0.126 A  
HETATM    9  C   UNL     1     -10.861   7.171  67.660  1.00  0.00    -0.209 A  
HETATM   10  F   UNL     1     -13.562   5.875  64.760  1.00  0.00     3.904 F  
HETATM   11  C   UNL     1     -11.742   6.752  66.664  1.00  0.00     1.813 A  
HETATM   12  F   UNL     1     -11.908   5.022  63.636  1.00  0.00     1.221 F  
HETATM   13  F   UNL     1     -12.906   3.843  65.166  1.00  0.00     4.562 F  
HETATM   14  C   UNL     1     -11.470   5.596  65.912  1.00  0.00     1.299 A  
HETATM   15  C   UNL     1     -12.452   5.094  64.881  1.00  0.00     4.857 C  
HETATM   16  C   UNL     1     -10.277   4.885  66.146  1.00  0.00    -0.309 A  
BRANCH   9  17
HETATM   17  N   UNL     1     -11.201   8.305  68.426  1.00  0.00    -0.154 N  
HETATM   18  O   UNL     1     -12.792   7.383  69.861  1.00  0.00     1.019 OA 
HETATM   19  H   UNL     1     -10.762   9.190  68.172  1.00  0.00     0.000 HD 
HETATM   20  C   UNL     1     -12.084   8.314  69.496  1.00  0.00     1.581 C  
BRANCH  20  21
HETATM   21  C   UNL     1     -12.117   9.569  70.282  1.00  0.00     0.031 A  
HETATM   22  C   UNL     1     -12.593   9.632  71.588  1.00  0.00    -0.493 A  
HETATM   23  C   UNL     1     -12.671  10.872  72.222  1.00  0.00     0.258 A  
HETATM   24  C   UNL     1     -12.290  12.053  71.554  1.00  0.00     0.014 A  
HETATM   25  C   UNL     1     -11.788  11.989  70.237  1.00  0.00    -0.270 A  
HETATM   26  C   UNL     1     -12.414  13.367  72.277  1.00  0.00     0.138 C  
HETATM   27  C   UNL     1     -11.678  10.730  69.636  1.00  0.00    -0.395 A  
BRANCH  25  28
HETATM   28  N   UNL     1     -11.352  13.143  69.572  1.00  0.00    -0.437 NA 
HETATM   29  H   UNL     1     -11.446  14.004  70.110  1.00  0.00     0.000 HD 
BRANCH  28  30
HETATM   30  C   UNL     1     -10.813  13.310  68.300  1.00  0.00    -0.256 A  
HETATM   31  N   UNL     1     -11.072  12.343  67.410  1.00  0.00    -0.257 NA 
HETATM   32  C   UNL     1     -10.645  12.546  66.150  1.00  0.00    -0.253 A  
HETATM   33  C   UNL     1     -10.008  13.692  65.736  1.00  0.00    -0.277 A  
HETATM   34  C   UNL     1      -9.777  14.639  66.711  1.00  0.00    -0.257 A  
HETATM   35  N   UNL     1     -10.156  14.435  67.989  1.00  0.00    -0.228 NA 
BRANCH  34  36
HETATM   36  C   UNL     1      -9.146  15.940  66.453  1.00  0.00    -0.355 A  
HETATM   37  C   UNL     1      -9.874  17.129  66.385  1.00  0.00    -0.300 A  
HETATM   38  N   UNL     1      -9.343  18.360  66.181  1.00  0.00    -0.499 NA 
HETATM   39  C   UNL     1      -8.002  18.424  66.047  1.00  0.00    -0.111 A  
HETATM   40  C   UNL     1      -7.173  17.317  66.103  1.00  0.00    -0.304 A  
HETATM   41  C   UNL     1      -7.755  16.068  66.309  1.00  0.00     0.154 A  
ENDBRANCH  34  36
ENDBRANCH  28  30
ENDBRANCH  25  28
ENDBRANCH  20  21
ENDBRANCH   9  17
ENDBRANCH   4   7
TORSDOF 6
ENDMDL
MODEL      141
REMARK 921   NORMALIZED FREE ENERGY PREDICTED BY IDOCK:   12.57 KCAL/MOL
REMARK 922        TOTAL FREE ENERGY PREDICTED BY IDOCK:   16.37 KCAL/MOL
REMARK 923 INTER-LIGAND FREE ENERGY PREDICTED BY IDOCK:   17.23 KCAL/MOL
REMARK 924 INTRA-LIGAND FREE ENERGY PREDICTED BY IDOCK:   -0.87 KCAL/MOL
REMARK 927      BINDING AFFINITY PREDICTED BY RF-SCORE:    0.00 PKD
ROOT
HETATM    1  C   UNL     1      -6.798   3.726  73.595  1.00  0.00    -0.045 C  
HETATM    2  C   UNL     1      -7.432   4.702  72.686  1.00  0.00    -0.085 A  
HETATM    3  C   UNL     1      -8.669   5.307  72.771  1.00  0.00    -0.119 A  
HETATM    4  N   UNL     1      -8.773   6.141  71.680  1.00  0.00    -0.134 NA 
HETATM    5  N   UNL     1      -6.768   5.137  71.574  1.00  0.00    -0.048 NA 
HETATM    6  C   UNL     1      -7.582   5.991  70.997  1.00  0.00    -0.097 A  
ENDROOT
BRANCH   4   7
HETATM    7  C   UNL     1      -9.870   6.980  71.334  1.00  0.00    -0.177 A  
HETATM    8  C   UNL     1      -9.776   8.363  71.536  1.00  0.00    -0.276 A  
HETATM    9  C   UNL     1     -10.837   9.219  71.230  1.00  0.00    -0.347 A  
HETATM   10  F   UNL     1     -14.346   7.657  69.608  1.00  0.00     3.073 F  
HETATM   11  C   UNL     1     -11.993   8.694  70.654  1.00  0.00    -0.056 A  
HETATM   12  F   UNL     1     -13.193   6.028  68.744  1.00  0.00     5.372 F  
HETATM   13  F   UNL     1     -13.985   5.850  70.762  1.00  0.00     1.814 F  
HETATM   14  C   UNL     1     -12.122   7.309  70.452  1.00  0.00    -0.067 A  
HETATM   15  C   UNL     1     -13.397   6.722  69.897  1.00  0.00     3.615 C  
HETATM   16  C   UNL     1     -11.054   6.458  70.799  1.00  0.00    -0.365 A  
BRANCH   9  17
HETATM   17  N   UNL     1     -10.774  10.608  71.463  1.00  0.00     1.350 N  
HETATM   18  O   UNL     1     -11.239  11.416  69.323  1.00  0.00    -0.240 OA 
HETATM   19  H   UNL     1     -10.514  10.915  72.400  1.00  0.00     0.000 HD 
HETATM   20  C   UNL     1     -11.037  11.592  70.520  1.00  0.00     0.863 C  
BRANCH  20  21
HETATM   21  C   UNL     1     -11.121  12.973  71.048  1.00  0.00     2.687 A  
HETATM   22  C   UNL     1     -11.528  13.263  72.348  1.00  0.00     4.055 A  
HETATM   23  C   UNL     1     -11.665  14.596  72.733  1.00  0.00     0.053 A  
HETATM   24  C   UNL     1     -11.411  15.643  71.825  1.00  0.00    -0.505 A  
HETATM   25  C   UNL     1     -10.980  15.352  70.513  1.00  0.00    -0.323 A  
HETATM   26  C   UNL     1     -11.595  17.063  72.287  1.00  0.00     0.583 C  
HETATM   27  C   UNL     1     -10.808  14.008  70.161  1.00  0.00     0.363 A  
BRANCH  25  28
HETATM   28  N   UNL     1     -10.671  16.376  69.609  1.00  0.00    -0.331 NA 
HETATM   29  H   UNL     1     -10.793  17.319  69.978  1.00  0.00     0.000 HD 
BRANCH  28  30
HETATM   30  C   UNL     1     -10.224  16.323  68.292  1.00  0.00    -0.253 A  
HETATM   31  N   UNL     1      -9.141  17.055  67.999  1.00  0.00    -0.232 NA 
HETATM   32  C   UNL     1      -8.640  16.928  66.756  1.00  0.00    -0.225 A  
HETATM   33  C   UNL     1      -9.151  16.070  65.812  1.00  0.00    -0.168 A  
HETATM   34  C   UNL     1     -10.266  15.353  66.190  1.00  0.00    -0.308 A  
HETATM   35  N   UNL     1     -10.812  15.500  67.414  1.00  0.00    -0.309 NA 
BRANCH  34  36
HETATM   36  C   UNL     1     -10.929  14.361  65.332  1.00  0.00    -0.343 A  
HETATM   37  C   UNL     1     -10.270  13.708  64.289  1.00  0.00     0.117 A  
HETATM   38  N   UNL     1     -10.820  12.764  63.486  1.00  0.00    -0.337 NA 
HETATM   39  C   UNL     1     -12.104  12.432  63.738  1.00  0.00    -0.529 A  
HETATM   40  C   UNL     1     -12.859  13.003  64.747  1.00  0.00    -0.336 A  
HETATM   41  C   UNL     1     -12.261  13.973  65.549  1.00  0.00    -0.455 A  
ENDBRANCH  34  36
ENDBRANCH  28  30
ENDBRANCH  25  28
ENDBRANCH  20  21
ENDBRANCH   9  17
ENDBRANCH   4   7
TORSDOF 6
ENDMDL
MODEL      142
REMARK 921   NORMALIZED FREE ENERGY PREDICTED BY IDOCK:   16.69 KCAL/MOL
REMARK 922        TOTAL FREE ENERGY PREDICTED BY IDOCK:   21.94 KCAL/MOL
REMARK 923 INTER-LIGAND FREE ENERGY PREDICTED BY IDOCK:   23.42 KCAL/MOL
REMARK 924 INTRA-LIGAND FREE ENERGY PREDICTED BY IDOCK:   -1.48 KCAL/MOL
REMARK 927      BINDING AFFINITY PREDICTED BY RF-SCORE:    0.00 PKD
ROOT
HETATM    1  C   UNL     1     -11.993   4.337  72.544  1.00  0.00     1.001 C  
HETATM    2  C   UNL     1     -11.846   5.016  71.241  1.00  0.00     2.041 A  
HETATM    3  C   UNL     1     -10.892   4.837  70.260  1.00  0.00     0.734 A  
HETATM    4  N   UNL     1     -11.211   5.705  69.240  1.00  0.00    -0.048 NA 
HETATM    5  N   UNL     1     -12.746   5.970  70.858  1.00  0.00     1.134 NA 
HETATM    6  C   UNL     1     -12.349   6.361  69.668  1.00  0.00     1.454 A  
ENDROOT
BRANCH   4   7
HETATM    7  C   UNL     1     -10.519   5.885  68.009  1.00  0.00    -0.234 A  
HETATM    8  C   UNL     1      -9.745   7.035  67.809  1.00  0.00    -0.156 A  
HETATM    9  C   UNL     1      -9.068   7.260  66.608  1.00  0.00    -0.154 A  
HETATM   10  F   UNL     1      -9.278   4.422  63.560  1.00  0.00    -0.137 F  
HETATM   11  C   UNL     1      -9.114   6.290  65.607  1.00  0.00     0.019 A  
HETATM   12  F   UNL     1      -9.587   2.874  65.056  1.00  0.00    -0.153 F  
HETATM   13  F   UNL     1     -11.289   3.953  64.239  1.00  0.00    -0.245 F  
HETATM   14  C   UNL     1      -9.893   5.131  65.774  1.00  0.00    -0.107 A  
HETATM   15  C   UNL     1     -10.007   4.109  64.669  1.00  0.00    -0.173 C  
HETATM   16  C   UNL     1     -10.596   4.939  66.979  1.00  0.00    -0.080 A  
BRANCH   9  17
HETATM   17  N   UNL     1      -8.316   8.430  66.375  1.00  0.00    -0.112 N  
HETATM   18  O   UNL     1      -9.701   9.523  64.849  1.00  0.00    -0.214 OA 
HETATM   19  H   UNL     1      -7.408   8.502  66.835  1.00  0.00     0.000 HD 
HETATM   20  C   UNL     1      -8.711   9.490  65.572  1.00  0.00    -0.154 C  
BRANCH  20  21
HETATM   21  C   UNL     1      -7.861  10.700  65.653  1.00  0.00    -0.123 A  
HETATM   22  C   UNL     1      -6.909  11.022  64.689  1.00  0.00     0.715 A  
HETATM   23  C   UNL     1      -6.091  12.133  64.890  1.00  0.00     4.965 A  
HETATM   24  C   UNL     1      -6.206  12.917  66.055  1.00  0.00     4.046 A  
HETATM   25  C   UNL     1      -7.183  12.604  67.024  1.00  0.00     0.074 A  
HETATM   26  C   UNL     1      -5.283  14.092  66.232  1.00  0.00     4.600 C  
HETATM   27  C   UNL     1      -8.022  11.511  66.781  1.00  0.00    -0.152 A  
BRANCH  25  28
HETATM   28  N   UNL     1      -7.352  13.400  68.164  1.00  0.00    -0.103 NA 
HETATM   29  H   UNL     1      -7.965  14.205  68.034  1.00  0.00     0.000 HD 
BRANCH  28  30
HETATM   30  C   UNL     1      -6.823  13.276  69.446  1.00  0.00     0.023 A  
HETATM   31  N   UNL     1      -6.533  14.419  70.083  1.00  0.00    -0.156 NA 
HETATM   32  C   UNL     1      -6.120  14.313  71.360  1.00  0.00     0.016 A  
HETATM   33  C   UNL     1      -6.028  13.120  72.036  1.00  0.00     1.091 A  
HETATM   34  C   UNL     1      -6.343  11.991  71.311  1.00  0.00     1.861 A  
HETATM   35  N   UNL     1      -6.713  12.070  70.017  1.00  0.00     0.074 NA 
BRANCH  34  36
HETATM   36  C   UNL     1      -6.339  10.632  71.870  1.00  0.00     1.569 A  
HETATM   37  C   UNL     1      -5.746  10.326  73.096  1.00  0.00     0.826 A  
HETATM   38  N   UNL     1      -5.739   9.099  73.676  1.00  0.00    -0.251 NA 
HETATM   39  C   UNL     1      -6.369   8.112  73.006  1.00  0.00    -0.082 A  
HETATM   40  C   UNL     1      -6.998   8.294  71.788  1.00  0.00    -0.084 A  
HETATM   41  C   UNL     1      -6.982   9.566  71.221  1.00  0.00     0.092 A  
ENDBRANCH  34  36
ENDBRANCH  28  30
ENDBRANCH  25  28
ENDBRANCH  20  21
ENDBRANCH   9  17
ENDBRANCH   4   7
TORSDOF 6
ENDMDL
MODEL      143
REMARK 921   NORMALIZED FREE ENERGY PREDICTED BY IDOCK:   30.63 KCAL/MOL
REMARK 922        TOTAL FREE ENERGY PREDICTED BY IDOCK:   40.76 KCAL/MOL
REMARK 923 INTER-LIGAND FREE ENERGY PREDICTED BY IDOCK:   40.82 KCAL/MOL
REMARK 924 INTRA-LIGAND FREE ENERGY PREDICTED BY IDOCK:   -0.06 KCAL/MOL
REMARK 927      BINDING AFFINITY PREDICTED BY RF-SCORE:    0.00 PKD
ROOT
HETATM    1  C   UNL     1     -12.438  19.163  73.937  1.00  0.00     8.654 C  
HETATM    2  C   UNL     1     -11.905  18.631  72.667  1.00  0.00     6.292 A  
HETATM    3  C   UNL     1     -10.859  17.757  72.452  1.00  0.00     3.118 A  
HETATM    4  N   UNL     1     -10.776  17.574  71.089  1.00  0.00     1.609 NA 
HETATM    5  N   UNL     1     -12.470  18.995  71.478  1.00  0.00    14.536 NA 
HETATM    6  C   UNL     1     -11.786  18.353  70.559  1.00  0.00     6.923 A  
ENDROOT
BRANCH   4   7
HETATM    7  C   UNL     1      -9.852  16.755  70.381  1.00  0.00     1.564 A  
HETATM    8  C   UNL     1     -10.198  15.437  70.060  1.00  0.00    -0.265 A  
HETATM    9  C   UNL     1      -9.312  14.592  69.384  1.00  0.00     0.108 A  
HETATM   10  F   UNL     1      -5.575  16.031  68.222  1.00  0.00    -0.092 F  
HETATM   11  C   UNL     1      -8.079  15.092  68.967  1.00  0.00    -0.178 A  
HETATM   12  F   UNL     1      -6.410  18.036  68.108  1.00  0.00    -0.173 F  
HETATM   13  F   UNL     1      -5.599  17.300  69.987  1.00  0.00    -0.181 F  
HETATM   14  C   UNL     1      -7.699  16.407  69.287  1.00  0.00    -0.171 A  
HETATM   15  C   UNL     1      -6.337  16.934  68.903  1.00  0.00    -0.179 C  
HETATM   16  C   UNL     1      -8.592  17.231  69.998  1.00  0.00     2.039 A  
BRANCH   9  17
HETATM   17  N   UNL     1      -9.629  13.251  69.088  1.00  0.00    -0.214 N  
HETATM   18  O   UNL     1     -11.538  13.549  67.779  1.00  0.00    -0.299 OA 
HETATM   19  H   UNL     1      -9.048  12.528  69.511  1.00  0.00     0.000 HD 
HETATM   20  C   UNL     1     -10.668  12.836  68.267  1.00  0.00    -0.239 C  
BRANCH  20  21
HETATM   21  C   UNL     1     -10.673  11.394  67.928  1.00  0.00    -0.242 A  
HETATM   22  C   UNL     1     -11.464  10.463  68.595  1.00  0.00    -0.238 A  
HETATM   23  C   UNL     1     -11.339   9.112  68.270  1.00  0.00     0.487 A  
HETATM   24  C   UNL     1     -10.420   8.683  67.292  1.00  0.00    -0.360 A  
HETATM   25  C   UNL     1      -9.631   9.628  66.601  1.00  0.00    -0.187 A  
HETATM   26  C   UNL     1     -10.310   7.212  66.996  1.00  0.00    -0.368 C  
HETATM   27  C   UNL     1      -9.804  10.981  66.913  1.00  0.00    -0.222 A  
BRANCH  25  28
HETATM   28  N   UNL     1      -8.749   9.231  65.588  1.00  0.00    -0.155 NA 
HETATM   29  H   UNL     1      -8.952   9.624  64.669  1.00  0.00     0.000 HD 
BRANCH  28  30
HETATM   30  C   UNL     1      -7.641   8.389  65.626  1.00  0.00    -0.089 A  
HETATM   31  N   UNL     1      -6.443   8.972  65.481  1.00  0.00    -0.067 NA 
HETATM   32  C   UNL     1      -5.363   8.182  65.622  1.00  0.00    -0.028 A  
HETATM   33  C   UNL     1      -5.429   6.848  65.942  1.00  0.00    -0.026 A  
HETATM   34  C   UNL     1      -6.697   6.322  66.073  1.00  0.00    -0.052 A  
HETATM   35  N   UNL     1      -7.794   7.085  65.890  1.00  0.00    -0.101 NA 
BRANCH  34  36
HETATM   36  C   UNL     1      -6.969   4.928  66.447  1.00  0.00    -0.067 A  
HETATM   37  C   UNL     1      -7.393   4.562  67.726  1.00  0.00    -0.069 A  
HETATM   38  N   UNL     1      -7.688   3.298  68.120  1.00  0.00    -0.059 NA 
HETATM   39  C   UNL     1      -7.569   2.332  67.185  1.00  0.00    -0.061 A  
HETATM   40  C   UNL     1      -7.165   2.571  65.884  1.00  0.00    -0.065 A  
HETATM   41  C   UNL     1      -6.866   3.882  65.517  1.00  0.00    -0.057 A  
ENDBRANCH  34  36
ENDBRANCH  28  30
ENDBRANCH  25  28
ENDBRANCH  20  21
ENDBRANCH   9  17
ENDBRANCH   4   7
TORSDOF 6
ENDMDL
MODEL      144
REMARK 921   NORMALIZED FREE ENERGY PREDICTED BY IDOCK:   45.16 KCAL/MOL
REMARK 922        TOTAL FREE ENERGY PREDICTED BY IDOCK:   60.40 KCAL/MOL
REMARK 923 INTER-LIGAND FREE ENERGY PREDICTED BY IDOCK:   61.47 KCAL/MOL
REMARK 924 INTRA-LIGAND FREE ENERGY PREDICTED BY IDOCK:   -1.07 KCAL/MOL
REMARK 927      BINDING AFFINITY PREDICTED BY RF-SCORE:    0.00 PKD
ROOT
HETATM    1  C   UNL     1      -9.637   2.050  68.862  1.00  0.00    -0.095 C  
HETATM    2  C   UNL     1      -9.553   3.466  69.271  1.00  0.00    -0.066 A  
HETATM    3  C   UNL     1     -10.257   4.558  68.805  1.00  0.00     0.159 A  
HETATM    4  N   UNL     1      -9.812   5.646  69.523  1.00  0.00    -0.166 NA 
HETATM    5  N   UNL     1      -8.685   3.847  70.255  1.00  0.00    -0.072 NA 
HETATM    6  C   UNL     1      -8.860   5.142  70.387  1.00  0.00    -0.125 A  
ENDROOT
BRANCH   4   7
HETATM    7  C   UNL     1     -10.244   6.997  69.403  1.00  0.00    -0.189 A  
HETATM    8  C   UNL     1      -9.345   7.976  68.965  1.00  0.00    -0.147 A  
HETATM    9  C   UNL     1      -9.723   9.318  68.854  1.00  0.00    -0.161 A  
HETATM   10  F   UNL     1     -13.633  10.440  69.767  1.00  0.00     0.058 F  
HETATM   11  C   UNL     1     -11.041   9.679  69.126  1.00  0.00    -0.123 A  
HETATM   12  F   UNL     1     -14.308   8.448  69.215  1.00  0.00     4.958 F  
HETATM   13  F   UNL     1     -13.662   8.852  71.252  1.00  0.00    -0.380 F  
HETATM   14  C   UNL     1     -11.963   8.720  69.580  1.00  0.00     1.139 A  
HETATM   15  C   UNL     1     -13.374   9.114  69.947  1.00  0.00     2.277 C  
HETATM   16  C   UNL     1     -11.554   7.380  69.719  1.00  0.00     0.124 A  
BRANCH   9  17
HETATM   17  N   UNL     1      -8.819  10.323  68.452  1.00  0.00    -0.126 N  
HETATM   18  O   UNL     1      -9.259  10.394  66.162  1.00  0.00    -0.160 OA 
HETATM   19  H   UNL     1      -8.205  10.713  69.166  1.00  0.00     0.000 HD 
HETATM   20  C   UNL     1      -8.699  10.825  67.164  1.00  0.00    -0.131 C  
BRANCH  20  21
HETATM   21  C   UNL     1      -7.841  12.024  67.026  1.00  0.00    -0.138 A  
HETATM   22  C   UNL     1      -6.844  12.134  66.061  1.00  0.00     1.563 A  
HETATM   23  C   UNL     1      -6.024  13.263  66.060  1.00  0.00     5.189 A  
HETATM   24  C   UNL     1      -6.184  14.275  67.027  1.00  0.00     1.121 A  
HETATM   25  C   UNL     1      -7.207  14.175  67.995  1.00  0.00    -0.143 A  
HETATM   26  C   UNL     1      -5.258  15.461  66.994  1.00  0.00     0.757 C  
HETATM   27  C   UNL     1      -8.045  13.055  67.949  1.00  0.00    -0.158 A  
BRANCH  25  28
HETATM   28  N   UNL     1      -7.418  15.194  68.932  1.00  0.00    -0.131 NA 
HETATM   29  H   UNL     1      -6.592  15.457  69.468  1.00  0.00     0.000 HD 
BRANCH  28  30
HETATM   30  C   UNL     1      -8.569  15.908  69.254  1.00  0.00    -0.247 A  
HETATM   31  N   UNL     1      -9.609  15.771  68.420  1.00  0.00    -0.197 NA 
HETATM   32  C   UNL     1     -10.758  16.372  68.779  1.00  0.00    -0.321 A  
HETATM   33  C   UNL     1     -10.922  17.066  69.954  1.00  0.00     0.254 A  
HETATM   34  C   UNL     1      -9.806  17.162  70.758  1.00  0.00     3.044 A  
HETATM   35  N   UNL     1      -8.632  16.607  70.395  1.00  0.00     2.414 NA 
BRANCH  34  36
HETATM   36  C   UNL     1      -9.796  17.830  72.066  1.00  0.00     7.842 A  
HETATM   37  C   UNL     1     -10.965  18.226  72.717  1.00  0.00     2.945 A  
HETATM   38  N   UNL     1     -11.019  18.817  73.937  1.00  0.00     2.000 NA 
HETATM   39  C   UNL     1      -9.840  19.020  74.561  1.00  0.00     5.391 A  
HETATM   40  C   UNL     1      -8.616  18.666  74.021  1.00  0.00     8.411 A  
HETATM   41  C   UNL     1      -8.600  18.065  72.764  1.00  0.00    15.095 A  
ENDBRANCH  34  36
ENDBRANCH  28  30
ENDBRANCH  25  28
ENDBRANCH  20  21
ENDBRANCH   9  17
ENDBRANCH   4   7
TORSDOF 6
ENDMDL
MODEL      145
REMARK 921   NORMALIZED FREE ENERGY PREDICTED BY IDOCK:   46.38 KCAL/MOL
REMARK 922        TOTAL FREE ENERGY PREDICTED BY IDOCK:   62.04 KCAL/MOL
REMARK 923 INTER-LIGAND FREE ENERGY PREDICTED BY IDOCK:   63.55 KCAL/MOL
REMARK 924 INTRA-LIGAND FREE ENERGY PREDICTED BY IDOCK:   -1.51 KCAL/MOL
REMARK 927      BINDING AFFINITY PREDICTED BY RF-SCORE:    0.00 PKD
ROOT
HETATM    1  C   UNL     1      -5.590  15.253  70.823  1.00  0.00    -0.082 C  
HETATM    2  C   UNL     1      -6.343  14.008  71.077  1.00  0.00     0.138 A  
HETATM    3  C   UNL     1      -6.205  12.764  70.495  1.00  0.00     0.193 A  
HETATM    4  N   UNL     1      -7.140  11.948  71.092  1.00  0.00     3.152 NA 
HETATM    5  N   UNL     1      -7.336  13.985  72.015  1.00  0.00     3.434 NA 
HETATM    6  C   UNL     1      -7.790  12.753  72.006  1.00  0.00    13.148 A  
ENDROOT
BRANCH   4   7
HETATM    7  C   UNL     1      -7.380  10.570  70.825  1.00  0.00     1.123 A  
HETATM    8  C   UNL     1      -8.151  10.202  69.716  1.00  0.00    -0.167 A  
HETATM    9  C   UNL     1      -8.428   8.862  69.432  1.00  0.00    -0.124 A  
HETATM   10  F   UNL     1      -6.871   5.869  71.882  1.00  0.00    -0.060 F  
HETATM   11  C   UNL     1      -7.874   7.865  70.235  1.00  0.00    -0.089 A  
HETATM   12  F   UNL     1      -5.206   7.176  72.380  1.00  0.00    -0.034 F  
HETATM   13  F   UNL     1      -7.038   7.253  73.550  1.00  0.00    -0.071 F  
HETATM   14  C   UNL     1      -7.107   8.205  71.362  1.00  0.00    -0.068 A  
HETATM   15  C   UNL     1      -6.563   7.136  72.279  1.00  0.00    -0.056 C  
HETATM   16  C   UNL     1      -6.868   9.562  71.652  1.00  0.00     0.303 A  
BRANCH   9  17
HETATM   17  N   UNL     1      -9.235   8.475  68.342  1.00  0.00    -0.135 N  
HETATM   18  O   UNL     1      -8.022   9.393  66.573  1.00  0.00    -0.106 OA 
HETATM   19  H   UNL     1     -10.103   7.982  68.553  1.00  0.00     0.000 HD 
HETATM   20  C   UNL     1      -8.945   8.712  67.006  1.00  0.00    -0.133 C  
BRANCH  20  21
HETATM   21  C   UNL     1      -9.825   8.025  66.033  1.00  0.00     0.083 A  
HETATM   22  C   UNL     1     -10.381   8.667  64.930  1.00  0.00     3.382 A  
HETATM   23  C   UNL     1     -11.270   7.967  64.115  1.00  0.00    15.594 A  
HETATM   24  C   UNL     1     -11.619   6.632  64.402  1.00  0.00    12.130 A  
HETATM   25  C   UNL     1     -11.042   5.973  65.509  1.00  0.00     2.338 A  
HETATM   26  C   UNL     1     -12.600   5.930  63.503  1.00  0.00     9.315 C  
HETATM   27  C   UNL     1     -10.120   6.681  66.287  1.00  0.00     0.055 A  
BRANCH  25  28
HETATM   28  N   UNL     1     -11.333   4.630  65.783  1.00  0.00    -0.644 NA 
HETATM   29  H   UNL     1     -12.328   4.409  65.816  1.00  0.00     0.000 HD 
BRANCH  28  30
HETATM   30  C   UNL     1     -10.491   3.547  66.019  1.00  0.00     1.126 A  
HETATM   31  N   UNL     1     -10.175   2.795  64.955  1.00  0.00     0.376 NA 
HETATM   32  C   UNL     1      -9.279   1.810  65.153  1.00  0.00    -0.075 A  
HETATM   33  C   UNL     1      -8.657   1.575  66.355  1.00  0.00    -0.107 A  
HETATM   34  C   UNL     1      -9.036   2.390  67.400  1.00  0.00    -0.163 A  
HETATM   35  N   UNL     1      -9.966   3.353  67.235  1.00  0.00     0.259 NA 
BRANCH  34  36
HETATM   36  C   UNL     1      -8.456   2.316  68.748  1.00  0.00    -0.091 A  
HETATM   37  C   UNL     1      -7.107   2.571  69.000  1.00  0.00    -0.044 A  
HETATM   38  N   UNL     1      -6.523   2.547  70.225  1.00  0.00    -0.028 NA 
HETATM   39  C   UNL     1      -7.327   2.265  71.271  1.00  0.00    -0.033 A  
HETATM   40  C   UNL     1      -8.680   2.002  71.148  1.00  0.00    -0.106 A  
HETATM   41  C   UNL     1      -9.244   2.030  69.874  1.00  0.00    -0.178 A  
ENDBRANCH  34  36
ENDBRANCH  28  30
ENDBRANCH  25  28
ENDBRANCH  20  21
ENDBRANCH   9  17
ENDBRANCH   4   7
TORSDOF 6
ENDMDL
MODEL      146
REMARK 921   NORMALIZED FREE ENERGY PREDICTED BY IDOCK:   85.33 KCAL/MOL
REMARK 922        TOTAL FREE ENERGY PREDICTED BY IDOCK:  114.66 KCAL/MOL
REMARK 923 INTER-LIGAND FREE ENERGY PREDICTED BY IDOCK:  111.76 KCAL/MOL
REMARK 924 INTRA-LIGAND FREE ENERGY PREDICTED BY IDOCK:    2.90 KCAL/MOL
REMARK 927      BINDING AFFINITY PREDICTED BY RF-SCORE:    0.00 PKD
ROOT
HETATM    1  C   UNL     1     -13.219  19.885  74.189  1.00  0.00    14.976 C  
HETATM    2  C   UNL     1     -12.340  19.089  73.310  1.00  0.00     9.844 A  
HETATM    3  C   UNL     1     -11.361  18.176  73.642  1.00  0.00     1.566 A  
HETATM    4  N   UNL     1     -10.845  17.706  72.455  1.00  0.00     2.399 NA 
HETATM    5  N   UNL     1     -12.445  19.198  71.952  1.00  0.00    14.413 NA 
HETATM    6  C   UNL     1     -11.551  18.367  71.469  1.00  0.00     5.694 A  
ENDROOT
BRANCH   4   7
HETATM    7  C   UNL     1      -9.811  16.742  72.282  1.00  0.00     7.877 A  
HETATM    8  C   UNL     1     -10.133  15.449  71.852  1.00  0.00     2.351 A  
HETATM    9  C   UNL     1      -9.150  14.468  71.689  1.00  0.00     5.525 A  
HETATM   10  F   UNL     1      -5.155  15.409  72.425  1.00  0.00    -0.218 F  
HETATM   11  C   UNL     1      -7.813  14.800  71.903  1.00  0.00     4.514 A  
HETATM   12  F   UNL     1      -5.572  17.478  71.903  1.00  0.00     0.028 F  
HETATM   13  F   UNL     1      -5.842  16.797  73.950  1.00  0.00     2.093 F  
HETATM   14  C   UNL     1      -7.461  16.087  72.347  1.00  0.00     9.019 A  
HETATM   15  C   UNL     1      -6.024  16.435  72.650  1.00  0.00     2.592 C  
HETATM   16  C   UNL     1      -8.469  17.051  72.538  1.00  0.00    16.383 A  
BRANCH   9  17
HETATM   17  N   UNL     1      -9.461  13.151  71.295  1.00  0.00     9.745 N  
HETATM   18  O   UNL     1     -11.477  13.510  70.177  1.00  0.00    -0.162 OA 
HETATM   19  H   UNL     1      -8.831  12.409  71.600  1.00  0.00     0.000 HD 
HETATM   20  C   UNL     1     -10.554  12.781  70.525  1.00  0.00     3.005 C  
BRANCH  20  21
HETATM   21  C   UNL     1     -10.555  11.377  70.054  1.00  0.00     0.543 A  
HETATM   22  C   UNL     1     -10.910  10.306  70.869  1.00  0.00     0.005 A  
HETATM   23  C   UNL     1     -10.796   9.008  70.369  1.00  0.00    -0.284 A  
HETATM   24  C   UNL     1     -10.317   8.772  69.066  1.00  0.00    -0.227 A  
HETATM   25  C   UNL     1      -9.975   9.858  68.231  1.00  0.00    -0.151 A  
HETATM   26  C   UNL     1     -10.193   7.352  68.585  1.00  0.00    -0.203 C  
HETATM   27  C   UNL     1     -10.138  11.152  68.738  1.00  0.00    -0.211 A  
BRANCH  25  28
HETATM   28  N   UNL     1      -9.547   9.651  66.914  1.00  0.00    -0.159 NA 
HETATM   29  H   UNL     1      -9.751  10.419  66.274  1.00  0.00     0.000 HD 
BRANCH  28  30
HETATM   30  C   UNL     1      -8.889   8.571  66.331  1.00  0.00    -0.150 A  
HETATM   31  N   UNL     1      -7.832   8.862  65.561  1.00  0.00    -0.097 NA 
HETATM   32  C   UNL     1      -7.127   7.821  65.080  1.00  0.00    -0.060 A  
HETATM   33  C   UNL     1      -7.411   6.508  65.369  1.00  0.00    -0.076 A  
HETATM   34  C   UNL     1      -8.515   6.291  66.166  1.00  0.00    -0.138 A  
HETATM   35  N   UNL     1      -9.262   7.318  66.621  1.00  0.00    -0.152 NA 
BRANCH  34  36
HETATM   36  C   UNL     1      -8.953   4.962  66.613  1.00  0.00    -0.111 A  
HETATM   37  C   UNL     1      -8.626   4.446  67.869  1.00  0.00    -0.102 A  
HETATM   38  N   UNL     1      -9.026   3.242  68.347  1.00  0.00    -0.120 NA 
HETATM   39  C   UNL     1      -9.812   2.503  67.537  1.00  0.00     0.593 A  
HETATM   40  C   UNL     1     -10.209   2.909  66.275  1.00  0.00     1.420 A  
HETATM   41  C   UNL     1      -9.774   4.150  65.816  1.00  0.00    -0.205 A  
ENDBRANCH  34  36
ENDBRANCH  28  30
ENDBRANCH  25  28
ENDBRANCH  20  21
ENDBRANCH   9  17
ENDBRANCH   4   7
TORSDOF 6
ENDMDL
MODEL      147
REMARK 921   NORMALIZED FREE ENERGY PREDICTED BY IDOCK:   86.90 KCAL/MOL
REMARK 922        TOTAL FREE ENERGY PREDICTED BY IDOCK:  116.78 KCAL/MOL
REMARK 923 INTER-LIGAND FREE ENERGY PREDICTED BY IDOCK:  117.77 KCAL/MOL
REMARK 924 INTRA-LIGAND FREE ENERGY PREDICTED BY IDOCK:   -1.00 KCAL/MOL
REMARK 927      BINDING AFFINITY PREDICTED BY RF-SCORE:    0.00 PKD
ROOT
HETATM    1  C   UNL     1     -13.157  19.111  72.900  1.00  0.00    18.658 C  
HETATM    2  C   UNL     1     -12.712  18.008  72.024  1.00  0.00    10.528 A  
HETATM    3  C   UNL     1     -12.614  16.658  72.294  1.00  0.00     0.742 A  
HETATM    4  N   UNL     1     -12.160  16.060  71.140  1.00  0.00    -0.406 NA 
HETATM    5  N   UNL     1     -12.332  18.262  70.737  1.00  0.00    10.372 NA 
HETATM    6  C   UNL     1     -12.012  17.092  70.233  1.00  0.00     2.834 A  
ENDROOT
BRANCH   4   7
HETATM    7  C   UNL     1     -11.903  14.676  70.925  1.00  0.00    -0.313 A  
HETATM    8  C   UNL     1     -12.115  14.120  69.658  1.00  0.00    -0.400 A  
HETATM    9  C   UNL     1     -11.896  12.762  69.411  1.00  0.00    -0.300 A  
HETATM   10  F   UNL     1     -10.506  10.306  72.481  1.00  0.00     2.461 F  
HETATM   11  C   UNL     1     -11.397  11.955  70.433  1.00  0.00     0.349 A  
HETATM   12  F   UNL     1      -9.543  12.030  73.391  1.00  0.00    16.995 F  
HETATM   13  F   UNL     1     -11.609  11.555  73.877  1.00  0.00     9.860 F  
HETATM   14  C   UNL     1     -11.187  12.482  71.718  1.00  0.00     4.999 A  
HETATM   15  C   UNL     1     -10.716  11.601  72.850  1.00  0.00    15.042 C  
HETATM   16  C   UNL     1     -11.447  13.846  71.956  1.00  0.00     1.815 A  
BRANCH   9  17
HETATM   17  N   UNL     1     -12.141  12.177  68.152  1.00  0.00    -0.156 N  
HETATM   18  O   UNL     1     -12.626  14.079  66.891  1.00  0.00    -0.262 OA 
HETATM   19  H   UNL     1     -12.108  11.159  68.093  1.00  0.00     0.000 HD 
HETATM   20  C   UNL     1     -12.423  12.874  66.986  1.00  0.00     0.415 C  
BRANCH  20  21
HETATM   21  C   UNL     1     -12.428  12.064  65.746  1.00  0.00     0.779 A  
HETATM   22  C   UNL     1     -13.593  11.743  65.055  1.00  0.00     3.920 A  
HETATM   23  C   UNL     1     -13.514  10.901  63.946  1.00  0.00     4.028 A  
HETATM   24  C   UNL     1     -12.279  10.363  63.531  1.00  0.00     4.714 A  
HETATM   25  C   UNL     1     -11.094  10.702  64.219  1.00  0.00     0.802 A  
HETATM   26  C   UNL     1     -12.253   9.442  62.342  1.00  0.00    11.727 C  
HETATM   27  C   UNL     1     -11.192  11.583  65.301  1.00  0.00    -0.203 A  
BRANCH  25  28
HETATM   28  N   UNL     1      -9.849  10.223  63.792  1.00  0.00    -0.425 NA 
HETATM   29  H   UNL     1      -9.778  10.058  62.788  1.00  0.00     0.000 HD 
BRANCH  28  30
HETATM   30  C   UNL     1      -8.691   9.933  64.510  1.00  0.00    -0.198 A  
HETATM   31  N   UNL     1      -7.569   9.776  63.794  1.00  0.00    -0.126 NA 
HETATM   32  C   UNL     1      -6.428   9.601  64.486  1.00  0.00    -0.101 A  
HETATM   33  C   UNL     1      -6.357   9.619  65.858  1.00  0.00    -0.077 A  
HETATM   34  C   UNL     1      -7.554   9.784  66.521  1.00  0.00    -0.098 A  
HETATM   35  N   UNL     1      -8.715   9.915  65.849  1.00  0.00    -0.135 NA 
BRANCH  34  36
HETATM   36  C   UNL     1      -7.674   9.867  67.983  1.00  0.00    -0.086 A  
HETATM   37  C   UNL     1      -8.581   9.092  68.708  1.00  0.00    -0.131 A  
HETATM   38  N   UNL     1      -8.716   9.103  70.058  1.00  0.00    -0.159 NA 
HETATM   39  C   UNL     1      -7.890   9.924  70.739  1.00  0.00     0.377 A  
HETATM   40  C   UNL     1      -6.945  10.734  70.134  1.00  0.00    -0.007 A  
HETATM   41  C   UNL     1      -6.840  10.700  68.745  1.00  0.00    -0.062 A  
ENDBRANCH  34  36
ENDBRANCH  28  30
ENDBRANCH  25  28
ENDBRANCH  20  21
ENDBRANCH   9  17
ENDBRANCH   4   7
TORSDOF 6
ENDMDL
MODEL      148
REMARK 921   NORMALIZED FREE ENERGY PREDICTED BY IDOCK:   86.96 KCAL/MOL
REMARK 922        TOTAL FREE ENERGY PREDICTED BY IDOCK:  116.85 KCAL/MOL
REMARK 923 INTER-LIGAND FREE ENERGY PREDICTED BY IDOCK:  117.80 KCAL/MOL
REMARK 924 INTRA-LIGAND FREE ENERGY PREDICTED BY IDOCK:   -0.95 KCAL/MOL
REMARK 927      BINDING AFFINITY PREDICTED BY RF-SCORE:    0.00 PKD
ROOT
HETATM    1  C   UNL     1     -13.157  19.111  72.900  1.00  0.00    18.658 C  
HETATM    2  C   UNL     1     -12.712  18.008  72.024  1.00  0.00    10.528 A  
HETATM    3  C   UNL     1     -12.614  16.658  72.294  1.00  0.00     0.742 A  
HETATM    4  N   UNL     1     -12.160  16.060  71.140  1.00  0.00    -0.406 NA 
HETATM    5  N   UNL     1     -12.332  18.262  70.737  1.00  0.00    10.372 NA 
HETATM    6  C   UNL     1     -12.012  17.092  70.233  1.00  0.00     2.834 A  
ENDROOT
BRANCH   4   7
HETATM    7  C   UNL     1     -11.903  14.676  70.925  1.00  0.00    -0.313 A  
HETATM    8  C   UNL     1     -12.115  14.120  69.658  1.00  0.00    -0.400 A  
HETATM    9  C   UNL     1     -11.896  12.762  69.411  1.00  0.00    -0.300 A  
HETATM   10  F   UNL     1     -10.506  10.306  72.481  1.00  0.00     2.461 F  
HETATM   11  C   UNL     1     -11.397  11.955  70.433  1.00  0.00     0.349 A  
HETATM   12  F   UNL     1      -9.543  12.030  73.391  1.00  0.00    16.995 F  
HETATM   13  F   UNL     1     -11.609  11.555  73.877  1.00  0.00     9.860 F  
HETATM   14  C   UNL     1     -11.187  12.482  71.718  1.00  0.00     4.999 A  
HETATM   15  C   UNL     1     -10.716  11.601  72.850  1.00  0.00    15.042 C  
HETATM   16  C   UNL     1     -11.447  13.846  71.956  1.00  0.00     1.815 A  
BRANCH   9  17
HETATM   17  N   UNL     1     -12.141  12.177  68.152  1.00  0.00    -0.156 N  
HETATM   18  O   UNL     1     -12.626  14.079  66.891  1.00  0.00    -0.262 OA 
HETATM   19  H   UNL     1     -12.108  11.159  68.093  1.00  0.00     0.000 HD 
HETATM   20  C   UNL     1     -12.423  12.874  66.986  1.00  0.00     0.415 C  
BRANCH  20  21
HETATM   21  C   UNL     1     -12.428  12.064  65.746  1.00  0.00     0.779 A  
HETATM   22  C   UNL     1     -13.593  11.743  65.055  1.00  0.00     3.920 A  
HETATM   23  C   UNL     1     -13.514  10.901  63.946  1.00  0.00     4.028 A  
HETATM   24  C   UNL     1     -12.279  10.363  63.531  1.00  0.00     4.714 A  
HETATM   25  C   UNL     1     -11.094  10.702  64.219  1.00  0.00     0.802 A  
HETATM   26  C   UNL     1     -12.253   9.442  62.342  1.00  0.00    11.727 C  
HETATM   27  C   UNL     1     -11.192  11.583  65.301  1.00  0.00    -0.203 A  
BRANCH  25  28
HETATM   28  N   UNL     1      -9.849  10.223  63.792  1.00  0.00    -0.425 NA 
HETATM   29  H   UNL     1      -9.453  10.719  62.994  1.00  0.00     0.000 HD 
BRANCH  28  30
HETATM   30  C   UNL     1      -9.061   9.181  64.275  1.00  0.00     0.073 A  
HETATM   31  N   UNL     1      -7.789   9.151  63.856  1.00  0.00    -0.122 NA 
HETATM   32  C   UNL     1      -6.993   8.211  64.399  1.00  0.00    -0.076 A  
HETATM   33  C   UNL     1      -7.404   7.331  65.370  1.00  0.00    -0.079 A  
HETATM   34  C   UNL     1      -8.727   7.425  65.747  1.00  0.00    -0.109 A  
HETATM   35  N   UNL     1      -9.554   8.328  65.183  1.00  0.00     0.705 NA 
BRANCH  34  36
HETATM   36  C   UNL     1      -9.339   6.597  66.795  1.00  0.00    -0.184 A  
HETATM   37  C   UNL     1      -8.740   5.433  67.279  1.00  0.00    -0.107 A  
HETATM   38  N   UNL     1      -9.242   4.647  68.264  1.00  0.00    -0.121 NA 
HETATM   39  C   UNL     1     -10.408   5.043  68.817  1.00  0.00    -0.039 A  
HETATM   40  C   UNL     1     -11.092   6.180  68.427  1.00  0.00    -0.343 A  
HETATM   41  C   UNL     1     -10.548   6.960  67.409  1.00  0.00    -0.373 A  
ENDBRANCH  34  36
ENDBRANCH  28  30
ENDBRANCH  25  28
ENDBRANCH  20  21
ENDBRANCH   9  17
ENDBRANCH   4   7
TORSDOF 6
ENDMDL
