MODEL        1
REMARK 921   NORMALIZED FREE ENERGY PREDICTED BY IDOCK:   -7.89 KCAL/MOL
REMARK 922        TOTAL FREE ENERGY PREDICTED BY IDOCK:   -8.52 KCAL/MOL
REMARK 923 INTER-LIGAND FREE ENERGY PREDICTED BY IDOCK:   -8.35 KCAL/MOL
REMARK 924 INTRA-LIGAND FREE ENERGY PREDICTED BY IDOCK:   -0.17 KCAL/MOL
REMARK 927      BINDING AFFINITY PREDICTED BY RF-SCORE:    0.00 PKD
ROOT
HETATM    1  C   UNL     1     -12.150  12.415  65.609  1.00  0.00    -0.396 C  
HETATM    2  C   UNL     1     -11.182  13.339  64.889  1.00  0.00    -0.318 C  
HETATM    3  N   UNL     1     -11.849  14.425  64.234  1.00  0.00    -0.397 NA 
HETATM    4  C   UNL     1     -10.291  12.588  63.901  1.00  0.00    -0.436 C  
HETATM    5  C   UNL     1     -11.269  15.640  64.525  1.00  0.00    -0.325 C  
HETATM    6  N   UNL     1     -10.357  15.472  65.546  1.00  0.00    -0.365 N  
HETATM    7  O   UNL     1     -11.588  16.643  63.907  1.00  0.00    -1.204 OA 
HETATM    8  C   UNL     1     -10.302  14.127  65.871  1.00  0.00    -0.316 C  
HETATM    9  O   UNL     1      -9.634  13.568  66.734  1.00  0.00    -0.251 OA 
ENDROOT
BRANCH   6  10
HETATM   10  C   UNL     1      -9.591  16.515  66.163  1.00  0.00    -0.315 A  
HETATM   11  C   UNL     1     -10.200  17.678  66.683  1.00  0.00    -0.341 A  
HETATM   12  C   UNL     1      -9.465  18.723  67.296  1.00  0.00    -0.326 A  
HETATM   13  C   UNL     1     -10.177  19.932  67.844  1.00  0.00    -0.434 C  
HETATM   14  C   UNL     1      -8.079  18.573  67.389  1.00  0.00    -0.240 A  
HETATM   15  F   UNL     1      -9.856  20.174  69.142  1.00  0.00    -0.359 F  
HETATM   16  N   UNL     1      -7.249  19.592  68.016  1.00  0.00    -0.269 N  
HETATM   17  F   UNL     1     -11.534  19.812  67.820  1.00  0.00    -0.252 F  
HETATM   18  C   UNL     1      -7.438  17.439  66.894  1.00  0.00    -0.244 A  
HETATM   19  F   UNL     1      -9.904  21.069  67.154  1.00  0.00    -0.611 F  
HETATM   20  C   UNL     1      -8.193  16.428  66.285  1.00  0.00    -0.343 A  
HETATM   21  O   UNL     1      -7.276  20.722  67.521  1.00  0.00    -0.331 OA 
HETATM   22  O   UNL     1      -6.555  19.234  68.975  1.00  0.00    -0.277 OA 
ENDBRANCH   6  10
TORSDOF 1
ENDMDL
MODEL        2
REMARK 921   NORMALIZED FREE ENERGY PREDICTED BY IDOCK:   -7.29 KCAL/MOL
REMARK 922        TOTAL FREE ENERGY PREDICTED BY IDOCK:   -7.88 KCAL/MOL
REMARK 923 INTER-LIGAND FREE ENERGY PREDICTED BY IDOCK:   -8.18 KCAL/MOL
REMARK 924 INTRA-LIGAND FREE ENERGY PREDICTED BY IDOCK:    0.30 KCAL/MOL
REMARK 927      BINDING AFFINITY PREDICTED BY RF-SCORE:    0.00 PKD
ROOT
HETATM    1  C   UNL     1     -12.207  14.748  73.701  1.00  0.00    -0.431 C  
HETATM    2  C   UNL     1     -12.722  15.201  72.344  1.00  0.00    -0.348 C  
HETATM    3  N   UNL     1     -11.872  16.181  71.737  1.00  0.00    -0.503 NA 
HETATM    4  C   UNL     1     -14.161  15.711  72.412  1.00  0.00    -0.575 C  
HETATM    5  C   UNL     1     -11.570  15.867  70.430  1.00  0.00    -0.371 C  
HETATM    6  N   UNL     1     -11.991  14.580  70.166  1.00  0.00    -0.295 N  
HETATM    7  O   UNL     1     -11.018  16.681  69.709  1.00  0.00    -0.330 OA 
HETATM    8  C   UNL     1     -12.627  14.086  71.293  1.00  0.00    -0.367 C  
HETATM    9  O   UNL     1     -13.125  12.980  71.474  1.00  0.00    -0.373 OA 
ENDROOT
BRANCH   6  10
HETATM   10  C   UNL     1     -11.805  13.876  68.931  1.00  0.00    -0.358 A  
HETATM   11  C   UNL     1     -11.669  14.555  67.701  1.00  0.00    -0.410 A  
HETATM   12  C   UNL     1     -11.486  13.882  66.468  1.00  0.00    -0.361 A  
HETATM   13  C   UNL     1     -11.333  14.666  65.191  1.00  0.00    -0.375 C  
HETATM   14  C   UNL     1     -11.431  12.486  66.491  1.00  0.00    -0.362 A  
HETATM   15  F   UNL     1     -10.211  14.319  64.505  1.00  0.00    -0.443 F  
HETATM   16  N   UNL     1     -11.232  11.716  65.272  1.00  0.00    -0.246 N  
HETATM   17  F   UNL     1     -11.234  16.010  65.394  1.00  0.00    -0.280 F  
HETATM   18  C   UNL     1     -11.556  11.777  67.685  1.00  0.00    -0.364 A  
HETATM   19  F   UNL     1     -12.378  14.507  64.339  1.00  0.00    -0.456 F  
HETATM   20  C   UNL     1     -11.746  12.473  68.886  1.00  0.00    -0.367 A  
HETATM   21  O   UNL     1     -12.073  11.849  64.379  1.00  0.00    -0.300 OA 
HETATM   22  O   UNL     1     -10.251  10.963  65.242  1.00  0.00    -0.264 OA 
ENDBRANCH   6  10
TORSDOF 1
ENDMDL
MODEL        3
REMARK 921   NORMALIZED FREE ENERGY PREDICTED BY IDOCK:   -7.27 KCAL/MOL
REMARK 922        TOTAL FREE ENERGY PREDICTED BY IDOCK:   -7.86 KCAL/MOL
REMARK 923 INTER-LIGAND FREE ENERGY PREDICTED BY IDOCK:   -7.43 KCAL/MOL
REMARK 924 INTRA-LIGAND FREE ENERGY PREDICTED BY IDOCK:   -0.43 KCAL/MOL
REMARK 927      BINDING AFFINITY PREDICTED BY RF-SCORE:    0.00 PKD
ROOT
HETATM    1  C   UNL     1      -8.921  19.959  67.543  1.00  0.00    -0.422 C  
HETATM    2  C   UNL     1      -8.858  18.493  67.940  1.00  0.00    -0.284 C  
HETATM    3  N   UNL     1      -9.987  18.092  68.725  1.00  0.00    -0.380 NA 
HETATM    4  C   UNL     1      -7.557  18.144  68.660  1.00  0.00    -0.306 C  
HETATM    5  C   UNL     1     -10.562  16.932  68.251  1.00  0.00    -0.363 C  
HETATM    6  N   UNL     1     -10.016  16.628  67.022  1.00  0.00    -0.263 N  
HETATM    7  O   UNL     1     -11.409  16.348  68.906  1.00  0.00    -0.332 OA 
HETATM    8  C   UNL     1      -9.036  17.563  66.731  1.00  0.00    -0.262 C  
HETATM    9  O   UNL     1      -8.333  17.657  65.732  1.00  0.00    -0.537 OA 
ENDROOT
BRANCH   6  10
HETATM   10  C   UNL     1     -10.396  15.526  66.188  1.00  0.00    -0.315 A  
HETATM   11  C   UNL     1      -9.959  14.209  66.450  1.00  0.00    -0.302 A  
HETATM   12  C   UNL     1     -10.321  13.104  65.640  1.00  0.00    -0.291 A  
HETATM   13  C   UNL     1      -9.832  11.720  65.983  1.00  0.00    -0.232 C  
HETATM   14  C   UNL     1     -11.154  13.345  64.545  1.00  0.00    -0.380 A  
HETATM   15  F   UNL     1     -10.849  10.824  66.075  1.00  0.00    -0.291 F  
HETATM   16  N   UNL     1     -11.584  12.265  63.670  1.00  0.00    -0.460 N  
HETATM   17  F   UNL     1      -9.184  11.661  67.181  1.00  0.00    -0.165 F  
HETATM   18  C   UNL     1     -11.612  14.629  64.254  1.00  0.00    -0.227 A  
HETATM   19  F   UNL     1      -8.953  11.225  65.074  1.00  0.00    -0.193 F  
HETATM   20  C   UNL     1     -11.228  15.702  65.069  1.00  0.00    -0.335 A  
HETATM   21  O   UNL     1     -10.702  11.627  63.089  1.00  0.00    -0.328 OA 
HETATM   22  O   UNL     1     -12.803  12.095  63.551  1.00  0.00    -0.768 OA 
ENDBRANCH   6  10
TORSDOF 1
ENDMDL
MODEL        4
REMARK 921   NORMALIZED FREE ENERGY PREDICTED BY IDOCK:   -7.27 KCAL/MOL
REMARK 922        TOTAL FREE ENERGY PREDICTED BY IDOCK:   -7.86 KCAL/MOL
REMARK 923 INTER-LIGAND FREE ENERGY PREDICTED BY IDOCK:   -7.46 KCAL/MOL
REMARK 924 INTRA-LIGAND FREE ENERGY PREDICTED BY IDOCK:   -0.40 KCAL/MOL
REMARK 927      BINDING AFFINITY PREDICTED BY RF-SCORE:    0.00 PKD
ROOT
HETATM    1  C   UNL     1     -12.546  14.616  73.545  1.00  0.00    -0.459 C  
HETATM    2  C   UNL     1     -12.931  14.969  72.117  1.00  0.00    -0.342 C  
HETATM    3  N   UNL     1     -12.110  16.008  71.572  1.00  0.00    -0.456 NA 
HETATM    4  C   UNL     1     -14.409  15.333  71.989  1.00  0.00    -0.689 C  
HETATM    5  C   UNL     1     -11.620  15.682  70.326  1.00  0.00    -0.356 C  
HETATM    6  N   UNL     1     -11.879  14.351  70.073  1.00  0.00    -0.296 N  
HETATM    7  O   UNL     1     -11.064  16.523  69.640  1.00  0.00    -0.316 OA 
HETATM    8  C   UNL     1     -12.599  13.834  71.137  1.00  0.00    -0.373 C  
HETATM    9  O   UNL     1     -13.007  12.690  71.308  1.00  0.00    -0.322 OA 
ENDROOT
BRANCH   6  10
HETATM   10  C   UNL     1     -11.475  13.628  68.903  1.00  0.00    -0.303 A  
HETATM   11  C   UNL     1     -12.098  13.829  67.652  1.00  0.00    -0.333 A  
HETATM   12  C   UNL     1     -11.717  13.126  66.483  1.00  0.00    -0.433 A  
HETATM   13  C   UNL     1     -12.413  13.398  65.174  1.00  0.00    -0.459 C  
HETATM   14  C   UNL     1     -10.672  12.205  66.589  1.00  0.00    -0.246 A  
HETATM   15  F   UNL     1     -11.538  13.701  64.179  1.00  0.00    -0.374 F  
HETATM   16  N   UNL     1     -10.209  11.450  65.434  1.00  0.00    -0.258 N  
HETATM   17  F   UNL     1     -13.276  14.451  65.233  1.00  0.00    -0.422 F  
HETATM   18  C   UNL     1     -10.027  11.980  67.804  1.00  0.00    -0.199 A  
HETATM   19  F   UNL     1     -13.155  12.349  64.737  1.00  0.00    -0.547 F  
HETATM   20  C   UNL     1     -10.434  12.685  68.944  1.00  0.00    -0.109 A  
HETATM   21  O   UNL     1     -11.032  10.726  64.869  1.00  0.00    -0.102 OA 
HETATM   22  O   UNL     1      -9.016  11.570  65.131  1.00  0.00    -0.059 OA 
ENDBRANCH   6  10
TORSDOF 1
ENDMDL
MODEL        5
REMARK 921   NORMALIZED FREE ENERGY PREDICTED BY IDOCK:   -7.24 KCAL/MOL
REMARK 922        TOTAL FREE ENERGY PREDICTED BY IDOCK:   -7.83 KCAL/MOL
REMARK 923 INTER-LIGAND FREE ENERGY PREDICTED BY IDOCK:   -7.40 KCAL/MOL
REMARK 924 INTRA-LIGAND FREE ENERGY PREDICTED BY IDOCK:   -0.42 KCAL/MOL
REMARK 927      BINDING AFFINITY PREDICTED BY RF-SCORE:    0.00 PKD
ROOT
HETATM    1  C   UNL     1      -9.758  20.471  67.189  1.00  0.00    -0.581 C  
HETATM    2  C   UNL     1      -9.219  19.228  67.879  1.00  0.00    -0.315 C  
HETATM    3  N   UNL     1     -10.110  18.734  68.886  1.00  0.00    -0.375 NA 
HETATM    4  C   UNL     1      -7.824  19.448  68.462  1.00  0.00    -0.389 C  
HETATM    5  C   UNL     1     -10.334  17.380  68.760  1.00  0.00    -0.357 C  
HETATM    6  N   UNL     1      -9.813  16.946  67.559  1.00  0.00    -0.254 N  
HETATM    7  O   UNL     1     -10.911  16.763  69.641  1.00  0.00    -0.333 OA 
HETATM    8  C   UNL     1      -9.192  18.016  66.937  1.00  0.00    -0.269 C  
HETATM    9  O   UNL     1      -8.626  18.053  65.849  1.00  0.00    -0.507 OA 
ENDROOT
BRANCH   6  10
HETATM   10  C   UNL     1      -9.897  15.610  67.045  1.00  0.00    -0.233 A  
HETATM   11  C   UNL     1     -10.847  15.248  66.065  1.00  0.00    -0.331 A  
HETATM   12  C   UNL     1     -10.949  13.935  65.543  1.00  0.00    -0.302 A  
HETATM   13  C   UNL     1     -11.976  13.616  64.487  1.00  0.00    -0.418 C  
HETATM   14  C   UNL     1     -10.058  12.972  66.024  1.00  0.00    -0.284 A  
HETATM   15  F   UNL     1     -11.423  13.030  63.393  1.00  0.00    -0.480 F  
HETATM   16  N   UNL     1     -10.085  11.603  65.532  1.00  0.00    -0.236 N  
HETATM   17  F   UNL     1     -12.626  14.719  64.021  1.00  0.00    -0.489 F  
HETATM   18  C   UNL     1      -9.102  13.289  66.988  1.00  0.00    -0.232 A  
HETATM   19  F   UNL     1     -12.952  12.782  64.928  1.00  0.00    -0.535 F  
HETATM   20  C   UNL     1      -9.033  14.595  67.491  1.00  0.00    -0.193 A  
HETATM   21  O   UNL     1     -11.134  10.971  65.686  1.00  0.00    -0.099 OA 
HETATM   22  O   UNL     1      -9.042  11.170  65.029  1.00  0.00    -0.193 OA 
ENDBRANCH   6  10
TORSDOF 1
ENDMDL
MODEL        6
REMARK 921   NORMALIZED FREE ENERGY PREDICTED BY IDOCK:   -7.14 KCAL/MOL
REMARK 922        TOTAL FREE ENERGY PREDICTED BY IDOCK:   -7.72 KCAL/MOL
REMARK 923 INTER-LIGAND FREE ENERGY PREDICTED BY IDOCK:   -7.64 KCAL/MOL
REMARK 924 INTRA-LIGAND FREE ENERGY PREDICTED BY IDOCK:   -0.09 KCAL/MOL
REMARK 927      BINDING AFFINITY PREDICTED BY RF-SCORE:    0.00 PKD
ROOT
HETATM    1  C   UNL     1     -14.357  15.565  72.414  1.00  0.00    -0.475 C  
HETATM    2  C   UNL     1     -13.142  14.653  72.379  1.00  0.00    -0.387 C  
HETATM    3  N   UNL     1     -13.481  13.284  72.632  1.00  0.00    -0.594 NA 
HETATM    4  C   UNL     1     -12.043  15.116  73.334  1.00  0.00    -0.532 C  
HETATM    5  C   UNL     1     -12.932  12.433  71.697  1.00  0.00    -0.305 C  
HETATM    6  N   UNL     1     -12.409  13.178  70.661  1.00  0.00    -0.356 N  
HETATM    7  O   UNL     1     -12.959  11.226  71.867  1.00  0.00    -0.456 OA 
HETATM    8  C   UNL     1     -12.564  14.521  70.962  1.00  0.00    -0.340 C  
HETATM    9  O   UNL     1     -12.250  15.502  70.297  1.00  0.00    -0.365 OA 
ENDROOT
BRANCH   6  10
HETATM   10  C   UNL     1     -11.802  12.650  69.475  1.00  0.00    -0.312 A  
HETATM   11  C   UNL     1     -12.159  13.109  68.188  1.00  0.00    -0.224 A  
HETATM   12  C   UNL     1     -11.574  12.602  67.001  1.00  0.00    -0.431 A  
HETATM   13  C   UNL     1     -11.990  13.145  65.659  1.00  0.00    -0.415 C  
HETATM   14  C   UNL     1     -10.597  11.612  67.130  1.00  0.00    -0.232 A  
HETATM   15  F   UNL     1     -10.927  13.563  64.922  1.00  0.00    -0.298 F  
HETATM   16  N   UNL     1      -9.936  11.046  65.963  1.00  0.00    -0.228 N  
HETATM   17  F   UNL     1     -12.817  14.224  65.749  1.00  0.00    -0.496 F  
HETATM   18  C   UNL     1     -10.212  11.134  68.381  1.00  0.00    -0.200 A  
HETATM   19  F   UNL     1     -12.660  12.240  64.901  1.00  0.00    -0.502 F  
HETATM   20  C   UNL     1     -10.816  11.650  69.535  1.00  0.00    -0.087 A  
HETATM   21  O   UNL     1     -10.652  10.487  65.127  1.00  0.00    -0.221 OA 
HETATM   22  O   UNL     1      -8.704  11.140  65.920  1.00  0.00    -0.183 OA 
ENDBRANCH   6  10
TORSDOF 1
ENDMDL
MODEL        7
REMARK 921   NORMALIZED FREE ENERGY PREDICTED BY IDOCK:   -7.13 KCAL/MOL
REMARK 922        TOTAL FREE ENERGY PREDICTED BY IDOCK:   -7.72 KCAL/MOL
REMARK 923 INTER-LIGAND FREE ENERGY PREDICTED BY IDOCK:   -7.28 KCAL/MOL
REMARK 924 INTRA-LIGAND FREE ENERGY PREDICTED BY IDOCK:   -0.44 KCAL/MOL
REMARK 927      BINDING AFFINITY PREDICTED BY RF-SCORE:    0.00 PKD
ROOT
HETATM    1  C   UNL     1     -11.303  11.872  66.018  1.00  0.00    -0.375 C  
HETATM    2  C   UNL     1     -11.788  13.290  66.276  1.00  0.00    -0.395 C  
HETATM    3  N   UNL     1     -12.188  13.490  67.637  1.00  0.00    -0.266 NA 
HETATM    4  C   UNL     1     -12.911  13.699  65.325  1.00  0.00    -0.421 C  
HETATM    5  C   UNL     1     -11.625  14.625  68.180  1.00  0.00    -0.335 C  
HETATM    6  N   UNL     1     -10.659  15.106  67.321  1.00  0.00    -0.280 N  
HETATM    7  O   UNL     1     -12.005  15.049  69.259  1.00  0.00    -0.307 OA 
HETATM    8  C   UNL     1     -10.646  14.312  66.186  1.00  0.00    -0.293 C  
HETATM    9  O   UNL     1      -9.924  14.392  65.198  1.00  0.00    -0.354 OA 
ENDROOT
BRANCH   6  10
HETATM   10  C   UNL     1      -9.816  16.240  67.561  1.00  0.00    -0.238 A  
HETATM   11  C   UNL     1     -10.073  17.497  66.971  1.00  0.00    -0.323 A  
HETATM   12  C   UNL     1      -9.254  18.631  67.192  1.00  0.00    -0.294 A  
HETATM   13  C   UNL     1      -9.591  19.949  66.543  1.00  0.00    -0.423 C  
HETATM   14  C   UNL     1      -8.154  18.484  68.041  1.00  0.00    -0.271 A  
HETATM   15  F   UNL     1      -9.671  20.961  67.446  1.00  0.00    -0.589 F  
HETATM   16  N   UNL     1      -7.269  19.601  68.333  1.00  0.00    -0.310 N  
HETATM   17  F   UNL     1     -10.793  19.938  65.901  1.00  0.00    -0.551 F  
HETATM   18  C   UNL     1      -7.868  17.262  68.648  1.00  0.00    -0.272 A  
HETATM   19  F   UNL     1      -8.686  20.329  65.606  1.00  0.00    -0.280 F  
HETATM   20  C   UNL     1      -8.692  16.156  68.401  1.00  0.00    -0.190 A  
HETATM   21  O   UNL     1      -6.691  20.126  67.378  1.00  0.00    -0.205 OA 
HETATM   22  O   UNL     1      -7.140  19.915  69.523  1.00  0.00    -0.309 OA 
ENDBRANCH   6  10
TORSDOF 1
ENDMDL
MODEL        8
REMARK 921   NORMALIZED FREE ENERGY PREDICTED BY IDOCK:   -7.10 KCAL/MOL
REMARK 922        TOTAL FREE ENERGY PREDICTED BY IDOCK:   -7.68 KCAL/MOL
REMARK 923 INTER-LIGAND FREE ENERGY PREDICTED BY IDOCK:   -7.25 KCAL/MOL
REMARK 924 INTRA-LIGAND FREE ENERGY PREDICTED BY IDOCK:   -0.42 KCAL/MOL
REMARK 927      BINDING AFFINITY PREDICTED BY RF-SCORE:    0.00 PKD
ROOT
HETATM    1  C   UNL     1      -6.917  20.384  65.637  1.00  0.00    -0.258 C  
HETATM    2  C   UNL     1      -7.595  19.608  66.755  1.00  0.00    -0.253 C  
HETATM    3  N   UNL     1      -8.880  20.144  67.089  1.00  0.00    -0.342 NA 
HETATM    4  C   UNL     1      -6.719  19.506  68.003  1.00  0.00    -0.279 C  
HETATM    5  C   UNL     1      -9.851  19.167  67.143  1.00  0.00    -0.338 C  
HETATM    6  N   UNL     1      -9.339  17.993  66.632  1.00  0.00    -0.284 N  
HETATM    7  O   UNL     1     -10.956  19.416  67.597  1.00  0.00    -0.429 OA 
HETATM    8  C   UNL     1      -8.008  18.198  66.307  1.00  0.00    -0.236 C  
HETATM    9  O   UNL     1      -7.206  17.415  65.811  1.00  0.00    -0.368 OA 
ENDROOT
BRANCH   6  10
HETATM   10  C   UNL     1     -10.061  16.766  66.470  1.00  0.00    -0.315 A  
HETATM   11  C   UNL     1     -10.331  15.911  67.561  1.00  0.00    -0.283 A  
HETATM   12  C   UNL     1     -11.042  14.693  67.426  1.00  0.00    -0.331 A  
HETATM   13  C   UNL     1     -11.310  13.833  68.634  1.00  0.00    -0.287 C  
HETATM   14  C   UNL     1     -11.497  14.344  66.152  1.00  0.00    -0.357 A  
HETATM   15  F   UNL     1     -12.628  13.533  68.770  1.00  0.00    -0.240 F  
HETATM   16  N   UNL     1     -12.246  13.117  65.927  1.00  0.00    -0.439 N  
HETATM   17  F   UNL     1     -10.948  14.426  69.806  1.00  0.00    -0.257 F  
HETATM   18  C   UNL     1     -11.256  15.161  65.049  1.00  0.00    -0.414 A  
HETATM   19  F   UNL     1     -10.640  12.652  68.606  1.00  0.00    -0.223 F  
HETATM   20  C   UNL     1     -10.541  16.355  65.215  1.00  0.00    -0.320 A  
HETATM   21  O   UNL     1     -11.689  12.056  66.218  1.00  0.00    -0.504 OA 
HETATM   22  O   UNL     1     -13.372  13.235  65.429  1.00  0.00    -0.496 OA 
ENDBRANCH   6  10
TORSDOF 1
ENDMDL
MODEL        9
REMARK 921   NORMALIZED FREE ENERGY PREDICTED BY IDOCK:   -7.04 KCAL/MOL
REMARK 922        TOTAL FREE ENERGY PREDICTED BY IDOCK:   -7.62 KCAL/MOL
REMARK 923 INTER-LIGAND FREE ENERGY PREDICTED BY IDOCK:   -7.27 KCAL/MOL
REMARK 924 INTRA-LIGAND FREE ENERGY PREDICTED BY IDOCK:   -0.35 KCAL/MOL
REMARK 927      BINDING AFFINITY PREDICTED BY RF-SCORE:    0.00 PKD
ROOT
HETATM    1  C   UNL     1      -7.572  20.029  66.719  1.00  0.00    -0.306 C  
HETATM    2  C   UNL     1      -9.016  19.601  66.927  1.00  0.00    -0.331 C  
HETATM    3  N   UNL     1      -9.645  19.196  65.706  1.00  0.00    -0.352 NA 
HETATM    4  C   UNL     1      -9.845  20.679  67.622  1.00  0.00    -0.425 C  
HETATM    5  C   UNL     1     -10.290  17.984  65.833  1.00  0.00    -0.271 C  
HETATM    6  N   UNL     1      -9.940  17.411  67.038  1.00  0.00    -0.284 N  
HETATM    7  O   UNL     1     -11.034  17.583  64.953  1.00  0.00    -0.887 OA 
HETATM    8  C   UNL     1      -9.116  18.290  67.721  1.00  0.00    -0.267 C  
HETATM    9  O   UNL     1      -8.578  18.151  68.813  1.00  0.00    -0.289 OA 
ENDROOT
BRANCH   6  10
HETATM   10  C   UNL     1     -10.364  16.124  67.505  1.00  0.00    -0.286 A  
HETATM   11  C   UNL     1     -11.189  15.980  68.643  1.00  0.00    -0.366 A  
HETATM   12  C   UNL     1     -11.620  14.719  69.125  1.00  0.00    -0.330 A  
HETATM   13  C   UNL     1     -12.511  14.635  70.336  1.00  0.00    -0.352 C  
HETATM   14  C   UNL     1     -11.209  13.581  68.426  1.00  0.00    -0.278 A  
HETATM   15  F   UNL     1     -13.636  13.910  70.098  1.00  0.00     0.159 F  
HETATM   16  N   UNL     1     -11.617  12.249  68.845  1.00  0.00    -0.293 N  
HETATM   17  F   UNL     1     -12.947  15.852  70.768  1.00  0.00    -0.488 F  
HETATM   18  C   UNL     1     -10.400  13.679  67.296  1.00  0.00    -0.249 A  
HETATM   19  F   UNL     1     -11.901  14.070  71.409  1.00  0.00    -0.371 F  
HETATM   20  C   UNL     1      -9.983  14.940  66.851  1.00  0.00    -0.245 A  
HETATM   21  O   UNL     1     -11.292  11.891  69.980  1.00  0.00    -0.176 OA 
HETATM   22  O   UNL     1     -12.230  11.566  68.015  1.00  0.00    -0.582 OA 
ENDBRANCH   6  10
TORSDOF 1
ENDMDL
MODEL       10
REMARK 921   NORMALIZED FREE ENERGY PREDICTED BY IDOCK:   -7.03 KCAL/MOL
REMARK 922        TOTAL FREE ENERGY PREDICTED BY IDOCK:   -7.61 KCAL/MOL
REMARK 923 INTER-LIGAND FREE ENERGY PREDICTED BY IDOCK:   -7.43 KCAL/MOL
REMARK 924 INTRA-LIGAND FREE ENERGY PREDICTED BY IDOCK:   -0.17 KCAL/MOL
REMARK 927      BINDING AFFINITY PREDICTED BY RF-SCORE:    0.00 PKD
ROOT
HETATM    1  C   UNL     1      -6.643  20.268  65.419  1.00  0.00    -0.311 C  
HETATM    2  C   UNL     1      -7.353  19.550  66.555  1.00  0.00    -0.240 C  
HETATM    3  N   UNL     1      -8.726  19.941  66.674  1.00  0.00    -0.336 NA 
HETATM    4  C   UNL     1      -6.631  19.723  67.890  1.00  0.00    -0.276 C  
HETATM    5  C   UNL     1      -9.569  18.854  66.759  1.00  0.00    -0.324 C  
HETATM    6  N   UNL     1      -8.858  17.708  66.471  1.00  0.00    -0.265 N  
HETATM    7  O   UNL     1     -10.743  19.003  67.055  1.00  0.00    -0.441 OA 
HETATM    8  C   UNL     1      -7.533  18.052  66.263  1.00  0.00    -0.277 C  
HETATM    9  O   UNL     1      -6.587  17.332  65.967  1.00  0.00    -0.200 OA 
ENDROOT
BRANCH   6  10
HETATM   10  C   UNL     1      -9.401  16.383  66.404  1.00  0.00    -0.292 A  
HETATM   11  C   UNL     1     -10.523  16.077  65.603  1.00  0.00    -0.416 A  
HETATM   12  C   UNL     1     -11.077  14.776  65.521  1.00  0.00    -0.346 A  
HETATM   13  C   UNL     1     -12.267  14.512  64.636  1.00  0.00    -0.460 C  
HETATM   14  C   UNL     1     -10.468  13.762  66.266  1.00  0.00    -0.291 A  
HETATM   15  F   UNL     1     -12.048  13.486  63.772  1.00  0.00    -0.464 F  
HETATM   16  N   UNL     1     -10.965  12.395  66.229  1.00  0.00    -0.275 N  
HETATM   17  F   UNL     1     -12.603  15.579  63.857  1.00  0.00    -0.391 F  
HETATM   18  C   UNL     1      -9.356  14.020  67.065  1.00  0.00    -0.256 A  
HETATM   19  F   UNL     1     -13.391  14.206  65.332  1.00  0.00    -0.494 F  
HETATM   20  C   UNL     1      -8.838  15.320  67.132  1.00  0.00    -0.232 A  
HETATM   21  O   UNL     1     -12.130  12.210  66.590  1.00  0.00    -0.622 OA 
HETATM   22  O   UNL     1     -10.167  11.521  65.871  1.00  0.00    -0.227 OA 
ENDBRANCH   6  10
TORSDOF 1
ENDMDL
MODEL       11
REMARK 921   NORMALIZED FREE ENERGY PREDICTED BY IDOCK:   -7.02 KCAL/MOL
REMARK 922        TOTAL FREE ENERGY PREDICTED BY IDOCK:   -7.59 KCAL/MOL
REMARK 923 INTER-LIGAND FREE ENERGY PREDICTED BY IDOCK:   -7.37 KCAL/MOL
REMARK 924 INTRA-LIGAND FREE ENERGY PREDICTED BY IDOCK:   -0.23 KCAL/MOL
REMARK 927      BINDING AFFINITY PREDICTED BY RF-SCORE:    0.00 PKD
ROOT
HETATM    1  C   UNL     1     -12.035  12.547  65.823  1.00  0.00    -0.482 C  
HETATM    2  C   UNL     1     -11.113  13.483  65.057  1.00  0.00    -0.328 C  
HETATM    3  N   UNL     1     -11.833  14.500  64.351  1.00  0.00    -0.423 NA 
HETATM    4  C   UNL     1     -10.184  12.730  64.107  1.00  0.00    -0.344 C  
HETATM    5  C   UNL     1     -11.315  15.756  64.582  1.00  0.00    -0.337 C  
HETATM    6  N   UNL     1     -10.398  15.684  65.610  1.00  0.00    -0.357 N  
HETATM    7  O   UNL     1     -11.683  16.710  63.916  1.00  0.00    -1.153 OA 
HETATM    8  C   UNL     1     -10.276  14.361  65.999  1.00  0.00    -0.315 C  
HETATM    9  O   UNL     1      -9.582  13.879  66.887  1.00  0.00    -0.250 OA 
ENDROOT
BRANCH   6  10
HETATM   10  C   UNL     1      -9.686  16.793  66.174  1.00  0.00    -0.291 A  
HETATM   11  C   UNL     1      -8.276  16.815  66.244  1.00  0.00    -0.359 A  
HETATM   12  C   UNL     1      -7.551  17.899  66.798  1.00  0.00    -0.247 A  
HETATM   13  C   UNL     1      -6.045  17.867  66.830  1.00  0.00    -0.161 C  
HETATM   14  C   UNL     1      -8.279  18.988  67.283  1.00  0.00    -0.274 A  
HETATM   15  F   UNL     1      -5.495  18.973  66.264  1.00  0.00    -0.157 F  
HETATM   16  N   UNL     1      -7.613  20.148  67.856  1.00  0.00    -0.295 N  
HETATM   17  F   UNL     1      -5.516  16.809  66.152  1.00  0.00    -0.086 F  
HETATM   18  C   UNL     1      -9.672  19.009  67.229  1.00  0.00    -0.368 A  
HETATM   19  F   UNL     1      -5.540  17.777  68.087  1.00  0.00    -0.144 F  
HETATM   20  C   UNL     1     -10.360  17.917  66.683  1.00  0.00    -0.362 A  
HETATM   21  O   UNL     1      -6.897  19.955  68.843  1.00  0.00    -0.323 OA 
HETATM   22  O   UNL     1      -7.846  21.242  67.329  1.00  0.00    -0.313 OA 
ENDBRANCH   6  10
TORSDOF 1
ENDMDL
MODEL       12
REMARK 921   NORMALIZED FREE ENERGY PREDICTED BY IDOCK:   -6.97 KCAL/MOL
REMARK 922        TOTAL FREE ENERGY PREDICTED BY IDOCK:   -7.55 KCAL/MOL
REMARK 923 INTER-LIGAND FREE ENERGY PREDICTED BY IDOCK:   -7.45 KCAL/MOL
REMARK 924 INTRA-LIGAND FREE ENERGY PREDICTED BY IDOCK:   -0.10 KCAL/MOL
REMARK 927      BINDING AFFINITY PREDICTED BY RF-SCORE:    0.00 PKD
ROOT
HETATM    1  C   UNL     1     -10.251   6.569  71.956  1.00  0.00    -0.212 C  
HETATM    2  C   UNL     1     -11.187   7.274  70.987  1.00  0.00    -0.266 C  
HETATM    3  N   UNL     1     -12.546   7.266  71.438  1.00  0.00    -0.373 NA 
HETATM    4  C   UNL     1     -11.091   6.705  69.572  1.00  0.00    -0.378 C  
HETATM    5  C   UNL     1     -13.119   8.518  71.379  1.00  0.00    -0.230 C  
HETATM    6  N   UNL     1     -12.138   9.452  71.119  1.00  0.00    -0.313 N  
HETATM    7  O   UNL     1     -14.320   8.658  71.543  1.00  0.00    -0.410 OA 
HETATM    8  C   UNL     1     -10.934   8.788  70.945  1.00  0.00    -0.262 C  
HETATM    9  O   UNL     1      -9.823   9.254  70.717  1.00  0.00    -0.243 OA 
ENDROOT
BRANCH   6  10
HETATM   10  C   UNL     1     -12.333  10.869  71.038  1.00  0.00    -0.393 A  
HETATM   11  C   UNL     1     -11.806  11.633  69.974  1.00  0.00    -0.435 A  
HETATM   12  C   UNL     1     -11.985  13.035  69.872  1.00  0.00    -0.381 A  
HETATM   13  C   UNL     1     -11.408  13.791  68.703  1.00  0.00    -0.287 C  
HETATM   14  C   UNL     1     -12.725  13.670  70.872  1.00  0.00    -0.310 A  
HETATM   15  F   UNL     1     -12.344  14.541  68.064  1.00  0.00    -0.313 F  
HETATM   16  N   UNL     1     -12.968  15.105  70.838  1.00  0.00    -0.409 N  
HETATM   17  F   UNL     1     -10.878  12.977  67.747  1.00  0.00    -0.229 F  
HETATM   18  C   UNL     1     -13.267  12.953  71.937  1.00  0.00    -0.521 A  
HETATM   19  F   UNL     1     -10.404  14.634  69.056  1.00  0.00    -0.219 F  
HETATM   20  C   UNL     1     -13.064  11.569  72.013  1.00  0.00    -0.430 A  
HETATM   21  O   UNL     1     -11.980  15.843  70.848  1.00  0.00    -0.376 OA 
HETATM   22  O   UNL     1     -14.150  15.471  70.836  1.00  0.00    -0.460 OA 
ENDBRANCH   6  10
TORSDOF 1
ENDMDL
MODEL       13
REMARK 921   NORMALIZED FREE ENERGY PREDICTED BY IDOCK:   -6.94 KCAL/MOL
REMARK 922        TOTAL FREE ENERGY PREDICTED BY IDOCK:   -7.51 KCAL/MOL
REMARK 923 INTER-LIGAND FREE ENERGY PREDICTED BY IDOCK:   -7.27 KCAL/MOL
REMARK 924 INTRA-LIGAND FREE ENERGY PREDICTED BY IDOCK:   -0.24 KCAL/MOL
REMARK 927      BINDING AFFINITY PREDICTED BY RF-SCORE:    0.00 PKD
ROOT
HETATM    1  C   UNL     1      -9.257   8.666  65.897  1.00  0.00    -0.264 C  
HETATM    2  C   UNL     1      -9.364  10.154  66.191  1.00  0.00    -0.172 C  
HETATM    3  N   UNL     1     -10.472  10.764  65.519  1.00  0.00    -0.230 NA 
HETATM    4  C   UNL     1      -8.070  10.901  65.873  1.00  0.00    -0.120 C  
HETATM    5  C   UNL     1     -11.235  11.533  66.371  1.00  0.00    -0.243 C  
HETATM    6  N   UNL     1     -10.834  11.300  67.670  1.00  0.00    -0.221 N  
HETATM    7  O   UNL     1     -12.100  12.272  65.932  1.00  0.00    -0.609 OA 
HETATM    8  C   UNL     1      -9.762  10.423  67.649  1.00  0.00    -0.168 C  
HETATM    9  O   UNL     1      -9.132   9.953  68.590  1.00  0.00    -0.126 OA 
ENDROOT
BRANCH   6  10
HETATM   10  C   UNL     1     -11.426  11.873  68.843  1.00  0.00    -0.301 A  
HETATM   11  C   UNL     1     -11.485  13.270  69.040  1.00  0.00    -0.350 A  
HETATM   12  C   UNL     1     -12.063  13.860  70.191  1.00  0.00    -0.418 A  
HETATM   13  C   UNL     1     -12.108  15.359  70.335  1.00  0.00    -0.372 C  
HETATM   14  C   UNL     1     -12.602  13.007  71.158  1.00  0.00    -0.297 A  
HETATM   15  F   UNL     1     -13.363  15.815  70.586  1.00  0.00    -0.511 F  
HETATM   16  N   UNL     1     -13.226  13.530  72.364  1.00  0.00    -0.481 N  
HETATM   17  F   UNL     1     -11.698  16.018  69.214  1.00  0.00    -0.325 F  
HETATM   18  C   UNL     1     -12.568  11.623  71.001  1.00  0.00    -0.431 A  
HETATM   19  F   UNL     1     -11.315  15.823  71.334  1.00  0.00    -0.351 F  
HETATM   20  C   UNL     1     -11.981  11.070  69.855  1.00  0.00    -0.427 A  
HETATM   21  O   UNL     1     -12.525  14.224  73.105  1.00  0.00    -0.239 OA 
HETATM   22  O   UNL     1     -14.403  13.207  72.568  1.00  0.00    -0.613 OA 
ENDBRANCH   6  10
TORSDOF 1
ENDMDL
MODEL       14
REMARK 921   NORMALIZED FREE ENERGY PREDICTED BY IDOCK:   -6.93 KCAL/MOL
REMARK 922        TOTAL FREE ENERGY PREDICTED BY IDOCK:   -7.50 KCAL/MOL
REMARK 923 INTER-LIGAND FREE ENERGY PREDICTED BY IDOCK:   -7.38 KCAL/MOL
REMARK 924 INTRA-LIGAND FREE ENERGY PREDICTED BY IDOCK:   -0.12 KCAL/MOL
REMARK 927      BINDING AFFINITY PREDICTED BY RF-SCORE:    0.00 PKD
ROOT
HETATM    1  C   UNL     1     -11.167  12.810  63.500  1.00  0.00    -0.429 C  
HETATM    2  C   UNL     1     -11.228  13.374  64.911  1.00  0.00    -0.331 C  
HETATM    3  N   UNL     1     -10.283  12.751  65.788  1.00  0.00    -0.285 NA 
HETATM    4  C   UNL     1     -12.634  13.302  65.503  1.00  0.00    -0.505 C  
HETATM    5  C   UNL     1      -9.546  13.675  66.497  1.00  0.00    -0.286 C  
HETATM    6  N   UNL     1      -9.779  14.932  65.979  1.00  0.00    -0.312 N  
HETATM    7  O   UNL     1      -8.834  13.321  67.422  1.00  0.00    -0.184 OA 
HETATM    8  C   UNL     1     -10.724  14.824  64.971  1.00  0.00    -0.433 C  
HETATM    9  O   UNL     1     -11.188  15.702  64.252  1.00  0.00    -0.292 OA 
ENDROOT
BRANCH   6  10
HETATM   10  C   UNL     1      -9.153  16.145  66.414  1.00  0.00    -0.304 A  
HETATM   11  C   UNL     1      -9.902  17.308  66.699  1.00  0.00    -0.299 A  
HETATM   12  C   UNL     1      -9.306  18.519  67.131  1.00  0.00    -0.280 A  
HETATM   13  C   UNL     1     -10.163  19.721  67.433  1.00  0.00    -0.440 C  
HETATM   14  C   UNL     1      -7.917  18.542  67.283  1.00  0.00    -0.236 A  
HETATM   15  F   UNL     1      -9.925  20.223  68.673  1.00  0.00    -0.444 F  
HETATM   16  N   UNL     1      -7.225  19.740  67.734  1.00  0.00    -0.267 N  
HETATM   17  F   UNL     1     -11.498  19.450  67.398  1.00  0.00    -0.454 F  
HETATM   18  C   UNL     1      -7.141  17.415  67.017  1.00  0.00    -0.216 A  
HETATM   19  F   UNL     1      -9.979  20.740  66.555  1.00  0.00    -0.505 F  
HETATM   20  C   UNL     1      -7.761  16.236  66.583  1.00  0.00    -0.286 A  
HETATM   21  O   UNL     1      -7.349  20.755  67.042  1.00  0.00    -0.321 OA 
HETATM   22  O   UNL     1      -6.540  19.637  68.758  1.00  0.00    -0.275 OA 
ENDBRANCH   6  10
TORSDOF 1
ENDMDL
MODEL       15
REMARK 921   NORMALIZED FREE ENERGY PREDICTED BY IDOCK:   -6.89 KCAL/MOL
REMARK 922        TOTAL FREE ENERGY PREDICTED BY IDOCK:   -7.46 KCAL/MOL
REMARK 923 INTER-LIGAND FREE ENERGY PREDICTED BY IDOCK:   -7.08 KCAL/MOL
REMARK 924 INTRA-LIGAND FREE ENERGY PREDICTED BY IDOCK:   -0.38 KCAL/MOL
REMARK 927      BINDING AFFINITY PREDICTED BY RF-SCORE:    0.00 PKD
ROOT
HETATM    1  C   UNL     1     -12.716  13.528  65.280  1.00  0.00    -0.481 C  
HETATM    2  C   UNL     1     -11.668  13.565  66.381  1.00  0.00    -0.369 C  
HETATM    3  N   UNL     1     -12.143  14.216  67.565  1.00  0.00    -0.380 NA 
HETATM    4  C   UNL     1     -10.359  14.198  65.912  1.00  0.00    -0.326 C  
HETATM    5  C   UNL     1     -11.899  13.471  68.698  1.00  0.00    -0.369 C  
HETATM    6  N   UNL     1     -11.475  12.212  68.329  1.00  0.00    -0.282 N  
HETATM    7  O   UNL     1     -12.064  13.956  69.805  1.00  0.00    -0.313 OA 
HETATM    8  C   UNL     1     -11.382  12.166  66.948  1.00  0.00    -0.343 C  
HETATM    9  O   UNL     1     -11.061  11.228  66.227  1.00  0.00    -0.261 OA 
ENDROOT
BRANCH   6  10
HETATM   10  C   UNL     1     -11.176  11.134  69.225  1.00  0.00    -0.267 A  
HETATM   11  C   UNL     1     -12.183  10.483  69.970  1.00  0.00    -0.323 A  
HETATM   12  C   UNL     1     -11.912   9.416  70.862  1.00  0.00    -0.351 A  
HETATM   13  C   UNL     1     -13.035   8.754  71.616  1.00  0.00    -0.349 C  
HETATM   14  C   UNL     1     -10.585   8.999  70.991  1.00  0.00    -0.271 A  
HETATM   15  F   UNL     1     -13.043   7.405  71.446  1.00  0.00    -0.358 F  
HETATM   16  N   UNL     1     -10.220   7.902  71.875  1.00  0.00    -0.193 N  
HETATM   17  F   UNL     1     -14.269   9.178  71.223  1.00  0.00    -0.406 F  
HETATM   18  C   UNL     1      -9.560   9.611  70.271  1.00  0.00    -0.307 A  
HETATM   19  F   UNL     1     -12.985   8.980  72.954  1.00  0.00    -0.464 F  
HETATM   20  C   UNL     1      -9.861  10.670  69.404  1.00  0.00    -0.164 A  
HETATM   21  O   UNL     1     -10.486   8.033  73.073  1.00  0.00    -0.342 OA 
HETATM   22  O   UNL     1      -9.640   6.939  71.360  1.00  0.00    -0.167 OA 
ENDBRANCH   6  10
TORSDOF 1
ENDMDL
MODEL       16
REMARK 921   NORMALIZED FREE ENERGY PREDICTED BY IDOCK:   -6.82 KCAL/MOL
REMARK 922        TOTAL FREE ENERGY PREDICTED BY IDOCK:   -7.38 KCAL/MOL
REMARK 923 INTER-LIGAND FREE ENERGY PREDICTED BY IDOCK:   -7.05 KCAL/MOL
REMARK 924 INTRA-LIGAND FREE ENERGY PREDICTED BY IDOCK:   -0.34 KCAL/MOL
REMARK 927      BINDING AFFINITY PREDICTED BY RF-SCORE:    0.00 PKD
ROOT
HETATM    1  C   UNL     1      -8.477  19.616  66.956  1.00  0.00    -0.349 C  
HETATM    2  C   UNL     1      -9.822  18.910  66.919  1.00  0.00    -0.329 C  
HETATM    3  N   UNL     1     -10.253  18.628  65.582  1.00  0.00    -0.504 NA 
HETATM    4  C   UNL     1     -10.902  19.681  67.675  1.00  0.00    -0.413 C  
HETATM    5  C   UNL     1     -10.659  17.319  65.434  1.00  0.00    -0.072 C  
HETATM    6  N   UNL     1     -10.311  16.608  66.563  1.00  0.00    -0.305 N  
HETATM    7  O   UNL     1     -11.232  16.959  64.419  1.00  0.00    -1.159 OA 
HETATM    8  C   UNL     1      -9.735  17.480  67.472  1.00  0.00    -0.278 C  
HETATM    9  O   UNL     1      -9.277  17.243  68.584  1.00  0.00    -0.265 OA 
ENDROOT
BRANCH   6  10
HETATM   10  C   UNL     1     -10.516  15.204  66.763  1.00  0.00    -0.283 A  
HETATM   11  C   UNL     1      -9.435  14.302  66.875  1.00  0.00    -0.272 A  
HETATM   12  C   UNL     1      -9.614  12.910  67.072  1.00  0.00    -0.231 A  
HETATM   13  C   UNL     1      -8.417  12.003  67.199  1.00  0.00    -0.180 C  
HETATM   14  C   UNL     1     -10.922  12.428  67.166  1.00  0.00    -0.262 A  
HETATM   15  F   UNL     1      -8.463  11.245  68.326  1.00  0.00    -0.124 F  
HETATM   16  N   UNL     1     -11.194  11.015  67.381  1.00  0.00    -0.310 N  
HETATM   17  F   UNL     1      -7.235  12.678  67.261  1.00  0.00    -0.133 F  
HETATM   18  C   UNL     1     -12.017  13.285  67.066  1.00  0.00    -0.419 A  
HETATM   19  F   UNL     1      -8.287  11.144  66.155  1.00  0.00    -0.160 F  
HETATM   20  C   UNL     1     -11.807  14.655  66.862  1.00  0.00    -0.345 A  
HETATM   21  O   UNL     1     -10.771  10.225  66.533  1.00  0.00    -0.176 OA 
HETATM   22  O   UNL     1     -11.859  10.721  68.382  1.00  0.00    -0.478 OA 
ENDBRANCH   6  10
TORSDOF 1
ENDMDL
MODEL       17
REMARK 921   NORMALIZED FREE ENERGY PREDICTED BY IDOCK:   -6.76 KCAL/MOL
REMARK 922        TOTAL FREE ENERGY PREDICTED BY IDOCK:   -7.32 KCAL/MOL
REMARK 923 INTER-LIGAND FREE ENERGY PREDICTED BY IDOCK:   -7.30 KCAL/MOL
REMARK 924 INTRA-LIGAND FREE ENERGY PREDICTED BY IDOCK:   -0.02 KCAL/MOL
REMARK 927      BINDING AFFINITY PREDICTED BY RF-SCORE:    0.00 PKD
ROOT
HETATM    1  C   UNL     1      -9.341   8.549  72.349  1.00  0.00    -0.349 C  
HETATM    2  C   UNL     1     -10.429   8.486  71.290  1.00  0.00    -0.225 C  
HETATM    3  N   UNL     1     -11.654   9.085  71.730  1.00  0.00    -0.352 NA 
HETATM    4  C   UNL     1     -10.679   7.061  70.800  1.00  0.00    -0.252 C  
HETATM    5  C   UNL     1     -12.159   9.972  70.803  1.00  0.00    -0.327 C  
HETATM    6  N   UNL     1     -11.212  10.191  69.825  1.00  0.00    -0.259 N  
HETATM    7  O   UNL     1     -13.285  10.425  70.929  1.00  0.00    -0.377 OA 
HETATM    8  C   UNL     1     -10.113   9.390  70.089  1.00  0.00    -0.233 C  
HETATM    9  O   UNL     1      -9.057   9.302  69.472  1.00  0.00    -0.145 OA 
ENDROOT
BRANCH   6  10
HETATM   10  C   UNL     1     -11.345  11.093  68.719  1.00  0.00    -0.277 A  
HETATM   11  C   UNL     1     -10.940  10.736  67.414  1.00  0.00    -0.361 A  
HETATM   12  C   UNL     1     -11.061  11.610  66.306  1.00  0.00    -0.345 A  
HETATM   13  C   UNL     1     -10.623  11.162  64.936  1.00  0.00    -0.289 C  
HETATM   14  C   UNL     1     -11.617  12.872  66.531  1.00  0.00    -0.371 A  
HETATM   15  F   UNL     1     -11.602  11.317  64.006  1.00  0.00    -0.393 F  
HETATM   16  N   UNL     1     -11.790  13.826  65.446  1.00  0.00    -0.342 N  
HETATM   17  F   UNL     1     -10.278   9.845  64.886  1.00  0.00    -0.393 F  
HETATM   18  C   UNL     1     -12.034  13.262  67.802  1.00  0.00    -0.356 A  
HETATM   19  F   UNL     1      -9.537  11.836  64.477  1.00  0.00    -0.240 F  
HETATM   20  C   UNL     1     -11.892  12.378  68.879  1.00  0.00    -0.350 A  
HETATM   21  O   UNL     1     -10.774  14.180  64.841  1.00  0.00    -0.382 OA 
HETATM   22  O   UNL     1     -12.939  14.233  65.239  1.00  0.00    -0.679 OA 
ENDBRANCH   6  10
TORSDOF 1
ENDMDL
MODEL       18
REMARK 921   NORMALIZED FREE ENERGY PREDICTED BY IDOCK:   -6.66 KCAL/MOL
REMARK 922        TOTAL FREE ENERGY PREDICTED BY IDOCK:   -7.22 KCAL/MOL
REMARK 923 INTER-LIGAND FREE ENERGY PREDICTED BY IDOCK:   -7.02 KCAL/MOL
REMARK 924 INTRA-LIGAND FREE ENERGY PREDICTED BY IDOCK:   -0.20 KCAL/MOL
REMARK 927      BINDING AFFINITY PREDICTED BY RF-SCORE:    0.00 PKD
ROOT
HETATM    1  C   UNL     1     -12.084  14.735  73.652  1.00  0.00    -0.375 C  
HETATM    2  C   UNL     1     -12.578  15.214  72.296  1.00  0.00    -0.344 C  
HETATM    3  N   UNL     1     -11.722  16.209  71.724  1.00  0.00    -0.498 NA 
HETATM    4  C   UNL     1     -14.020  15.717  72.350  1.00  0.00    -0.602 C  
HETATM    5  C   UNL     1     -11.397  15.923  70.416  1.00  0.00    -0.385 C  
HETATM    6  N   UNL     1     -11.807  14.640  70.119  1.00  0.00    -0.289 N  
HETATM    7  O   UNL     1     -10.837  16.755  69.721  1.00  0.00    -0.325 OA 
HETATM    8  C   UNL     1     -12.460  14.120  71.224  1.00  0.00    -0.370 C  
HETATM    9  O   UNL     1     -12.956  13.009  71.375  1.00  0.00    -0.354 OA 
ENDROOT
BRANCH   6  10
HETATM   10  C   UNL     1     -11.598  13.963  68.873  1.00  0.00    -0.316 A  
HETATM   11  C   UNL     1     -10.952  12.709  68.807  1.00  0.00    -0.289 A  
HETATM   12  C   UNL     1     -10.733  12.020  67.588  1.00  0.00    -0.252 A  
HETATM   13  C   UNL     1     -10.051  10.677  67.588  1.00  0.00    -0.177 C  
HETATM   14  C   UNL     1     -11.190  12.620  66.412  1.00  0.00    -0.305 A  
HETATM   15  F   UNL     1     -10.778   9.731  66.938  1.00  0.00    -0.300 F  
HETATM   16  N   UNL     1     -11.018  11.975  65.119  1.00  0.00    -0.302 N  
HETATM   17  F   UNL     1      -9.842  10.181  68.840  1.00  0.00    -0.160 F  
HETATM   18  C   UNL     1     -11.837  13.854  66.433  1.00  0.00    -0.436 A  
HETATM   19  F   UNL     1      -8.826  10.702  67.002  1.00  0.00    -0.135 F  
HETATM   20  C   UNL     1     -12.030  14.514  67.654  1.00  0.00    -0.355 A  
HETATM   21  O   UNL     1      -9.863  11.732  64.761  1.00  0.00    -0.245 OA 
HETATM   22  O   UNL     1     -12.044  11.753  64.465  1.00  0.00    -0.206 OA 
ENDBRANCH   6  10
TORSDOF 1
ENDMDL
MODEL       19
REMARK 921   NORMALIZED FREE ENERGY PREDICTED BY IDOCK:   -6.63 KCAL/MOL
REMARK 922        TOTAL FREE ENERGY PREDICTED BY IDOCK:   -7.19 KCAL/MOL
REMARK 923 INTER-LIGAND FREE ENERGY PREDICTED BY IDOCK:   -6.77 KCAL/MOL
REMARK 924 INTRA-LIGAND FREE ENERGY PREDICTED BY IDOCK:   -0.42 KCAL/MOL
REMARK 927      BINDING AFFINITY PREDICTED BY RF-SCORE:    0.00 PKD
ROOT
HETATM    1  C   UNL     1     -11.106  10.378  67.817  1.00  0.00    -0.365 C  
HETATM    2  C   UNL     1     -10.806  11.497  66.832  1.00  0.00    -0.284 C  
HETATM    3  N   UNL     1     -11.997  12.108  66.321  1.00  0.00    -0.613 NA 
HETATM    4  C   UNL     1      -9.910  11.033  65.685  1.00  0.00    -0.287 C  
HETATM    5  C   UNL     1     -11.948  13.483  66.399  1.00  0.00    -0.414 C  
HETATM    6  N   UNL     1     -10.859  13.853  67.161  1.00  0.00    -0.282 N  
HETATM    7  O   UNL     1     -12.789  14.165  65.838  1.00  0.00    -0.471 OA 
HETATM    8  C   UNL     1     -10.165  12.711  67.521  1.00  0.00    -0.215 C  
HETATM    9  O   UNL     1      -9.155  12.607  68.209  1.00  0.00    -0.199 OA 
ENDROOT
BRANCH   6  10
HETATM   10  C   UNL     1     -10.505  15.196  67.514  1.00  0.00    -0.258 A  
HETATM   11  C   UNL     1      -9.419  15.864  66.906  1.00  0.00    -0.242 A  
HETATM   12  C   UNL     1      -9.049  17.191  67.240  1.00  0.00    -0.227 A  
HETATM   13  C   UNL     1      -7.888  17.852  66.543  1.00  0.00    -0.264 C  
HETATM   14  C   UNL     1      -9.808  17.854  68.207  1.00  0.00    -0.348 A  
HETATM   15  F   UNL     1      -8.228  19.051  66.002  1.00  0.00    -0.297 F  
HETATM   16  N   UNL     1      -9.504  19.222  68.599  1.00  0.00    -0.387 N  
HETATM   17  F   UNL     1      -7.390  17.114  65.511  1.00  0.00    -0.138 F  
HETATM   18  C   UNL     1     -10.890  17.233  68.828  1.00  0.00    -0.153 A  
HETATM   19  F   UNL     1      -6.832  18.078  67.366  1.00  0.00    -0.178 F  
HETATM   20  C   UNL     1     -11.225  15.917  68.483  1.00  0.00    -0.362 A  
HETATM   21  O   UNL     1      -8.384  19.437  69.069  1.00  0.00    -0.348 OA 
HETATM   22  O   UNL     1     -10.408  20.055  68.461  1.00  0.00    -0.438 OA 
ENDBRANCH   6  10
TORSDOF 1
ENDMDL
MODEL       20
REMARK 921   NORMALIZED FREE ENERGY PREDICTED BY IDOCK:   -6.60 KCAL/MOL
REMARK 922        TOTAL FREE ENERGY PREDICTED BY IDOCK:   -7.16 KCAL/MOL
REMARK 923 INTER-LIGAND FREE ENERGY PREDICTED BY IDOCK:   -6.74 KCAL/MOL
REMARK 924 INTRA-LIGAND FREE ENERGY PREDICTED BY IDOCK:   -0.42 KCAL/MOL
REMARK 927      BINDING AFFINITY PREDICTED BY RF-SCORE:    0.00 PKD
ROOT
HETATM    1  C   UNL     1      -9.298  15.674  66.053  1.00  0.00    -0.384 C  
HETATM    2  C   UNL     1     -10.445  14.993  66.781  1.00  0.00    -0.283 C  
HETATM    3  N   UNL     1     -11.375  14.379  65.880  1.00  0.00    -0.327 NA 
HETATM    4  C   UNL     1     -11.171  15.941  67.733  1.00  0.00    -0.258 C  
HETATM    5  C   UNL     1     -11.662  13.080  66.238  1.00  0.00    -0.387 C  
HETATM    6  N   UNL     1     -10.789  12.681  67.228  1.00  0.00    -0.243 N  
HETATM    7  O   UNL     1     -12.573  12.475  65.697  1.00  0.00    -0.612 OA 
HETATM    8  C   UNL     1      -9.976  13.753  67.557  1.00  0.00    -0.233 C  
HETATM    9  O   UNL     1      -9.062  13.806  68.372  1.00  0.00    -0.192 OA 
ENDROOT
BRANCH   6  10
HETATM   10  C   UNL     1     -10.737  11.377  67.821  1.00  0.00    -0.211 A  
HETATM   11  C   UNL     1     -11.212  11.134  69.129  1.00  0.00    -0.328 A  
HETATM   12  C   UNL     1     -11.170   9.854  69.736  1.00  0.00    -0.279 A  
HETATM   13  C   UNL     1     -11.707   9.659  71.130  1.00  0.00    -0.372 C  
HETATM   14  C   UNL     1     -10.641   8.798  68.990  1.00  0.00    -0.171 A  
HETATM   15  F   UNL     1     -12.621   8.655  71.193  1.00  0.00    -0.301 F  
HETATM   16  N   UNL     1     -10.573   7.449  69.533  1.00  0.00    -0.235 N  
HETATM   17  F   UNL     1     -12.341  10.760  71.621  1.00  0.00    -0.436 F  
HETATM   18  C   UNL     1     -10.166   8.993  67.695  1.00  0.00    -0.300 A  
HETATM   19  F   UNL     1     -10.740   9.366  72.037  1.00  0.00    -0.415 F  
HETATM   20  C   UNL     1     -10.213  10.273  67.126  1.00  0.00    -0.277 A  
HETATM   21  O   UNL     1      -9.914   7.290  70.565  1.00  0.00    -0.190 OA 
HETATM   22  O   UNL     1     -11.153   6.562  68.897  1.00  0.00    -0.304 OA 
ENDBRANCH   6  10
TORSDOF 1
ENDMDL
MODEL       21
REMARK 921   NORMALIZED FREE ENERGY PREDICTED BY IDOCK:   -6.57 KCAL/MOL
REMARK 922        TOTAL FREE ENERGY PREDICTED BY IDOCK:   -7.12 KCAL/MOL
REMARK 923 INTER-LIGAND FREE ENERGY PREDICTED BY IDOCK:   -7.19 KCAL/MOL
REMARK 924 INTRA-LIGAND FREE ENERGY PREDICTED BY IDOCK:    0.06 KCAL/MOL
REMARK 927      BINDING AFFINITY PREDICTED BY RF-SCORE:    0.00 PKD
ROOT
HETATM    1  C   UNL     1      -7.907  20.319  66.793  1.00  0.00    -0.332 C  
HETATM    2  C   UNL     1      -9.284  19.705  66.985  1.00  0.00    -0.341 C  
HETATM    3  N   UNL     1      -9.927  19.407  65.741  1.00  0.00    -0.435 NA 
HETATM    4  C   UNL     1     -10.188  20.573  67.859  1.00  0.00    -0.263 C  
HETATM    5  C   UNL     1     -10.430  18.124  65.712  1.00  0.00    -0.207 C  
HETATM    6  N   UNL     1      -9.961  17.431  66.808  1.00  0.00    -0.294 N  
HETATM    7  O   UNL     1     -11.170  17.770  64.809  1.00  0.00    -0.767 OA 
HETATM    8  C   UNL     1      -9.203  18.292  67.583  1.00  0.00    -0.267 C  
HETATM    9  O   UNL     1      -8.598  18.063  68.624  1.00  0.00    -0.303 OA 
ENDROOT
BRANCH   6  10
HETATM   10  C   UNL     1     -10.221  16.051  67.098  1.00  0.00    -0.278 A  
HETATM   11  C   UNL     1     -10.250  15.070  66.082  1.00  0.00    -0.311 A  
HETATM   12  C   UNL     1     -10.505  13.701  66.344  1.00  0.00    -0.288 A  
HETATM   13  C   UNL     1     -10.508  12.701  65.217  1.00  0.00    -0.289 C  
HETATM   14  C   UNL     1     -10.726  13.323  67.671  1.00  0.00    -0.239 A  
HETATM   15  F   UNL     1      -9.676  11.654  65.457  1.00  0.00    -0.226 F  
HETATM   16  N   UNL     1     -10.982  11.936  68.029  1.00  0.00    -0.211 N  
HETATM   17  F   UNL     1     -10.097  13.229  64.030  1.00  0.00    -0.426 F  
HETATM   18  C   UNL     1     -10.701  14.259  68.703  1.00  0.00    -0.256 A  
HETATM   19  F   UNL     1     -11.736  12.178  64.972  1.00  0.00    -0.377 F  
HETATM   20  C   UNL     1     -10.455  15.606  68.410  1.00  0.00    -0.242 A  
HETATM   21  O   UNL     1     -11.968  11.396  67.520  1.00  0.00    -0.626 OA 
HETATM   22  O   UNL     1     -10.209  11.418  68.843  1.00  0.00    -0.207 OA 
ENDBRANCH   6  10
TORSDOF 1
ENDMDL
MODEL       22
REMARK 921   NORMALIZED FREE ENERGY PREDICTED BY IDOCK:   -6.55 KCAL/MOL
REMARK 922        TOTAL FREE ENERGY PREDICTED BY IDOCK:   -7.10 KCAL/MOL
REMARK 923 INTER-LIGAND FREE ENERGY PREDICTED BY IDOCK:   -6.68 KCAL/MOL
REMARK 924 INTRA-LIGAND FREE ENERGY PREDICTED BY IDOCK:   -0.42 KCAL/MOL
REMARK 927      BINDING AFFINITY PREDICTED BY RF-SCORE:    0.00 PKD
ROOT
HETATM    1  C   UNL     1     -12.578  12.292  65.055  1.00  0.00    -0.157 C  
HETATM    2  C   UNL     1     -11.484  13.238  64.586  1.00  0.00    -0.342 C  
HETATM    3  N   UNL     1     -12.012  14.412  63.958  1.00  0.00    -0.360 NA 
HETATM    4  C   UNL     1     -10.477  12.549  63.668  1.00  0.00    -0.418 C  
HETATM    5  C   UNL     1     -11.446  15.566  64.457  1.00  0.00    -0.308 C  
HETATM    6  N   UNL     1     -10.705  15.256  65.578  1.00  0.00    -0.347 N  
HETATM    7  O   UNL     1     -11.638  16.638  63.906  1.00  0.00    -1.204 OA 
HETATM    8  C   UNL     1     -10.740  13.885  65.764  1.00  0.00    -0.289 C  
HETATM    9  O   UNL     1     -10.227  13.214  66.653  1.00  0.00    -0.250 OA 
ENDROOT
BRANCH   6  10
HETATM   10  C   UNL     1     -10.010  16.197  66.406  1.00  0.00    -0.299 A  
HETATM   11  C   UNL     1      -8.787  16.779  66.008  1.00  0.00    -0.218 A  
HETATM   12  C   UNL     1      -8.082  17.710  66.810  1.00  0.00    -0.264 A  
HETATM   13  C   UNL     1      -6.787  18.306  66.321  1.00  0.00    -0.240 C  
HETATM   14  C   UNL     1      -8.641  18.063  68.041  1.00  0.00    -0.264 A  
HETATM   15  F   UNL     1      -6.800  19.664  66.356  1.00  0.00    -0.194 F  
HETATM   16  N   UNL     1      -7.990  19.022  68.921  1.00  0.00    -0.322 N  
HETATM   17  F   UNL     1      -6.500  17.978  65.030  1.00  0.00    -0.209 F  
HETATM   18  C   UNL     1      -9.849  17.516  68.470  1.00  0.00    -0.330 A  
HETATM   19  F   UNL     1      -5.710  17.905  67.043  1.00  0.00    -0.135 F  
HETATM   20  C   UNL     1     -10.517  16.591  67.657  1.00  0.00    -0.305 A  
HETATM   21  O   UNL     1      -6.853  18.745  69.311  1.00  0.00    -0.284 OA 
HETATM   22  O   UNL     1      -8.643  20.025  69.234  1.00  0.00     0.061 OA 
ENDBRANCH   6  10
TORSDOF 1
ENDMDL
MODEL       23
REMARK 921   NORMALIZED FREE ENERGY PREDICTED BY IDOCK:   -6.52 KCAL/MOL
REMARK 922        TOTAL FREE ENERGY PREDICTED BY IDOCK:   -7.07 KCAL/MOL
REMARK 923 INTER-LIGAND FREE ENERGY PREDICTED BY IDOCK:   -6.92 KCAL/MOL
REMARK 924 INTRA-LIGAND FREE ENERGY PREDICTED BY IDOCK:   -0.14 KCAL/MOL
REMARK 927      BINDING AFFINITY PREDICTED BY RF-SCORE:    0.00 PKD
ROOT
HETATM    1  C   UNL     1      -9.152   5.655  68.460  1.00  0.00    -0.118 C  
HETATM    2  C   UNL     1      -9.992   6.802  68.997  1.00  0.00    -0.155 C  
HETATM    3  N   UNL     1      -9.213   7.748  69.739  1.00  0.00    -0.150 NA 
HETATM    4  C   UNL     1     -11.174   6.313  69.832  1.00  0.00    -0.498 C  
HETATM    5  C   UNL     1      -9.453   9.045  69.339  1.00  0.00    -0.159 C  
HETATM    6  N   UNL     1     -10.205   9.029  68.183  1.00  0.00    -0.196 N  
HETATM    7  O   UNL     1      -9.022   9.983  69.988  1.00  0.00    -0.195 OA 
HETATM    8  C   UNL     1     -10.505   7.713  67.872  1.00  0.00    -0.207 C  
HETATM    9  O   UNL     1     -11.135   7.271  66.917  1.00  0.00    -0.287 OA 
ENDROOT
BRANCH   6  10
HETATM   10  C   UNL     1     -10.610  10.181  67.433  1.00  0.00    -0.272 A  
HETATM   11  C   UNL     1     -10.373  10.287  66.045  1.00  0.00    -0.248 A  
HETATM   12  C   UNL     1     -10.764  11.416  65.283  1.00  0.00    -0.326 A  
HETATM   13  C   UNL     1     -10.494  11.462  63.802  1.00  0.00    -0.399 C  
HETATM   14  C   UNL     1     -11.418  12.455  65.949  1.00  0.00    -0.374 A  
HETATM   15  F   UNL     1     -11.616  11.726  63.082  1.00  0.00    -0.441 F  
HETATM   16  N   UNL     1     -11.865  13.645  65.240  1.00  0.00    -0.334 N  
HETATM   17  F   UNL     1     -10.012  10.287  63.307  1.00  0.00    -0.341 F  
HETATM   18  C   UNL     1     -11.677  12.388  67.317  1.00  0.00    -0.419 A  
HETATM   19  F   UNL     1      -9.577  12.401  63.455  1.00  0.00    -0.284 F  
HETATM   20  C   UNL     1     -11.269  11.262  68.044  1.00  0.00    -0.351 A  
HETATM   21  O   UNL     1     -11.003  14.314  64.665  1.00  0.00    -0.391 OA 
HETATM   22  O   UNL     1     -13.072  13.910  65.300  1.00  0.00    -0.777 OA 
ENDBRANCH   6  10
TORSDOF 1
ENDMDL
MODEL       24
REMARK 921   NORMALIZED FREE ENERGY PREDICTED BY IDOCK:   -6.51 KCAL/MOL
REMARK 922        TOTAL FREE ENERGY PREDICTED BY IDOCK:   -7.06 KCAL/MOL
REMARK 923 INTER-LIGAND FREE ENERGY PREDICTED BY IDOCK:   -6.64 KCAL/MOL
REMARK 924 INTRA-LIGAND FREE ENERGY PREDICTED BY IDOCK:   -0.41 KCAL/MOL
REMARK 927      BINDING AFFINITY PREDICTED BY RF-SCORE:    0.00 PKD
ROOT
HETATM    1  C   UNL     1     -14.353  15.537  72.239  1.00  0.00    -0.556 C  
HETATM    2  C   UNL     1     -13.023  14.891  71.886  1.00  0.00    -0.333 C  
HETATM    3  N   UNL     1     -13.129  14.000  70.770  1.00  0.00    -0.241 NA 
HETATM    4  C   UNL     1     -12.391  14.178  73.080  1.00  0.00     0.011 C  
HETATM    5  C   UNL     1     -12.156  14.237  69.823  1.00  0.00    -0.347 C  
HETATM    6  N   UNL     1     -11.509  15.416  70.127  1.00  0.00    -0.288 N  
HETATM    7  O   UNL     1     -11.982  13.453  68.905  1.00  0.00    -0.330 OA 
HETATM    8  C   UNL     1     -12.025  15.909  71.314  1.00  0.00    -0.442 C  
HETATM    9  O   UNL     1     -11.735  16.939  71.912  1.00  0.00    -0.114 OA 
ENDROOT
BRANCH   6  10
HETATM   10  C   UNL     1     -10.472  16.026  69.347  1.00  0.00    -0.271 A  
HETATM   11  C   UNL     1     -10.715  17.161  68.543  1.00  0.00    -0.326 A  
HETATM   12  C   UNL     1      -9.707  17.780  67.763  1.00  0.00    -0.285 A  
HETATM   13  C   UNL     1     -10.028  18.998  66.937  1.00  0.00    -0.351 C  
HETATM   14  C   UNL     1      -8.421  17.235  67.811  1.00  0.00    -0.217 A  
HETATM   15  F   UNL     1      -9.187  20.034  67.199  1.00  0.00    -0.371 F  
HETATM   16  N   UNL     1      -7.325  17.817  67.051  1.00  0.00    -0.187 N  
HETATM   17  F   UNL     1     -11.282  19.483  67.160  1.00  0.00    -0.572 F  
HETATM   18  C   UNL     1      -8.138  16.119  68.595  1.00  0.00    -0.203 A  
HETATM   19  F   UNL     1      -9.963  18.769  65.601  1.00  0.00    -0.250 F  
HETATM   20  C   UNL     1      -9.159  15.524  69.348  1.00  0.00    -0.280 A  
HETATM   21  O   UNL     1      -7.454  17.868  65.825  1.00  0.00    -0.520 OA 
HETATM   22  O   UNL     1      -6.334  18.184  67.694  1.00  0.00    -0.171 OA 
ENDBRANCH   6  10
TORSDOF 1
ENDMDL
MODEL       25
REMARK 921   NORMALIZED FREE ENERGY PREDICTED BY IDOCK:   -6.47 KCAL/MOL
REMARK 922        TOTAL FREE ENERGY PREDICTED BY IDOCK:   -7.01 KCAL/MOL
REMARK 923 INTER-LIGAND FREE ENERGY PREDICTED BY IDOCK:   -6.61 KCAL/MOL
REMARK 924 INTRA-LIGAND FREE ENERGY PREDICTED BY IDOCK:   -0.40 KCAL/MOL
REMARK 927      BINDING AFFINITY PREDICTED BY RF-SCORE:    0.00 PKD
ROOT
HETATM    1  C   UNL     1      -9.253   8.675  66.728  1.00  0.00    -0.211 C  
HETATM    2  C   UNL     1      -9.351  10.171  66.480  1.00  0.00    -0.164 C  
HETATM    3  N   UNL     1     -10.531  10.526  65.750  1.00  0.00    -0.190 NA 
HETATM    4  C   UNL     1      -8.108  10.726  65.787  1.00  0.00    -0.135 C  
HETATM    5  C   UNL     1     -11.214  11.566  66.344  1.00  0.00    -0.243 C  
HETATM    6  N   UNL     1     -10.679  11.803  67.593  1.00  0.00    -0.206 N  
HETATM    7  O   UNL     1     -12.131  12.119  65.758  1.00  0.00    -0.572 OA 
HETATM    8  C   UNL     1      -9.602  10.953  67.778  1.00  0.00    -0.164 C  
HETATM    9  O   UNL     1      -8.872  10.835  68.757  1.00  0.00    -0.151 OA 
ENDROOT
BRANCH   6  10
HETATM   10  C   UNL     1     -11.156  12.771  68.536  1.00  0.00    -0.266 A  
HETATM   11  C   UNL     1     -11.853  12.391  69.705  1.00  0.00    -0.380 A  
HETATM   12  C   UNL     1     -12.334  13.329  70.651  1.00  0.00    -0.416 A  
HETATM   13  C   UNL     1     -13.057  12.857  71.886  1.00  0.00    -0.373 C  
HETATM   14  C   UNL     1     -12.092  14.683  70.406  1.00  0.00    -0.319 A  
HETATM   15  F   UNL     1     -12.511  13.357  73.025  1.00  0.00    -0.016 F  
HETATM   16  N   UNL     1     -12.540  15.711  71.333  1.00  0.00    -0.431 N  
HETATM   17  F   UNL     1     -13.037  11.502  72.036  1.00  0.00    -0.563 F  
HETATM   18  C   UNL     1     -11.405  15.100  69.268  1.00  0.00    -0.313 A  
HETATM   19  F   UNL     1     -14.371  13.200  71.898  1.00  0.00    -0.257 F  
HETATM   20  C   UNL     1     -10.950  14.148  68.346  1.00  0.00    -0.270 A  
HETATM   21  O   UNL     1     -13.753  15.780  71.553  1.00  0.00    -0.496 OA 
HETATM   22  O   UNL     1     -11.672  16.457  71.802  1.00  0.00    -0.478 OA 
ENDBRANCH   6  10
TORSDOF 1
ENDMDL
MODEL       26
REMARK 921   NORMALIZED FREE ENERGY PREDICTED BY IDOCK:   -6.44 KCAL/MOL
REMARK 922        TOTAL FREE ENERGY PREDICTED BY IDOCK:   -6.98 KCAL/MOL
REMARK 923 INTER-LIGAND FREE ENERGY PREDICTED BY IDOCK:   -6.96 KCAL/MOL
REMARK 924 INTRA-LIGAND FREE ENERGY PREDICTED BY IDOCK:   -0.02 KCAL/MOL
REMARK 927      BINDING AFFINITY PREDICTED BY RF-SCORE:    0.00 PKD
ROOT
HETATM    1  C   UNL     1     -10.907   7.743  72.955  1.00  0.00    -0.453 C  
HETATM    2  C   UNL     1     -11.950   8.272  71.985  1.00  0.00    -0.348 C  
HETATM    3  N   UNL     1     -12.742   9.321  72.554  1.00  0.00    -0.302 NA 
HETATM    4  C   UNL     1     -12.848   7.163  71.439  1.00  0.00    -0.431 C  
HETATM    5  C   UNL     1     -12.826  10.416  71.721  1.00  0.00    -0.456 C  
HETATM    6  N   UNL     1     -11.931  10.264  70.683  1.00  0.00    -0.315 N  
HETATM    7  O   UNL     1     -13.612  11.318  71.962  1.00  0.00    -0.287 OA 
HETATM    8  C   UNL     1     -11.311   9.033  70.813  1.00  0.00    -0.277 C  
HETATM    9  O   UNL     1     -10.443   8.528  70.110  1.00  0.00    -0.210 OA 
ENDROOT
BRANCH   6  10
HETATM   10  C   UNL     1     -11.687  11.220  69.643  1.00  0.00    -0.350 A  
HETATM   11  C   UNL     1     -11.550  12.599  69.915  1.00  0.00    -0.248 A  
HETATM   12  C   UNL     1     -11.310  13.561  68.904  1.00  0.00    -0.332 A  
HETATM   13  C   UNL     1     -11.160  15.017  69.263  1.00  0.00    -0.272 C  
HETATM   14  C   UNL     1     -11.198  13.107  67.587  1.00  0.00    -0.282 A  
HETATM   15  F   UNL     1     -10.009  15.551  68.774  1.00  0.00    -0.192 F  
HETATM   16  N   UNL     1     -10.938  14.027  66.490  1.00  0.00    -0.303 N  
HETATM   17  F   UNL     1     -11.122  15.237  70.607  1.00  0.00    -0.281 F  
HETATM   18  C   UNL     1     -11.321  11.754  67.276  1.00  0.00    -0.379 A  
HETATM   19  F   UNL     1     -12.177  15.788  68.800  1.00  0.00    -0.348 F  
HETATM   20  C   UNL     1     -11.568  10.829  68.298  1.00  0.00    -0.297 A  
HETATM   21  O   UNL     1     -11.763  14.925  66.302  1.00  0.00    -0.297 OA 
HETATM   22  O   UNL     1      -9.927  13.814  65.810  1.00  0.00    -0.298 OA 
ENDBRANCH   6  10
TORSDOF 1
ENDMDL
MODEL       27
REMARK 921   NORMALIZED FREE ENERGY PREDICTED BY IDOCK:   -6.44 KCAL/MOL
REMARK 922        TOTAL FREE ENERGY PREDICTED BY IDOCK:   -6.98 KCAL/MOL
REMARK 923 INTER-LIGAND FREE ENERGY PREDICTED BY IDOCK:   -6.58 KCAL/MOL
REMARK 924 INTRA-LIGAND FREE ENERGY PREDICTED BY IDOCK:   -0.40 KCAL/MOL
REMARK 927      BINDING AFFINITY PREDICTED BY RF-SCORE:    0.00 PKD
ROOT
HETATM    1  C   UNL     1     -12.511   8.368  71.118  1.00  0.00    -0.189 C  
HETATM    2  C   UNL     1     -11.217   9.042  70.694  1.00  0.00    -0.270 C  
HETATM    3  N   UNL     1     -10.659   8.458  69.511  1.00  0.00    -0.227 NA 
HETATM    4  C   UNL     1     -10.181   9.064  71.817  1.00  0.00    -0.389 C  
HETATM    5  C   UNL     1     -10.322   9.409  68.573  1.00  0.00    -0.209 C  
HETATM    6  N   UNL     1     -10.836  10.629  68.961  1.00  0.00    -0.218 N  
HETATM    7  O   UNL     1      -9.664   9.106  67.592  1.00  0.00    -0.149 OA 
HETATM    8  C   UNL     1     -11.453  10.474  70.192  1.00  0.00    -0.325 C  
HETATM    9  O   UNL     1     -12.046  11.308  70.867  1.00  0.00    -0.348 OA 
ENDROOT
BRANCH   6  10
HETATM   10  C   UNL     1     -10.742  11.851  68.218  1.00  0.00    -0.223 A  
HETATM   11  C   UNL     1     -11.496  12.068  67.044  1.00  0.00    -0.402 A  
HETATM   12  C   UNL     1     -11.419  13.267  66.293  1.00  0.00    -0.358 A  
HETATM   13  C   UNL     1     -12.261  13.441  65.056  1.00  0.00    -0.424 C  
HETATM   14  C   UNL     1     -10.563  14.269  66.754  1.00  0.00    -0.278 A  
HETATM   15  F   UNL     1     -12.998  14.583  65.092  1.00  0.00    -0.413 F  
HETATM   16  N   UNL     1     -10.434  15.536  66.050  1.00  0.00    -0.307 N  
HETATM   17  F   UNL     1     -13.160  12.434  64.871  1.00  0.00    -0.535 F  
HETATM   18  C   UNL     1      -9.805  14.098  67.911  1.00  0.00    -0.224 A  
HETATM   19  F   UNL     1     -11.529  13.484  63.914  1.00  0.00    -0.397 F  
HETATM   20  C   UNL     1      -9.896  12.897  68.626  1.00  0.00    -0.074 A  
HETATM   21  O   UNL     1     -10.047  15.492  64.878  1.00  0.00    -0.351 OA 
HETATM   22  O   UNL     1     -10.689  16.561  66.693  1.00  0.00    -0.265 OA 
ENDBRANCH   6  10
TORSDOF 1
ENDMDL
MODEL       28
REMARK 921   NORMALIZED FREE ENERGY PREDICTED BY IDOCK:   -6.41 KCAL/MOL
REMARK 922        TOTAL FREE ENERGY PREDICTED BY IDOCK:   -6.95 KCAL/MOL
REMARK 923 INTER-LIGAND FREE ENERGY PREDICTED BY IDOCK:   -6.74 KCAL/MOL
REMARK 924 INTRA-LIGAND FREE ENERGY PREDICTED BY IDOCK:   -0.22 KCAL/MOL
REMARK 927      BINDING AFFINITY PREDICTED BY RF-SCORE:    0.00 PKD
ROOT
HETATM    1  C   UNL     1     -11.653   9.419  72.053  1.00  0.00    -0.214 C  
HETATM    2  C   UNL     1     -12.579  10.318  71.250  1.00  0.00    -0.418 C  
HETATM    3  N   UNL     1     -12.919  11.519  71.954  1.00  0.00    -0.419 NA 
HETATM    4  C   UNL     1     -13.843   9.590  70.797  1.00  0.00     0.203 C  
HETATM    5  C   UNL     1     -12.746  12.642  71.175  1.00  0.00    -0.254 C  
HETATM    6  N   UNL     1     -12.076  12.293  70.021  1.00  0.00    -0.303 N  
HETATM    7  O   UNL     1     -13.167  13.725  71.548  1.00  0.00    -0.343 OA 
HETATM    8  C   UNL     1     -11.874  10.923  70.027  1.00  0.00    -0.347 C  
HETATM    9  O   UNL     1     -11.302  10.224  69.197  1.00  0.00    -0.230 OA 
ENDROOT
BRANCH   6  10
HETATM   10  C   UNL     1     -11.664  13.197  68.987  1.00  0.00    -0.321 A  
HETATM   11  C   UNL     1     -12.033  13.002  67.638  1.00  0.00    -0.353 A  
HETATM   12  C   UNL     1     -11.638  13.881  66.599  1.00  0.00    -0.392 A  
HETATM   13  C   UNL     1     -12.077  13.625  65.181  1.00  0.00    -0.403 C  
HETATM   14  C   UNL     1     -10.857  14.987  66.945  1.00  0.00    -0.315 A  
HETATM   15  F   UNL     1     -12.686  14.707  64.628  1.00  0.00    -0.435 F  
HETATM   16  N   UNL     1     -10.419  15.946  65.942  1.00  0.00    -0.341 N  
HETATM   17  F   UNL     1     -12.976  12.606  65.073  1.00  0.00    -0.564 F  
HETATM   18  C   UNL     1     -10.475  15.218  68.265  1.00  0.00    -0.244 A  
HETATM   19  F   UNL     1     -11.052  13.289  64.358  1.00  0.00    -0.323 F  
HETATM   20  C   UNL     1     -10.875  14.325  69.268  1.00  0.00    -0.241 A  
HETATM   21  O   UNL     1      -9.724  15.516  65.018  1.00  0.00    -0.246 OA 
HETATM   22  O   UNL     1     -10.750  17.125  66.115  1.00  0.00    -0.232 OA 
ENDBRANCH   6  10
TORSDOF 1
ENDMDL
MODEL       29
REMARK 921   NORMALIZED FREE ENERGY PREDICTED BY IDOCK:   -6.40 KCAL/MOL
REMARK 922        TOTAL FREE ENERGY PREDICTED BY IDOCK:   -6.95 KCAL/MOL
REMARK 923 INTER-LIGAND FREE ENERGY PREDICTED BY IDOCK:   -7.18 KCAL/MOL
REMARK 924 INTRA-LIGAND FREE ENERGY PREDICTED BY IDOCK:    0.24 KCAL/MOL
REMARK 927      BINDING AFFINITY PREDICTED BY RF-SCORE:    0.00 PKD
ROOT
HETATM    1  C   UNL     1      -9.000   8.701  71.717  1.00  0.00    -0.307 C  
HETATM    2  C   UNL     1     -10.226   8.657  70.818  1.00  0.00    -0.204 C  
HETATM    3  N   UNL     1     -11.211   9.627  71.191  1.00  0.00    -0.360 NA 
HETATM    4  C   UNL     1     -10.847   7.263  70.754  1.00  0.00    -0.260 C  
HETATM    5  C   UNL     1     -11.650  10.362  70.111  1.00  0.00    -0.312 C  
HETATM    6  N   UNL     1     -10.838  10.099  69.027  1.00  0.00    -0.215 N  
HETATM    7  O   UNL     1     -12.619  11.095  70.213  1.00  0.00    -0.273 OA 
HETATM    8  C   UNL     1      -9.910   9.139  69.394  1.00  0.00    -0.172 C  
HETATM    9  O   UNL     1      -9.004   8.648  68.730  1.00  0.00    -0.138 OA 
ENDROOT
BRANCH   6  10
HETATM   10  C   UNL     1     -10.942  10.714  67.736  1.00  0.00    -0.306 A  
HETATM   11  C   UNL     1     -11.447  12.023  67.573  1.00  0.00    -0.403 A  
HETATM   12  C   UNL     1     -11.560  12.650  66.308  1.00  0.00    -0.440 A  
HETATM   13  C   UNL     1     -12.093  14.056  66.204  1.00  0.00    -0.446 C  
HETATM   14  C   UNL     1     -11.142  11.932  65.186  1.00  0.00    -0.305 A  
HETATM   15  F   UNL     1     -11.252  14.876  65.520  1.00  0.00    -0.319 F  
HETATM   16  N   UNL     1     -11.211  12.506  63.851  1.00  0.00    -0.400 N  
HETATM   17  F   UNL     1     -12.278  14.651  67.416  1.00  0.00    -0.400 F  
HETATM   18  C   UNL     1     -10.634  10.639  65.303  1.00  0.00    -0.191 A  
HETATM   19  F   UNL     1     -13.298  14.124  65.583  1.00  0.00    -0.541 F  
HETATM   20  C   UNL     1     -10.543  10.043  66.567  1.00  0.00    -0.165 A  
HETATM   21  O   UNL     1     -12.325  12.848  63.442  1.00  0.00    -0.653 OA 
HETATM   22  O   UNL     1     -10.152  12.576  63.217  1.00  0.00    -0.373 OA 
ENDBRANCH   6  10
TORSDOF 1
ENDMDL
MODEL       30
REMARK 921   NORMALIZED FREE ENERGY PREDICTED BY IDOCK:   -6.40 KCAL/MOL
REMARK 922        TOTAL FREE ENERGY PREDICTED BY IDOCK:   -6.94 KCAL/MOL
REMARK 923 INTER-LIGAND FREE ENERGY PREDICTED BY IDOCK:   -6.86 KCAL/MOL
REMARK 924 INTRA-LIGAND FREE ENERGY PREDICTED BY IDOCK:   -0.08 KCAL/MOL
REMARK 927      BINDING AFFINITY PREDICTED BY RF-SCORE:    0.00 PKD
ROOT
HETATM    1  C   UNL     1     -11.070  10.406  67.583  1.00  0.00    -0.361 C  
HETATM    2  C   UNL     1     -10.902  11.603  66.661  1.00  0.00    -0.283 C  
HETATM    3  N   UNL     1     -12.151  12.229  66.347  1.00  0.00    -0.612 NA 
HETATM    4  C   UNL     1     -10.147  11.246  65.382  1.00  0.00    -0.314 C  
HETATM    5  C   UNL     1     -12.106  13.594  66.527  1.00  0.00    -0.423 C  
HETATM    6  N   UNL     1     -10.937  13.925  67.179  1.00  0.00    -0.287 N  
HETATM    7  O   UNL     1     -13.016  14.302  66.127  1.00  0.00    -0.219 OA 
HETATM    8  C   UNL     1     -10.193  12.771  67.361  1.00  0.00    -0.222 C  
HETATM    9  O   UNL     1      -9.107  12.633  67.913  1.00  0.00    -0.184 OA 
ENDROOT
BRANCH   6  10
HETATM   10  C   UNL     1     -10.554  15.243  67.592  1.00  0.00    -0.270 A  
HETATM   11  C   UNL     1     -10.621  16.348  66.714  1.00  0.00    -0.238 A  
HETATM   12  C   UNL     1     -10.248  17.659  67.099  1.00  0.00    -0.342 A  
HETATM   13  C   UNL     1     -10.357  18.797  66.119  1.00  0.00    -0.448 C  
HETATM   14  C   UNL     1      -9.805  17.850  68.411  1.00  0.00    -0.355 A  
HETATM   15  F   UNL     1     -11.079  19.837  66.615  1.00  0.00    -0.553 F  
HETATM   16  N   UNL     1      -9.415  19.167  68.892  1.00  0.00    -0.383 N  
HETATM   17  F   UNL     1     -10.975  18.447  64.956  1.00  0.00    -0.352 F  
HETATM   18  C   UNL     1      -9.729  16.789  69.310  1.00  0.00    -0.139 A  
HETATM   19  F   UNL     1      -9.151  19.299  65.748  1.00  0.00    -0.260 F  
HETATM   20  C   UNL     1     -10.096  15.502  68.896  1.00  0.00    -0.214 A  
HETATM   21  O   UNL     1      -8.487  19.729  68.304  1.00  0.00    -0.319 OA 
HETATM   22  O   UNL     1     -10.023  19.604  69.877  1.00  0.00    -0.081 OA 
ENDBRANCH   6  10
TORSDOF 1
ENDMDL
MODEL       31
REMARK 921   NORMALIZED FREE ENERGY PREDICTED BY IDOCK:   -6.36 KCAL/MOL
REMARK 922        TOTAL FREE ENERGY PREDICTED BY IDOCK:   -6.90 KCAL/MOL
REMARK 923 INTER-LIGAND FREE ENERGY PREDICTED BY IDOCK:   -6.97 KCAL/MOL
REMARK 924 INTRA-LIGAND FREE ENERGY PREDICTED BY IDOCK:    0.07 KCAL/MOL
REMARK 927      BINDING AFFINITY PREDICTED BY RF-SCORE:    0.00 PKD
ROOT
HETATM    1  C   UNL     1     -12.738  14.180  65.741  1.00  0.00    -0.443 C  
HETATM    2  C   UNL     1     -11.681  13.882  66.791  1.00  0.00    -0.399 C  
HETATM    3  N   UNL     1     -11.940  14.551  68.031  1.00  0.00    -0.307 NA 
HETATM    4  C   UNL     1     -10.270  14.199  66.298  1.00  0.00    -0.301 C  
HETATM    5  C   UNL     1     -11.856  13.697  69.109  1.00  0.00    -0.348 C  
HETATM    6  N   UNL     1     -11.774  12.399  68.650  1.00  0.00    -0.312 N  
HETATM    7  O   UNL     1     -11.859  14.134  70.247  1.00  0.00    -0.287 OA 
HETATM    8  C   UNL     1     -11.738  12.422  67.266  1.00  0.00    -0.349 C  
HETATM    9  O   UNL     1     -11.686  11.483  66.480  1.00  0.00    -0.455 OA 
ENDROOT
BRANCH   6  10
HETATM   10  C   UNL     1     -11.727  11.224  69.470  1.00  0.00    -0.345 A  
HETATM   11  C   UNL     1     -10.922  10.113  69.133  1.00  0.00    -0.270 A  
HETATM   12  C   UNL     1     -10.860   8.941  69.927  1.00  0.00    -0.219 A  
HETATM   13  C   UNL     1      -9.970   7.796  69.520  1.00  0.00    -0.187 C  
HETATM   14  C   UNL     1     -11.628   8.905  71.094  1.00  0.00    -0.300 A  
HETATM   15  F   UNL     1      -9.127   7.420  70.517  1.00  0.00    -0.152 F  
HETATM   16  N   UNL     1     -11.612   7.745  71.974  1.00  0.00    -0.285 N  
HETATM   17  F   UNL     1      -9.170   8.089  68.457  1.00  0.00    -0.136 F  
HETATM   18  C   UNL     1     -12.431   9.981  71.466  1.00  0.00    -0.516 A  
HETATM   19  F   UNL     1     -10.663   6.687  69.154  1.00  0.00    -0.206 F  
HETATM   20  C   UNL     1     -12.478  11.122  70.654  1.00  0.00    -0.448 A  
HETATM   21  O   UNL     1     -11.967   6.667  71.490  1.00  0.00    -0.323 OA 
HETATM   22  O   UNL     1     -11.276   7.940  73.148  1.00  0.00    -0.382 OA 
ENDBRANCH   6  10
TORSDOF 1
ENDMDL
MODEL       32
REMARK 921   NORMALIZED FREE ENERGY PREDICTED BY IDOCK:   -6.35 KCAL/MOL
REMARK 922        TOTAL FREE ENERGY PREDICTED BY IDOCK:   -6.89 KCAL/MOL
REMARK 923 INTER-LIGAND FREE ENERGY PREDICTED BY IDOCK:   -6.74 KCAL/MOL
REMARK 924 INTRA-LIGAND FREE ENERGY PREDICTED BY IDOCK:   -0.16 KCAL/MOL
REMARK 927      BINDING AFFINITY PREDICTED BY RF-SCORE:    0.00 PKD
ROOT
HETATM    1  C   UNL     1     -10.434  10.078  66.623  1.00  0.00    -0.244 C  
HETATM    2  C   UNL     1     -10.537  11.144  65.544  1.00  0.00    -0.225 C  
HETATM    3  N   UNL     1     -11.893  11.513  65.270  1.00  0.00    -0.042 NA 
HETATM    4  C   UNL     1      -9.826  10.734  64.256  1.00  0.00    -0.384 C  
HETATM    5  C   UNL     1     -12.068  12.881  65.269  1.00  0.00    -0.453 C  
HETATM    6  N   UNL     1     -10.928  13.481  65.761  1.00  0.00    -0.277 N  
HETATM    7  O   UNL     1     -13.110  13.372  64.869  1.00  0.00    -0.723 OA 
HETATM    8  C   UNL     1      -9.988  12.497  66.020  1.00  0.00    -0.257 C  
HETATM    9  O   UNL     1      -8.858  12.612  66.481  1.00  0.00    -0.172 OA 
ENDROOT
BRANCH   6  10
HETATM   10  C   UNL     1     -10.746  14.888  65.965  1.00  0.00    -0.323 A  
HETATM   11  C   UNL     1     -10.319  15.412  67.205  1.00  0.00    -0.271 A  
HETATM   12  C   UNL     1     -10.133  16.798  67.431  1.00  0.00    -0.276 A  
HETATM   13  C   UNL     1      -9.662  17.291  68.774  1.00  0.00    -0.280 C  
HETATM   14  C   UNL     1     -10.379  17.669  66.366  1.00  0.00    -0.345 A  
HETATM   15  F   UNL     1      -8.565  18.087  68.674  1.00  0.00    -0.288 F  
HETATM   16  N   UNL     1     -10.200  19.106  66.508  1.00  0.00    -0.395 N  
HETATM   17  F   UNL     1      -9.306  16.285  69.621  1.00  0.00    -0.221 F  
HETATM   18  C   UNL     1     -10.796  17.193  65.125  1.00  0.00    -0.008 A  
HETATM   19  F   UNL     1     -10.605  18.006  69.440  1.00  0.00    -0.262 F  
HETATM   20  C   UNL     1     -10.980  15.817  64.937  1.00  0.00    -0.443 A  
HETATM   21  O   UNL     1     -10.878  19.675  67.368  1.00  0.00    -0.463 OA 
HETATM   22  O   UNL     1      -9.405  19.649  65.731  1.00  0.00    -0.386 OA 
ENDBRANCH   6  10
TORSDOF 1
ENDMDL
MODEL       33
REMARK 921   NORMALIZED FREE ENERGY PREDICTED BY IDOCK:   -6.35 KCAL/MOL
REMARK 922        TOTAL FREE ENERGY PREDICTED BY IDOCK:   -6.89 KCAL/MOL
REMARK 923 INTER-LIGAND FREE ENERGY PREDICTED BY IDOCK:   -6.45 KCAL/MOL
REMARK 924 INTRA-LIGAND FREE ENERGY PREDICTED BY IDOCK:   -0.43 KCAL/MOL
REMARK 927      BINDING AFFINITY PREDICTED BY RF-SCORE:    0.00 PKD
ROOT
HETATM    1  C   UNL     1     -10.843  12.415  63.222  1.00  0.00    -0.300 C  
HETATM    2  C   UNL     1     -11.141  12.791  64.665  1.00  0.00    -0.318 C  
HETATM    3  N   UNL     1     -10.148  12.299  65.572  1.00  0.00    -0.255 NA 
HETATM    4  C   UNL     1     -12.534  12.344  65.103  1.00  0.00    -0.329 C  
HETATM    5  C   UNL     1      -9.701  13.279  66.432  1.00  0.00    -0.276 C  
HETATM    6  N   UNL     1     -10.178  14.502  66.009  1.00  0.00    -0.300 N  
HETATM    7  O   UNL     1      -9.001  12.992  67.389  1.00  0.00    -0.185 OA 
HETATM    8  C   UNL     1     -10.991  14.300  64.906  1.00  0.00    -0.404 C  
HETATM    9  O   UNL     1     -11.588  15.128  64.227  1.00  0.00    -0.296 OA 
ENDROOT
BRANCH   6  10
HETATM   10  C   UNL     1      -9.884  15.768  66.613  1.00  0.00    -0.252 A  
HETATM   11  C   UNL     1      -8.770  16.541  66.219  1.00  0.00    -0.369 A  
HETATM   12  C   UNL     1      -8.459  17.795  66.802  1.00  0.00    -0.269 A  
HETATM   13  C   UNL     1      -7.263  18.577  66.325  1.00  0.00    -0.254 C  
HETATM   14  C   UNL     1      -9.308  18.275  67.803  1.00  0.00    -0.271 A  
HETATM   15  F   UNL     1      -7.588  19.848  65.970  1.00  0.00    -0.273 F  
HETATM   16  N   UNL     1      -9.069  19.558  68.445  1.00  0.00    -0.353 N  
HETATM   17  F   UNL     1      -6.668  18.032  65.227  1.00  0.00    -0.285 F  
HETATM   18  C   UNL     1     -10.421  17.546  68.218  1.00  0.00    -0.383 A  
HETATM   19  F   UNL     1      -6.281  18.670  67.258  1.00  0.00    -0.172 F  
HETATM   20  C   UNL     1     -10.695  16.305  67.628  1.00  0.00    -0.311 A  
HETATM   21  O   UNL     1      -7.994  19.701  69.035  1.00  0.00    -0.330 OA 
HETATM   22  O   UNL     1      -9.978  20.394  68.377  1.00  0.00    -0.267 OA 
ENDBRANCH   6  10
TORSDOF 1
ENDMDL
MODEL       34
REMARK 921   NORMALIZED FREE ENERGY PREDICTED BY IDOCK:   -6.34 KCAL/MOL
REMARK 922        TOTAL FREE ENERGY PREDICTED BY IDOCK:   -6.87 KCAL/MOL
REMARK 923 INTER-LIGAND FREE ENERGY PREDICTED BY IDOCK:   -6.56 KCAL/MOL
REMARK 924 INTRA-LIGAND FREE ENERGY PREDICTED BY IDOCK:   -0.32 KCAL/MOL
REMARK 927      BINDING AFFINITY PREDICTED BY RF-SCORE:    0.00 PKD
ROOT
HETATM    1  C   UNL     1      -9.787   5.396  69.950  1.00  0.00    -0.268 C  
HETATM    2  C   UNL     1     -10.426   6.775  69.919  1.00  0.00    -0.211 C  
HETATM    3  N   UNL     1      -9.540   7.798  70.389  1.00  0.00    -0.175 NA 
HETATM    4  C   UNL     1     -11.746   6.818  70.686  1.00  0.00    -0.440 C  
HETATM    5  C   UNL     1      -9.488   8.873  69.529  1.00  0.00    -0.159 C  
HETATM    6  N   UNL     1     -10.129   8.543  68.353  1.00  0.00    -0.189 N  
HETATM    7  O   UNL     1      -8.936   9.908  69.864  1.00  0.00    -0.211 OA 
HETATM    8  C   UNL     1     -10.656   7.269  68.482  1.00  0.00    -0.175 C  
HETATM    9  O   UNL     1     -11.279   6.605  67.661  1.00  0.00    -0.296 OA 
ENDROOT
BRANCH   6  10
HETATM   10  C   UNL     1     -10.237   9.381  67.196  1.00  0.00    -0.254 A  
HETATM   11  C   UNL     1     -10.942  10.605  67.226  1.00  0.00    -0.348 A  
HETATM   12  C   UNL     1     -11.062  11.450  66.094  1.00  0.00    -0.259 A  
HETATM   13  C   UNL     1     -11.816  12.750  66.196  1.00  0.00    -0.425 C  
HETATM   14  C   UNL     1     -10.444  11.042  64.910  1.00  0.00    -0.303 A  
HETATM   15  F   UNL     1     -11.076  13.808  65.772  1.00  0.00    -0.288 F  
HETATM   16  N   UNL     1     -10.508  11.856  63.705  1.00  0.00    -0.403 N  
HETATM   17  F   UNL     1     -12.190  13.056  67.471  1.00  0.00    -0.378 F  
HETATM   18  C   UNL     1      -9.735   9.844  64.838  1.00  0.00    -0.332 A  
HETATM   19  F   UNL     1     -12.964  12.760  65.472  1.00  0.00    -0.431 F  
HETATM   20  C   UNL     1      -9.642   9.027  65.972  1.00  0.00    -0.342 A  
HETATM   21  O   UNL     1     -11.628  12.101  63.250  1.00  0.00    -0.403 OA 
HETATM   22  O   UNL     1      -9.430  12.210  63.213  1.00  0.00    -0.269 OA 
ENDBRANCH   6  10
TORSDOF 1
ENDMDL
MODEL       35
REMARK 921   NORMALIZED FREE ENERGY PREDICTED BY IDOCK:   -6.31 KCAL/MOL
REMARK 922        TOTAL FREE ENERGY PREDICTED BY IDOCK:   -6.85 KCAL/MOL
REMARK 923 INTER-LIGAND FREE ENERGY PREDICTED BY IDOCK:   -7.23 KCAL/MOL
REMARK 924 INTRA-LIGAND FREE ENERGY PREDICTED BY IDOCK:    0.38 KCAL/MOL
REMARK 927      BINDING AFFINITY PREDICTED BY RF-SCORE:    0.00 PKD
ROOT
HETATM    1  C   UNL     1     -14.408  15.538  72.055  1.00  0.00    -0.600 C  
HETATM    2  C   UNL     1     -13.245  14.560  72.090  1.00  0.00    -0.369 C  
HETATM    3  N   UNL     1     -13.669  13.217  72.351  1.00  0.00    -0.632 NA 
HETATM    4  C   UNL     1     -12.165  14.982  73.086  1.00  0.00    -0.473 C  
HETATM    5  C   UNL     1     -13.126  12.320  71.456  1.00  0.00    -0.257 C  
HETATM    6  N   UNL     1     -12.518  13.016  70.432  1.00  0.00    -0.244 N  
HETATM    7  O   UNL     1     -13.227  11.119  71.645  1.00  0.00    -0.418 OA 
HETATM    8  C   UNL     1     -12.612  14.370  70.704  1.00  0.00    -0.357 C  
HETATM    9  O   UNL     1     -12.216  15.320  70.037  1.00  0.00    -0.332 OA 
ENDROOT
BRANCH   6  10
HETATM   10  C   UNL     1     -11.889  12.433  69.284  1.00  0.00    -0.304 A  
HETATM   11  C   UNL     1     -11.451  11.090  69.276  1.00  0.00    -0.370 A  
HETATM   12  C   UNL     1     -10.826  10.492  68.154  1.00  0.00    -0.300 A  
HETATM   13  C   UNL     1     -10.395   9.050  68.205  1.00  0.00    -0.214 C  
HETATM   14  C   UNL     1     -10.652  11.278  67.011  1.00  0.00    -0.246 A  
HETATM   15  F   UNL     1     -10.894   8.327  67.168  1.00  0.00    -0.375 F  
HETATM   16  N   UNL     1     -10.032  10.739  65.810  1.00  0.00    -0.239 N  
HETATM   17  F   UNL     1     -10.809   8.405  69.331  1.00  0.00    -0.228 F  
HETATM   18  C   UNL     1     -11.074  12.606  66.975  1.00  0.00    -0.322 A  
HETATM   19  F   UNL     1      -9.046   8.895  68.177  1.00  0.00    -0.137 F  
HETATM   20  C   UNL     1     -11.680  13.170  68.105  1.00  0.00    -0.391 A  
HETATM   21  O   UNL     1      -8.878  10.314  65.915  1.00  0.00    -0.150 OA 
HETATM   22  O   UNL     1     -10.700  10.781  64.770  1.00  0.00    -0.270 OA 
ENDBRANCH   6  10
TORSDOF 1
ENDMDL
MODEL       36
REMARK 921   NORMALIZED FREE ENERGY PREDICTED BY IDOCK:   -6.31 KCAL/MOL
REMARK 922        TOTAL FREE ENERGY PREDICTED BY IDOCK:   -6.85 KCAL/MOL
REMARK 923 INTER-LIGAND FREE ENERGY PREDICTED BY IDOCK:   -6.47 KCAL/MOL
REMARK 924 INTRA-LIGAND FREE ENERGY PREDICTED BY IDOCK:   -0.38 KCAL/MOL
REMARK 927      BINDING AFFINITY PREDICTED BY RF-SCORE:    0.00 PKD
ROOT
HETATM    1  C   UNL     1      -8.563   6.569  67.649  1.00  0.00    -0.116 C  
HETATM    2  C   UNL     1      -9.858   7.366  67.657  1.00  0.00    -0.154 C  
HETATM    3  N   UNL     1     -10.222   7.800  68.972  1.00  0.00    -0.204 NA 
HETATM    4  C   UNL     1     -11.011   6.603  67.008  1.00  0.00    -0.463 C  
HETATM    5  C   UNL     1     -10.537   9.141  69.007  1.00  0.00    -0.199 C  
HETATM    6  N   UNL     1     -10.183   9.719  67.805  1.00  0.00    -0.194 N  
HETATM    7  O   UNL     1     -11.050   9.632  69.999  1.00  0.00    -0.240 OA 
HETATM    8  C   UNL     1      -9.697   8.729  66.967  1.00  0.00    -0.198 C  
HETATM    9  O   UNL     1      -9.263   8.830  65.825  1.00  0.00    -0.214 OA 
ENDROOT
BRANCH   6  10
HETATM   10  C   UNL     1     -10.304  11.109  67.478  1.00  0.00    -0.196 A  
HETATM   11  C   UNL     1     -11.211  11.567  66.498  1.00  0.00    -0.324 A  
HETATM   12  C   UNL     1     -11.348  12.936  66.158  1.00  0.00    -0.356 A  
HETATM   13  C   UNL     1     -12.346  13.361  65.113  1.00  0.00    -0.456 C  
HETATM   14  C   UNL     1     -10.548  13.858  66.837  1.00  0.00    -0.280 A  
HETATM   15  F   UNL     1     -13.185  14.330  65.567  1.00  0.00    -0.541 F  
HETATM   16  N   UNL     1     -10.633  15.284  66.558  1.00  0.00    -0.298 N  
HETATM   17  F   UNL     1     -13.153  12.346  64.696  1.00  0.00    -0.543 F  
HETATM   18  C   UNL     1      -9.642  13.448  67.814  1.00  0.00    -0.213 A  
HETATM   19  F   UNL     1     -11.764  13.844  63.985  1.00  0.00    -0.407 F  
HETATM   20  C   UNL     1      -9.525  12.087  68.122  1.00  0.00    -0.200 A  
HETATM   21  O   UNL     1     -10.389  15.647  65.405  1.00  0.00    -0.355 OA 
HETATM   22  O   UNL     1     -10.912  16.023  67.510  1.00  0.00    -0.321 OA 
ENDBRANCH   6  10
TORSDOF 1
ENDMDL
MODEL       37
REMARK 921   NORMALIZED FREE ENERGY PREDICTED BY IDOCK:   -6.31 KCAL/MOL
REMARK 922        TOTAL FREE ENERGY PREDICTED BY IDOCK:   -6.84 KCAL/MOL
REMARK 923 INTER-LIGAND FREE ENERGY PREDICTED BY IDOCK:   -6.43 KCAL/MOL
REMARK 924 INTRA-LIGAND FREE ENERGY PREDICTED BY IDOCK:   -0.41 KCAL/MOL
REMARK 927      BINDING AFFINITY PREDICTED BY RF-SCORE:    0.00 PKD
ROOT
HETATM    1  C   UNL     1     -11.317  11.977  66.270  1.00  0.00    -0.415 C  
HETATM    2  C   UNL     1     -11.819  13.393  66.497  1.00  0.00    -0.396 C  
HETATM    3  N   UNL     1     -12.270  13.603  67.840  1.00  0.00    -0.259 NA 
HETATM    4  C   UNL     1     -12.908  13.788  65.501  1.00  0.00    -0.464 C  
HETATM    5  C   UNL     1     -11.734  14.746  68.394  1.00  0.00    -0.314 C  
HETATM    6  N   UNL     1     -10.740  15.225  67.566  1.00  0.00    -0.278 N  
HETATM    7  O   UNL     1     -12.156  15.178  69.454  1.00  0.00    -0.302 OA 
HETATM    8  C   UNL     1     -10.680  14.422  66.440  1.00  0.00    -0.306 C  
HETATM    9  O   UNL     1      -9.923  14.497  65.478  1.00  0.00    -0.342 OA 
ENDROOT
BRANCH   6  10
HETATM   10  C   UNL     1      -9.913  16.367  67.827  1.00  0.00    -0.248 A  
HETATM   11  C   UNL     1      -8.568  16.233  68.235  1.00  0.00    -0.196 A  
HETATM   12  C   UNL     1      -7.731  17.346  68.499  1.00  0.00    -0.267 A  
HETATM   13  C   UNL     1      -6.299  17.136  68.918  1.00  0.00    -0.186 C  
HETATM   14  C   UNL     1      -8.276  18.622  68.335  1.00  0.00    -0.334 A  
HETATM   15  F   UNL     1      -5.428  17.822  68.133  1.00  0.00    -0.140 F  
HETATM   16  N   UNL     1      -7.482  19.819  68.572  1.00  0.00    -0.328 N  
HETATM   17  F   UNL     1      -5.905  15.833  68.848  1.00  0.00    -0.100 F  
HETATM   18  C   UNL     1      -9.597  18.798  67.929  1.00  0.00    -0.345 A  
HETATM   19  F   UNL     1      -6.057  17.517  70.198  1.00  0.00    -0.249 F  
HETATM   20  C   UNL     1     -10.401  17.677  67.685  1.00  0.00    -0.368 A  
HETATM   21  O   UNL     1      -7.012  19.967  69.704  1.00  0.00    -0.281 OA 
HETATM   22  O   UNL     1      -7.371  20.611  67.629  1.00  0.00    -0.313 OA 
ENDBRANCH   6  10
TORSDOF 1
ENDMDL
MODEL       38
REMARK 921   NORMALIZED FREE ENERGY PREDICTED BY IDOCK:   -6.30 KCAL/MOL
REMARK 922        TOTAL FREE ENERGY PREDICTED BY IDOCK:   -6.84 KCAL/MOL
REMARK 923 INTER-LIGAND FREE ENERGY PREDICTED BY IDOCK:   -6.40 KCAL/MOL
REMARK 924 INTRA-LIGAND FREE ENERGY PREDICTED BY IDOCK:   -0.43 KCAL/MOL
REMARK 927      BINDING AFFINITY PREDICTED BY RF-SCORE:    0.00 PKD
ROOT
HETATM    1  C   UNL     1     -10.551  19.766  66.342  1.00  0.00    -0.575 C  
HETATM    2  C   UNL     1      -9.785  18.723  67.140  1.00  0.00    -0.301 C  
HETATM    3  N   UNL     1     -10.360  18.493  68.431  1.00  0.00    -0.358 NA 
HETATM    4  C   UNL     1      -8.302  19.068  67.271  1.00  0.00    -0.296 C  
HETATM    5  C   UNL     1     -10.532  17.151  68.691  1.00  0.00    -0.366 C  
HETATM    6  N   UNL     1     -10.310  16.435  67.532  1.00  0.00    -0.282 N  
HETATM    7  O   UNL     1     -10.829  16.769  69.811  1.00  0.00    -0.325 OA 
HETATM    8  C   UNL     1      -9.929  17.318  66.536  1.00  0.00    -0.305 C  
HETATM    9  O   UNL     1      -9.662  17.087  65.362  1.00  0.00    -0.467 OA 
ENDROOT
BRANCH   6  10
HETATM   10  C   UNL     1     -10.446  15.016  67.388  1.00  0.00    -0.257 A  
HETATM   11  C   UNL     1      -9.325  14.157  67.382  1.00  0.00    -0.215 A  
HETATM   12  C   UNL     1      -9.434  12.752  67.239  1.00  0.00    -0.204 A  
HETATM   13  C   UNL     1      -8.199  11.890  67.256  1.00  0.00    -0.170 C  
HETATM   14  C   UNL     1     -10.715  12.209  67.109  1.00  0.00    -0.232 A  
HETATM   15  F   UNL     1      -8.282  10.889  68.172  1.00  0.00    -0.107 F  
HETATM   16  N   UNL     1     -10.918  10.775  66.971  1.00  0.00    -0.259 N  
HETATM   17  F   UNL     1      -7.067  12.580  67.571  1.00  0.00    -0.100 F  
HETATM   18  C   UNL     1     -11.848  13.020  67.114  1.00  0.00    -0.431 A  
HETATM   19  F   UNL     1      -7.941  11.304  66.058  1.00  0.00    -0.157 F  
HETATM   20  C   UNL     1     -11.706  14.408  67.248  1.00  0.00    -0.429 A  
HETATM   21  O   UNL     1     -10.388  10.222  66.004  1.00  0.00    -0.237 OA 
HETATM   22  O   UNL     1     -11.635  10.229  67.818  1.00  0.00    -0.331 OA 
ENDBRANCH   6  10
TORSDOF 1
ENDMDL
MODEL       39
REMARK 921   NORMALIZED FREE ENERGY PREDICTED BY IDOCK:   -6.30 KCAL/MOL
REMARK 922        TOTAL FREE ENERGY PREDICTED BY IDOCK:   -6.84 KCAL/MOL
REMARK 923 INTER-LIGAND FREE ENERGY PREDICTED BY IDOCK:   -6.99 KCAL/MOL
REMARK 924 INTRA-LIGAND FREE ENERGY PREDICTED BY IDOCK:    0.16 KCAL/MOL
REMARK 927      BINDING AFFINITY PREDICTED BY RF-SCORE:    0.00 PKD
ROOT
HETATM    1  C   UNL     1     -10.917   6.907  70.935  1.00  0.00    -0.290 C  
HETATM    2  C   UNL     1     -10.141   8.167  70.584  1.00  0.00    -0.194 C  
HETATM    3  N   UNL     1      -9.183   7.945  69.543  1.00  0.00    -0.153 NA 
HETATM    4  C   UNL     1      -9.468   8.790  71.805  1.00  0.00    -0.363 C  
HETATM    5  C   UNL     1      -9.271   8.893  68.547  1.00  0.00    -0.137 C  
HETATM    6  N   UNL     1     -10.413   9.643  68.737  1.00  0.00    -0.209 N  
HETATM    7  O   UNL     1      -8.410   8.968  67.685  1.00  0.00    -0.115 OA 
HETATM    8  C   UNL     1     -11.030   9.216  69.901  1.00  0.00    -0.204 C  
HETATM    9  O   UNL     1     -12.074   9.611  70.409  1.00  0.00    -0.183 OA 
ENDROOT
BRANCH   6  10
HETATM   10  C   UNL     1     -10.877  10.691  67.877  1.00  0.00    -0.277 A  
HETATM   11  C   UNL     1     -10.681  10.649  66.479  1.00  0.00    -0.218 A  
HETATM   12  C   UNL     1     -11.131  11.672  65.609  1.00  0.00    -0.308 A  
HETATM   13  C   UNL     1     -10.903  11.560  64.124  1.00  0.00    -0.372 C  
HETATM   14  C   UNL     1     -11.803  12.758  66.175  1.00  0.00    -0.425 A  
HETATM   15  F   UNL     1     -12.052  11.706  63.414  1.00  0.00    -0.560 F  
HETATM   16  N   UNL     1     -12.310  13.847  65.352  1.00  0.00    -0.443 N  
HETATM   17  F   UNL     1     -10.394  10.352  63.749  1.00  0.00    -0.363 F  
HETATM   18  C   UNL     1     -12.022  12.837  67.549  1.00  0.00    -0.342 A  
HETATM   19  F   UNL     1     -10.028  12.482  63.648  1.00  0.00    -0.395 F  
HETATM   20  C   UNL     1     -11.557  11.812  68.384  1.00  0.00    -0.380 A  
HETATM   21  O   UNL     1     -11.487  14.474  64.680  1.00  0.00    -0.385 OA 
HETATM   22  O   UNL     1     -13.523  14.078  65.419  1.00  0.00    -0.679 OA 
ENDBRANCH   6  10
TORSDOF 1
ENDMDL
MODEL       40
REMARK 921   NORMALIZED FREE ENERGY PREDICTED BY IDOCK:   -6.30 KCAL/MOL
REMARK 922        TOTAL FREE ENERGY PREDICTED BY IDOCK:   -6.83 KCAL/MOL
REMARK 923 INTER-LIGAND FREE ENERGY PREDICTED BY IDOCK:   -6.55 KCAL/MOL
REMARK 924 INTRA-LIGAND FREE ENERGY PREDICTED BY IDOCK:   -0.28 KCAL/MOL
REMARK 927      BINDING AFFINITY PREDICTED BY RF-SCORE:    0.00 PKD
ROOT
HETATM    1  C   UNL     1     -11.104   6.321  68.778  1.00  0.00    -0.424 C  
HETATM    2  C   UNL     1     -10.016   7.337  68.469  1.00  0.00    -0.162 C  
HETATM    3  N   UNL     1      -9.706   7.397  67.073  1.00  0.00    -0.177 NA 
HETATM    4  C   UNL     1      -8.749   7.095  69.288  1.00  0.00    -0.136 C  
HETATM    5  C   UNL     1      -9.692   8.691  66.599  1.00  0.00    -0.247 C  
HETATM    6  N   UNL     1     -10.210   9.530  67.564  1.00  0.00    -0.212 N  
HETATM    7  O   UNL     1      -9.262   8.939  65.485  1.00  0.00    -0.220 OA 
HETATM    8  C   UNL     1     -10.498   8.779  68.692  1.00  0.00    -0.183 C  
HETATM    9  O   UNL     1     -10.987   9.142  69.756  1.00  0.00    -0.233 OA 
ENDROOT
BRANCH   6  10
HETATM   10  C   UNL     1     -10.410  10.942  67.424  1.00  0.00    -0.211 A  
HETATM   11  C   UNL     1     -11.263  11.479  66.436  1.00  0.00    -0.307 A  
HETATM   12  C   UNL     1     -11.476  12.871  66.278  1.00  0.00    -0.395 A  
HETATM   13  C   UNL     1     -12.412  13.378  65.211  1.00  0.00    -0.483 C  
HETATM   14  C   UNL     1     -10.811  13.734  67.152  1.00  0.00    -0.283 A  
HETATM   15  F   UNL     1     -13.359  14.213  65.713  1.00  0.00    -0.522 F  
HETATM   16  N   UNL     1     -10.984  15.176  67.068  1.00  0.00    -0.319 N  
HETATM   17  F   UNL     1     -13.099  12.384  64.582  1.00  0.00    -0.543 F  
HETATM   18  C   UNL     1      -9.964  13.245  68.145  1.00  0.00    -0.234 A  
HETATM   19  F   UNL     1     -11.775  14.057  64.223  1.00  0.00    -0.384 F  
HETATM   20  C   UNL     1      -9.767  11.864  68.269  1.00  0.00    -0.200 A  
HETATM   21  O   UNL     1     -10.671  15.719  66.005  1.00  0.00    -0.323 OA 
HETATM   22  O   UNL     1     -11.400  15.749  68.082  1.00  0.00    -0.350 OA 
ENDBRANCH   6  10
TORSDOF 1
ENDMDL
MODEL       41
REMARK 921   NORMALIZED FREE ENERGY PREDICTED BY IDOCK:   -6.29 KCAL/MOL
REMARK 922        TOTAL FREE ENERGY PREDICTED BY IDOCK:   -6.83 KCAL/MOL
REMARK 923 INTER-LIGAND FREE ENERGY PREDICTED BY IDOCK:   -6.71 KCAL/MOL
REMARK 924 INTRA-LIGAND FREE ENERGY PREDICTED BY IDOCK:   -0.12 KCAL/MOL
REMARK 927      BINDING AFFINITY PREDICTED BY RF-SCORE:    0.00 PKD
ROOT
HETATM    1  C   UNL     1     -10.677   6.481  72.342  1.00  0.00    -0.253 C  
HETATM    2  C   UNL     1     -11.477   7.120  71.219  1.00  0.00    -0.282 C  
HETATM    3  N   UNL     1     -12.811   7.453  71.621  1.00  0.00    -0.358 NA 
HETATM    4  C   UNL     1     -11.499   6.256  69.960  1.00  0.00    -0.460 C  
HETATM    5  C   UNL     1     -13.148   8.746  71.283  1.00  0.00    -0.177 C  
HETATM    6  N   UNL     1     -12.015   9.411  70.862  1.00  0.00    -0.291 N  
HETATM    7  O   UNL     1     -14.301   9.130  71.378  1.00  0.00    -0.211 OA 
HETATM    8  C   UNL     1     -10.954   8.521  70.867  1.00  0.00    -0.251 C  
HETATM    9  O   UNL     1      -9.779   8.720  70.580  1.00  0.00    -0.174 OA 
ENDROOT
BRANCH   6  10
HETATM   10  C   UNL     1     -11.950  10.790  70.478  1.00  0.00    -0.361 A  
HETATM   11  C   UNL     1     -12.495  11.814  71.284  1.00  0.00    -0.351 A  
HETATM   12  C   UNL     1     -12.444  13.184  70.926  1.00  0.00    -0.407 A  
HETATM   13  C   UNL     1     -13.032  14.229  71.838  1.00  0.00    -0.350 C  
HETATM   14  C   UNL     1     -11.815  13.518  69.724  1.00  0.00    -0.329 A  
HETATM   15  F   UNL     1     -12.142  15.211  72.136  1.00  0.00    -0.355 F  
HETATM   16  N   UNL     1     -11.707  14.902  69.287  1.00  0.00    -0.299 N  
HETATM   17  F   UNL     1     -13.437  13.727  73.039  1.00  0.00    -0.584 F  
HETATM   18  C   UNL     1     -11.260  12.540  68.901  1.00  0.00    -0.330 A  
HETATM   19  F   UNL     1     -14.127  14.838  71.315  1.00  0.00    -0.429 F  
HETATM   20  C   UNL     1     -11.336  11.193  69.280  1.00  0.00    -0.349 A  
HETATM   21  O   UNL     1     -12.760  15.523  69.120  1.00  0.00     0.120 OA 
HETATM   22  O   UNL     1     -10.566  15.336  69.085  1.00  0.00    -0.229 OA 
ENDBRANCH   6  10
TORSDOF 1
ENDMDL
MODEL       42
REMARK 921   NORMALIZED FREE ENERGY PREDICTED BY IDOCK:   -6.28 KCAL/MOL
REMARK 922        TOTAL FREE ENERGY PREDICTED BY IDOCK:   -6.82 KCAL/MOL
REMARK 923 INTER-LIGAND FREE ENERGY PREDICTED BY IDOCK:   -6.89 KCAL/MOL
REMARK 924 INTRA-LIGAND FREE ENERGY PREDICTED BY IDOCK:    0.07 KCAL/MOL
REMARK 927      BINDING AFFINITY PREDICTED BY RF-SCORE:    0.00 PKD
ROOT
HETATM    1  C   UNL     1     -10.881  14.318  64.706  1.00  0.00    -0.420 C  
HETATM    2  C   UNL     1     -11.061  12.827  64.466  1.00  0.00    -0.330 C  
HETATM    3  N   UNL     1      -9.843  12.189  64.067  1.00  0.00    -0.235 NA 
HETATM    4  C   UNL     1     -12.172  12.534  63.459  1.00  0.00    -0.652 C  
HETATM    5  C   UNL     1      -9.591  11.049  64.800  1.00  0.00    -0.248 C  
HETATM    6  N   UNL     1     -10.472  10.990  65.859  1.00  0.00    -0.254 N  
HETATM    7  O   UNL     1      -8.702  10.282  64.467  1.00  0.00    -0.171 OA 
HETATM    8  C   UNL     1     -11.341  12.065  65.769  1.00  0.00    -0.331 C  
HETATM    9  O   UNL     1     -12.254  12.384  66.523  1.00  0.00    -0.586 OA 
ENDROOT
BRANCH   6  10
HETATM   10  C   UNL     1     -10.489   9.982  66.877  1.00  0.00    -0.218 A  
HETATM   11  C   UNL     1     -10.735  10.296  68.232  1.00  0.00    -0.276 A  
HETATM   12  C   UNL     1     -10.756   9.317  69.256  1.00  0.00    -0.211 A  
HETATM   13  C   UNL     1     -11.038   9.716  70.681  1.00  0.00    -0.319 C  
HETATM   14  C   UNL     1     -10.530   7.988  68.890  1.00  0.00    -0.191 A  
HETATM   15  F   UNL     1     -12.053   8.995  71.226  1.00  0.00    -0.309 F  
HETATM   16  N   UNL     1     -10.547   6.918  69.876  1.00  0.00    -0.219 N  
HETATM   17  F   UNL     1     -11.408  11.021  70.810  1.00  0.00    -0.362 F  
HETATM   18  C   UNL     1     -10.289   7.634  67.563  1.00  0.00    -0.326 A  
HETATM   19  F   UNL     1      -9.966   9.563  71.500  1.00  0.00    -0.353 F  
HETATM   20  C   UNL     1     -10.265   8.627  66.576  1.00  0.00    -0.295 A  
HETATM   21  O   UNL     1      -9.733   6.992  70.800  1.00  0.00    -0.169 OA 
HETATM   22  O   UNL     1     -11.356   6.001  69.691  1.00  0.00    -0.411 OA 
ENDBRANCH   6  10
TORSDOF 1
ENDMDL
MODEL       43
REMARK 921   NORMALIZED FREE ENERGY PREDICTED BY IDOCK:   -6.20 KCAL/MOL
REMARK 922        TOTAL FREE ENERGY PREDICTED BY IDOCK:   -6.73 KCAL/MOL
REMARK 923 INTER-LIGAND FREE ENERGY PREDICTED BY IDOCK:   -6.30 KCAL/MOL
REMARK 924 INTRA-LIGAND FREE ENERGY PREDICTED BY IDOCK:   -0.43 KCAL/MOL
REMARK 927      BINDING AFFINITY PREDICTED BY RF-SCORE:    0.00 PKD
ROOT
HETATM    1  C   UNL     1     -11.243  15.033  66.308  1.00  0.00    -0.309 C  
HETATM    2  C   UNL     1     -10.467  13.758  66.019  1.00  0.00    -0.297 C  
HETATM    3  N   UNL     1      -9.179  13.750  66.645  1.00  0.00    -0.249 NA 
HETATM    4  C   UNL     1     -10.334  13.489  64.521  1.00  0.00    -0.381 C  
HETATM    5  C   UNL     1      -8.944  12.579  67.332  1.00  0.00    -0.188 C  
HETATM    6  N   UNL     1     -10.116  11.856  67.405  1.00  0.00    -0.195 N  
HETATM    7  O   UNL     1      -7.830  12.326  67.762  1.00  0.00    -0.129 OA 
HETATM    8  C   UNL     1     -11.097  12.535  66.702  1.00  0.00    -0.283 C  
HETATM    9  O   UNL     1     -12.275  12.239  66.541  1.00  0.00    -0.588 OA 
ENDROOT
BRANCH   6  10
HETATM   10  C   UNL     1     -10.286  10.607  68.088  1.00  0.00    -0.176 A  
HETATM   11  C   UNL     1     -10.866  10.536  69.374  1.00  0.00    -0.291 A  
HETATM   12  C   UNL     1     -11.044   9.314  70.069  1.00  0.00    -0.228 A  
HETATM   13  C   UNL     1     -11.682   9.304  71.434  1.00  0.00    -0.361 C  
HETATM   14  C   UNL     1     -10.631   8.139  69.436  1.00  0.00    -0.200 A  
HETATM   15  F   UNL     1     -12.734   8.446  71.504  1.00  0.00    -0.300 F  
HETATM   16  N   UNL     1     -10.790   6.841  70.074  1.00  0.00    -0.248 N  
HETATM   17  F   UNL     1     -12.178  10.519  71.803  1.00  0.00    -0.433 F  
HETATM   18  C   UNL     1     -10.059   8.165  68.165  1.00  0.00    -0.237 A  
HETATM   19  F   UNL     1     -10.822   8.951  72.423  1.00  0.00    -0.413 F  
HETATM   20  C   UNL     1      -9.888   9.390  67.508  1.00  0.00    -0.220 A  
HETATM   21  O   UNL     1     -10.221   6.672  71.156  1.00  0.00    -0.193 OA 
HETATM   22  O   UNL     1     -11.455   5.996  69.462  1.00  0.00    -0.384 OA 
ENDBRANCH   6  10
TORSDOF 1
ENDMDL
MODEL       44
REMARK 921   NORMALIZED FREE ENERGY PREDICTED BY IDOCK:   -6.20 KCAL/MOL
REMARK 922        TOTAL FREE ENERGY PREDICTED BY IDOCK:   -6.73 KCAL/MOL
REMARK 923 INTER-LIGAND FREE ENERGY PREDICTED BY IDOCK:   -6.35 KCAL/MOL
REMARK 924 INTRA-LIGAND FREE ENERGY PREDICTED BY IDOCK:   -0.37 KCAL/MOL
REMARK 927      BINDING AFFINITY PREDICTED BY RF-SCORE:    0.00 PKD
ROOT
HETATM    1  C   UNL     1      -8.479   6.228  65.396  1.00  0.00    -0.131 C  
HETATM    2  C   UNL     1      -8.105   7.661  65.737  1.00  0.00    -0.126 C  
HETATM    3  N   UNL     1      -7.436   8.322  64.655  1.00  0.00    -0.093 NA 
HETATM    4  C   UNL     1      -7.273   7.755  67.015  1.00  0.00    -0.089 C  
HETATM    5  C   UNL     1      -7.983   9.558  64.386  1.00  0.00    -0.135 C  
HETATM    6  N   UNL     1      -9.162   9.693  65.089  1.00  0.00    -0.230 N  
HETATM    7  O   UNL     1      -7.420  10.332  63.629  1.00  0.00    -0.143 OA 
HETATM    8  C   UNL     1      -9.342   8.562  65.867  1.00  0.00    -0.163 C  
HETATM    9  O   UNL     1     -10.270   8.283  66.619  1.00  0.00    -0.290 OA 
ENDROOT
BRANCH   6  10
HETATM   10  C   UNL     1     -10.047  10.818  65.027  1.00  0.00    -0.313 A  
HETATM   11  C   UNL     1     -10.241  11.675  66.133  1.00  0.00    -0.263 A  
HETATM   12  C   UNL     1     -11.111  12.792  66.096  1.00  0.00    -0.322 A  
HETATM   13  C   UNL     1     -11.262  13.676  67.307  1.00  0.00    -0.309 C  
HETATM   14  C   UNL     1     -11.792  13.047  64.903  1.00  0.00    -0.361 A  
HETATM   15  F   UNL     1     -11.044  14.986  67.018  1.00  0.00    -0.306 F  
HETATM   16  N   UNL     1     -12.695  14.181  64.775  1.00  0.00    -0.281 N  
HETATM   17  F   UNL     1     -10.386  13.373  68.306  1.00  0.00    -0.221 F  
HETATM   18  C   UNL     1     -11.626  12.229  63.787  1.00  0.00    -0.555 A  
HETATM   19  F   UNL     1     -12.494  13.600  67.872  1.00  0.00    -0.326 F  
HETATM   20  C   UNL     1     -10.765  11.127  63.858  1.00  0.00    -0.407 A  
HETATM   21  O   UNL     1     -13.658  14.223  65.546  1.00  0.00    -0.497 OA 
HETATM   22  O   UNL     1     -12.444  14.996  63.879  1.00  0.00    -0.790 OA 
ENDBRANCH   6  10
TORSDOF 1
ENDMDL
MODEL       45
REMARK 921   NORMALIZED FREE ENERGY PREDICTED BY IDOCK:   -6.19 KCAL/MOL
REMARK 922        TOTAL FREE ENERGY PREDICTED BY IDOCK:   -6.72 KCAL/MOL
REMARK 923 INTER-LIGAND FREE ENERGY PREDICTED BY IDOCK:   -6.30 KCAL/MOL
REMARK 924 INTRA-LIGAND FREE ENERGY PREDICTED BY IDOCK:   -0.42 KCAL/MOL
REMARK 927      BINDING AFFINITY PREDICTED BY RF-SCORE:    0.00 PKD
ROOT
HETATM    1  C   UNL     1     -11.294  14.097  64.483  1.00  0.00    -0.355 C  
HETATM    2  C   UNL     1     -11.307  12.578  64.453  1.00  0.00    -0.343 C  
HETATM    3  N   UNL     1     -10.078  12.031  63.960  1.00  0.00    -0.331 NA 
HETATM    4  C   UNL     1     -12.492  12.025  63.662  1.00  0.00    -0.637 C  
HETATM    5  C   UNL     1      -9.587  11.039  64.781  1.00  0.00    -0.248 C  
HETATM    6  N   UNL     1     -10.308  11.027  65.957  1.00  0.00    -0.251 N  
HETATM    7  O   UNL     1      -8.656  10.339  64.417  1.00  0.00    -0.171 OA 
HETATM    8  C   UNL     1     -11.313  11.975  65.866  1.00  0.00    -0.337 C  
HETATM    9  O   UNL     1     -12.155  12.289  66.700  1.00  0.00    -0.612 OA 
ENDROOT
BRANCH   6  10
HETATM   10  C   UNL     1     -10.060  10.173  67.081  1.00  0.00    -0.209 A  
HETATM   11  C   UNL     1     -10.446   8.815  67.082  1.00  0.00    -0.354 A  
HETATM   12  C   UNL     1     -10.213   7.951  68.181  1.00  0.00    -0.248 A  
HETATM   13  C   UNL     1     -10.637   6.507  68.114  1.00  0.00    -0.251 C  
HETATM   14  C   UNL     1      -9.565   8.482  69.299  1.00  0.00    -0.170 A  
HETATM   15  F   UNL     1      -9.615   5.657  68.399  1.00  0.00    -0.116 F  
HETATM   16  N   UNL     1      -9.274   7.662  70.466  1.00  0.00    -0.159 N  
HETATM   17  F   UNL     1     -11.086   6.136  66.882  1.00  0.00    -0.368 F  
HETATM   18  C   UNL     1      -9.163   9.816  69.337  1.00  0.00    -0.214 A  
HETATM   19  F   UNL     1     -11.646   6.207  68.971  1.00  0.00    -0.465 F  
HETATM   20  C   UNL     1      -9.416  10.646  68.237  1.00  0.00    -0.161 A  
HETATM   21  O   UNL     1     -10.235   7.144  71.042  1.00  0.00    -0.196 OA 
HETATM   22  O   UNL     1      -8.089   7.576  70.807  1.00  0.00    -0.105 OA 
ENDBRANCH   6  10
TORSDOF 1
ENDMDL
MODEL       46
REMARK 921   NORMALIZED FREE ENERGY PREDICTED BY IDOCK:   -6.17 KCAL/MOL
REMARK 922        TOTAL FREE ENERGY PREDICTED BY IDOCK:   -6.70 KCAL/MOL
REMARK 923 INTER-LIGAND FREE ENERGY PREDICTED BY IDOCK:   -6.67 KCAL/MOL
REMARK 924 INTRA-LIGAND FREE ENERGY PREDICTED BY IDOCK:   -0.03 KCAL/MOL
REMARK 927      BINDING AFFINITY PREDICTED BY RF-SCORE:    0.00 PKD
ROOT
HETATM    1  C   UNL     1     -12.607  14.037  65.586  1.00  0.00    -0.542 C  
HETATM    2  C   UNL     1     -11.549  13.708  66.626  1.00  0.00    -0.364 C  
HETATM    3  N   UNL     1     -11.886  14.210  67.924  1.00  0.00    -0.364 NA 
HETATM    4  C   UNL     1     -10.160  14.189  66.212  1.00  0.00    -0.308 C  
HETATM    5  C   UNL     1     -11.753  13.248  68.902  1.00  0.00    -0.327 C  
HETATM    6  N   UNL     1     -11.556  12.021  68.305  1.00  0.00    -0.312 N  
HETATM    7  O   UNL     1     -11.814  13.552  70.082  1.00  0.00    -0.307 OA 
HETATM    8  C   UNL     1     -11.496  12.204  66.933  1.00  0.00    -0.351 C  
HETATM    9  O   UNL     1     -11.352  11.366  66.049  1.00  0.00    -0.200 OA 
ENDROOT
BRANCH   6  10
HETATM   10  C   UNL     1     -11.429  10.768  68.990  1.00  0.00    -0.298 A  
HETATM   11  C   UNL     1     -12.292  10.407  70.047  1.00  0.00    -0.229 A  
HETATM   12  C   UNL     1     -12.186   9.175  70.739  1.00  0.00    -0.151 A  
HETATM   13  C   UNL     1     -13.148   8.843  71.850  1.00  0.00    -0.386 C  
HETATM   14  C   UNL     1     -11.182   8.289  70.339  1.00  0.00    -0.219 A  
HETATM   15  F   UNL     1     -13.756   7.642  71.662  1.00  0.00    -0.366 F  
HETATM   16  N   UNL     1     -11.011   6.998  70.988  1.00  0.00    -0.244 N  
HETATM   17  F   UNL     1     -14.160   9.748  71.971  1.00  0.00    -0.301 F  
HETATM   18  C   UNL     1     -10.312   8.605  69.298  1.00  0.00    -0.228 A  
HETATM   19  F   UNL     1     -12.558   8.797  73.071  1.00  0.00    -0.395 F  
HETATM   20  C   UNL     1     -10.438   9.835  68.639  1.00  0.00    -0.233 A  
HETATM   21  O   UNL     1     -10.775   7.003  72.199  1.00  0.00    -0.211 OA 
HETATM   22  O   UNL     1     -11.082   5.997  70.265  1.00  0.00    -0.328 OA 
ENDBRANCH   6  10
TORSDOF 1
ENDMDL
MODEL       47
REMARK 921   NORMALIZED FREE ENERGY PREDICTED BY IDOCK:   -6.11 KCAL/MOL
REMARK 922        TOTAL FREE ENERGY PREDICTED BY IDOCK:   -6.63 KCAL/MOL
REMARK 923 INTER-LIGAND FREE ENERGY PREDICTED BY IDOCK:   -6.23 KCAL/MOL
REMARK 924 INTRA-LIGAND FREE ENERGY PREDICTED BY IDOCK:   -0.40 KCAL/MOL
REMARK 927      BINDING AFFINITY PREDICTED BY RF-SCORE:    0.00 PKD
ROOT
HETATM    1  C   UNL     1      -7.073  19.797  69.207  1.00  0.00    -0.335 C  
HETATM    2  C   UNL     1      -7.436  19.126  67.892  1.00  0.00    -0.259 C  
HETATM    3  N   UNL     1      -6.354  18.355  67.356  1.00  0.00    -0.181 NA 
HETATM    4  C   UNL     1      -7.947  20.123  66.854  1.00  0.00    -0.356 C  
HETATM    5  C   UNL     1      -6.752  17.087  66.991  1.00  0.00    -0.203 C  
HETATM    6  N   UNL     1      -8.027  16.860  67.466  1.00  0.00    -0.167 N  
HETATM    7  O   UNL     1      -6.009  16.367  66.344  1.00  0.00    -0.170 OA 
HETATM    8  C   UNL     1      -8.478  18.014  68.085  1.00  0.00    -0.269 C  
HETATM    9  O   UNL     1      -9.547  18.218  68.649  1.00  0.00    -0.321 OA 
ENDROOT
BRANCH   6  10
HETATM   10  C   UNL     1      -8.762  15.636  67.335  1.00  0.00    -0.179 A  
HETATM   11  C   UNL     1      -9.879  15.527  66.478  1.00  0.00    -0.281 A  
HETATM   12  C   UNL     1     -10.621  14.329  66.332  1.00  0.00    -0.286 A  
HETATM   13  C   UNL     1     -11.795  14.274  65.389  1.00  0.00    -0.363 C  
HETATM   14  C   UNL     1     -10.210  13.216  67.070  1.00  0.00    -0.250 A  
HETATM   15  F   UNL     1     -11.696  13.248  64.504  1.00  0.00    -0.342 F  
HETATM   16  N   UNL     1     -10.908  11.943  66.970  1.00  0.00    -0.246 N  
HETATM   17  F   UNL     1     -11.927  15.398  64.631  1.00  0.00    -0.358 F  
HETATM   18  C   UNL     1      -9.110  13.279  67.923  1.00  0.00    -0.203 A  
HETATM   19  F   UNL     1     -12.984  14.127  66.027  1.00  0.00    -0.505 F  
HETATM   20  C   UNL     1      -8.403  14.482  68.052  1.00  0.00    -0.153 A  
HETATM   21  O   UNL     1     -12.103  11.931  67.275  1.00  0.00    -0.582 OA 
HETATM   22  O   UNL     1     -10.237  10.965  66.618  1.00  0.00    -0.218 OA 
ENDBRANCH   6  10
TORSDOF 1
ENDMDL
MODEL       48
REMARK 921   NORMALIZED FREE ENERGY PREDICTED BY IDOCK:   -6.10 KCAL/MOL
REMARK 922        TOTAL FREE ENERGY PREDICTED BY IDOCK:   -6.63 KCAL/MOL
REMARK 923 INTER-LIGAND FREE ENERGY PREDICTED BY IDOCK:   -6.51 KCAL/MOL
REMARK 924 INTRA-LIGAND FREE ENERGY PREDICTED BY IDOCK:   -0.12 KCAL/MOL
REMARK 927      BINDING AFFINITY PREDICTED BY RF-SCORE:    0.00 PKD
ROOT
HETATM    1  C   UNL     1      -9.981  20.482  67.803  1.00  0.00    -0.410 C  
HETATM    2  C   UNL     1      -9.055  19.392  67.287  1.00  0.00    -0.298 C  
HETATM    3  N   UNL     1      -8.416  18.672  68.347  1.00  0.00    -0.330 NA 
HETATM    4  C   UNL     1      -8.016  19.933  66.306  1.00  0.00    -0.346 C  
HETATM    5  C   UNL     1      -8.520  17.308  68.182  1.00  0.00    -0.238 C  
HETATM    6  N   UNL     1      -9.409  17.042  67.163  1.00  0.00    -0.232 N  
HETATM    7  O   UNL     1      -7.873  16.549  68.885  1.00  0.00    -0.220 OA 
HETATM    8  C   UNL     1      -9.833  18.246  66.623  1.00  0.00    -0.352 C  
HETATM    9  O   UNL     1     -10.634  18.445  65.717  1.00  0.00    -0.570 OA 
ENDROOT
BRANCH   6  10
HETATM   10  C   UNL     1      -9.822  15.739  66.731  1.00  0.00    -0.245 A  
HETATM   11  C   UNL     1     -10.265  14.758  67.645  1.00  0.00    -0.232 A  
HETATM   12  C   UNL     1     -10.677  13.463  67.242  1.00  0.00    -0.265 A  
HETATM   13  C   UNL     1     -11.153  12.466  68.267  1.00  0.00    -0.243 C  
HETATM   14  C   UNL     1     -10.644  13.166  65.878  1.00  0.00    -0.280 A  
HETATM   15  F   UNL     1     -12.376  11.958  67.960  1.00  0.00    -0.265 F  
HETATM   16  N   UNL     1     -11.062  11.865  65.378  1.00  0.00    -0.313 N  
HETATM   17  F   UNL     1     -11.282  12.999  69.514  1.00  0.00    -0.279 F  
HETATM   18  C   UNL     1     -10.218  14.107  64.942  1.00  0.00    -0.371 A  
HETATM   19  F   UNL     1     -10.314  11.409  68.412  1.00  0.00    -0.170 F  
HETATM   20  C   UNL     1      -9.808  15.375  65.374  1.00  0.00    -0.314 A  
HETATM   21  O   UNL     1     -10.447  10.878  65.793  1.00  0.00    -0.248 OA 
HETATM   22  O   UNL     1     -11.979  11.854  64.548  1.00  0.00    -0.287 OA 
ENDBRANCH   6  10
TORSDOF 1
ENDMDL
MODEL       49
REMARK 921   NORMALIZED FREE ENERGY PREDICTED BY IDOCK:   -6.09 KCAL/MOL
REMARK 922        TOTAL FREE ENERGY PREDICTED BY IDOCK:   -6.61 KCAL/MOL
REMARK 923 INTER-LIGAND FREE ENERGY PREDICTED BY IDOCK:   -6.22 KCAL/MOL
REMARK 924 INTRA-LIGAND FREE ENERGY PREDICTED BY IDOCK:   -0.39 KCAL/MOL
REMARK 927      BINDING AFFINITY PREDICTED BY RF-SCORE:    0.00 PKD
ROOT
HETATM    1  C   UNL     1      -9.794   4.730  71.079  1.00  0.00    -0.267 C  
HETATM    2  C   UNL     1     -10.403   6.093  71.368  1.00  0.00    -0.214 C  
HETATM    3  N   UNL     1      -9.446   7.015  71.901  1.00  0.00    -0.141 NA 
HETATM    4  C   UNL     1     -11.622   5.999  72.284  1.00  0.00    -0.359 C  
HETATM    5  C   UNL     1      -9.472   8.226  71.244  1.00  0.00    -0.172 C  
HETATM    6  N   UNL     1     -10.255   8.110  70.115  1.00  0.00    -0.196 N  
HETATM    7  O   UNL     1      -8.862   9.185  71.688  1.00  0.00    -0.339 OA 
HETATM    8  C   UNL     1     -10.790   6.833  70.079  1.00  0.00    -0.266 C  
HETATM    9  O   UNL     1     -11.520   6.326  69.235  1.00  0.00    -0.411 OA 
ENDROOT
BRANCH   6  10
HETATM   10  C   UNL     1     -10.480   9.141  69.144  1.00  0.00    -0.217 A  
HETATM   11  C   UNL     1      -9.910   9.085  67.853  1.00  0.00    -0.207 A  
HETATM   12  C   UNL     1     -10.118  10.092  66.878  1.00  0.00    -0.287 A  
HETATM   13  C   UNL     1      -9.493   9.966  65.513  1.00  0.00    -0.252 C  
HETATM   14  C   UNL     1     -10.932  11.174  67.223  1.00  0.00    -0.296 A  
HETATM   15  F   UNL     1     -10.407  10.086  64.515  1.00  0.00    -0.361 F  
HETATM   16  N   UNL     1     -11.208  12.245  66.277  1.00  0.00    -0.306 N  
HETATM   17  F   UNL     1      -8.887   8.762  65.309  1.00  0.00    -0.187 F  
HETATM   18  C   UNL     1     -11.517  11.265  68.485  1.00  0.00    -0.372 A  
HETATM   19  F   UNL     1      -8.532  10.896  65.279  1.00  0.00    -0.172 F  
HETATM   20  C   UNL     1     -11.285  10.258  69.430  1.00  0.00    -0.292 A  
HETATM   21  O   UNL     1     -10.240  12.876  65.844  1.00  0.00    -0.280 OA 
HETATM   22  O   UNL     1     -12.396  12.458  66.007  1.00  0.00    -0.627 OA 
ENDBRANCH   6  10
TORSDOF 1
ENDMDL
MODEL       50
REMARK 921   NORMALIZED FREE ENERGY PREDICTED BY IDOCK:   -6.09 KCAL/MOL
REMARK 922        TOTAL FREE ENERGY PREDICTED BY IDOCK:   -6.61 KCAL/MOL
REMARK 923 INTER-LIGAND FREE ENERGY PREDICTED BY IDOCK:   -6.18 KCAL/MOL
REMARK 924 INTRA-LIGAND FREE ENERGY PREDICTED BY IDOCK:   -0.43 KCAL/MOL
REMARK 927      BINDING AFFINITY PREDICTED BY RF-SCORE:    0.00 PKD
ROOT
HETATM    1  C   UNL     1      -8.966  10.284  65.009  1.00  0.00    -0.225 C  
HETATM    2  C   UNL     1      -9.548  10.079  66.398  1.00  0.00    -0.196 C  
HETATM    3  N   UNL     1      -8.548  10.136  67.422  1.00  0.00    -0.122 NA 
HETATM    4  C   UNL     1     -10.348   8.782  66.505  1.00  0.00    -0.254 C  
HETATM    5  C   UNL     1      -8.912  10.972  68.456  1.00  0.00    -0.163 C  
HETATM    6  N   UNL     1     -10.033  11.686  68.085  1.00  0.00    -0.189 N  
HETATM    7  O   UNL     1      -8.270  10.991  69.493  1.00  0.00     0.019 OA 
HETATM    8  C   UNL     1     -10.432  11.259  66.830  1.00  0.00    -0.248 C  
HETATM    9  O   UNL     1     -11.367  11.653  66.142  1.00  0.00    -0.303 OA 
ENDROOT
BRANCH   6  10
HETATM   10  C   UNL     1     -10.678  12.696  68.871  1.00  0.00    -0.164 A  
HETATM   11  C   UNL     1     -11.541  12.369  69.940  1.00  0.00    -0.260 A  
HETATM   12  C   UNL     1     -12.191  13.350  70.730  1.00  0.00    -0.409 A  
HETATM   13  C   UNL     1     -13.089  12.935  71.867  1.00  0.00    -0.373 C  
HETATM   14  C   UNL     1     -11.948  14.692  70.430  1.00  0.00    -0.311 A  
HETATM   15  F   UNL     1     -12.743  13.529  73.039  1.00  0.00    -0.309 F  
HETATM   16  N   UNL     1     -12.565  15.763  71.200  1.00  0.00    -0.457 N  
HETATM   17  F   UNL     1     -13.057  11.595  72.115  1.00  0.00    -0.577 F  
HETATM   18  C   UNL     1     -11.100  15.058  69.386  1.00  0.00    -0.290 A  
HETATM   19  F   UNL     1     -14.396  13.229  71.648  1.00  0.00    -0.131 F  
HETATM   20  C   UNL     1     -10.480  14.064  68.618  1.00  0.00    -0.249 A  
HETATM   21  O   UNL     1     -13.798  15.802  71.222  1.00  0.00    -0.547 OA 
HETATM   22  O   UNL     1     -11.801  16.569  71.744  1.00  0.00    -0.423 OA 
ENDBRANCH   6  10
TORSDOF 1
ENDMDL
MODEL       51
REMARK 921   NORMALIZED FREE ENERGY PREDICTED BY IDOCK:   -6.06 KCAL/MOL
REMARK 922        TOTAL FREE ENERGY PREDICTED BY IDOCK:   -6.58 KCAL/MOL
REMARK 923 INTER-LIGAND FREE ENERGY PREDICTED BY IDOCK:   -6.32 KCAL/MOL
REMARK 924 INTRA-LIGAND FREE ENERGY PREDICTED BY IDOCK:   -0.26 KCAL/MOL
REMARK 927      BINDING AFFINITY PREDICTED BY RF-SCORE:    0.00 PKD
ROOT
HETATM    1  C   UNL     1      -5.859   8.180  64.088  1.00  0.00    -0.057 C  
HETATM    2  C   UNL     1      -7.372   8.102  63.966  1.00  0.00    -0.100 C  
HETATM    3  N   UNL     1      -8.000   7.732  65.199  1.00  0.00    -0.123 NA 
HETATM    4  C   UNL     1      -7.815   7.170  62.841  1.00  0.00    -0.119 C  
HETATM    5  C   UNL     1      -9.044   8.572  65.522  1.00  0.00    -0.091 C  
HETATM    6  N   UNL     1      -9.026   9.660  64.674  1.00  0.00    -0.220 N  
HETATM    7  O   UNL     1      -9.805   8.292  66.433  1.00  0.00    -0.243 OA 
HETATM    8  C   UNL     1      -8.002   9.487  63.758  1.00  0.00    -0.142 C  
HETATM    9  O   UNL     1      -7.643  10.233  62.853  1.00  0.00    -0.141 OA 
ENDROOT
BRANCH   6  10
HETATM   10  C   UNL     1      -9.921  10.778  64.731  1.00  0.00    -0.320 A  
HETATM   11  C   UNL     1     -10.030  11.587  65.883  1.00  0.00    -0.267 A  
HETATM   12  C   UNL     1     -10.908  12.697  65.962  1.00  0.00    -0.306 A  
HETATM   13  C   UNL     1     -10.966  13.529  67.217  1.00  0.00    -0.280 C  
HETATM   14  C   UNL     1     -11.684  12.993  64.840  1.00  0.00    -0.341 A  
HETATM   15  F   UNL     1     -10.781  14.851  66.966  1.00  0.00    -0.282 F  
HETATM   16  N   UNL     1     -12.602  14.123  64.832  1.00  0.00    -0.387 N  
HETATM   17  F   UNL     1     -10.011  13.193  68.129  1.00  0.00    -0.207 F  
HETATM   18  C   UNL     1     -11.604  12.224  63.680  1.00  0.00    -0.581 A  
HETATM   19  F   UNL     1     -12.148  13.417  67.876  1.00  0.00    -0.370 F  
HETATM   20  C   UNL     1     -10.733  11.127  63.637  1.00  0.00    -0.381 A  
HETATM   21  O   UNL     1     -13.500  14.124  65.678  1.00  0.00    -0.576 OA 
HETATM   22  O   UNL     1     -12.429  14.976  63.953  1.00  0.00    -0.790 OA 
ENDBRANCH   6  10
TORSDOF 1
ENDMDL
MODEL       52
REMARK 921   NORMALIZED FREE ENERGY PREDICTED BY IDOCK:   -6.06 KCAL/MOL
REMARK 922        TOTAL FREE ENERGY PREDICTED BY IDOCK:   -6.58 KCAL/MOL
REMARK 923 INTER-LIGAND FREE ENERGY PREDICTED BY IDOCK:   -6.13 KCAL/MOL
REMARK 924 INTRA-LIGAND FREE ENERGY PREDICTED BY IDOCK:   -0.44 KCAL/MOL
REMARK 927      BINDING AFFINITY PREDICTED BY RF-SCORE:    0.00 PKD
ROOT
HETATM    1  C   UNL     1     -10.718   7.680  67.075  1.00  0.00    -0.340 C  
HETATM    2  C   UNL     1      -9.649   8.737  66.848  1.00  0.00    -0.190 C  
HETATM    3  N   UNL     1      -9.287   8.857  65.467  1.00  0.00    -0.190 NA 
HETATM    4  C   UNL     1      -8.408   8.499  67.706  1.00  0.00    -0.130 C  
HETATM    5  C   UNL     1      -9.293  10.168  65.043  1.00  0.00    -0.243 C  
HETATM    6  N   UNL     1      -9.871  10.956  66.016  1.00  0.00    -0.223 N  
HETATM    7  O   UNL     1      -8.827  10.469  63.956  1.00  0.00    -0.184 OA 
HETATM    8  C   UNL     1     -10.181  10.155  67.103  1.00  0.00    -0.225 C  
HETATM    9  O   UNL     1     -10.720  10.464  68.160  1.00  0.00    -0.201 OA 
ENDROOT
BRANCH   6  10
HETATM   10  C   UNL     1     -10.106  12.366  65.920  1.00  0.00    -0.253 A  
HETATM   11  C   UNL     1      -9.162  13.311  66.378  1.00  0.00    -0.133 A  
HETATM   12  C   UNL     1      -9.373  14.710  66.295  1.00  0.00    -0.293 A  
HETATM   13  C   UNL     1      -8.319  15.666  66.789  1.00  0.00    -0.278 C  
HETATM   14  C   UNL     1     -10.568  15.155  65.724  1.00  0.00    -0.351 A  
HETATM   15  F   UNL     1      -7.971  16.581  65.845  1.00  0.00    -0.334 F  
HETATM   16  N   UNL     1     -10.858  16.574  65.587  1.00  0.00    -0.222 N  
HETATM   17  F   UNL     1      -7.157  15.048  67.143  1.00  0.00    -0.215 F  
HETATM   18  C   UNL     1     -11.524  14.256  65.255  1.00  0.00    -0.344 A  
HETATM   19  F   UNL     1      -8.705  16.364  67.887  1.00  0.00    -0.174 F  
HETATM   20  C   UNL     1     -11.290  12.878  65.361  1.00  0.00    -0.336 A  
HETATM   21  O   UNL     1     -10.892  17.243  66.623  1.00  0.00    -0.134 OA 
HETATM   22  O   UNL     1     -11.082  16.990  64.444  1.00  0.00    -1.144 OA 
ENDBRANCH   6  10
TORSDOF 1
ENDMDL
MODEL       53
REMARK 921   NORMALIZED FREE ENERGY PREDICTED BY IDOCK:   -6.05 KCAL/MOL
REMARK 922        TOTAL FREE ENERGY PREDICTED BY IDOCK:   -6.57 KCAL/MOL
REMARK 923 INTER-LIGAND FREE ENERGY PREDICTED BY IDOCK:   -6.97 KCAL/MOL
REMARK 924 INTRA-LIGAND FREE ENERGY PREDICTED BY IDOCK:    0.40 KCAL/MOL
REMARK 927      BINDING AFFINITY PREDICTED BY RF-SCORE:    0.00 PKD
ROOT
HETATM    1  C   UNL     1     -11.962   8.509  72.122  1.00  0.00    -0.451 C  
HETATM    2  C   UNL     1     -10.776   8.636  71.180  1.00  0.00    -0.240 C  
HETATM    3  N   UNL     1     -10.625   7.489  70.336  1.00  0.00    -0.224 NA 
HETATM    4  C   UNL     1      -9.474   8.924  71.925  1.00  0.00    -0.301 C  
HETATM    5  C   UNL     1     -10.470   7.838  69.011  1.00  0.00    -0.205 C  
HETATM    6  N   UNL     1     -10.737   9.183  68.864  1.00  0.00    -0.185 N  
HETATM    7  O   UNL     1     -10.140   7.002  68.186  1.00  0.00    -0.157 OA 
HETATM    8  C   UNL     1     -11.003   9.718  70.114  1.00  0.00    -0.291 C  
HETATM    9  O   UNL     1     -11.302  10.868  70.412  1.00  0.00    -0.294 OA 
ENDROOT
BRANCH   6  10
HETATM   10  C   UNL     1     -10.734   9.905  67.627  1.00  0.00    -0.281 A  
HETATM   11  C   UNL     1     -11.353  11.168  67.500  1.00  0.00    -0.351 A  
HETATM   12  C   UNL     1     -11.364  11.900  66.287  1.00  0.00    -0.394 A  
HETATM   13  C   UNL     1     -12.031  13.250  66.222  1.00  0.00    -0.417 C  
HETATM   14  C   UNL     1     -10.721  11.337  65.182  1.00  0.00    -0.246 A  
HETATM   15  F   UNL     1     -11.201  14.210  65.736  1.00  0.00    -0.300 F  
HETATM   16  N   UNL     1     -10.674  12.028  63.902  1.00  0.00    -0.355 N  
HETATM   17  F   UNL     1     -12.441  13.705  67.439  1.00  0.00    -0.357 F  
HETATM   18  C   UNL     1     -10.093  10.096  65.265  1.00  0.00    -0.344 A  
HETATM   19  F   UNL     1     -13.141  13.259  65.441  1.00  0.00    -0.514 F  
HETATM   20  C   UNL     1     -10.109   9.393  66.477  1.00  0.00    -0.332 A  
HETATM   21  O   UNL     1     -11.753  12.296  63.367  1.00  0.00    -0.455 OA 
HETATM   22  O   UNL     1      -9.552  12.262  63.435  1.00  0.00    -0.281 OA 
ENDBRANCH   6  10
TORSDOF 1
ENDMDL
MODEL       54
REMARK 921   NORMALIZED FREE ENERGY PREDICTED BY IDOCK:   -6.02 KCAL/MOL
REMARK 922        TOTAL FREE ENERGY PREDICTED BY IDOCK:   -6.54 KCAL/MOL
REMARK 923 INTER-LIGAND FREE ENERGY PREDICTED BY IDOCK:   -6.10 KCAL/MOL
REMARK 924 INTRA-LIGAND FREE ENERGY PREDICTED BY IDOCK:   -0.44 KCAL/MOL
REMARK 927      BINDING AFFINITY PREDICTED BY RF-SCORE:    0.00 PKD
ROOT
HETATM    1  C   UNL     1     -10.831  14.499  65.744  1.00  0.00    -0.317 C  
HETATM    2  C   UNL     1     -10.235  13.111  65.918  1.00  0.00    -0.291 C  
HETATM    3  N   UNL     1      -9.011  13.133  66.661  1.00  0.00    -0.177 NA 
HETATM    4  C   UNL     1     -10.036  12.396  64.583  1.00  0.00    -0.266 C  
HETATM    5  C   UNL     1      -9.004  12.199  67.675  1.00  0.00    -0.178 C  
HETATM    6  N   UNL     1     -10.273  11.678  67.817  1.00  0.00    -0.183 N  
HETATM    7  O   UNL     1      -7.975  11.951  68.281  1.00  0.00    -0.134 OA 
HETATM    8  C   UNL     1     -11.088  12.232  66.844  1.00  0.00    -0.290 C  
HETATM    9  O   UNL     1     -12.284  12.048  66.643  1.00  0.00    -0.550 OA 
ENDROOT
BRANCH   6  10
HETATM   10  C   UNL     1     -10.678  10.719  68.803  1.00  0.00    -0.208 A  
HETATM   11  C   UNL     1     -10.452   9.336  68.632  1.00  0.00    -0.236 A  
HETATM   12  C   UNL     1     -10.843   8.369  69.592  1.00  0.00    -0.153 A  
HETATM   13  C   UNL     1     -10.561   6.908  69.355  1.00  0.00    -0.229 C  
HETATM   14  C   UNL     1     -11.470   8.824  70.755  1.00  0.00    -0.270 A  
HETATM   15  F   UNL     1      -9.893   6.339  70.393  1.00  0.00    -0.178 F  
HETATM   16  N   UNL     1     -11.892   7.901  71.797  1.00  0.00    -0.280 N  
HETATM   17  F   UNL     1      -9.787   6.682  68.256  1.00  0.00    -0.133 F  
HETATM   18  C   UNL     1     -11.707  10.181  70.965  1.00  0.00    -0.470 A  
HETATM   19  F   UNL     1     -11.685   6.172  69.162  1.00  0.00    -0.456 F  
HETATM   20  C   UNL     1     -11.316  11.111  69.992  1.00  0.00    -0.326 A  
HETATM   21  O   UNL     1     -12.707   7.030  71.481  1.00  0.00    -0.368 OA 
HETATM   22  O   UNL     1     -11.424   8.083  72.927  1.00  0.00    -0.411 OA 
ENDBRANCH   6  10
TORSDOF 1
ENDMDL
MODEL       55
REMARK 921   NORMALIZED FREE ENERGY PREDICTED BY IDOCK:   -5.93 KCAL/MOL
REMARK 922        TOTAL FREE ENERGY PREDICTED BY IDOCK:   -6.44 KCAL/MOL
REMARK 923 INTER-LIGAND FREE ENERGY PREDICTED BY IDOCK:   -6.02 KCAL/MOL
REMARK 924 INTRA-LIGAND FREE ENERGY PREDICTED BY IDOCK:   -0.43 KCAL/MOL
REMARK 927      BINDING AFFINITY PREDICTED BY RF-SCORE:    0.00 PKD
ROOT
HETATM    1  C   UNL     1      -7.691  17.084  66.285  1.00  0.00    -0.346 C  
HETATM    2  C   UNL     1      -9.186  16.880  66.473  1.00  0.00    -0.269 C  
HETATM    3  N   UNL     1      -9.750  16.030  65.468  1.00  0.00    -0.443 NA 
HETATM    4  C   UNL     1      -9.947  18.202  66.543  1.00  0.00    -0.374 C  
HETATM    5  C   UNL     1     -10.533  15.034  66.012  1.00  0.00    -0.315 C  
HETATM    6  N   UNL     1     -10.353  15.014  67.379  1.00  0.00    -0.237 N  
HETATM    7  O   UNL     1     -11.240  14.342  65.297  1.00  0.00    -0.317 OA 
HETATM    8  C   UNL     1      -9.498  16.047  67.726  1.00  0.00    -0.217 C  
HETATM    9  O   UNL     1      -9.072  16.357  68.833  1.00  0.00    -0.239 OA 
ENDROOT
BRANCH   6  10
HETATM   10  C   UNL     1     -10.955  14.083  68.288  1.00  0.00    -0.255 A  
HETATM   11  C   UNL     1     -10.470  12.765  68.433  1.00  0.00    -0.253 A  
HETATM   12  C   UNL     1     -11.048  11.827  69.324  1.00  0.00    -0.278 A  
HETATM   13  C   UNL     1     -10.474  10.439  69.443  1.00  0.00    -0.238 C  
HETATM   14  C   UNL     1     -12.139  12.246  70.090  1.00  0.00    -0.287 A  
HETATM   15  F   UNL     1     -10.182  10.112  70.729  1.00  0.00    -0.300 F  
HETATM   16  N   UNL     1     -12.785  11.351  71.039  1.00  0.00    -0.372 N  
HETATM   17  F   UNL     1      -9.310  10.280  68.753  1.00  0.00    -0.138 F  
HETATM   18  C   UNL     1     -12.646  13.539  69.981  1.00  0.00    -0.131 A  
HETATM   19  F   UNL     1     -11.306   9.476  68.972  1.00  0.00    -0.170 F  
HETATM   20  C   UNL     1     -12.057  14.440  69.084  1.00  0.00    -0.316 A  
HETATM   21  O   UNL     1     -13.268  10.308  70.589  1.00  0.00    -0.354 OA 
HETATM   22  O   UNL     1     -12.827  11.723  72.217  1.00  0.00    -0.171 OA 
ENDBRANCH   6  10
TORSDOF 1
ENDMDL
MODEL       56
REMARK 921   NORMALIZED FREE ENERGY PREDICTED BY IDOCK:   -5.91 KCAL/MOL
REMARK 922        TOTAL FREE ENERGY PREDICTED BY IDOCK:   -6.42 KCAL/MOL
REMARK 923 INTER-LIGAND FREE ENERGY PREDICTED BY IDOCK:   -6.06 KCAL/MOL
REMARK 924 INTRA-LIGAND FREE ENERGY PREDICTED BY IDOCK:   -0.36 KCAL/MOL
REMARK 927      BINDING AFFINITY PREDICTED BY RF-SCORE:    0.00 PKD
ROOT
HETATM    1  C   UNL     1      -9.322  15.600  65.934  1.00  0.00    -0.357 C  
HETATM    2  C   UNL     1     -10.453  14.952  66.716  1.00  0.00    -0.284 C  
HETATM    3  N   UNL     1     -11.410  14.315  65.863  1.00  0.00    -0.322 NA 
HETATM    4  C   UNL     1     -11.147  15.939  67.653  1.00  0.00    -0.266 C  
HETATM    5  C   UNL     1     -11.696  13.030  66.274  1.00  0.00    -0.387 C  
HETATM    6  N   UNL     1     -10.800  12.660  67.254  1.00  0.00    -0.243 N  
HETATM    7  O   UNL     1     -12.625  12.414  65.779  1.00  0.00    -0.532 OA 
HETATM    8  C   UNL     1      -9.971  13.737  67.523  1.00  0.00    -0.233 C  
HETATM    9  O   UNL     1      -9.036  13.813  68.311  1.00  0.00    -0.181 OA 
ENDROOT
BRANCH   6  10
HETATM   10  C   UNL     1     -10.740  11.378  67.891  1.00  0.00    -0.200 A  
HETATM   11  C   UNL     1     -10.372  10.212  67.185  1.00  0.00    -0.295 A  
HETATM   12  C   UNL     1     -10.306   8.934  67.792  1.00  0.00    -0.301 A  
HETATM   13  C   UNL     1      -9.892   7.731  66.985  1.00  0.00    -0.219 C  
HETATM   14  C   UNL     1     -10.614   8.843  69.152  1.00  0.00    -0.195 A  
HETATM   15  F   UNL     1      -8.866   7.053  67.563  1.00  0.00    -0.119 F  
HETATM   16  N   UNL     1     -10.559   7.572  69.857  1.00  0.00    -0.234 N  
HETATM   17  F   UNL     1      -9.461   8.047  65.732  1.00  0.00    -0.198 F  
HETATM   18  C   UNL     1     -10.977   9.970  69.888  1.00  0.00    -0.339 A  
HETATM   19  F   UNL     1     -10.899   6.838  66.805  1.00  0.00    -0.357 F  
HETATM   20  C   UNL     1     -11.042  11.218  69.255  1.00  0.00    -0.314 A  
HETATM   21  O   UNL     1     -11.292   6.668  69.445  1.00  0.00    -0.310 OA 
HETATM   22  O   UNL     1      -9.806   7.508  70.836  1.00  0.00    -0.177 OA 
ENDBRANCH   6  10
TORSDOF 1
ENDMDL
MODEL       57
REMARK 921   NORMALIZED FREE ENERGY PREDICTED BY IDOCK:   -5.86 KCAL/MOL
REMARK 922        TOTAL FREE ENERGY PREDICTED BY IDOCK:   -6.36 KCAL/MOL
REMARK 923 INTER-LIGAND FREE ENERGY PREDICTED BY IDOCK:   -6.00 KCAL/MOL
REMARK 924 INTRA-LIGAND FREE ENERGY PREDICTED BY IDOCK:   -0.36 KCAL/MOL
REMARK 927      BINDING AFFINITY PREDICTED BY RF-SCORE:    0.00 PKD
ROOT
HETATM    1  C   UNL     1     -10.480  14.945  65.484  1.00  0.00    -0.380 C  
HETATM    2  C   UNL     1     -11.304  13.700  65.770  1.00  0.00    -0.306 C  
HETATM    3  N   UNL     1     -10.874  12.573  64.999  1.00  0.00    -0.281 NA 
HETATM    4  C   UNL     1     -12.800  13.940  65.576  1.00  0.00    -0.471 C  
HETATM    5  C   UNL     1     -10.698  11.449  65.778  1.00  0.00    -0.251 C  
HETATM    6  N   UNL     1     -10.767  11.807  67.108  1.00  0.00    -0.230 N  
HETATM    7  O   UNL     1     -10.520  10.359  65.260  1.00  0.00    -0.249 OA 
HETATM    8  C   UNL     1     -11.054  13.160  67.185  1.00  0.00    -0.279 C  
HETATM    9  O   UNL     1     -11.180  13.866  68.180  1.00  0.00    -0.247 OA 
ENDROOT
BRANCH   6  10
HETATM   10  C   UNL     1     -10.578  10.925  68.222  1.00  0.00    -0.190 A  
HETATM   11  C   UNL     1     -11.628  10.616  69.113  1.00  0.00    -0.342 A  
HETATM   12  C   UNL     1     -11.465   9.748  70.221  1.00  0.00    -0.317 A  
HETATM   13  C   UNL     1     -12.631   9.448  71.127  1.00  0.00    -0.282 C  
HETATM   14  C   UNL     1     -10.206   9.175  70.419  1.00  0.00    -0.222 A  
HETATM   15  F   UNL     1     -12.840   8.113  71.272  1.00  0.00    -0.313 F  
HETATM   16  N   UNL     1      -9.956   8.263  71.524  1.00  0.00    -0.185 N  
HETATM   17  F   UNL     1     -13.811   9.955  70.670  1.00  0.00    -0.353 F  
HETATM   18  C   UNL     1      -9.144   9.450  69.560  1.00  0.00    -0.169 A  
HETATM   19  F   UNL     1     -12.480   9.958  72.377  1.00  0.00    -0.366 F  
HETATM   20  C   UNL     1      -9.335  10.320  68.478  1.00  0.00    -0.155 A  
HETATM   21  O   UNL     1     -10.139   8.697  72.665  1.00  0.00    -0.251 OA 
HETATM   22  O   UNL     1      -9.547   7.132  71.233  1.00  0.00    -0.164 OA 
ENDBRANCH   6  10
TORSDOF 1
ENDMDL
MODEL       58
REMARK 921   NORMALIZED FREE ENERGY PREDICTED BY IDOCK:   -5.83 KCAL/MOL
REMARK 922        TOTAL FREE ENERGY PREDICTED BY IDOCK:   -6.33 KCAL/MOL
REMARK 923 INTER-LIGAND FREE ENERGY PREDICTED BY IDOCK:   -5.93 KCAL/MOL
REMARK 924 INTRA-LIGAND FREE ENERGY PREDICTED BY IDOCK:   -0.41 KCAL/MOL
REMARK 927      BINDING AFFINITY PREDICTED BY RF-SCORE:    0.00 PKD
ROOT
HETATM    1  C   UNL     1      -8.386  20.085  66.754  1.00  0.00    -0.372 C  
HETATM    2  C   UNL     1      -9.513  19.090  66.981  1.00  0.00    -0.317 C  
HETATM    3  N   UNL     1     -10.035  18.568  65.753  1.00  0.00    -0.489 NA 
HETATM    4  C   UNL     1     -10.639  19.675  67.832  1.00  0.00    -0.492 C  
HETATM    5  C   UNL     1     -10.127  17.193  65.773  1.00  0.00    -0.172 C  
HETATM    6  N   UNL     1      -9.471  16.713  66.887  1.00  0.00    -0.228 N  
HETATM    7  O   UNL     1     -10.724  16.600  64.890  1.00  0.00    -0.710 OA 
HETATM    8  C   UNL     1      -9.010  17.790  67.625  1.00  0.00    -0.249 C  
HETATM    9  O   UNL     1      -8.365  17.791  68.668  1.00  0.00    -0.298 OA 
ENDROOT
BRANCH   6  10
HETATM   10  C   UNL     1      -9.302  15.331  67.226  1.00  0.00    -0.205 A  
HETATM   11  C   UNL     1     -10.369  14.548  67.718  1.00  0.00    -0.237 A  
HETATM   12  C   UNL     1     -10.226  13.181  68.060  1.00  0.00    -0.233 A  
HETATM   13  C   UNL     1     -11.409  12.398  68.567  1.00  0.00    -0.293 C  
HETATM   14  C   UNL     1      -8.969  12.596  67.889  1.00  0.00    -0.189 A  
HETATM   15  F   UNL     1     -11.615  11.258  67.855  1.00  0.00    -0.324 F  
HETATM   16  N   UNL     1      -8.738  11.194  68.203  1.00  0.00    -0.138 N  
HETATM   17  F   UNL     1     -12.581  13.089  68.494  1.00  0.00    -0.072 F  
HETATM   18  C   UNL     1      -7.889  13.331  67.401  1.00  0.00    -0.159 A  
HETATM   19  F   UNL     1     -11.288  12.030  69.868  1.00  0.00    -0.313 F  
HETATM   20  C   UNL     1      -8.062  14.684  67.081  1.00  0.00    -0.213 A  
HETATM   21  O   UNL     1      -8.946  10.837  69.366  1.00  0.00    -0.100 OA 
HETATM   22  O   UNL     1      -8.317  10.479  67.287  1.00  0.00    -0.121 OA 
ENDBRANCH   6  10
TORSDOF 1
ENDMDL
MODEL       59
REMARK 921   NORMALIZED FREE ENERGY PREDICTED BY IDOCK:   -5.81 KCAL/MOL
REMARK 922        TOTAL FREE ENERGY PREDICTED BY IDOCK:   -6.32 KCAL/MOL
REMARK 923 INTER-LIGAND FREE ENERGY PREDICTED BY IDOCK:   -6.08 KCAL/MOL
REMARK 924 INTRA-LIGAND FREE ENERGY PREDICTED BY IDOCK:   -0.23 KCAL/MOL
REMARK 927      BINDING AFFINITY PREDICTED BY RF-SCORE:    0.00 PKD
ROOT
HETATM    1  C   UNL     1     -10.075  10.690  64.574  1.00  0.00    -0.421 C  
HETATM    2  C   UNL     1     -10.046  11.288  65.971  1.00  0.00    -0.239 C  
HETATM    3  N   UNL     1      -8.713  11.444  66.469  1.00  0.00    -0.178 NA 
HETATM    4  C   UNL     1     -10.896  10.492  66.959  1.00  0.00    -0.288 C  
HETATM    5  C   UNL     1      -8.495  12.706  66.981  1.00  0.00    -0.150 C  
HETATM    6  N   UNL     1      -9.560  13.517  66.649  1.00  0.00    -0.272 N  
HETATM    7  O   UNL     1      -7.482  12.950  67.616  1.00  0.00    -0.122 OA 
HETATM    8  C   UNL     1     -10.500  12.756  65.976  1.00  0.00    -0.274 C  
HETATM    9  O   UNL     1     -11.575  13.103  65.498  1.00  0.00    -0.315 OA 
ENDROOT
BRANCH   6  10
HETATM   10  C   UNL     1      -9.675  14.912  66.956  1.00  0.00    -0.235 A  
HETATM   11  C   UNL     1      -8.704  15.849  66.538  1.00  0.00    -0.350 A  
HETATM   12  C   UNL     1      -8.795  17.232  66.830  1.00  0.00    -0.269 A  
HETATM   13  C   UNL     1      -7.732  18.182  66.342  1.00  0.00    -0.261 C  
HETATM   14  C   UNL     1      -9.905  17.672  67.556  1.00  0.00    -0.299 A  
HETATM   15  F   UNL     1      -8.255  19.224  65.642  1.00  0.00    -0.236 F  
HETATM   16  N   UNL     1     -10.084  19.078  67.887  1.00  0.00    -0.360 N  
HETATM   17  F   UNL     1      -6.832  17.596  65.504  1.00  0.00    -0.279 F  
HETATM   18  C   UNL     1     -10.889  16.782  67.983  1.00  0.00    -0.341 A  
HETATM   19  F   UNL     1      -6.993  18.717  67.347  1.00  0.00    -0.200 F  
HETATM   20  C   UNL     1     -10.764  15.418  67.686  1.00  0.00    -0.292 A  
HETATM   21  O   UNL     1      -9.202  19.613  68.563  1.00  0.00    -0.344 OA 
HETATM   22  O   UNL     1     -11.125  19.616  67.491  1.00  0.00    -0.358 OA 
ENDBRANCH   6  10
TORSDOF 1
ENDMDL
MODEL       60
REMARK 921   NORMALIZED FREE ENERGY PREDICTED BY IDOCK:   -5.80 KCAL/MOL
REMARK 922        TOTAL FREE ENERGY PREDICTED BY IDOCK:   -6.30 KCAL/MOL
REMARK 923 INTER-LIGAND FREE ENERGY PREDICTED BY IDOCK:   -6.75 KCAL/MOL
REMARK 924 INTRA-LIGAND FREE ENERGY PREDICTED BY IDOCK:    0.44 KCAL/MOL
REMARK 927      BINDING AFFINITY PREDICTED BY RF-SCORE:    0.00 PKD
ROOT
HETATM    1  C   UNL     1     -12.237  15.238  74.280  1.00  0.00    -0.717 C  
HETATM    2  C   UNL     1     -12.682  15.390  72.834  1.00  0.00    -0.427 C  
HETATM    3  N   UNL     1     -11.831  16.270  72.092  1.00  0.00    -0.531 NA 
HETATM    4  C   UNL     1     -14.139  15.835  72.721  1.00  0.00    -0.425 C  
HETATM    5  C   UNL     1     -11.436  15.719  70.892  1.00  0.00    -0.403 C  
HETATM    6  N   UNL     1     -11.794  14.387  70.867  1.00  0.00    -0.308 N  
HETATM    7  O   UNL     1     -10.870  16.401  70.053  1.00  0.00    -0.345 OA 
HETATM    8  C   UNL     1     -12.482  14.095  72.033  1.00  0.00    -0.210 C  
HETATM    9  O   UNL     1     -12.950  13.024  72.405  1.00  0.00    -0.304 OA 
ENDROOT
BRANCH   6  10
HETATM   10  C   UNL     1     -11.507  13.463  69.810  1.00  0.00    -0.166 A  
HETATM   11  C   UNL     1     -10.574  13.763  68.793  1.00  0.00    -0.253 A  
HETATM   12  C   UNL     1     -10.274  12.867  67.737  1.00  0.00    -0.224 A  
HETATM   13  C   UNL     1      -9.257  13.241  66.690  1.00  0.00    -0.215 C  
HETATM   14  C   UNL     1     -10.933  11.634  67.723  1.00  0.00    -0.233 A  
HETATM   15  F   UNL     1      -8.291  12.296  66.551  1.00  0.00    -0.164 F  
HETATM   16  N   UNL     1     -10.674  10.650  66.683  1.00  0.00    -0.217 N  
HETATM   17  F   UNL     1      -8.597  14.399  66.973  1.00  0.00    -0.199 F  
HETATM   18  C   UNL     1     -11.857  11.297  68.711  1.00  0.00    -0.396 A  
HETATM   19  F   UNL     1      -9.802  13.429  65.461  1.00  0.00    -0.281 F  
HETATM   20  C   UNL     1     -12.138  12.210  69.736  1.00  0.00    -0.306 A  
HETATM   21  O   UNL     1     -10.900  10.990  65.519  1.00  0.00    -0.197 OA 
HETATM   22  O   UNL     1     -10.279   9.538  67.053  1.00  0.00    -0.224 OA 
ENDBRANCH   6  10
TORSDOF 1
ENDMDL
MODEL       61
REMARK 921   NORMALIZED FREE ENERGY PREDICTED BY IDOCK:   -5.79 KCAL/MOL
REMARK 922        TOTAL FREE ENERGY PREDICTED BY IDOCK:   -6.30 KCAL/MOL
REMARK 923 INTER-LIGAND FREE ENERGY PREDICTED BY IDOCK:   -5.88 KCAL/MOL
REMARK 924 INTRA-LIGAND FREE ENERGY PREDICTED BY IDOCK:   -0.42 KCAL/MOL
REMARK 927      BINDING AFFINITY PREDICTED BY RF-SCORE:    0.00 PKD
ROOT
HETATM    1  C   UNL     1      -9.297   8.371  65.720  1.00  0.00    -0.141 C  
HETATM    2  C   UNL     1      -9.192   9.876  65.537  1.00  0.00    -0.203 C  
HETATM    3  N   UNL     1     -10.268  10.408  64.755  1.00  0.00    -0.318 NA 
HETATM    4  C   UNL     1      -7.846  10.295  64.947  1.00  0.00    -0.134 C  
HETATM    5  C   UNL     1     -10.853  11.502  65.354  1.00  0.00    -0.259 C  
HETATM    6  N   UNL     1     -10.376  11.619  66.643  1.00  0.00    -0.215 N  
HETATM    7  O   UNL     1     -11.653  12.190  64.742  1.00  0.00    -0.331 OA 
HETATM    8  C   UNL     1      -9.428  10.632  66.853  1.00  0.00    -0.165 C  
HETATM    9  O   UNL     1      -8.785  10.384  67.867  1.00  0.00    -0.118 OA 
ENDROOT
BRANCH   6  10
HETATM   10  C   UNL     1     -10.790  12.602  67.601  1.00  0.00    -0.221 A  
HETATM   11  C   UNL     1     -10.351  13.942  67.529  1.00  0.00    -0.245 A  
HETATM   12  C   UNL     1     -10.745  14.931  68.465  1.00  0.00    -0.245 A  
HETATM   13  C   UNL     1     -10.253  16.348  68.324  1.00  0.00    -0.255 C  
HETATM   14  C   UNL     1     -11.613  14.546  69.490  1.00  0.00    -0.307 A  
HETATM   15  F   UNL     1     -11.271  17.248  68.317  1.00  0.00    -0.331 F  
HETATM   16  N   UNL     1     -12.077  15.501  70.485  1.00  0.00    -0.357 N  
HETATM   17  F   UNL     1      -9.567  16.565  67.167  1.00  0.00    -0.228 F  
HETATM   18  C   UNL     1     -12.073  13.235  69.595  1.00  0.00    -0.331 A  
HETATM   19  F   UNL     1      -9.408  16.720  69.319  1.00  0.00    -0.260 F  
HETATM   20  C   UNL     1     -11.657  12.279  68.659  1.00  0.00    -0.372 A  
HETATM   21  O   UNL     1     -11.219  16.059  71.174  1.00  0.00    -0.354 OA 
HETATM   22  O   UNL     1     -13.301  15.653  70.585  1.00  0.00    -0.494 OA 
ENDBRANCH   6  10
TORSDOF 1
ENDMDL
MODEL       62
REMARK 921   NORMALIZED FREE ENERGY PREDICTED BY IDOCK:   -5.73 KCAL/MOL
REMARK 922        TOTAL FREE ENERGY PREDICTED BY IDOCK:   -6.23 KCAL/MOL
REMARK 923 INTER-LIGAND FREE ENERGY PREDICTED BY IDOCK:   -5.96 KCAL/MOL
REMARK 924 INTRA-LIGAND FREE ENERGY PREDICTED BY IDOCK:   -0.26 KCAL/MOL
REMARK 927      BINDING AFFINITY PREDICTED BY RF-SCORE:    0.00 PKD
ROOT
HETATM    1  C   UNL     1     -11.346  11.478  64.944  1.00  0.00    -0.189 C  
HETATM    2  C   UNL     1     -10.882  11.924  66.321  1.00  0.00    -0.282 C  
HETATM    3  N   UNL     1      -9.454  11.931  66.439  1.00  0.00    -0.223 NA 
HETATM    4  C   UNL     1     -11.506  11.093  67.440  1.00  0.00    -0.261 C  
HETATM    5  C   UNL     1      -8.984  13.113  66.969  1.00  0.00    -0.228 C  
HETATM    6  N   UNL     1     -10.013  14.029  67.013  1.00  0.00    -0.252 N  
HETATM    7  O   UNL     1      -7.818  13.216  67.315  1.00  0.00    -0.168 OA 
HETATM    8  C   UNL     1     -11.171  13.412  66.569  1.00  0.00    -0.307 C  
HETATM    9  O   UNL     1     -12.295  13.884  66.439  1.00  0.00    -0.448 OA 
ENDROOT
BRANCH   6  10
HETATM   10  C   UNL     1      -9.903  15.390  67.451  1.00  0.00    -0.216 A  
HETATM   11  C   UNL     1     -10.206  16.473  66.597  1.00  0.00    -0.302 A  
HETATM   12  C   UNL     1     -10.105  17.826  67.006  1.00  0.00    -0.337 A  
HETATM   13  C   UNL     1     -10.457  18.936  66.050  1.00  0.00    -0.446 C  
HETATM   14  C   UNL     1      -9.694  18.079  68.317  1.00  0.00    -0.330 A  
HETATM   15  F   UNL     1     -11.369  19.796  66.574  1.00  0.00    -0.420 F  
HETATM   16  N   UNL     1      -9.575  19.439  68.823  1.00  0.00    -0.415 N  
HETATM   17  F   UNL     1     -11.005  18.488  64.886  1.00  0.00    -0.185 F  
HETATM   18  C   UNL     1      -9.390  17.039  69.194  1.00  0.00    -0.088 A  
HETATM   19  F   UNL     1      -9.384  19.681  65.680  1.00  0.00    -0.286 F  
HETATM   20  C   UNL     1      -9.491  15.713  68.755  1.00  0.00    -0.214 A  
HETATM   21  O   UNL     1      -8.789  20.190  68.238  1.00  0.00    -0.197 OA 
HETATM   22  O   UNL     1     -10.247  19.723  69.821  1.00  0.00    -0.170 OA 
ENDBRANCH   6  10
TORSDOF 1
ENDMDL
MODEL       63
REMARK 921   NORMALIZED FREE ENERGY PREDICTED BY IDOCK:   -5.72 KCAL/MOL
REMARK 922        TOTAL FREE ENERGY PREDICTED BY IDOCK:   -6.22 KCAL/MOL
REMARK 923 INTER-LIGAND FREE ENERGY PREDICTED BY IDOCK:   -5.83 KCAL/MOL
REMARK 924 INTRA-LIGAND FREE ENERGY PREDICTED BY IDOCK:   -0.39 KCAL/MOL
REMARK 927      BINDING AFFINITY PREDICTED BY RF-SCORE:    0.00 PKD
ROOT
HETATM    1  C   UNL     1     -12.689  14.689  73.231  1.00  0.00    -0.552 C  
HETATM    2  C   UNL     1     -12.928  14.866  71.740  1.00  0.00    -0.336 C  
HETATM    3  N   UNL     1     -12.053  15.840  71.159  1.00  0.00    -0.396 NA 
HETATM    4  C   UNL     1     -14.384  15.201  71.423  1.00  0.00    -0.601 C  
HETATM    5  C   UNL     1     -11.443  15.371  70.016  1.00  0.00    -0.316 C  
HETATM    6  N   UNL     1     -11.681  14.018  69.899  1.00  0.00    -0.296 N  
HETATM    7  O   UNL     1     -10.818  16.129  69.292  1.00  0.00    -0.264 OA 
HETATM    8  C   UNL     1     -12.506  13.625  70.940  1.00  0.00    -0.371 C  
HETATM    9  O   UNL     1     -12.933  12.507  71.205  1.00  0.00    -0.322 OA 
ENDROOT
BRANCH   6  10
HETATM   10  C   UNL     1     -11.166  13.164  68.870  1.00  0.00    -0.277 A  
HETATM   11  C   UNL     1      -9.801  12.806  68.813  1.00  0.00     0.020 A  
HETATM   12  C   UNL     1      -9.269  11.965  67.804  1.00  0.00    -0.184 A  
HETATM   13  C   UNL     1      -7.805  11.609  67.809  1.00  0.00    -0.129 C  
HETATM   14  C   UNL     1     -10.149  11.470  66.839  1.00  0.00    -0.212 A  
HETATM   15  F   UNL     1      -7.602  10.266  67.763  1.00  0.00    -0.087 F  
HETATM   16  N   UNL     1      -9.688  10.589  65.776  1.00  0.00    -0.209 N  
HETATM   17  F   UNL     1      -7.151  12.039  68.924  1.00  0.00    -0.093 F  
HETATM   18  C   UNL     1     -11.504  11.795  66.861  1.00  0.00    -0.364 A  
HETATM   19  F   UNL     1      -7.123  12.145  66.763  1.00  0.00    -0.129 F  
HETATM   20  C   UNL     1     -11.998  12.637  67.866  1.00  0.00    -0.307 A  
HETATM   21  O   UNL     1      -8.817  11.028  65.020  1.00  0.00    -0.173 OA 
HETATM   22  O   UNL     1     -10.232   9.481  65.695  1.00  0.00    -0.228 OA 
ENDBRANCH   6  10
TORSDOF 1
ENDMDL
MODEL       64
REMARK 921   NORMALIZED FREE ENERGY PREDICTED BY IDOCK:   -5.70 KCAL/MOL
REMARK 922        TOTAL FREE ENERGY PREDICTED BY IDOCK:   -6.20 KCAL/MOL
REMARK 923 INTER-LIGAND FREE ENERGY PREDICTED BY IDOCK:   -5.97 KCAL/MOL
REMARK 924 INTRA-LIGAND FREE ENERGY PREDICTED BY IDOCK:   -0.24 KCAL/MOL
REMARK 927      BINDING AFFINITY PREDICTED BY RF-SCORE:    0.00 PKD
ROOT
HETATM    1  C   UNL     1     -12.432  12.824  64.117  1.00  0.00    -0.450 C  
HETATM    2  C   UNL     1     -11.426  12.970  65.247  1.00  0.00    -0.309 C  
HETATM    3  N   UNL     1     -12.043  13.361  66.479  1.00  0.00    -0.399 NA 
HETATM    4  C   UNL     1     -10.290  13.927  64.891  1.00  0.00    -0.430 C  
HETATM    5  C   UNL     1     -11.645  12.567  67.533  1.00  0.00    -0.361 C  
HETATM    6  N   UNL     1     -10.946  11.484  67.044  1.00  0.00    -0.279 N  
HETATM    7  O   UNL     1     -11.922  12.877  68.680  1.00  0.00    -0.313 OA 
HETATM    8  C   UNL     1     -10.837  11.615  65.669  1.00  0.00    -0.276 C  
HETATM    9  O   UNL     1     -10.308  10.859  64.862  1.00  0.00    -0.295 OA 
ENDROOT
BRANCH   6  10
HETATM   10  C   UNL     1     -10.418  10.407  67.828  1.00  0.00    -0.226 A  
HETATM   11  C   UNL     1     -10.790   9.064  67.595  1.00  0.00    -0.133 A  
HETATM   12  C   UNL     1     -10.281   7.983  68.357  1.00  0.00    -0.239 A  
HETATM   13  C   UNL     1     -10.708   6.572  68.048  1.00  0.00    -0.283 C  
HETATM   14  C   UNL     1      -9.367   8.276  69.372  1.00  0.00    -0.155 A  
HETATM   15  F   UNL     1      -9.647   5.745  67.853  1.00  0.00    -0.112 F  
HETATM   16  N   UNL     1      -8.787   7.224  70.193  1.00  0.00    -0.144 N  
HETATM   17  F   UNL     1     -11.459   6.473  66.916  1.00  0.00    -0.456 F  
HETATM   18  C   UNL     1      -8.970   9.587  69.631  1.00  0.00    -0.198 A  
HETATM   19  F   UNL     1     -11.462   6.016  69.030  1.00  0.00    -0.451 F  
HETATM   20  C   UNL     1      -9.498  10.634  68.866  1.00  0.00    -0.199 A  
HETATM   21  O   UNL     1      -9.566   6.526  70.847  1.00  0.00    -0.174 OA 
HETATM   22  O   UNL     1      -7.553   7.136  70.196  1.00  0.00    -0.087 OA 
ENDBRANCH   6  10
TORSDOF 1
ENDMDL
MODEL       65
REMARK 921   NORMALIZED FREE ENERGY PREDICTED BY IDOCK:   -5.69 KCAL/MOL
REMARK 922        TOTAL FREE ENERGY PREDICTED BY IDOCK:   -6.19 KCAL/MOL
REMARK 923 INTER-LIGAND FREE ENERGY PREDICTED BY IDOCK:   -5.79 KCAL/MOL
REMARK 924 INTRA-LIGAND FREE ENERGY PREDICTED BY IDOCK:   -0.40 KCAL/MOL
REMARK 927      BINDING AFFINITY PREDICTED BY RF-SCORE:    0.00 PKD
ROOT
HETATM    1  C   UNL     1      -6.978  17.716  66.536  1.00  0.00    -0.276 C  
HETATM    2  C   UNL     1      -7.698  18.099  67.819  1.00  0.00    -0.227 C  
HETATM    3  N   UNL     1      -8.868  18.887  67.573  1.00  0.00    -0.277 NA 
HETATM    4  C   UNL     1      -6.777  18.807  68.810  1.00  0.00    -0.292 C  
HETATM    5  C   UNL     1      -9.968  18.406  68.249  1.00  0.00    -0.369 C  
HETATM    6  N   UNL     1      -9.666  17.170  68.781  1.00  0.00    -0.273 N  
HETATM    7  O   UNL     1     -10.996  19.060  68.306  1.00  0.00    -0.007 OA 
HETATM    8  C   UNL     1      -8.341  16.882  68.501  1.00  0.00    -0.257 C  
HETATM    9  O   UNL     1      -7.693  15.879  68.781  1.00  0.00    -0.157 OA 
ENDROOT
BRANCH   6  10
HETATM   10  C   UNL     1     -10.571  16.328  69.507  1.00  0.00    -0.314 A  
HETATM   11  C   UNL     1     -10.972  16.630  70.827  1.00  0.00     0.212 A  
HETATM   12  C   UNL     1     -11.865  15.813  71.564  1.00  0.00    -0.514 A  
HETATM   13  C   UNL     1     -12.265  16.199  72.965  1.00  0.00    -0.541 C  
HETATM   14  C   UNL     1     -12.365  14.668  70.940  1.00  0.00    -0.336 A  
HETATM   15  F   UNL     1     -13.615  16.242  73.120  1.00  0.00    -0.608 F  
HETATM   16  N   UNL     1     -13.297  13.781  71.621  1.00  0.00    -0.357 N  
HETATM   17  F   UNL     1     -11.817  17.433  73.330  1.00  0.00    -0.299 F  
HETATM   18  C   UNL     1     -11.998  14.336  69.637  1.00  0.00    -0.387 A  
HETATM   19  F   UNL     1     -11.788  15.349  73.909  1.00  0.00    -0.547 F  
HETATM   20  C   UNL     1     -11.107  15.160  68.938  1.00  0.00    -0.276 A  
HETATM   21  O   UNL     1     -12.912  13.261  72.671  1.00  0.00    -0.288 OA 
HETATM   22  O   UNL     1     -14.390  13.593  71.073  1.00  0.00     0.599 OA 
ENDBRANCH   6  10
TORSDOF 1
ENDMDL
MODEL       66
REMARK 921   NORMALIZED FREE ENERGY PREDICTED BY IDOCK:   -5.69 KCAL/MOL
REMARK 922        TOTAL FREE ENERGY PREDICTED BY IDOCK:   -6.19 KCAL/MOL
REMARK 923 INTER-LIGAND FREE ENERGY PREDICTED BY IDOCK:   -5.75 KCAL/MOL
REMARK 924 INTRA-LIGAND FREE ENERGY PREDICTED BY IDOCK:   -0.43 KCAL/MOL
REMARK 927      BINDING AFFINITY PREDICTED BY RF-SCORE:    0.00 PKD
ROOT
HETATM    1  C   UNL     1      -9.295   5.769  66.017  1.00  0.00    -0.134 C  
HETATM    2  C   UNL     1      -8.421   7.012  66.060  1.00  0.00    -0.139 C  
HETATM    3  N   UNL     1      -8.016   7.439  64.754  1.00  0.00    -0.129 NA 
HETATM    4  C   UNL     1      -7.203   6.832  66.964  1.00  0.00    -0.081 C  
HETATM    5  C   UNL     1      -8.233   8.786  64.559  1.00  0.00    -0.167 C  
HETATM    6  N   UNL     1      -8.992   9.276  65.602  1.00  0.00    -0.185 N  
HETATM    7  O   UNL     1      -7.774   9.352  63.581  1.00  0.00    -0.114 OA 
HETATM    8  C   UNL     1      -9.209   8.252  66.508  1.00  0.00    -0.187 C  
HETATM    9  O   UNL     1      -9.848   8.270  67.554  1.00  0.00    -0.156 OA 
ENDROOT
BRANCH   6  10
HETATM   10  C   UNL     1      -9.469  10.622  65.727  1.00  0.00    -0.200 A  
HETATM   11  C   UNL     1     -10.646  11.058  65.080  1.00  0.00    -0.315 A  
HETATM   12  C   UNL     1     -11.136  12.383  65.188  1.00  0.00    -0.348 A  
HETATM   13  C   UNL     1     -12.407  12.781  64.483  1.00  0.00    -0.445 C  
HETATM   14  C   UNL     1     -10.417  13.280  65.981  1.00  0.00    -0.286 A  
HETATM   15  F   UNL     1     -13.308  13.347  65.328  1.00  0.00    -0.386 F  
HETATM   16  N   UNL     1     -10.858  14.655  66.157  1.00  0.00    -0.314 N  
HETATM   17  F   UNL     1     -13.056  11.728  63.911  1.00  0.00    -0.540 F  
HETATM   18  C   UNL     1      -9.253  12.889  66.641  1.00  0.00    -0.222 A  
HETATM   19  F   UNL     1     -12.203  13.668  63.476  1.00  0.00    -0.524 F  
HETATM   20  C   UNL     1      -8.789  11.574  66.506  1.00  0.00    -0.190 A  
HETATM   21  O   UNL     1     -10.955  15.349  65.142  1.00  0.00    -0.374 OA 
HETATM   22  O   UNL     1     -11.068  15.030  67.317  1.00  0.00    -0.318 OA 
ENDBRANCH   6  10
TORSDOF 1
ENDMDL
MODEL       67
REMARK 921   NORMALIZED FREE ENERGY PREDICTED BY IDOCK:   -5.63 KCAL/MOL
REMARK 922        TOTAL FREE ENERGY PREDICTED BY IDOCK:   -6.12 KCAL/MOL
REMARK 923 INTER-LIGAND FREE ENERGY PREDICTED BY IDOCK:   -6.11 KCAL/MOL
REMARK 924 INTRA-LIGAND FREE ENERGY PREDICTED BY IDOCK:   -0.01 KCAL/MOL
REMARK 927      BINDING AFFINITY PREDICTED BY RF-SCORE:    0.00 PKD
ROOT
HETATM    1  C   UNL     1     -12.205   6.367  71.745  1.00  0.00    -0.312 C  
HETATM    2  C   UNL     1     -11.133   7.431  71.579  1.00  0.00    -0.239 C  
HETATM    3  N   UNL     1     -10.127   7.049  70.634  1.00  0.00    -0.191 NA 
HETATM    4  C   UNL     1     -10.494   7.821  72.911  1.00  0.00    -0.412 C  
HETATM    5  C   UNL     1      -9.879   8.042  69.711  1.00  0.00    -0.183 C  
HETATM    6  N   UNL     1     -10.841   9.023  69.834  1.00  0.00    -0.228 N  
HETATM    7  O   UNL     1      -8.925   7.962  68.956  1.00  0.00    -0.144 OA 
HETATM    8  C   UNL     1     -11.677   8.690  70.888  1.00  0.00    -0.252 C  
HETATM    9  O   UNL     1     -12.661   9.287  71.309  1.00  0.00    -0.321 OA 
ENDROOT
BRANCH   6  10
HETATM   10  C   UNL     1     -10.953  10.192  69.013  1.00  0.00    -0.226 A  
HETATM   11  C   UNL     1     -11.245  11.461  69.560  1.00  0.00    -0.322 A  
HETATM   12  C   UNL     1     -11.361  12.630  68.768  1.00  0.00    -0.333 A  
HETATM   13  C   UNL     1     -11.659  13.958  69.415  1.00  0.00    -0.297 C  
HETATM   14  C   UNL     1     -11.167  12.505  67.390  1.00  0.00    -0.293 A  
HETATM   15  F   UNL     1     -10.756  14.913  69.071  1.00  0.00    -0.216 F  
HETATM   16  N   UNL     1     -11.255  13.657  66.506  1.00  0.00    -0.305 N  
HETATM   17  F   UNL     1     -11.636  13.908  70.777  1.00  0.00    -0.310 F  
HETATM   18  C   UNL     1     -10.873  11.272  66.811  1.00  0.00    -0.334 A  
HETATM   19  F   UNL     1     -12.885  14.444  69.094  1.00  0.00    -0.115 F  
HETATM   20  C   UNL     1     -10.774  10.133  67.620  1.00  0.00    -0.339 A  
HETATM   21  O   UNL     1     -12.327  14.268  66.483  1.00  0.00    -0.445 OA 
HETATM   22  O   UNL     1     -10.258  13.913  65.821  1.00  0.00    -0.298 OA 
ENDBRANCH   6  10
TORSDOF 1
ENDMDL
MODEL       68
REMARK 921   NORMALIZED FREE ENERGY PREDICTED BY IDOCK:   -5.62 KCAL/MOL
REMARK 922        TOTAL FREE ENERGY PREDICTED BY IDOCK:   -6.12 KCAL/MOL
REMARK 923 INTER-LIGAND FREE ENERGY PREDICTED BY IDOCK:   -5.68 KCAL/MOL
REMARK 924 INTRA-LIGAND FREE ENERGY PREDICTED BY IDOCK:   -0.43 KCAL/MOL
REMARK 927      BINDING AFFINITY PREDICTED BY RF-SCORE:    0.00 PKD
ROOT
HETATM    1  C   UNL     1     -11.462  14.931  65.988  1.00  0.00    -0.275 C  
HETATM    2  C   UNL     1     -10.609  13.677  65.879  1.00  0.00    -0.289 C  
HETATM    3  N   UNL     1      -9.379  13.790  66.603  1.00  0.00    -0.275 NA 
HETATM    4  C   UNL     1     -10.340  13.286  64.427  1.00  0.00    -0.372 C  
HETATM    5  C   UNL     1      -9.151  12.697  67.411  1.00  0.00    -0.191 C  
HETATM    6  N   UNL     1     -10.292  11.923  67.455  1.00  0.00    -0.198 N  
HETATM    7  O   UNL     1      -8.068  12.539  67.948  1.00  0.00    -0.139 OA 
HETATM    8  C   UNL     1     -11.240  12.488  66.618  1.00  0.00    -0.307 C  
HETATM    9  O   UNL     1     -12.387  12.119  66.392  1.00  0.00    -0.489 OA 
ENDROOT
BRANCH   6  10
HETATM   10  C   UNL     1     -10.465  10.732  68.234  1.00  0.00    -0.181 A  
HETATM   11  C   UNL     1     -10.389   9.446  67.654  1.00  0.00    -0.303 A  
HETATM   12  C   UNL     1     -10.556   8.255  68.403  1.00  0.00    -0.148 A  
HETATM   13  C   UNL     1     -10.449   6.913  67.727  1.00  0.00    -0.223 C  
HETATM   14  C   UNL     1     -10.799   8.377  69.773  1.00  0.00    -0.183 A  
HETATM   15  F   UNL     1      -9.554   6.097  68.344  1.00  0.00    -0.119 F  
HETATM   16  N   UNL     1     -10.970   7.205  70.618  1.00  0.00    -0.249 N  
HETATM   17  F   UNL     1     -10.033   6.996  66.432  1.00  0.00    -0.239 F  
HETATM   18  C   UNL     1     -10.877   9.627  70.386  1.00  0.00    -0.353 A  
HETATM   19  F   UNL     1     -11.628   6.242  67.683  1.00  0.00    -0.310 F  
HETATM   20  C   UNL     1     -10.715  10.786  69.616  1.00  0.00    -0.261 A  
HETATM   21  O   UNL     1     -11.897   6.440  70.338  1.00  0.00    -0.382 OA 
HETATM   22  O   UNL     1     -10.192   7.086  71.572  1.00  0.00    -0.198 OA 
ENDBRANCH   6  10
TORSDOF 1
ENDMDL
MODEL       69
REMARK 921   NORMALIZED FREE ENERGY PREDICTED BY IDOCK:   -5.60 KCAL/MOL
REMARK 922        TOTAL FREE ENERGY PREDICTED BY IDOCK:   -6.09 KCAL/MOL
REMARK 923 INTER-LIGAND FREE ENERGY PREDICTED BY IDOCK:   -5.65 KCAL/MOL
REMARK 924 INTRA-LIGAND FREE ENERGY PREDICTED BY IDOCK:   -0.44 KCAL/MOL
REMARK 927      BINDING AFFINITY PREDICTED BY RF-SCORE:    0.00 PKD
ROOT
HETATM    1  C   UNL     1     -11.526   8.953  69.926  1.00  0.00     0.104 C  
HETATM    2  C   UNL     1     -10.364   9.737  69.338  1.00  0.00    -0.217 C  
HETATM    3  N   UNL     1     -10.046   9.322  68.004  1.00  0.00    -0.183 NA 
HETATM    4  C   UNL     1      -9.121   9.681  70.224  1.00  0.00    -0.272 C  
HETATM    5  C   UNL     1      -9.933  10.392  67.142  1.00  0.00    -0.195 C  
HETATM    6  N   UNL     1     -10.389  11.530  67.774  1.00  0.00    -0.179 N  
HETATM    7  O   UNL     1      -9.483  10.237  66.019  1.00  0.00    -0.168 OA 
HETATM    8  C   UNL     1     -10.736  11.203  69.074  1.00  0.00    -0.225 C  
HETATM    9  O   UNL     1     -11.199  11.922  69.952  1.00  0.00    -0.139 OA 
ENDROOT
BRANCH   6  10
HETATM   10  C   UNL     1     -10.481  12.833  67.184  1.00  0.00    -0.233 A  
HETATM   11  C   UNL     1      -9.425  13.767  67.272  1.00  0.00    -0.236 A  
HETATM   12  C   UNL     1      -9.494  15.060  66.698  1.00  0.00    -0.288 A  
HETATM   13  C   UNL     1      -8.326  16.005  66.815  1.00  0.00    -0.270 C  
HETATM   14  C   UNL     1     -10.660  15.406  66.011  1.00  0.00    -0.322 A  
HETATM   15  F   UNL     1      -7.927  16.483  65.607  1.00  0.00    -0.150 F  
HETATM   16  N   UNL     1     -10.809  16.709  65.380  1.00  0.00    -0.258 N  
HETATM   17  F   UNL     1      -7.220  15.426  67.361  1.00  0.00    -0.163 F  
HETATM   18  C   UNL     1     -11.724  14.513  65.896  1.00  0.00    -0.345 A  
HETATM   19  F   UNL     1      -8.590  17.084  67.596  1.00  0.00    -0.200 F  
HETATM   20  C   UNL     1     -11.629  13.244  66.484  1.00  0.00    -0.392 A  
HETATM   21  O   UNL     1     -10.728  17.700  66.111  1.00  0.00    -0.256 OA 
HETATM   22  O   UNL     1     -11.038  16.718  64.165  1.00  0.00    -1.061 OA 
ENDBRANCH   6  10
TORSDOF 1
ENDMDL
MODEL       70
REMARK 921   NORMALIZED FREE ENERGY PREDICTED BY IDOCK:   -5.58 KCAL/MOL
REMARK 922        TOTAL FREE ENERGY PREDICTED BY IDOCK:   -6.08 KCAL/MOL
REMARK 923 INTER-LIGAND FREE ENERGY PREDICTED BY IDOCK:   -5.74 KCAL/MOL
REMARK 924 INTRA-LIGAND FREE ENERGY PREDICTED BY IDOCK:   -0.34 KCAL/MOL
REMARK 927      BINDING AFFINITY PREDICTED BY RF-SCORE:    0.00 PKD
ROOT
HETATM    1  C   UNL     1     -13.320   8.613  72.179  1.00  0.00    -0.431 C  
HETATM    2  C   UNL     1     -11.967   8.072  71.744  1.00  0.00    -0.301 C  
HETATM    3  N   UNL     1     -12.083   6.871  70.972  1.00  0.00    -0.371 NA 
HETATM    4  C   UNL     1     -11.022   7.859  72.924  1.00  0.00    -0.452 C  
HETATM    5  C   UNL     1     -11.342   6.928  69.811  1.00  0.00    -0.237 C  
HETATM    6  N   UNL     1     -10.893   8.218  69.625  1.00  0.00    -0.197 N  
HETATM    7  O   UNL     1     -11.174   5.927  69.134  1.00  0.00    -0.340 OA 
HETATM    8  C   UNL     1     -11.291   8.984  70.708  1.00  0.00    -0.277 C  
HETATM    9  O   UNL     1     -11.110  10.178  70.917  1.00  0.00    -0.338 OA 
ENDROOT
BRANCH   6  10
HETATM   10  C   UNL     1     -10.135   8.686  68.502  1.00  0.00    -0.190 A  
HETATM   11  C   UNL     1     -10.661   9.626  67.589  1.00  0.00    -0.324 A  
HETATM   12  C   UNL     1      -9.932  10.102  66.471  1.00  0.00    -0.283 A  
HETATM   13  C   UNL     1     -10.546  11.117  65.542  1.00  0.00    -0.225 C  
HETATM   14  C   UNL     1      -8.636   9.616  66.285  1.00  0.00    -0.127 A  
HETATM   15  F   UNL     1      -9.752  12.208  65.375  1.00  0.00    -0.244 F  
HETATM   16  N   UNL     1      -7.813  10.062  65.171  1.00  0.00    -0.131 N  
HETATM   17  F   UNL     1     -11.740  11.600  65.987  1.00  0.00    -0.363 F  
HETATM   18  C   UNL     1      -8.077   8.691  67.165  1.00  0.00    -0.100 A  
HETATM   19  F   UNL     1     -10.798  10.622  64.303  1.00  0.00    -0.399 F  
HETATM   20  C   UNL     1      -8.828   8.233  68.256  1.00  0.00    -0.140 A  
HETATM   21  O   UNL     1      -8.248   9.858  64.034  1.00  0.00    -0.140 OA 
HETATM   22  O   UNL     1      -6.726  10.581  65.452  1.00  0.00    -0.129 OA 
ENDBRANCH   6  10
TORSDOF 1
ENDMDL
MODEL       71
REMARK 921   NORMALIZED FREE ENERGY PREDICTED BY IDOCK:   -5.57 KCAL/MOL
REMARK 922        TOTAL FREE ENERGY PREDICTED BY IDOCK:   -6.06 KCAL/MOL
REMARK 923 INTER-LIGAND FREE ENERGY PREDICTED BY IDOCK:   -5.77 KCAL/MOL
REMARK 924 INTRA-LIGAND FREE ENERGY PREDICTED BY IDOCK:   -0.29 KCAL/MOL
REMARK 927      BINDING AFFINITY PREDICTED BY RF-SCORE:    0.00 PKD
ROOT
HETATM    1  C   UNL     1      -7.880  17.433  66.646  1.00  0.00    -0.292 C  
HETATM    2  C   UNL     1      -9.220  16.723  66.737  1.00  0.00    -0.243 C  
HETATM    3  N   UNL     1      -9.677  16.255  65.463  1.00  0.00    -0.487 NA 
HETATM    4  C   UNL     1     -10.289  17.588  67.402  1.00  0.00    -0.351 C  
HETATM    5  C   UNL     1     -10.076  14.936  65.508  1.00  0.00    -0.370 C  
HETATM    6  N   UNL     1      -9.699  14.392  66.718  1.00  0.00    -0.260 N  
HETATM    7  O   UNL     1     -10.668  14.436  64.566  1.00  0.00    -0.371 OA 
HETATM    8  C   UNL     1      -9.111  15.385  67.484  1.00  0.00    -0.194 C  
HETATM    9  O   UNL     1      -8.627  15.308  68.608  1.00  0.00    -0.155 OA 
ENDROOT
BRANCH   6  10
HETATM   10  C   UNL     1      -9.890  13.028  67.117  1.00  0.00    -0.230 A  
HETATM   11  C   UNL     1     -10.658  12.685  68.251  1.00  0.00    -0.250 A  
HETATM   12  C   UNL     1     -10.860  11.345  68.665  1.00  0.00    -0.249 A  
HETATM   13  C   UNL     1     -11.704  11.045  69.876  1.00  0.00    -0.346 C  
HETATM   14  C   UNL     1     -10.273  10.333  67.901  1.00  0.00    -0.183 A  
HETATM   15  F   UNL     1     -12.692  10.151  69.606  1.00  0.00    -0.093 F  
HETATM   16  N   UNL     1     -10.441   8.930  68.249  1.00  0.00    -0.213 N  
HETATM   17  F   UNL     1     -12.334  12.144  70.378  1.00  0.00    -0.377 F  
HETATM   18  C   UNL     1      -9.511  10.628  66.772  1.00  0.00    -0.189 A  
HETATM   19  F   UNL     1     -10.988  10.536  70.912  1.00  0.00    -0.350 F  
HETATM   20  C   UNL     1      -9.322  11.964  66.395  1.00  0.00    -0.233 A  
HETATM   21  O   UNL     1     -10.041   8.573  69.360  1.00  0.00    -0.193 OA 
HETATM   22  O   UNL     1     -10.942   8.198  67.387  1.00  0.00    -0.138 OA 
ENDBRANCH   6  10
TORSDOF 1
ENDMDL
MODEL       72
REMARK 921   NORMALIZED FREE ENERGY PREDICTED BY IDOCK:   -5.53 KCAL/MOL
REMARK 922        TOTAL FREE ENERGY PREDICTED BY IDOCK:   -6.02 KCAL/MOL
REMARK 923 INTER-LIGAND FREE ENERGY PREDICTED BY IDOCK:   -6.17 KCAL/MOL
REMARK 924 INTRA-LIGAND FREE ENERGY PREDICTED BY IDOCK:    0.15 KCAL/MOL
REMARK 927      BINDING AFFINITY PREDICTED BY RF-SCORE:    0.00 PKD
ROOT
HETATM    1  C   UNL     1     -12.841  14.602  73.240  1.00  0.00    -0.580 C  
HETATM    2  C   UNL     1     -13.022  14.231  71.777  1.00  0.00    -0.354 C  
HETATM    3  N   UNL     1     -11.977  14.754  70.948  1.00  0.00    -0.305 NA 
HETATM    4  C   UNL     1     -14.390  14.650  71.239  1.00  0.00    -0.347 C  
HETATM    5  C   UNL     1     -11.445  13.791  70.117  1.00  0.00    -0.072 C  
HETATM    6  N   UNL     1     -11.923  12.554  70.496  1.00  0.00    -0.279 N  
HETATM    7  O   UNL     1     -10.684  14.103  69.217  1.00  0.00    -0.223 OA 
HETATM    8  C   UNL     1     -12.820  12.728  71.536  1.00  0.00    -0.270 C  
HETATM    9  O   UNL     1     -13.446  11.881  72.164  1.00  0.00    -0.458 OA 
ENDROOT
BRANCH   6  10
HETATM   10  C   UNL     1     -11.556  11.300  69.906  1.00  0.00    -0.334 A  
HETATM   11  C   UNL     1     -11.449  10.120  70.673  1.00  0.00    -0.432 A  
HETATM   12  C   UNL     1     -11.087   8.869  70.113  1.00  0.00    -0.217 A  
HETATM   13  C   UNL     1     -11.005   7.643  70.984  1.00  0.00    -0.248 C  
HETATM   14  C   UNL     1     -10.837   8.820  68.739  1.00  0.00     0.013 A  
HETATM   15  F   UNL     1     -11.752   6.617  70.499  1.00  0.00    -0.362 F  
HETATM   16  N   UNL     1     -10.473   7.575  68.081  1.00  0.00    -0.198 N  
HETATM   17  F   UNL     1     -11.457   7.855  72.253  1.00  0.00    -0.293 F  
HETATM   18  C   UNL     1     -10.936   9.961  67.945  1.00  0.00    -0.281 A  
HETATM   19  F   UNL     1      -9.740   7.174  71.126  1.00  0.00    -0.168 F  
HETATM   20  C   UNL     1     -11.287  11.184  68.531  1.00  0.00    -0.348 A  
HETATM   21  O   UNL     1      -9.447   7.011  68.472  1.00  0.00    -0.135 OA 
HETATM   22  O   UNL     1     -11.203   7.197  67.157  1.00  0.00    -0.276 OA 
ENDBRANCH   6  10
TORSDOF 1
ENDMDL
MODEL       73
REMARK 921   NORMALIZED FREE ENERGY PREDICTED BY IDOCK:   -5.47 KCAL/MOL
REMARK 922        TOTAL FREE ENERGY PREDICTED BY IDOCK:   -5.96 KCAL/MOL
REMARK 923 INTER-LIGAND FREE ENERGY PREDICTED BY IDOCK:   -5.81 KCAL/MOL
REMARK 924 INTRA-LIGAND FREE ENERGY PREDICTED BY IDOCK:   -0.14 KCAL/MOL
REMARK 927      BINDING AFFINITY PREDICTED BY RF-SCORE:    0.00 PKD
ROOT
HETATM    1  C   UNL     1      -6.324  19.218  66.875  1.00  0.00    -0.184 C  
HETATM    2  C   UNL     1      -7.458  19.023  67.869  1.00  0.00    -0.251 C  
HETATM    3  N   UNL     1      -8.729  19.401  67.328  1.00  0.00    -0.290 NA 
HETATM    4  C   UNL     1      -7.202  19.749  69.188  1.00  0.00    -0.319 C  
HETATM    5  C   UNL     1      -9.687  18.431  67.529  1.00  0.00    -0.297 C  
HETATM    6  N   UNL     1      -9.078  17.283  67.990  1.00  0.00    -0.243 N  
HETATM    7  O   UNL     1     -10.863  18.667  67.303  1.00  0.00    -0.426 OA 
HETATM    8  C   UNL     1      -7.725  17.537  68.149  1.00  0.00    -0.231 C  
HETATM    9  O   UNL     1      -6.837  16.777  68.519  1.00  0.00    -0.151 OA 
ENDROOT
BRANCH   6  10
HETATM   10  C   UNL     1      -9.735  16.040  68.263  1.00  0.00    -0.214 A  
HETATM   11  C   UNL     1      -9.279  14.820  67.717  1.00  0.00    -0.194 A  
HETATM   12  C   UNL     1      -9.913  13.579  67.972  1.00  0.00    -0.248 A  
HETATM   13  C   UNL     1      -9.367  12.311  67.370  1.00  0.00    -0.183 C  
HETATM   14  C   UNL     1     -11.031  13.580  68.810  1.00  0.00    -0.261 A  
HETATM   15  F   UNL     1      -9.140  11.352  68.306  1.00  0.00    -0.151 F  
HETATM   16  N   UNL     1     -11.734  12.348  69.135  1.00  0.00    -0.309 N  
HETATM   17  F   UNL     1      -8.175  12.488  66.734  1.00  0.00    -0.173 F  
HETATM   18  C   UNL     1     -11.511  14.761  69.374  1.00  0.00    -0.330 A  
HETATM   19  F   UNL     1     -10.193  11.763  66.441  1.00  0.00    -0.222 F  
HETATM   20  C   UNL     1     -10.867  15.973  69.094  1.00  0.00    -0.281 A  
HETATM   21  O   UNL     1     -12.213  11.709  68.194  1.00  0.00    -0.537 OA 
HETATM   22  O   UNL     1     -11.824  12.056  70.333  1.00  0.00    -0.322 OA 
ENDBRANCH   6  10
TORSDOF 1
ENDMDL
MODEL       74
REMARK 921   NORMALIZED FREE ENERGY PREDICTED BY IDOCK:   -5.45 KCAL/MOL
REMARK 922        TOTAL FREE ENERGY PREDICTED BY IDOCK:   -5.93 KCAL/MOL
REMARK 923 INTER-LIGAND FREE ENERGY PREDICTED BY IDOCK:   -5.64 KCAL/MOL
REMARK 924 INTRA-LIGAND FREE ENERGY PREDICTED BY IDOCK:   -0.30 KCAL/MOL
REMARK 927      BINDING AFFINITY PREDICTED BY RF-SCORE:    0.00 PKD
ROOT
HETATM    1  C   UNL     1     -11.036  13.427  66.236  1.00  0.00    -0.296 C  
HETATM    2  C   UNL     1     -10.049  13.618  67.377  1.00  0.00    -0.241 C  
HETATM    3  N   UNL     1      -8.718  13.228  67.017  1.00  0.00    -0.208 NA 
HETATM    4  C   UNL     1     -10.489  12.899  68.650  1.00  0.00    -0.231 C  
HETATM    5  C   UNL     1      -7.789  14.192  67.346  1.00  0.00    -0.177 C  
HETATM    6  N   UNL     1      -8.448  15.346  67.715  1.00  0.00    -0.146 N  
HETATM    7  O   UNL     1      -6.596  13.948  67.286  1.00  0.00    -0.263 OA 
HETATM    8  C   UNL     1      -9.811  15.103  67.687  1.00  0.00    -0.219 C  
HETATM    9  O   UNL     1     -10.736  15.871  67.928  1.00  0.00    -0.294 OA 
ENDROOT
BRANCH   6  10
HETATM   10  C   UNL     1      -7.824  16.586  68.073  1.00  0.00    -0.157 A  
HETATM   11  C   UNL     1      -8.029  17.766  67.324  1.00  0.00    -0.223 A  
HETATM   12  C   UNL     1      -7.423  19.002  67.658  1.00  0.00    -0.251 A  
HETATM   13  C   UNL     1      -7.694  20.229  66.826  1.00  0.00    -0.290 C  
HETATM   14  C   UNL     1      -6.598  19.039  68.786  1.00  0.00    -0.273 A  
HETATM   15  F   UNL     1      -8.125  21.276  67.577  1.00  0.00    -0.306 F  
HETATM   16  N   UNL     1      -5.948  20.271  69.207  1.00  0.00    -0.315 N  
HETATM   17  F   UNL     1      -8.658  20.035  65.883  1.00  0.00    -0.367 F  
HETATM   18  C   UNL     1      -6.374  17.899  69.555  1.00  0.00    -0.212 A  
HETATM   19  F   UNL     1      -6.603  20.660  66.142  1.00  0.00    -0.230 F  
HETATM   20  C   UNL     1      -6.980  16.689  69.193  1.00  0.00    -0.227 A  
HETATM   21  O   UNL     1      -5.179  20.804  68.402  1.00  0.00    -0.239 OA 
HETATM   22  O   UNL     1      -6.192  20.667  70.353  1.00  0.00    -0.470 OA 
ENDBRANCH   6  10
TORSDOF 1
ENDMDL
MODEL       75
REMARK 921   NORMALIZED FREE ENERGY PREDICTED BY IDOCK:   -5.44 KCAL/MOL
REMARK 922        TOTAL FREE ENERGY PREDICTED BY IDOCK:   -5.93 KCAL/MOL
REMARK 923 INTER-LIGAND FREE ENERGY PREDICTED BY IDOCK:   -5.50 KCAL/MOL
REMARK 924 INTRA-LIGAND FREE ENERGY PREDICTED BY IDOCK:   -0.43 KCAL/MOL
REMARK 927      BINDING AFFINITY PREDICTED BY RF-SCORE:    0.00 PKD
ROOT
HETATM    1  C   UNL     1     -10.651   8.063  66.887  1.00  0.00    -0.324 C  
HETATM    2  C   UNL     1      -9.856   9.095  67.670  1.00  0.00    -0.172 C  
HETATM    3  N   UNL     1      -8.567   9.341  67.096  1.00  0.00    -0.127 NA 
HETATM    4  C   UNL     1      -9.721   8.724  69.146  1.00  0.00    -0.175 C  
HETATM    5  C   UNL     1      -8.314  10.688  66.948  1.00  0.00    -0.125 C  
HETATM    6  N   UNL     1      -9.475  11.394  67.186  1.00  0.00    -0.174 N  
HETATM    7  O   UNL     1      -7.197  11.080  66.655  1.00  0.00    -0.129 OA 
HETATM    8  C   UNL     1     -10.467  10.500  67.552  1.00  0.00    -0.239 C  
HETATM    9  O   UNL     1     -11.641  10.720  67.826  1.00  0.00    -0.521 OA 
ENDROOT
BRANCH   6  10
HETATM   10  C   UNL     1      -9.627  12.815  67.076  1.00  0.00    -0.229 A  
HETATM   11  C   UNL     1      -9.184  13.691  68.091  1.00  0.00    -0.204 A  
HETATM   12  C   UNL     1      -9.323  15.099  68.005  1.00  0.00    -0.187 A  
HETATM   13  C   UNL     1      -8.817  15.980  69.118  1.00  0.00    -0.245 C  
HETATM   14  C   UNL     1      -9.919  15.625  66.856  1.00  0.00    -0.248 A  
HETATM   15  F   UNL     1      -7.977  16.948  68.665  1.00  0.00    -0.209 F  
HETATM   16  N   UNL     1     -10.089  17.059  66.681  1.00  0.00    -0.296 N  
HETATM   17  F   UNL     1      -8.110  15.299  70.063  1.00  0.00    -0.197 F  
HETATM   18  C   UNL     1     -10.365  14.795  65.829  1.00  0.00    -0.358 A  
HETATM   19  F   UNL     1      -9.811  16.609  69.795  1.00  0.00    -0.171 F  
HETATM   20  C   UNL     1     -10.221  13.407  65.948  1.00  0.00    -0.302 A  
HETATM   21  O   UNL     1     -10.768  17.652  67.524  1.00  0.00    -0.358 OA 
HETATM   22  O   UNL     1      -9.567  17.565  65.681  1.00  0.00    -0.510 OA 
ENDBRANCH   6  10
TORSDOF 1
ENDMDL
MODEL       76
REMARK 921   NORMALIZED FREE ENERGY PREDICTED BY IDOCK:   -5.43 KCAL/MOL
REMARK 922        TOTAL FREE ENERGY PREDICTED BY IDOCK:   -5.91 KCAL/MOL
REMARK 923 INTER-LIGAND FREE ENERGY PREDICTED BY IDOCK:   -5.71 KCAL/MOL
REMARK 924 INTRA-LIGAND FREE ENERGY PREDICTED BY IDOCK:   -0.20 KCAL/MOL
REMARK 927      BINDING AFFINITY PREDICTED BY RF-SCORE:    0.00 PKD
ROOT
HETATM    1  C   UNL     1      -5.687  18.875  64.358  1.00  0.00    -0.279 C  
HETATM    2  C   UNL     1      -6.336  19.204  65.693  1.00  0.00    -0.239 C  
HETATM    3  N   UNL     1      -7.526  19.985  65.542  1.00  0.00    -0.309 NA 
HETATM    4  C   UNL     1      -5.366  19.889  66.655  1.00  0.00    -0.166 C  
HETATM    5  C   UNL     1      -8.581  19.468  66.263  1.00  0.00    -0.361 C  
HETATM    6  N   UNL     1      -8.235  18.218  66.733  1.00  0.00    -0.245 N  
HETATM    7  O   UNL     1      -9.610  20.108  66.402  1.00  0.00    -0.399 OA 
HETATM    8  C   UNL     1      -6.926  17.956  66.367  1.00  0.00    -0.249 C  
HETATM    9  O   UNL     1      -6.253  16.952  66.574  1.00  0.00    -0.223 OA 
ENDROOT
BRANCH   6  10
HETATM   10  C   UNL     1      -9.088  17.340  67.480  1.00  0.00    -0.223 A  
HETATM   11  C   UNL     1      -9.358  16.022  67.052  1.00  0.00    -0.233 A  
HETATM   12  C   UNL     1     -10.198  15.137  67.772  1.00  0.00    -0.236 A  
HETATM   13  C   UNL     1     -10.433  13.737  67.268  1.00  0.00    -0.264 C  
HETATM   14  C   UNL     1     -10.768  15.603  68.959  1.00  0.00    -0.236 A  
HETATM   15  F   UNL     1     -10.163  12.798  68.213  1.00  0.00    -0.216 F  
HETATM   16  N   UNL     1     -11.632  14.756  69.766  1.00  0.00    -0.281 N  
HETATM   17  F   UNL     1      -9.653  13.412  66.199  1.00  0.00    -0.267 F  
HETATM   18  C   UNL     1     -10.524  16.896  69.419  1.00  0.00    -0.283 A  
HETATM   19  F   UNL     1     -11.710  13.525  66.859  1.00  0.00    -0.328 F  
HETATM   20  C   UNL     1      -9.696  17.750  68.679  1.00  0.00    -0.346 A  
HETATM   21  O   UNL     1     -12.657  14.324  69.231  1.00  0.00    -0.146 OA 
HETATM   22  O   UNL     1     -11.288  14.563  70.939  1.00  0.00    -0.180 OA 
ENDBRANCH   6  10
TORSDOF 1
ENDMDL
MODEL       77
REMARK 921   NORMALIZED FREE ENERGY PREDICTED BY IDOCK:   -5.41 KCAL/MOL
REMARK 922        TOTAL FREE ENERGY PREDICTED BY IDOCK:   -5.90 KCAL/MOL
REMARK 923 INTER-LIGAND FREE ENERGY PREDICTED BY IDOCK:   -5.56 KCAL/MOL
REMARK 924 INTRA-LIGAND FREE ENERGY PREDICTED BY IDOCK:   -0.34 KCAL/MOL
REMARK 927      BINDING AFFINITY PREDICTED BY RF-SCORE:    0.00 PKD
ROOT
HETATM    1  C   UNL     1      -8.655   3.070  72.715  1.00  0.00    -0.083 C  
HETATM    2  C   UNL     1      -9.654   4.168  73.043  1.00  0.00    -0.126 C  
HETATM    3  N   UNL     1      -9.097   5.176  73.894  1.00  0.00    -0.119 NA 
HETATM    4  C   UNL     1     -10.945   3.616  73.645  1.00  0.00    -0.333 C  
HETATM    5  C   UNL     1      -9.334   6.447  73.417  1.00  0.00    -0.132 C  
HETATM    6  N   UNL     1      -9.840   6.361  72.137  1.00  0.00    -0.160 N  
HETATM    7  O   UNL     1      -9.098   7.423  74.110  1.00  0.00    -0.231 OA 
HETATM    8  C   UNL     1      -9.991   5.023  71.812  1.00  0.00    -0.191 C  
HETATM    9  O   UNL     1     -10.392   4.524  70.766  1.00  0.00    -0.147 OA 
ENDROOT
BRANCH   6  10
HETATM   10  C   UNL     1     -10.161   7.471  71.288  1.00  0.00    -0.187 A  
HETATM   11  C   UNL     1     -11.207   8.367  71.599  1.00  0.00    -0.343 A  
HETATM   12  C   UNL     1     -11.543   9.471  70.775  1.00  0.00    -0.378 A  
HETATM   13  C   UNL     1     -12.661  10.399  71.171  1.00  0.00    -0.415 C  
HETATM   14  C   UNL     1     -10.790   9.669  69.615  1.00  0.00    -0.244 A  
HETATM   15  F   UNL     1     -12.267  11.699  71.192  1.00  0.00    -0.428 F  
HETATM   16  N   UNL     1     -11.060  10.785  68.721  1.00  0.00    -0.238 N  
HETATM   17  F   UNL     1     -13.153  10.147  72.416  1.00  0.00    -0.486 F  
HETATM   18  C   UNL     1      -9.746   8.811  69.274  1.00  0.00    -0.172 A  
HETATM   19  F   UNL     1     -13.732  10.328  70.339  1.00  0.00    -0.264 F  
HETATM   20  C   UNL     1      -9.445   7.723  70.105  1.00  0.00    -0.160 A  
HETATM   21  O   UNL     1     -12.185  10.844  68.219  1.00  0.00    -0.526 OA 
HETATM   22  O   UNL     1     -10.126  11.568  68.508  1.00  0.00    -0.197 OA 
ENDBRANCH   6  10
TORSDOF 1
ENDMDL
MODEL       78
REMARK 921   NORMALIZED FREE ENERGY PREDICTED BY IDOCK:   -5.41 KCAL/MOL
REMARK 922        TOTAL FREE ENERGY PREDICTED BY IDOCK:   -5.89 KCAL/MOL
REMARK 923 INTER-LIGAND FREE ENERGY PREDICTED BY IDOCK:   -5.69 KCAL/MOL
REMARK 924 INTRA-LIGAND FREE ENERGY PREDICTED BY IDOCK:   -0.20 KCAL/MOL
REMARK 927      BINDING AFFINITY PREDICTED BY RF-SCORE:    0.00 PKD
ROOT
HETATM    1  C   UNL     1      -5.792   7.734  62.955  1.00  0.00    -0.055 C  
HETATM    2  C   UNL     1      -7.216   7.697  63.486  1.00  0.00    -0.080 C  
HETATM    3  N   UNL     1      -7.266   7.432  64.893  1.00  0.00    -0.064 NA 
HETATM    4  C   UNL     1      -8.092   6.705  62.725  1.00  0.00    -0.050 C  
HETATM    5  C   UNL     1      -8.077   8.325  65.560  1.00  0.00    -0.128 C  
HETATM    6  N   UNL     1      -8.418   9.352  64.704  1.00  0.00    -0.156 N  
HETATM    7  O   UNL     1      -8.384   8.132  66.724  1.00  0.00    -0.111 OA 
HETATM    8  C   UNL     1      -7.875   9.084  63.458  1.00  0.00    -0.140 C  
HETATM    9  O   UNL     1      -7.930   9.755  62.433  1.00  0.00    -0.113 OA 
ENDROOT
BRANCH   6  10
HETATM   10  C   UNL     1      -9.205  10.500  65.046  1.00  0.00    -0.206 A  
HETATM   11  C   UNL     1     -10.352  10.863  64.307  1.00  0.00    -0.436 A  
HETATM   12  C   UNL     1     -11.145  11.993  64.626  1.00  0.00    -0.375 A  
HETATM   13  C   UNL     1     -12.366  12.319  63.804  1.00  0.00    -0.538 C  
HETATM   14  C   UNL     1     -10.766  12.764  65.728  1.00  0.00    -0.272 A  
HETATM   15  F   UNL     1     -13.479  12.457  64.571  1.00  0.00    -0.338 F  
HETATM   16  N   UNL     1     -11.533  13.933  66.132  1.00  0.00    -0.335 N  
HETATM   17  F   UNL     1     -12.670  11.355  62.890  1.00  0.00    -0.519 F  
HETATM   18  C   UNL     1      -9.644  12.437  66.487  1.00  0.00    -0.242 A  
HETATM   19  F   UNL     1     -12.237  13.466  63.090  1.00  0.00    -0.606 F  
HETATM   20  C   UNL     1      -8.875  11.318  66.140  1.00  0.00    -0.194 A  
HETATM   21  O   UNL     1     -11.649  14.842  65.307  1.00  0.00    -0.343 OA 
HETATM   22  O   UNL     1     -11.979  13.936  67.286  1.00  0.00    -0.389 OA 
ENDBRANCH   6  10
TORSDOF 1
ENDMDL
MODEL       79
REMARK 921   NORMALIZED FREE ENERGY PREDICTED BY IDOCK:   -5.40 KCAL/MOL
REMARK 922        TOTAL FREE ENERGY PREDICTED BY IDOCK:   -5.89 KCAL/MOL
REMARK 923 INTER-LIGAND FREE ENERGY PREDICTED BY IDOCK:   -5.65 KCAL/MOL
REMARK 924 INTRA-LIGAND FREE ENERGY PREDICTED BY IDOCK:   -0.24 KCAL/MOL
REMARK 927      BINDING AFFINITY PREDICTED BY RF-SCORE:    0.00 PKD
ROOT
HETATM    1  C   UNL     1     -14.404  15.316  71.727  1.00  0.00    -0.678 C  
HETATM    2  C   UNL     1     -13.167  14.449  71.899  1.00  0.00    -0.365 C  
HETATM    3  N   UNL     1     -13.494  13.091  72.219  1.00  0.00    -0.569 NA 
HETATM    4  C   UNL     1     -12.197  15.022  72.930  1.00  0.00    -0.450 C  
HETATM    5  C   UNL     1     -12.819  12.194  71.420  1.00  0.00    -0.276 C  
HETATM    6  N   UNL     1     -12.203  12.878  70.393  1.00  0.00    -0.345 N  
HETATM    7  O   UNL     1     -12.832  11.002  71.680  1.00  0.00    -0.430 OA 
HETATM    8  C   UNL     1     -12.428  14.233  70.570  1.00  0.00    -0.361 C  
HETATM    9  O   UNL     1     -12.069  15.173  69.869  1.00  0.00    -0.311 OA 
ENDROOT
BRANCH   6  10
HETATM   10  C   UNL     1     -11.451  12.286  69.327  1.00  0.00    -0.292 A  
HETATM   11  C   UNL     1     -10.113  12.655  69.064  1.00  0.00     0.164 A  
HETATM   12  C   UNL     1      -9.350  12.084  68.016  1.00  0.00    -0.196 A  
HETATM   13  C   UNL     1      -7.922  12.511  67.798  1.00  0.00    -0.163 C  
HETATM   14  C   UNL     1      -9.961  11.109  67.223  1.00  0.00    -0.184 A  
HETATM   15  F   UNL     1      -7.067  11.455  67.770  1.00  0.00    -0.072 F  
HETATM   16  N   UNL     1      -9.245  10.462  66.134  1.00  0.00    -0.164 N  
HETATM   17  F   UNL     1      -7.452  13.334  68.777  1.00  0.00    -0.105 F  
HETATM   18  C   UNL     1     -11.277  10.712  67.451  1.00  0.00    -0.280 A  
HETATM   19  F   UNL     1      -7.741  13.193  66.638  1.00  0.00     0.040 F  
HETATM   20  C   UNL     1     -12.008  11.303  68.490  1.00  0.00    -0.288 A  
HETATM   21  O   UNL     1      -8.819  11.188  65.232  1.00  0.00    -0.171 OA 
HETATM   22  O   UNL     1      -9.150   9.230  66.182  1.00  0.00    -0.156 OA 
ENDBRANCH   6  10
TORSDOF 1
ENDMDL
MODEL       80
REMARK 921   NORMALIZED FREE ENERGY PREDICTED BY IDOCK:   -5.40 KCAL/MOL
REMARK 922        TOTAL FREE ENERGY PREDICTED BY IDOCK:   -5.88 KCAL/MOL
REMARK 923 INTER-LIGAND FREE ENERGY PREDICTED BY IDOCK:   -5.49 KCAL/MOL
REMARK 924 INTRA-LIGAND FREE ENERGY PREDICTED BY IDOCK:   -0.39 KCAL/MOL
REMARK 927      BINDING AFFINITY PREDICTED BY RF-SCORE:    0.00 PKD
ROOT
HETATM    1  C   UNL     1     -11.375  14.681  67.585  1.00  0.00    -0.350 C  
HETATM    2  C   UNL     1     -10.576  13.763  66.674  1.00  0.00    -0.274 C  
HETATM    3  N   UNL     1      -9.199  13.679  67.058  1.00  0.00    -0.242 NA 
HETATM    4  C   UNL     1     -10.697  14.159  65.204  1.00  0.00    -0.400 C  
HETATM    5  C   UNL     1      -8.762  12.374  67.136  1.00  0.00    -0.195 C  
HETATM    6  N   UNL     1      -9.847  11.528  67.045  1.00  0.00    -0.190 N  
HETATM    7  O   UNL     1      -7.574  12.126  67.261  1.00  0.00    -0.145 OA 
HETATM    8  C   UNL     1     -10.984  12.292  66.841  1.00  0.00    -0.267 C  
HETATM    9  O   UNL     1     -12.149  11.926  66.727  1.00  0.00    -0.593 OA 
ENDROOT
BRANCH   6  10
HETATM   10  C   UNL     1      -9.803  10.099  67.140  1.00  0.00    -0.187 A  
HETATM   11  C   UNL     1     -10.306   9.412  68.266  1.00  0.00    -0.251 A  
HETATM   12  C   UNL     1     -10.273   8.000  68.383  1.00  0.00    -0.239 A  
HETATM   13  C   UNL     1     -10.840   7.327  69.606  1.00  0.00    -0.222 C  
HETATM   14  C   UNL     1      -9.724   7.273  67.324  1.00  0.00    -0.158 A  
HETATM   15  F   UNL     1     -11.751   6.369  69.290  1.00  0.00    -0.440 F  
HETATM   16  N   UNL     1      -9.662   5.819  67.356  1.00  0.00    -0.118 N  
HETATM   17  F   UNL     1     -11.489   8.187  70.440  1.00  0.00    -0.270 F  
HETATM   18  C   UNL     1      -9.221   7.911  66.192  1.00  0.00    -0.208 A  
HETATM   19  F   UNL     1      -9.892   6.728  70.372  1.00  0.00    -0.173 F  
HETATM   20  C   UNL     1      -9.260   9.309  66.111  1.00  0.00    -0.249 A  
HETATM   21  O   UNL     1      -9.026   5.303  68.280  1.00  0.00    -0.108 OA 
HETATM   22  O   UNL     1     -10.225   5.216  66.435  1.00  0.00    -0.214 OA 
ENDBRANCH   6  10
TORSDOF 1
ENDMDL
MODEL       81
REMARK 921   NORMALIZED FREE ENERGY PREDICTED BY IDOCK:   -5.34 KCAL/MOL
REMARK 922        TOTAL FREE ENERGY PREDICTED BY IDOCK:   -5.82 KCAL/MOL
REMARK 923 INTER-LIGAND FREE ENERGY PREDICTED BY IDOCK:   -5.38 KCAL/MOL
REMARK 924 INTRA-LIGAND FREE ENERGY PREDICTED BY IDOCK:   -0.44 KCAL/MOL
REMARK 927      BINDING AFFINITY PREDICTED BY RF-SCORE:    0.00 PKD
ROOT
HETATM    1  C   UNL     1     -14.340  15.132  71.678  1.00  0.00    -0.685 C  
HETATM    2  C   UNL     1     -12.961  14.638  71.270  1.00  0.00    -0.339 C  
HETATM    3  N   UNL     1     -12.966  14.008  69.984  1.00  0.00     0.048 NA 
HETATM    4  C   UNL     1     -12.345  13.711  72.316  1.00  0.00     0.172 C  
HETATM    5  C   UNL     1     -11.965  14.489  69.168  1.00  0.00    -0.309 C  
HETATM    6  N   UNL     1     -11.399  15.601  69.755  1.00  0.00    -0.298 N  
HETATM    7  O   UNL     1     -11.705  13.933  68.113  1.00  0.00    -0.313 OA 
HETATM    8  C   UNL     1     -11.996  15.800  70.988  1.00  0.00    -0.419 C  
HETATM    9  O   UNL     1     -11.792  16.686  71.811  1.00  0.00    -0.319 OA 
ENDROOT
BRANCH   6  10
HETATM   10  C   UNL     1     -10.363  16.412  69.185  1.00  0.00    -0.289 A  
HETATM   11  C   UNL     1      -8.998  16.082  69.327  1.00  0.00    -0.228 A  
HETATM   12  C   UNL     1      -7.956  16.868  68.773  1.00  0.00    -0.254 A  
HETATM   13  C   UNL     1      -6.518  16.453  68.948  1.00  0.00    -0.152 C  
HETATM   14  C   UNL     1      -8.316  18.009  68.052  1.00  0.00    -0.260 A  
HETATM   15  F   UNL     1      -5.857  16.377  67.763  1.00  0.00    -0.102 F  
HETATM   16  N   UNL     1      -7.310  18.865  67.439  1.00  0.00    -0.224 N  
HETATM   17  F   UNL     1      -6.380  15.225  69.522  1.00  0.00    -0.112 F  
HETATM   18  C   UNL     1      -9.652  18.368  67.884  1.00  0.00    -0.309 A  
HETATM   19  F   UNL     1      -5.811  17.302  69.738  1.00  0.00    -0.187 F  
HETATM   20  C   UNL     1     -10.658  17.575  68.452  1.00  0.00    -0.339 A  
HETATM   21  O   UNL     1      -6.477  19.380  68.190  1.00  0.00    -0.224 OA 
HETATM   22  O   UNL     1      -7.392  19.035  66.217  1.00  0.00    -0.238 OA 
ENDBRANCH   6  10
TORSDOF 1
ENDMDL
MODEL       82
REMARK 921   NORMALIZED FREE ENERGY PREDICTED BY IDOCK:   -5.30 KCAL/MOL
REMARK 922        TOTAL FREE ENERGY PREDICTED BY IDOCK:   -5.78 KCAL/MOL
REMARK 923 INTER-LIGAND FREE ENERGY PREDICTED BY IDOCK:   -5.77 KCAL/MOL
REMARK 924 INTRA-LIGAND FREE ENERGY PREDICTED BY IDOCK:   -0.01 KCAL/MOL
REMARK 927      BINDING AFFINITY PREDICTED BY RF-SCORE:    0.00 PKD
ROOT
HETATM    1  C   UNL     1      -9.860   4.808  71.107  1.00  0.00    -0.260 C  
HETATM    2  C   UNL     1     -10.490   6.186  71.231  1.00  0.00    -0.224 C  
HETATM    3  N   UNL     1      -9.570   7.162  71.734  1.00  0.00    -0.152 NA 
HETATM    4  C   UNL     1     -11.762   6.166  72.076  1.00  0.00    -0.354 C  
HETATM    5  C   UNL     1      -9.560   8.307  70.967  1.00  0.00    -0.160 C  
HETATM    6  N   UNL     1     -10.272   8.081  69.808  1.00  0.00    -0.201 N  
HETATM    7  O   UNL     1      -8.981   9.308  71.357  1.00  0.00    -0.311 OA 
HETATM    8  C   UNL     1     -10.800   6.802  69.859  1.00  0.00    -0.266 C  
HETATM    9  O   UNL     1     -11.475   6.212  69.022  1.00  0.00    -0.340 OA 
ENDROOT
BRANCH   6  10
HETATM   10  C   UNL     1     -10.441   9.016  68.735  1.00  0.00    -0.206 A  
HETATM   11  C   UNL     1     -10.753  10.373  68.972  1.00  0.00    -0.260 A  
HETATM   12  C   UNL     1     -10.925  11.315  67.927  1.00  0.00    -0.302 A  
HETATM   13  C   UNL     1     -11.243  12.752  68.248  1.00  0.00    -0.271 C  
HETATM   14  C   UNL     1     -10.768  10.866  66.614  1.00  0.00    -0.230 A  
HETATM   15  F   UNL     1     -10.378  13.615  67.653  1.00  0.00    -0.229 F  
HETATM   16  N   UNL     1     -10.915  11.770  65.483  1.00  0.00    -0.297 N  
HETATM   17  F   UNL     1     -11.179  13.032  69.580  1.00  0.00    -0.279 F  
HETATM   18  C   UNL     1     -10.455   9.536  66.337  1.00  0.00    -0.168 A  
HETATM   19  F   UNL     1     -12.491  13.121  67.862  1.00  0.00    -0.251 F  
HETATM   20  C   UNL     1     -10.300   8.627  67.391  1.00  0.00    -0.353 A  
HETATM   21  O   UNL     1     -12.004  12.334  65.352  1.00  0.00    -0.404 OA 
HETATM   22  O   UNL     1      -9.945  11.874  64.722  1.00  0.00    -0.253 OA 
ENDBRANCH   6  10
TORSDOF 1
ENDMDL
MODEL       83
REMARK 921   NORMALIZED FREE ENERGY PREDICTED BY IDOCK:   -5.30 KCAL/MOL
REMARK 922        TOTAL FREE ENERGY PREDICTED BY IDOCK:   -5.77 KCAL/MOL
REMARK 923 INTER-LIGAND FREE ENERGY PREDICTED BY IDOCK:   -5.38 KCAL/MOL
REMARK 924 INTRA-LIGAND FREE ENERGY PREDICTED BY IDOCK:   -0.40 KCAL/MOL
REMARK 927      BINDING AFFINITY PREDICTED BY RF-SCORE:    0.00 PKD
ROOT
HETATM    1  C   UNL     1     -10.924  11.795  64.541  1.00  0.00    -0.382 C  
HETATM    2  C   UNL     1     -10.653  12.150  65.994  1.00  0.00    -0.257 C  
HETATM    3  N   UNL     1     -11.845  12.143  66.788  1.00  0.00    -0.606 NA 
HETATM    4  C   UNL     1      -9.924  13.484  66.137  1.00  0.00    -0.310 C  
HETATM    5  C   UNL     1     -11.689  11.420  67.951  1.00  0.00    -0.228 C  
HETATM    6  N   UNL     1     -10.499  10.725  67.894  1.00  0.00    -0.187 N  
HETATM    7  O   UNL     1     -12.535  11.468  68.828  1.00  0.00    -0.331 OA 
HETATM    8  C   UNL     1      -9.854  11.053  66.713  1.00  0.00    -0.197 C  
HETATM    9  O   UNL     1      -8.785  10.639  66.277  1.00  0.00    -0.146 OA 
ENDROOT
BRANCH   6  10
HETATM   10  C   UNL     1     -10.012   9.819  68.892  1.00  0.00    -0.176 A  
HETATM   11  C   UNL     1     -10.597   8.550  69.095  1.00  0.00    -0.188 A  
HETATM   12  C   UNL     1     -10.133   7.638  70.075  1.00  0.00    -0.204 A  
HETATM   13  C   UNL     1     -10.792   6.292  70.232  1.00  0.00    -0.304 C  
HETATM   14  C   UNL     1      -9.043   8.025  70.859  1.00  0.00    -0.148 A  
HETATM   15  F   UNL     1      -9.898   5.271  70.169  1.00  0.00    -0.209 F  
HETATM   16  N   UNL     1      -8.495   7.144  71.880  1.00  0.00    -0.109 N  
HETATM   17  F   UNL     1     -11.714   6.030  69.263  1.00  0.00    -0.436 F  
HETATM   18  C   UNL     1      -8.433   9.267  70.688  1.00  0.00    -0.258 A  
HETATM   19  F   UNL     1     -11.458   6.159  71.407  1.00  0.00    -0.324 F  
HETATM   20  C   UNL     1      -8.922  10.149  69.716  1.00  0.00    -0.159 A  
HETATM   21  O   UNL     1      -9.255   6.793  72.787  1.00  0.00    -0.136 OA 
HETATM   22  O   UNL     1      -7.300   6.845  71.775  1.00  0.00    -0.082 OA 
ENDBRANCH   6  10
TORSDOF 1
ENDMDL
MODEL       84
REMARK 921   NORMALIZED FREE ENERGY PREDICTED BY IDOCK:   -5.29 KCAL/MOL
REMARK 922        TOTAL FREE ENERGY PREDICTED BY IDOCK:   -5.76 KCAL/MOL
REMARK 923 INTER-LIGAND FREE ENERGY PREDICTED BY IDOCK:   -5.39 KCAL/MOL
REMARK 924 INTRA-LIGAND FREE ENERGY PREDICTED BY IDOCK:   -0.38 KCAL/MOL
REMARK 927      BINDING AFFINITY PREDICTED BY RF-SCORE:    0.00 PKD
ROOT
HETATM    1  C   UNL     1      -6.348  11.389  66.809  1.00  0.00    -0.142 C  
HETATM    2  C   UNL     1      -7.662  11.998  67.272  1.00  0.00    -0.168 C  
HETATM    3  N   UNL     1      -8.721  11.790  66.331  1.00  0.00    -0.179 NA 
HETATM    4  C   UNL     1      -7.527  13.483  67.604  1.00  0.00    -0.187 C  
HETATM    5  C   UNL     1      -9.860  11.299  66.932  1.00  0.00    -0.193 C  
HETATM    6  N   UNL     1      -9.565  10.936  68.229  1.00  0.00    -0.161 N  
HETATM    7  O   UNL     1     -10.911  11.245  66.316  1.00  0.00    -0.270 OA 
HETATM    8  C   UNL     1      -8.242  11.257  68.486  1.00  0.00    -0.150 C  
HETATM    9  O   UNL     1      -7.590  11.079  69.509  1.00  0.00    -0.102 OA 
ENDROOT
BRANCH   6  10
HETATM   10  C   UNL     1     -10.476  10.334  69.157  1.00  0.00    -0.224 A  
HETATM   11  C   UNL     1     -10.346   8.987  69.561  1.00  0.00    -0.211 A  
HETATM   12  C   UNL     1     -11.235   8.370  70.475  1.00  0.00    -0.252 A  
HETATM   13  C   UNL     1     -11.033   6.932  70.877  1.00  0.00    -0.253 C  
HETATM   14  C   UNL     1     -12.274   9.146  70.996  1.00  0.00    -0.242 A  
HETATM   15  F   UNL     1     -10.982   6.777  72.226  1.00  0.00    -0.230 F  
HETATM   16  N   UNL     1     -13.224   8.595  71.951  1.00  0.00    -0.355 N  
HETATM   17  F   UNL     1      -9.870   6.402  70.405  1.00  0.00    -0.171 F  
HETATM   18  C   UNL     1     -12.435  10.480  70.628  1.00  0.00    -0.456 A  
HETATM   19  F   UNL     1     -12.013   6.110  70.425  1.00  0.00    -0.394 F  
HETATM   20  C   UNL     1     -11.545  11.058  69.714  1.00  0.00    -0.401 A  
HETATM   21  O   UNL     1     -13.890   7.623  71.585  1.00  0.00    -0.375 OA 
HETATM   22  O   UNL     1     -13.312   9.167  73.044  1.00  0.00    -0.270 OA 
ENDBRANCH   6  10
TORSDOF 1
ENDMDL
MODEL       85
REMARK 921   NORMALIZED FREE ENERGY PREDICTED BY IDOCK:   -5.26 KCAL/MOL
REMARK 922        TOTAL FREE ENERGY PREDICTED BY IDOCK:   -5.74 KCAL/MOL
REMARK 923 INTER-LIGAND FREE ENERGY PREDICTED BY IDOCK:   -6.09 KCAL/MOL
REMARK 924 INTRA-LIGAND FREE ENERGY PREDICTED BY IDOCK:    0.35 KCAL/MOL
REMARK 927      BINDING AFFINITY PREDICTED BY RF-SCORE:    0.00 PKD
ROOT
HETATM    1  C   UNL     1     -10.496  11.300  68.789  1.00  0.00    -0.232 C  
HETATM    2  C   UNL     1     -10.982  12.443  67.912  1.00  0.00    -0.228 C  
HETATM    3  N   UNL     1     -11.806  13.369  68.630  1.00  0.00    -0.348 NA 
HETATM    4  C   UNL     1     -11.704  11.945  66.661  1.00  0.00    -0.264 C  
HETATM    5  C   UNL     1     -11.413  14.675  68.430  1.00  0.00    -0.311 C  
HETATM    6  N   UNL     1     -10.197  14.686  67.780  1.00  0.00    -0.228 N  
HETATM    7  O   UNL     1     -12.115  15.598  68.809  1.00  0.00    -0.301 OA 
HETATM    8  C   UNL     1      -9.835  13.378  67.501  1.00  0.00    -0.227 C  
HETATM    9  O   UNL     1      -8.822  12.958  66.952  1.00  0.00    -0.213 OA 
ENDROOT
BRANCH   6  10
HETATM   10  C   UNL     1      -9.438  15.855  67.445  1.00  0.00    -0.219 A  
HETATM   11  C   UNL     1      -9.626  17.082  68.119  1.00  0.00    -0.266 A  
HETATM   12  C   UNL     1      -8.888  18.250  67.805  1.00  0.00    -0.270 A  
HETATM   13  C   UNL     1      -9.126  19.525  68.572  1.00  0.00    -0.352 C  
HETATM   14  C   UNL     1      -7.934  18.164  66.789  1.00  0.00    -0.240 A  
HETATM   15  F   UNL     1      -7.978  20.038  69.086  1.00  0.00    -0.254 F  
HETATM   16  N   UNL     1      -7.124  19.313  66.412  1.00  0.00    -0.217 N  
HETATM   17  F   UNL     1      -9.962  19.364  69.636  1.00  0.00    -0.394 F  
HETATM   18  C   UNL     1      -7.714  16.971  66.102  1.00  0.00    -0.292 A  
HETATM   19  F   UNL     1      -9.689  20.504  67.818  1.00  0.00    -0.495 F  
HETATM   20  C   UNL     1      -8.466  15.835  66.430  1.00  0.00    -0.313 A  
HETATM   21  O   UNL     1      -7.722  20.316  66.014  1.00  0.00    -0.260 OA 
HETATM   22  O   UNL     1      -5.897  19.180  66.489  1.00  0.00    -0.162 OA 
ENDBRANCH   6  10
TORSDOF 1
ENDMDL
MODEL       86
REMARK 921   NORMALIZED FREE ENERGY PREDICTED BY IDOCK:   -5.26 KCAL/MOL
REMARK 922        TOTAL FREE ENERGY PREDICTED BY IDOCK:   -5.73 KCAL/MOL
REMARK 923 INTER-LIGAND FREE ENERGY PREDICTED BY IDOCK:   -5.37 KCAL/MOL
REMARK 924 INTRA-LIGAND FREE ENERGY PREDICTED BY IDOCK:   -0.36 KCAL/MOL
REMARK 927      BINDING AFFINITY PREDICTED BY RF-SCORE:    0.00 PKD
ROOT
HETATM    1  C   UNL     1      -7.399   7.470  69.909  1.00  0.00    -0.082 C  
HETATM    2  C   UNL     1      -7.227   8.874  69.353  1.00  0.00    -0.061 C  
HETATM    3  N   UNL     1      -6.444   8.894  68.154  1.00  0.00    -0.059 NA 
HETATM    4  C   UNL     1      -6.647   9.838  70.386  1.00  0.00    -0.114 C  
HETATM    5  C   UNL     1      -7.048   9.622  67.152  1.00  0.00    -0.086 C  
HETATM    6  N   UNL     1      -8.340   9.923  67.530  1.00  0.00    -0.115 N  
HETATM    7  O   UNL     1      -6.437   9.902  66.135  1.00  0.00    -0.072 OA 
HETATM    8  C   UNL     1      -8.548   9.442  68.812  1.00  0.00    -0.127 C  
HETATM    9  O   UNL     1      -9.563   9.488  69.498  1.00  0.00    -0.167 OA 
ENDROOT
BRANCH   6  10
HETATM   10  C   UNL     1      -9.303  10.622  66.731  1.00  0.00    -0.157 A  
HETATM   11  C   UNL     1      -9.796  11.893  67.101  1.00  0.00    -0.206 A  
HETATM   12  C   UNL     1     -10.748  12.603  66.328  1.00  0.00    -0.280 A  
HETATM   13  C   UNL     1     -11.222  13.962  66.770  1.00  0.00    -0.318 C  
HETATM   14  C   UNL     1     -11.201  12.008  65.148  1.00  0.00    -0.315 A  
HETATM   15  F   UNL     1     -11.082  14.899  65.795  1.00  0.00    -0.317 F  
HETATM   16  N   UNL     1     -12.169  12.673  64.288  1.00  0.00    -0.421 N  
HETATM   17  F   UNL     1     -10.536  14.448  67.843  1.00  0.00    -0.231 F  
HETATM   18  C   UNL     1     -10.737  10.757  64.744  1.00  0.00    -0.168 A  
HETATM   19  F   UNL     1     -12.528  13.976  67.142  1.00  0.00    -0.434 F  
HETATM   20  C   UNL     1      -9.803  10.077  65.535  1.00  0.00    -0.373 A  
HETATM   21  O   UNL     1     -13.264  12.950  64.784  1.00  0.00    -0.764 OA 
HETATM   22  O   UNL     1     -11.827  12.878  63.118  1.00  0.00    -0.506 OA 
ENDBRANCH   6  10
TORSDOF 1
ENDMDL
MODEL       87
REMARK 921   NORMALIZED FREE ENERGY PREDICTED BY IDOCK:   -5.21 KCAL/MOL
REMARK 922        TOTAL FREE ENERGY PREDICTED BY IDOCK:   -5.68 KCAL/MOL
REMARK 923 INTER-LIGAND FREE ENERGY PREDICTED BY IDOCK:   -5.99 KCAL/MOL
REMARK 924 INTRA-LIGAND FREE ENERGY PREDICTED BY IDOCK:    0.31 KCAL/MOL
REMARK 927      BINDING AFFINITY PREDICTED BY RF-SCORE:    0.00 PKD
ROOT
HETATM    1  C   UNL     1     -10.874  19.232  65.875  1.00  0.00    -0.364 C  
HETATM    2  C   UNL     1      -9.959  18.328  66.685  1.00  0.00    -0.364 C  
HETATM    3  N   UNL     1     -10.312  18.299  68.073  1.00  0.00    -0.386 NA 
HETATM    4  C   UNL     1      -8.486  18.693  66.516  1.00  0.00    -0.302 C  
HETATM    5  C   UNL     1     -10.401  17.012  68.559  1.00  0.00    -0.359 C  
HETATM    6  N   UNL     1     -10.349  16.127  67.502  1.00  0.00    -0.280 N  
HETATM    7  O   UNL     1     -10.502  16.807  69.757  1.00  0.00    -0.250 OA 
HETATM    8  C   UNL     1     -10.160  16.846  66.334  1.00  0.00    -0.322 C  
HETATM    9  O   UNL     1     -10.080  16.437  65.181  1.00  0.00    -0.529 OA 
ENDROOT
BRANCH   6  10
HETATM   10  C   UNL     1     -10.467  14.701  67.599  1.00  0.00    -0.243 A  
HETATM   11  C   UNL     1     -11.136  14.081  68.677  1.00  0.00    -0.286 A  
HETATM   12  C   UNL     1     -11.264  12.675  68.795  1.00  0.00    -0.325 A  
HETATM   13  C   UNL     1     -12.004  12.076  69.963  1.00  0.00    -0.324 C  
HETATM   14  C   UNL     1     -10.706  11.884  67.788  1.00  0.00    -0.207 A  
HETATM   15  F   UNL     1     -12.981  11.219  69.568  1.00  0.00    -0.063 F  
HETATM   16  N   UNL     1     -10.803  10.433  67.824  1.00  0.00    -0.276 N  
HETATM   17  F   UNL     1     -12.628  13.008  70.738  1.00  0.00    -0.393 F  
HETATM   18  C   UNL     1     -10.041  12.456  66.704  1.00  0.00    -0.234 A  
HETATM   19  F   UNL     1     -11.196  11.387  70.809  1.00  0.00    -0.113 F  
HETATM   20  C   UNL     1      -9.923  13.850  66.622  1.00  0.00    -0.279 A  
HETATM   21  O   UNL     1     -10.308   9.860  68.799  1.00  0.00    -0.186 OA 
HETATM   22  O   UNL     1     -11.345   9.886  66.857  1.00  0.00     0.096 OA 
ENDBRANCH   6  10
TORSDOF 1
ENDMDL
MODEL       88
REMARK 921   NORMALIZED FREE ENERGY PREDICTED BY IDOCK:   -5.18 KCAL/MOL
REMARK 922        TOTAL FREE ENERGY PREDICTED BY IDOCK:   -5.65 KCAL/MOL
REMARK 923 INTER-LIGAND FREE ENERGY PREDICTED BY IDOCK:   -5.41 KCAL/MOL
REMARK 924 INTRA-LIGAND FREE ENERGY PREDICTED BY IDOCK:   -0.24 KCAL/MOL
REMARK 927      BINDING AFFINITY PREDICTED BY RF-SCORE:    0.00 PKD
ROOT
HETATM    1  C   UNL     1      -9.553   7.445  71.404  1.00  0.00    -0.167 C  
HETATM    2  C   UNL     1     -10.747   8.006  70.650  1.00  0.00    -0.228 C  
HETATM    3  N   UNL     1     -11.368   9.095  71.343  1.00  0.00    -0.315 NA 
HETATM    4  C   UNL     1     -11.778   6.929  70.316  1.00  0.00    -0.344 C  
HETATM    5  C   UNL     1     -11.575  10.182  70.521  1.00  0.00    -0.329 C  
HETATM    6  N   UNL     1     -10.910   9.979  69.329  1.00  0.00    -0.221 N  
HETATM    7  O   UNL     1     -12.261  11.119  70.894  1.00  0.00    -0.355 OA 
HETATM    8  C   UNL     1     -10.325   8.724  69.359  1.00  0.00    -0.214 C  
HETATM    9  O   UNL     1      -9.634   8.175  68.508  1.00  0.00    -0.146 OA 
ENDROOT
BRANCH   6  10
HETATM   10  C   UNL     1     -10.841  10.910  68.242  1.00  0.00    -0.225 A  
HETATM   11  C   UNL     1     -10.329  12.215  68.410  1.00  0.00    -0.236 A  
HETATM   12  C   UNL     1     -10.252  13.153  67.350  1.00  0.00    -0.232 A  
HETATM   13  C   UNL     1      -9.682  14.526  67.593  1.00  0.00    -0.215 C  
HETATM   14  C   UNL     1     -10.699  12.748  66.090  1.00  0.00    -0.275 A  
HETATM   15  F   UNL     1      -8.684  14.830  66.722  1.00  0.00    -0.229 F  
HETATM   16  N   UNL     1     -10.643  13.644  64.944  1.00  0.00    -0.384 N  
HETATM   17  F   UNL     1      -9.138  14.670  68.834  1.00  0.00    -0.184 F  
HETATM   18  C   UNL     1     -11.207  11.467  65.880  1.00  0.00    -0.239 A  
HETATM   19  F   UNL     1     -10.607  15.514  67.489  1.00  0.00    -0.268 F  
HETATM   20  C   UNL     1     -11.278  10.567  66.950  1.00  0.00     0.003 A  
HETATM   21  O   UNL     1     -11.271  14.703  65.027  1.00  0.00    -0.347 OA 
HETATM   22  O   UNL     1      -9.997  13.256  63.964  1.00  0.00    -0.264 OA 
ENDBRANCH   6  10
TORSDOF 1
ENDMDL
MODEL       89
REMARK 921   NORMALIZED FREE ENERGY PREDICTED BY IDOCK:   -5.18 KCAL/MOL
REMARK 922        TOTAL FREE ENERGY PREDICTED BY IDOCK:   -5.65 KCAL/MOL
REMARK 923 INTER-LIGAND FREE ENERGY PREDICTED BY IDOCK:   -5.24 KCAL/MOL
REMARK 924 INTRA-LIGAND FREE ENERGY PREDICTED BY IDOCK:   -0.40 KCAL/MOL
REMARK 927      BINDING AFFINITY PREDICTED BY RF-SCORE:    0.00 PKD
ROOT
HETATM    1  C   UNL     1     -12.282  13.860  66.170  1.00  0.00    -0.498 C  
HETATM    2  C   UNL     1     -11.363  13.604  67.354  1.00  0.00    -0.315 C  
HETATM    3  N   UNL     1     -12.087  13.411  68.574  1.00  0.00    -0.318 NA 
HETATM    4  C   UNL     1     -10.317  14.704  67.522  1.00  0.00    -0.234 C  
HETATM    5  C   UNL     1     -11.668  12.287  69.253  1.00  0.00    -0.330 C  
HETATM    6  N   UNL     1     -10.831  11.553  68.438  1.00  0.00    -0.198 N  
HETATM    7  O   UNL     1     -12.041  12.078  70.396  1.00  0.00    -0.351 OA 
HETATM    8  C   UNL     1     -10.659  12.243  67.249  1.00  0.00    -0.224 C  
HETATM    9  O   UNL     1     -10.008  11.924  66.260  1.00  0.00    -0.211 OA 
ENDROOT
BRANCH   6  10
HETATM   10  C   UNL     1     -10.237  10.291  68.769  1.00  0.00    -0.192 A  
HETATM   11  C   UNL     1     -10.695   9.081  68.203  1.00  0.00    -0.165 A  
HETATM   12  C   UNL     1     -10.124   7.823  68.515  1.00  0.00    -0.216 A  
HETATM   13  C   UNL     1     -10.650   6.569  67.866  1.00  0.00    -0.252 C  
HETATM   14  C   UNL     1      -9.057   7.798  69.417  1.00  0.00    -0.146 A  
HETATM   15  F   UNL     1      -9.665   5.847  67.269  1.00  0.00    -0.116 F  
HETATM   16  N   UNL     1      -8.405   6.550  69.783  1.00  0.00    -0.126 N  
HETATM   17  F   UNL     1     -11.566   6.816  66.887  1.00  0.00    -0.421 F  
HETATM   18  C   UNL     1      -8.571   8.970  69.995  1.00  0.00    -0.157 A  
HETATM   19  F   UNL     1     -11.272   5.737  68.739  1.00  0.00    -0.353 F  
HETATM   20  C   UNL     1      -9.164  10.198  69.672  1.00  0.00    -0.206 A  
HETATM   21  O   UNL     1      -9.106   5.682  70.309  1.00  0.00    -0.139 OA 
HETATM   22  O   UNL     1      -7.189   6.472  69.568  1.00  0.00    -0.077 OA 
ENDBRANCH   6  10
TORSDOF 1
ENDMDL
MODEL       90
REMARK 921   NORMALIZED FREE ENERGY PREDICTED BY IDOCK:   -5.18 KCAL/MOL
REMARK 922        TOTAL FREE ENERGY PREDICTED BY IDOCK:   -5.65 KCAL/MOL
REMARK 923 INTER-LIGAND FREE ENERGY PREDICTED BY IDOCK:   -5.43 KCAL/MOL
REMARK 924 INTRA-LIGAND FREE ENERGY PREDICTED BY IDOCK:   -0.21 KCAL/MOL
REMARK 927      BINDING AFFINITY PREDICTED BY RF-SCORE:    0.00 PKD
ROOT
HETATM    1  C   UNL     1     -10.296   7.755  67.789  1.00  0.00    -0.284 C  
HETATM    2  C   UNL     1      -9.458   8.841  67.133  1.00  0.00    -0.162 C  
HETATM    3  N   UNL     1     -10.032   9.306  65.907  1.00  0.00    -0.289 NA 
HETATM    4  C   UNL     1      -8.012   8.401  66.913  1.00  0.00    -0.099 C  
HETATM    5  C   UNL     1     -10.094  10.682  65.853  1.00  0.00    -0.261 C  
HETATM    6  N   UNL     1      -9.796  11.196  67.098  1.00  0.00    -0.185 N  
HETATM    7  O   UNL     1     -10.376  11.249  64.810  1.00  0.00    -0.270 OA 
HETATM    8  C   UNL     1      -9.475  10.146  67.942  1.00  0.00    -0.141 C  
HETATM    9  O   UNL     1      -9.172  10.177  69.130  1.00  0.00    -0.174 OA 
ENDROOT
BRANCH   6  10
HETATM   10  C   UNL     1      -9.811  12.584  67.455  1.00  0.00    -0.201 A  
HETATM   11  C   UNL     1     -10.599  13.071  68.520  1.00  0.00    -0.274 A  
HETATM   12  C   UNL     1     -10.631  14.438  68.890  1.00  0.00    -0.250 A  
HETATM   13  C   UNL     1     -11.483  14.891  70.047  1.00  0.00    -0.278 C  
HETATM   14  C   UNL     1      -9.834  15.327  68.165  1.00  0.00    -0.217 A  
HETATM   15  F   UNL     1     -10.772  15.598  70.964  1.00  0.00    -0.341 F  
HETATM   16  N   UNL     1      -9.797  16.746  68.487  1.00  0.00    -0.246 N  
HETATM   17  F   UNL     1     -12.043  13.858  70.738  1.00  0.00    -0.364 F  
HETATM   18  C   UNL     1      -9.037  14.887  67.109  1.00  0.00    -0.236 A  
HETATM   19  F   UNL     1     -12.523  15.676  69.667  1.00  0.00    -0.359 F  
HETATM   20  C   UNL     1      -9.035  13.530  66.762  1.00  0.00    -0.188 A  
HETATM   21  O   UNL     1     -10.862  17.365  68.424  1.00  0.00    -0.336 OA 
HETATM   22  O   UNL     1      -8.691  17.226  68.766  1.00  0.00    -0.276 OA 
ENDBRANCH   6  10
TORSDOF 1
ENDMDL
MODEL       91
REMARK 921   NORMALIZED FREE ENERGY PREDICTED BY IDOCK:   -5.17 KCAL/MOL
REMARK 922        TOTAL FREE ENERGY PREDICTED BY IDOCK:   -5.64 KCAL/MOL
REMARK 923 INTER-LIGAND FREE ENERGY PREDICTED BY IDOCK:   -5.38 KCAL/MOL
REMARK 924 INTRA-LIGAND FREE ENERGY PREDICTED BY IDOCK:   -0.27 KCAL/MOL
REMARK 927      BINDING AFFINITY PREDICTED BY RF-SCORE:    0.00 PKD
ROOT
HETATM    1  C   UNL     1      -8.295   4.989  72.010  1.00  0.00    -0.124 C  
HETATM    2  C   UNL     1      -9.329   5.102  70.901  1.00  0.00    -0.150 C  
HETATM    3  N   UNL     1     -10.624   5.460  71.398  1.00  0.00    -0.232 NA 
HETATM    4  C   UNL     1      -9.414   3.832  70.057  1.00  0.00    -0.264 C  
HETATM    5  C   UNL     1     -11.179   6.505  70.691  1.00  0.00    -0.329 C  
HETATM    6  N   UNL     1     -10.221   7.048  69.861  1.00  0.00    -0.197 N  
HETATM    7  O   UNL     1     -12.348   6.811  70.854  1.00  0.00    -0.381 OA 
HETATM    8  C   UNL     1      -9.058   6.305  69.985  1.00  0.00    -0.148 C  
HETATM    9  O   UNL     1      -7.975   6.470  69.435  1.00  0.00    -0.110 OA 
ENDROOT
BRANCH   6  10
HETATM   10  C   UNL     1     -10.401   8.186  69.008  1.00  0.00    -0.218 A  
HETATM   11  C   UNL     1     -10.767   9.450  69.521  1.00  0.00    -0.238 A  
HETATM   12  C   UNL     1     -10.951  10.588  68.698  1.00  0.00    -0.294 A  
HETATM   13  C   UNL     1     -11.327  11.913  69.309  1.00  0.00    -0.277 C  
HETATM   14  C   UNL     1     -10.750  10.437  67.324  1.00  0.00    -0.273 A  
HETATM   15  F   UNL     1     -10.482  12.910  68.938  1.00  0.00    -0.233 F  
HETATM   16  N   UNL     1     -10.905  11.558  66.409  1.00  0.00    -0.278 N  
HETATM   17  F   UNL     1     -11.302  11.902  70.672  1.00  0.00    -0.129 F  
HETATM   18  C   UNL     1     -10.383   9.209  66.777  1.00  0.00    -0.308 A  
HETATM   19  F   UNL     1     -12.580  12.317  68.976  1.00  0.00    -0.059 F  
HETATM   20  C   UNL     1     -10.218   8.099  67.617  1.00  0.00    -0.296 A  
HETATM   21  O   UNL     1     -12.011  12.104  66.371  1.00  0.00    -0.611 OA 
HETATM   22  O   UNL     1      -9.924  11.853  65.716  1.00  0.00    -0.225 OA 
ENDBRANCH   6  10
TORSDOF 1
ENDMDL
MODEL       92
REMARK 921   NORMALIZED FREE ENERGY PREDICTED BY IDOCK:   -5.16 KCAL/MOL
REMARK 922        TOTAL FREE ENERGY PREDICTED BY IDOCK:   -5.63 KCAL/MOL
REMARK 923 INTER-LIGAND FREE ENERGY PREDICTED BY IDOCK:   -5.28 KCAL/MOL
REMARK 924 INTRA-LIGAND FREE ENERGY PREDICTED BY IDOCK:   -0.35 KCAL/MOL
REMARK 927      BINDING AFFINITY PREDICTED BY RF-SCORE:    0.00 PKD
ROOT
HETATM    1  C   UNL     1     -11.343   6.278  69.544  1.00  0.00    -0.475 C  
HETATM    2  C   UNL     1     -10.273   7.200  68.982  1.00  0.00    -0.190 C  
HETATM    3  N   UNL     1     -10.431   7.425  67.576  1.00  0.00    -0.245 NA 
HETATM    4  C   UNL     1      -8.862   6.703  69.288  1.00  0.00    -0.133 C  
HETATM    5  C   UNL     1     -10.374   8.764  67.256  1.00  0.00    -0.290 C  
HETATM    6  N   UNL     1     -10.413   9.508  68.417  1.00  0.00    -0.217 N  
HETATM    7  O   UNL     1     -10.299   9.120  66.091  1.00  0.00    -0.221 OA 
HETATM    8  C   UNL     1     -10.429   8.640  69.495  1.00  0.00    -0.220 C  
HETATM    9  O   UNL     1     -10.481   8.898  70.693  1.00  0.00    -0.199 OA 
ENDROOT
BRANCH   6  10
HETATM   10  C   UNL     1     -10.428  10.939  68.492  1.00  0.00    -0.188 A  
HETATM   11  C   UNL     1      -9.320  11.718  68.091  1.00  0.00    -0.190 A  
HETATM   12  C   UNL     1      -9.312  13.133  68.157  1.00  0.00    -0.217 A  
HETATM   13  C   UNL     1      -8.103  13.906  67.699  1.00  0.00    -0.177 C  
HETATM   14  C   UNL     1     -10.461  13.769  68.635  1.00  0.00    -0.239 A  
HETATM   15  F   UNL     1      -8.418  14.859  66.782  1.00  0.00    -0.236 F  
HETATM   16  N   UNL     1     -10.541  15.219  68.723  1.00  0.00    -0.233 N  
HETATM   17  F   UNL     1      -7.160  13.124  67.102  1.00  0.00    -0.154 F  
HETATM   18  C   UNL     1     -11.577  13.038  69.037  1.00  0.00    -0.367 A  
HETATM   19  F   UNL     1      -7.458  14.537  68.714  1.00  0.00    -0.106 F  
HETATM   20  C   UNL     1     -11.551  11.639  68.967  1.00  0.00    -0.379 A  
HETATM   21  O   UNL     1      -9.710  15.786  69.438  1.00  0.00    -0.254 OA 
HETATM   22  O   UNL     1     -11.459  15.766  68.100  1.00  0.00    -0.352 OA 
ENDBRANCH   6  10
TORSDOF 1
ENDMDL
MODEL       93
REMARK 921   NORMALIZED FREE ENERGY PREDICTED BY IDOCK:   -5.14 KCAL/MOL
REMARK 922        TOTAL FREE ENERGY PREDICTED BY IDOCK:   -5.61 KCAL/MOL
REMARK 923 INTER-LIGAND FREE ENERGY PREDICTED BY IDOCK:   -5.88 KCAL/MOL
REMARK 924 INTRA-LIGAND FREE ENERGY PREDICTED BY IDOCK:    0.27 KCAL/MOL
REMARK 927      BINDING AFFINITY PREDICTED BY RF-SCORE:    0.00 PKD
ROOT
HETATM    1  C   UNL     1      -9.859  20.429  67.577  1.00  0.00    -0.564 C  
HETATM    2  C   UNL     1      -8.856  19.320  67.305  1.00  0.00    -0.292 C  
HETATM    3  N   UNL     1      -8.260  18.817  68.507  1.00  0.00    -0.338 NA 
HETATM    4  C   UNL     1      -7.776  19.747  66.313  1.00  0.00    -0.331 C  
HETATM    5  C   UNL     1      -8.295  17.440  68.566  1.00  0.00    -0.271 C  
HETATM    6  N   UNL     1      -9.102  16.966  67.553  1.00  0.00    -0.220 N  
HETATM    7  O   UNL     1      -7.666  16.841  69.422  1.00  0.00    -0.157 OA 
HETATM    8  C   UNL     1      -9.538  18.041  66.797  1.00  0.00    -0.303 C  
HETATM    9  O   UNL     1     -10.284  18.048  65.824  1.00  0.00    -0.574 OA 
ENDROOT
BRANCH   6  10
HETATM   10  C   UNL     1      -9.430  15.590  67.321  1.00  0.00    -0.213 A  
HETATM   11  C   UNL     1      -8.558  14.544  67.693  1.00  0.00    -0.184 A  
HETATM   12  C   UNL     1      -8.859  13.177  67.472  1.00  0.00    -0.199 A  
HETATM   13  C   UNL     1      -7.891  12.107  67.907  1.00  0.00    -0.147 C  
HETATM   14  C   UNL     1     -10.081  12.870  66.868  1.00  0.00    -0.241 A  
HETATM   15  F   UNL     1      -8.480  11.170  68.696  1.00  0.00    -0.133 F  
HETATM   16  N   UNL     1     -10.475  11.492  66.617  1.00  0.00    -0.229 N  
HETATM   17  F   UNL     1      -6.846  12.592  68.634  1.00  0.00    -0.069 F  
HETATM   18  C   UNL     1     -10.973  13.872  66.490  1.00  0.00    -0.300 A  
HETATM   19  F   UNL     1      -7.327  11.444  66.865  1.00  0.00    -0.118 F  
HETATM   20  C   UNL     1     -10.641  15.214  66.713  1.00  0.00    -0.298 A  
HETATM   21  O   UNL     1      -9.739  10.819  65.890  1.00  0.00    -0.204 OA 
HETATM   22  O   UNL     1     -11.536  11.113  67.127  1.00  0.00    -0.495 OA 
ENDBRANCH   6  10
TORSDOF 1
ENDMDL
MODEL       94
REMARK 921   NORMALIZED FREE ENERGY PREDICTED BY IDOCK:   -5.13 KCAL/MOL
REMARK 922        TOTAL FREE ENERGY PREDICTED BY IDOCK:   -5.59 KCAL/MOL
REMARK 923 INTER-LIGAND FREE ENERGY PREDICTED BY IDOCK:   -5.16 KCAL/MOL
REMARK 924 INTRA-LIGAND FREE ENERGY PREDICTED BY IDOCK:   -0.43 KCAL/MOL
REMARK 927      BINDING AFFINITY PREDICTED BY RF-SCORE:    0.00 PKD
ROOT
HETATM    1  C   UNL     1      -9.646   4.022  71.721  1.00  0.00    -0.223 C  
HETATM    2  C   UNL     1     -10.334   5.270  72.253  1.00  0.00    -0.212 C  
HETATM    3  N   UNL     1      -9.452   6.089  73.029  1.00  0.00    -0.143 NA 
HETATM    4  C   UNL     1     -11.595   4.940  73.049  1.00  0.00    -0.284 C  
HETATM    5  C   UNL     1      -9.499   7.411  72.642  1.00  0.00    -0.153 C  
HETATM    6  N   UNL     1     -10.213   7.512  71.466  1.00  0.00    -0.188 N  
HETATM    7  O   UNL     1      -8.960   8.273  73.316  1.00  0.00    -0.250 OA 
HETATM    8  C   UNL     1     -10.684   6.255  71.128  1.00  0.00    -0.249 C  
HETATM    9  O   UNL     1     -11.342   5.915  70.150  1.00  0.00    -0.338 OA 
ENDROOT
BRANCH   6  10
HETATM   10  C   UNL     1     -10.433   8.718  70.723  1.00  0.00    -0.219 A  
HETATM   11  C   UNL     1      -9.456   9.243  69.849  1.00  0.00    -0.214 A  
HETATM   12  C   UNL     1      -9.651  10.433  69.105  1.00  0.00    -0.226 A  
HETATM   13  C   UNL     1      -8.574  10.933  68.178  1.00  0.00    -0.133 C  
HETATM   14  C   UNL     1     -10.871  11.098  69.249  1.00  0.00    -0.229 A  
HETATM   15  F   UNL     1      -9.038  11.149  66.919  1.00  0.00    -0.151 F  
HETATM   16  N   UNL     1     -11.159  12.319  68.512  1.00  0.00    -0.232 N  
HETATM   17  F   UNL     1      -7.538  10.059  68.038  1.00  0.00    -0.086 F  
HETATM   18  C   UNL     1     -11.864  10.611  70.098  1.00  0.00    -0.421 A  
HETATM   19  F   UNL     1      -8.010  12.096  68.593  1.00  0.00    -0.131 F  
HETATM   20  C   UNL     1     -11.637   9.437  70.826  1.00  0.00    -0.364 A  
HETATM   21  O   UNL     1     -10.407  13.279  68.700  1.00  0.00    -0.239 OA 
HETATM   22  O   UNL     1     -12.156  12.308  67.781  1.00  0.00    -0.478 OA 
ENDBRANCH   6  10
TORSDOF 1
ENDMDL
MODEL       95
REMARK 921   NORMALIZED FREE ENERGY PREDICTED BY IDOCK:   -5.12 KCAL/MOL
REMARK 922        TOTAL FREE ENERGY PREDICTED BY IDOCK:   -5.58 KCAL/MOL
REMARK 923 INTER-LIGAND FREE ENERGY PREDICTED BY IDOCK:   -5.14 KCAL/MOL
REMARK 924 INTRA-LIGAND FREE ENERGY PREDICTED BY IDOCK:   -0.44 KCAL/MOL
REMARK 927      BINDING AFFINITY PREDICTED BY RF-SCORE:    0.00 PKD
ROOT
HETATM    1  C   UNL     1      -7.759   9.843  64.484  1.00  0.00    -0.142 C  
HETATM    2  C   UNL     1      -7.645   9.372  65.925  1.00  0.00    -0.099 C  
HETATM    3  N   UNL     1      -7.081  10.372  66.783  1.00  0.00    -0.100 NA 
HETATM    4  C   UNL     1      -6.866   8.064  66.047  1.00  0.00    -0.057 C  
HETATM    5  C   UNL     1      -7.829  10.555  67.926  1.00  0.00    -0.105 C  
HETATM    6  N   UNL     1      -9.026   9.883  67.795  1.00  0.00    -0.131 N  
HETATM    7  O   UNL     1      -7.396  11.225  68.848  1.00  0.00    -0.101 OA 
HETATM    8  C   UNL     1      -9.022   9.208  66.585  1.00  0.00    -0.137 C  
HETATM    9  O   UNL     1      -9.900   8.513  66.087  1.00  0.00    -0.244 OA 
ENDROOT
BRANCH   6  10
HETATM   10  C   UNL     1     -10.092   9.879  68.753  1.00  0.00    -0.174 A  
HETATM   11  C   UNL     1     -10.182   8.897  69.763  1.00  0.00    -0.207 A  
HETATM   12  C   UNL     1     -11.226   8.873  70.721  1.00  0.00    -0.321 A  
HETATM   13  C   UNL     1     -11.257   7.805  71.783  1.00  0.00    -0.256 C  
HETATM   14  C   UNL     1     -12.195   9.877  70.652  1.00  0.00    -0.238 A  
HETATM   15  F   UNL     1     -11.352   8.326  73.034  1.00  0.00    -0.430 F  
HETATM   16  N   UNL     1     -13.294   9.934  71.603  1.00  0.00    -0.394 N  
HETATM   17  F   UNL     1     -10.137   7.029  71.796  1.00  0.00    -0.184 F  
HETATM   18  C   UNL     1     -12.141  10.868  69.673  1.00  0.00    -0.400 A  
HETATM   19  F   UNL     1     -12.293   6.939  71.639  1.00  0.00    -0.335 F  
HETATM   20  C   UNL     1     -11.101  10.859  68.735  1.00  0.00    -0.310 A  
HETATM   21  O   UNL     1     -14.048   8.958  71.651  1.00  0.00    -0.386 OA 
HETATM   22  O   UNL     1     -13.406  10.972  72.266  1.00  0.00    -0.390 OA 
ENDBRANCH   6  10
TORSDOF 1
ENDMDL
MODEL       96
REMARK 921   NORMALIZED FREE ENERGY PREDICTED BY IDOCK:   -5.10 KCAL/MOL
REMARK 922        TOTAL FREE ENERGY PREDICTED BY IDOCK:   -5.57 KCAL/MOL
REMARK 923 INTER-LIGAND FREE ENERGY PREDICTED BY IDOCK:   -5.14 KCAL/MOL
REMARK 924 INTRA-LIGAND FREE ENERGY PREDICTED BY IDOCK:   -0.42 KCAL/MOL
REMARK 927      BINDING AFFINITY PREDICTED BY RF-SCORE:    0.00 PKD
ROOT
HETATM    1  C   UNL     1     -10.193  11.055  64.332  1.00  0.00    -0.409 C  
HETATM    2  C   UNL     1      -9.208  10.758  65.451  1.00  0.00    -0.205 C  
HETATM    3  N   UNL     1      -9.060  11.859  66.354  1.00  0.00    -0.214 NA 
HETATM    4  C   UNL     1      -7.845  10.316  64.920  1.00  0.00    -0.134 C  
HETATM    5  C   UNL     1      -9.175  11.469  67.671  1.00  0.00    -0.171 C  
HETATM    6  N   UNL     1      -9.629  10.168  67.718  1.00  0.00    -0.147 N  
HETATM    7  O   UNL     1      -8.888  12.239  68.573  1.00  0.00    -0.156 OA 
HETATM    8  C   UNL     1      -9.745   9.695  66.421  1.00  0.00    -0.224 C  
HETATM    9  O   UNL     1     -10.132   8.599  66.032  1.00  0.00    -0.189 OA 
ENDROOT
BRANCH   6  10
HETATM   10  C   UNL     1      -9.926   9.428  68.909  1.00  0.00    -0.179 A  
HETATM   11  C   UNL     1     -11.115   9.641  69.641  1.00  0.00    -0.223 A  
HETATM   12  C   UNL     1     -11.429   8.923  70.822  1.00  0.00    -0.319 A  
HETATM   13  C   UNL     1     -12.722   9.188  71.549  1.00  0.00    -0.341 C  
HETATM   14  C   UNL     1     -10.516   7.961  71.260  1.00  0.00    -0.203 A  
HETATM   15  F   UNL     1     -13.438   8.052  71.755  1.00  0.00    -0.326 F  
HETATM   16  N   UNL     1     -10.767   7.170  72.456  1.00  0.00    -0.235 N  
HETATM   17  F   UNL     1     -13.556  10.027  70.872  1.00  0.00    -0.435 F  
HETATM   18  C   UNL     1      -9.333   7.716  70.565  1.00  0.00    -0.163 A  
HETATM   19  F   UNL     1     -12.541   9.764  72.765  1.00  0.00    -0.227 F  
HETATM   20  C   UNL     1      -9.047   8.450  69.406  1.00  0.00    -0.154 A  
HETATM   21  O   UNL     1     -10.908   7.783  73.517  1.00  0.00    -0.275 OA 
HETATM   22  O   UNL     1     -10.786   5.941  72.317  1.00  0.00    -0.214 OA 
ENDBRANCH   6  10
TORSDOF 1
ENDMDL
MODEL       97
REMARK 921   NORMALIZED FREE ENERGY PREDICTED BY IDOCK:   -5.09 KCAL/MOL
REMARK 922        TOTAL FREE ENERGY PREDICTED BY IDOCK:   -5.56 KCAL/MOL
REMARK 923 INTER-LIGAND FREE ENERGY PREDICTED BY IDOCK:   -5.16 KCAL/MOL
REMARK 924 INTRA-LIGAND FREE ENERGY PREDICTED BY IDOCK:   -0.40 KCAL/MOL
REMARK 927      BINDING AFFINITY PREDICTED BY RF-SCORE:    0.00 PKD
ROOT
HETATM    1  C   UNL     1      -8.863   4.260  65.918  1.00  0.00    -0.120 C  
HETATM    2  C   UNL     1      -8.439   5.461  66.748  1.00  0.00    -0.107 C  
HETATM    3  N   UNL     1      -7.329   6.158  66.171  1.00  0.00    -0.079 NA 
HETATM    4  C   UNL     1      -8.138   5.084  68.198  1.00  0.00    -0.086 C  
HETATM    5  C   UNL     1      -7.551   7.516  66.099  1.00  0.00    -0.088 C  
HETATM    6  N   UNL     1      -8.874   7.773  66.392  1.00  0.00    -0.148 N  
HETATM    7  O   UNL     1      -6.642   8.278  65.813  1.00  0.00    -0.052 OA 
HETATM    8  C   UNL     1      -9.492   6.578  66.720  1.00  0.00    -0.158 C  
HETATM    9  O   UNL     1     -10.663   6.373  67.023  1.00  0.00    -0.282 OA 
ENDROOT
BRANCH   6  10
HETATM   10  C   UNL     1      -9.501   9.062  66.367  1.00  0.00    -0.226 A  
HETATM   11  C   UNL     1      -9.777   9.732  65.155  1.00  0.00    -0.338 A  
HETATM   12  C   UNL     1     -10.394  11.006  65.105  1.00  0.00    -0.346 A  
HETATM   13  C   UNL     1     -10.675  11.661  63.778  1.00  0.00    -0.419 C  
HETATM   14  C   UNL     1     -10.746  11.607  66.317  1.00  0.00    -0.272 A  
HETATM   15  F   UNL     1     -11.976  12.034  63.653  1.00  0.00    -0.472 F  
HETATM   16  N   UNL     1     -11.396  12.908  66.356  1.00  0.00    -0.304 N  
HETATM   17  F   UNL     1     -10.426  10.847  62.714  1.00  0.00    -0.260 F  
HETATM   18  C   UNL     1     -10.495  10.978  67.535  1.00  0.00    -0.244 A  
HETATM   19  F   UNL     1      -9.927  12.774  63.563  1.00  0.00    -0.356 F  
HETATM   20  C   UNL     1      -9.875   9.722  67.551  1.00  0.00    -0.209 A  
HETATM   21  O   UNL     1     -10.786  13.856  65.854  1.00  0.00    -0.283 OA 
HETATM   22  O   UNL     1     -12.495  12.966  66.920  1.00  0.00    -0.308 OA 
ENDBRANCH   6  10
TORSDOF 1
ENDMDL
MODEL       98
REMARK 921   NORMALIZED FREE ENERGY PREDICTED BY IDOCK:   -5.02 KCAL/MOL
REMARK 922        TOTAL FREE ENERGY PREDICTED BY IDOCK:   -5.48 KCAL/MOL
REMARK 923 INTER-LIGAND FREE ENERGY PREDICTED BY IDOCK:   -5.05 KCAL/MOL
REMARK 924 INTRA-LIGAND FREE ENERGY PREDICTED BY IDOCK:   -0.43 KCAL/MOL
REMARK 927      BINDING AFFINITY PREDICTED BY RF-SCORE:    0.00 PKD
ROOT
HETATM    1  C   UNL     1     -12.719  13.885  65.355  1.00  0.00    -0.525 C  
HETATM    2  C   UNL     1     -11.253  13.643  65.679  1.00  0.00    -0.297 C  
HETATM    3  N   UNL     1     -11.012  13.569  67.088  1.00  0.00    -0.287 NA 
HETATM    4  C   UNL     1     -10.339  14.683  65.034  1.00  0.00    -0.432 C  
HETATM    5  C   UNL     1     -10.262  12.464  67.428  1.00  0.00    -0.208 C  
HETATM    6  N   UNL     1     -10.163  11.632  66.333  1.00  0.00    -0.215 N  
HETATM    7  O   UNL     1      -9.804  12.348  68.553  1.00  0.00    -0.212 OA 
HETATM    8  C   UNL     1     -10.798  12.237  65.261  1.00  0.00    -0.293 C  
HETATM    9  O   UNL     1     -10.949  11.819  64.119  1.00  0.00    -0.324 OA 
ENDROOT
BRANCH   6  10
HETATM   10  C   UNL     1      -9.507  10.357  66.308  1.00  0.00    -0.171 A  
HETATM   11  C   UNL     1     -10.167   9.173  66.702  1.00  0.00    -0.328 A  
HETATM   12  C   UNL     1      -9.540   7.902  66.686  1.00  0.00    -0.293 A  
HETATM   13  C   UNL     1     -10.305   6.674  67.106  1.00  0.00    -0.252 C  
HETATM   14  C   UNL     1      -8.214   7.837  66.251  1.00  0.00    -0.122 A  
HETATM   15  F   UNL     1     -10.263   5.695  66.164  1.00  0.00    -0.202 F  
HETATM   16  N   UNL     1      -7.500   6.571  66.192  1.00  0.00    -0.080 N  
HETATM   17  F   UNL     1     -11.629   6.914  67.323  1.00  0.00    -0.318 F  
HETATM   18  C   UNL     1      -7.528   8.981  65.849  1.00  0.00    -0.094 A  
HETATM   19  F   UNL     1      -9.845   6.127  68.260  1.00  0.00    -0.118 F  
HETATM   20  C   UNL     1      -8.173  10.224  65.885  1.00  0.00    -0.148 A  
HETATM   21  O   UNL     1      -7.375   5.945  67.248  1.00  0.00    -0.074 OA 
HETATM   22  O   UNL     1      -7.044   6.238  65.091  1.00  0.00    -0.057 OA 
ENDBRANCH   6  10
TORSDOF 1
ENDMDL
MODEL       99
REMARK 921   NORMALIZED FREE ENERGY PREDICTED BY IDOCK:   -5.01 KCAL/MOL
REMARK 922        TOTAL FREE ENERGY PREDICTED BY IDOCK:   -5.47 KCAL/MOL
REMARK 923 INTER-LIGAND FREE ENERGY PREDICTED BY IDOCK:   -5.21 KCAL/MOL
REMARK 924 INTRA-LIGAND FREE ENERGY PREDICTED BY IDOCK:   -0.25 KCAL/MOL
REMARK 927      BINDING AFFINITY PREDICTED BY RF-SCORE:    0.00 PKD
ROOT
HETATM    1  C   UNL     1      -8.582   4.499  70.862  1.00  0.00    -0.115 C  
HETATM    2  C   UNL     1      -9.624   5.074  69.916  1.00  0.00    -0.176 C  
HETATM    3  N   UNL     1     -10.880   5.306  70.564  1.00  0.00    -0.139 NA 
HETATM    4  C   UNL     1      -9.817   4.209  68.672  1.00  0.00    -0.082 C  
HETATM    5  C   UNL     1     -11.369   6.569  70.311  1.00  0.00    -0.395 C  
HETATM    6  N   UNL     1     -10.388   7.317  69.694  1.00  0.00    -0.215 N  
HETATM    7  O   UNL     1     -12.510   6.866  70.625  1.00  0.00    -0.321 OA 
HETATM    8  C   UNL     1      -9.282   6.509  69.490  1.00  0.00    -0.142 C  
HETATM    9  O   UNL     1      -8.199   6.796  68.991  1.00  0.00    -0.115 OA 
ENDROOT
BRANCH   6  10
HETATM   10  C   UNL     1     -10.499   8.697  69.322  1.00  0.00    -0.217 A  
HETATM   11  C   UNL     1     -10.310   9.126  67.990  1.00  0.00    -0.272 A  
HETATM   12  C   UNL     1     -10.413  10.484  67.599  1.00  0.00    -0.276 A  
HETATM   13  C   UNL     1     -10.214  10.876  66.158  1.00  0.00    -0.249 C  
HETATM   14  C   UNL     1     -10.725  11.423  68.586  1.00  0.00    -0.206 A  
HETATM   15  F   UNL     1     -11.255  11.603  65.674  1.00  0.00    -0.350 F  
HETATM   16  N   UNL     1     -10.864  12.837  68.267  1.00  0.00    -0.238 N  
HETATM   17  F   UNL     1     -10.098   9.805  65.322  1.00  0.00    -0.376 F  
HETATM   18  C   UNL     1     -10.925  11.041  69.911  1.00  0.00    -0.218 A  
HETATM   19  F   UNL     1      -9.093  11.614  65.956  1.00  0.00    -0.205 F  
HETATM   20  C   UNL     1     -10.806   9.691  70.267  1.00  0.00    -0.339 A  
HETATM   21  O   UNL     1      -9.880  13.403  67.783  1.00  0.00    -0.221 OA 
HETATM   22  O   UNL     1     -11.947  13.367  68.541  1.00  0.00    -0.348 OA 
ENDBRANCH   6  10
TORSDOF 1
ENDMDL
MODEL      100
REMARK 921   NORMALIZED FREE ENERGY PREDICTED BY IDOCK:   -4.97 KCAL/MOL
REMARK 922        TOTAL FREE ENERGY PREDICTED BY IDOCK:   -5.43 KCAL/MOL
REMARK 923 INTER-LIGAND FREE ENERGY PREDICTED BY IDOCK:   -5.00 KCAL/MOL
REMARK 924 INTRA-LIGAND FREE ENERGY PREDICTED BY IDOCK:   -0.43 KCAL/MOL
REMARK 927      BINDING AFFINITY PREDICTED BY RF-SCORE:    0.00 PKD
ROOT
HETATM    1  C   UNL     1     -12.327  11.088  69.257  1.00  0.00    -0.160 C  
HETATM    2  C   UNL     1     -12.526  10.548  70.664  1.00  0.00    -0.366 C  
HETATM    3  N   UNL     1     -13.630   9.639  70.748  1.00  0.00    -0.069 NA 
HETATM    4  C   UNL     1     -12.674  11.663  71.697  1.00  0.00    -0.375 C  
HETATM    5  C   UNL     1     -13.292   8.471  71.396  1.00  0.00    -0.217 C  
HETATM    6  N   UNL     1     -11.924   8.430  71.568  1.00  0.00    -0.288 N  
HETATM    7  O   UNL     1     -14.154   7.672  71.722  1.00  0.00    -0.386 OA 
HETATM    8  C   UNL     1     -11.385   9.611  71.086  1.00  0.00    -0.386 C  
HETATM    9  O   UNL     1     -10.210   9.958  71.036  1.00  0.00    -0.168 OA 
ENDROOT
BRANCH   6  10
HETATM   10  C   UNL     1     -11.187   7.349  72.153  1.00  0.00    -0.262 A  
HETATM   11  C   UNL     1     -10.828   6.204  71.409  1.00  0.00    -0.319 A  
HETATM   12  C   UNL     1     -10.101   5.123  71.965  1.00  0.00    -0.253 A  
HETATM   13  C   UNL     1      -9.736   3.936  71.113  1.00  0.00    -0.178 C  
HETATM   14  C   UNL     1      -9.724   5.215  73.308  1.00  0.00    -0.145 A  
HETATM   15  F   UNL     1      -8.405   3.663  71.153  1.00  0.00    -0.064 F  
HETATM   16  N   UNL     1      -8.964   4.156  73.954  1.00  0.00    -0.092 N  
HETATM   17  F   UNL     1     -10.033   4.110  69.794  1.00  0.00    -0.278 F  
HETATM   18  C   UNL     1     -10.054   6.330  74.077  1.00  0.00    -0.302 A  
HETATM   19  F   UNL     1     -10.380   2.798  71.480  1.00  0.00    -0.171 F  
HETATM   20  C   UNL     1     -10.782   7.378  73.499  1.00  0.00    -0.347 A  
HETATM   21  O   UNL     1      -9.478   3.035  73.987  1.00  0.00    -0.087 OA 
HETATM   22  O   UNL     1      -7.876   4.472  74.450  1.00  0.00    -0.090 OA 
ENDBRANCH   6  10
TORSDOF 1
ENDMDL
MODEL      101
REMARK 921   NORMALIZED FREE ENERGY PREDICTED BY IDOCK:   -4.96 KCAL/MOL
REMARK 922        TOTAL FREE ENERGY PREDICTED BY IDOCK:   -5.41 KCAL/MOL
REMARK 923 INTER-LIGAND FREE ENERGY PREDICTED BY IDOCK:   -4.98 KCAL/MOL
REMARK 924 INTRA-LIGAND FREE ENERGY PREDICTED BY IDOCK:   -0.43 KCAL/MOL
REMARK 927      BINDING AFFINITY PREDICTED BY RF-SCORE:    0.00 PKD
ROOT
HETATM    1  C   UNL     1     -11.139  14.055  64.447  1.00  0.00    -0.300 C  
HETATM    2  C   UNL     1     -11.255  12.552  64.255  1.00  0.00    -0.355 C  
HETATM    3  N   UNL     1     -10.143  12.007  63.535  1.00  0.00    -0.433 NA 
HETATM    4  C   UNL     1     -12.570  12.153  63.587  1.00  0.00    -0.616 C  
HETATM    5  C   UNL     1      -9.609  10.903  64.165  1.00  0.00    -0.277 C  
HETATM    6  N   UNL     1     -10.161  10.791  65.424  1.00  0.00    -0.277 N  
HETATM    7  O   UNL     1      -8.785  10.205  63.598  1.00  0.00    -0.176 OA 
HETATM    8  C   UNL     1     -11.106  11.791  65.581  1.00  0.00    -0.285 C  
HETATM    9  O   UNL     1     -11.804  12.047  66.556  1.00  0.00    -0.585 OA 
ENDROOT
BRANCH   6  10
HETATM   10  C   UNL     1      -9.818   9.801  66.402  1.00  0.00    -0.235 A  
HETATM   11  C   UNL     1      -8.802  10.020  67.358  1.00  0.00    -0.132 A  
HETATM   12  C   UNL     1      -8.445   9.057  68.334  1.00  0.00    -0.129 A  
HETATM   13  C   UNL     1      -7.361   9.358  69.336  1.00  0.00    -0.078 C  
HETATM   14  C   UNL     1      -9.144   7.847  68.340  1.00  0.00    -0.135 A  
HETATM   15  F   UNL     1      -7.776   9.167  70.616  1.00  0.00    -0.079 F  
HETATM   16  N   UNL     1      -8.850   6.809  69.316  1.00  0.00    -0.137 N  
HETATM   17  F   UNL     1      -6.925  10.648  69.283  1.00  0.00    -0.059 F  
HETATM   18  C   UNL     1     -10.157   7.593  67.417  1.00  0.00    -0.287 A  
HETATM   19  F   UNL     1      -6.251   8.596  69.166  1.00  0.00    -0.040 F  
HETATM   20  C   UNL     1     -10.480   8.562  66.459  1.00  0.00    -0.104 A  
HETATM   21  O   UNL     1      -7.703   6.355  69.326  1.00  0.00    -0.097 OA 
HETATM   22  O   UNL     1      -9.785   6.440  70.037  1.00  0.00    -0.163 OA 
ENDBRANCH   6  10
TORSDOF 1
ENDMDL
MODEL      102
REMARK 921   NORMALIZED FREE ENERGY PREDICTED BY IDOCK:   -4.95 KCAL/MOL
REMARK 922        TOTAL FREE ENERGY PREDICTED BY IDOCK:   -5.41 KCAL/MOL
REMARK 923 INTER-LIGAND FREE ENERGY PREDICTED BY IDOCK:   -4.99 KCAL/MOL
REMARK 924 INTRA-LIGAND FREE ENERGY PREDICTED BY IDOCK:   -0.42 KCAL/MOL
REMARK 927      BINDING AFFINITY PREDICTED BY RF-SCORE:    0.00 PKD
ROOT
HETATM    1  C   UNL     1      -7.002   7.206  68.920  1.00  0.00    -0.078 C  
HETATM    2  C   UNL     1      -7.163   8.703  69.125  1.00  0.00    -0.064 C  
HETATM    3  N   UNL     1      -6.273   9.466  68.303  1.00  0.00    -0.052 NA 
HETATM    4  C   UNL     1      -7.013   9.106  70.591  1.00  0.00    -0.090 C  
HETATM    5  C   UNL     1      -6.926  10.473  67.627  1.00  0.00    -0.079 C  
HETATM    6  N   UNL     1      -8.287  10.302  67.767  1.00  0.00    -0.110 N  
HETATM    7  O   UNL     1      -6.294  11.333  67.034  1.00  0.00    -0.086 OA 
HETATM    8  C   UNL     1      -8.511   9.213  68.593  1.00  0.00    -0.127 C  
HETATM    9  O   UNL     1      -9.576   8.722  68.949  1.00  0.00    -0.155 OA 
ENDROOT
BRANCH   6  10
HETATM   10  C   UNL     1      -9.299  11.118  67.162  1.00  0.00    -0.165 A  
HETATM   11  C   UNL     1      -9.620  11.011  65.791  1.00  0.00    -0.260 A  
HETATM   12  C   UNL     1     -10.615  11.807  65.171  1.00  0.00    -0.332 A  
HETATM   13  C   UNL     1     -10.921  11.634  63.706  1.00  0.00    -0.422 C  
HETATM   14  C   UNL     1     -11.304  12.724  65.968  1.00  0.00    -0.321 A  
HETATM   15  F   UNL     1     -12.243  11.417  63.478  1.00  0.00    -0.474 F  
HETATM   16  N   UNL     1     -12.350  13.571  65.415  1.00  0.00    -0.448 N  
HETATM   17  F   UNL     1     -10.275  10.573  63.145  1.00  0.00    -0.340 F  
HETATM   18  C   UNL     1     -11.022  12.858  67.327  1.00  0.00    -0.289 A  
HETATM   19  F   UNL     1     -10.565  12.709  62.957  1.00  0.00    -0.345 F  
HETATM   20  C   UNL     1     -10.025  12.063  67.907  1.00  0.00    -0.199 A  
HETATM   21  O   UNL     1     -12.032  14.332  64.497  1.00  0.00    -0.420 OA 
HETATM   22  O   UNL     1     -13.470  13.485  65.933  1.00  0.00    -0.134 OA 
ENDBRANCH   6  10
TORSDOF 1
ENDMDL
MODEL      103
REMARK 921   NORMALIZED FREE ENERGY PREDICTED BY IDOCK:   -4.95 KCAL/MOL
REMARK 922        TOTAL FREE ENERGY PREDICTED BY IDOCK:   -5.40 KCAL/MOL
REMARK 923 INTER-LIGAND FREE ENERGY PREDICTED BY IDOCK:   -4.97 KCAL/MOL
REMARK 924 INTRA-LIGAND FREE ENERGY PREDICTED BY IDOCK:   -0.44 KCAL/MOL
REMARK 927      BINDING AFFINITY PREDICTED BY RF-SCORE:    0.00 PKD
ROOT
HETATM    1  C   UNL     1      -6.304  10.960  66.476  1.00  0.00    -0.125 C  
HETATM    2  C   UNL     1      -6.402   9.912  67.572  1.00  0.00    -0.063 C  
HETATM    3  N   UNL     1      -6.032  10.429  68.855  1.00  0.00    -0.041 NA 
HETATM    4  C   UNL     1      -5.591   8.659  67.248  1.00  0.00    -0.039 C  
HETATM    5  C   UNL     1      -6.962  10.122  69.825  1.00  0.00    -0.118 C  
HETATM    6  N   UNL     1      -8.089   9.604  69.222  1.00  0.00    -0.098 N  
HETATM    7  O   UNL     1      -6.715  10.318  71.004  1.00  0.00    -0.339 OA 
HETATM    8  C   UNL     1      -7.858   9.516  67.860  1.00  0.00    -0.091 C  
HETATM    9  O   UNL     1      -8.611   9.128  66.973  1.00  0.00    -0.122 OA 
ENDROOT
BRANCH   6  10
HETATM   10  C   UNL     1      -9.294   9.217  69.895  1.00  0.00    -0.198 A  
HETATM   11  C   UNL     1     -10.374  10.112  70.060  1.00  0.00    -0.301 A  
HETATM   12  C   UNL     1     -11.574   9.752  70.722  1.00  0.00    -0.417 A  
HETATM   13  C   UNL     1     -12.696  10.750  70.853  1.00  0.00    -0.384 C  
HETATM   14  C   UNL     1     -11.679   8.450  71.218  1.00  0.00    -0.285 A  
HETATM   15  F   UNL     1     -13.876  10.260  70.388  1.00  0.00    -0.168 F  
HETATM   16  N   UNL     1     -12.882   7.995  71.899  1.00  0.00    -0.323 N  
HETATM   17  F   UNL     1     -12.477  11.898  70.153  1.00  0.00    -0.315 F  
HETATM   18  C   UNL     1     -10.638   7.535  71.072  1.00  0.00    -0.230 A  
HETATM   19  F   UNL     1     -12.912  11.144  72.134  1.00  0.00    -0.553 F  
HETATM   20  C   UNL     1      -9.461   7.924  70.421  1.00  0.00    -0.163 A  
HETATM   21  O   UNL     1     -13.216   8.604  72.919  1.00  0.00    -0.248 OA 
HETATM   22  O   UNL     1     -13.455   7.010  71.419  1.00  0.00    -0.345 OA 
ENDBRANCH   6  10
TORSDOF 1
ENDMDL
MODEL      104
REMARK 921   NORMALIZED FREE ENERGY PREDICTED BY IDOCK:   -4.93 KCAL/MOL
REMARK 922        TOTAL FREE ENERGY PREDICTED BY IDOCK:   -5.39 KCAL/MOL
REMARK 923 INTER-LIGAND FREE ENERGY PREDICTED BY IDOCK:   -5.14 KCAL/MOL
REMARK 924 INTRA-LIGAND FREE ENERGY PREDICTED BY IDOCK:   -0.25 KCAL/MOL
REMARK 927      BINDING AFFINITY PREDICTED BY RF-SCORE:    0.00 PKD
ROOT
HETATM    1  C   UNL     1     -11.345  14.743  66.856  1.00  0.00    -0.358 C  
HETATM    2  C   UNL     1     -10.556  13.446  66.786  1.00  0.00    -0.277 C  
HETATM    3  N   UNL     1      -9.323  13.519  67.512  1.00  0.00    -0.212 NA 
HETATM    4  C   UNL     1     -10.303  12.998  65.348  1.00  0.00    -0.313 C  
HETATM    5  C   UNL     1      -9.152  12.441  68.352  1.00  0.00    -0.141 C  
HETATM    6  N   UNL     1     -10.330  11.727  68.416  1.00  0.00    -0.208 N  
HETATM    7  O   UNL     1      -8.078  12.245  68.898  1.00  0.00    -0.001 OA 
HETATM    8  C   UNL     1     -11.246  12.312  67.559  1.00  0.00    -0.297 C  
HETATM    9  O   UNL     1     -12.410  11.994  67.340  1.00  0.00    -0.340 OA 
ENDROOT
BRANCH   6  10
HETATM   10  C   UNL     1     -10.563  10.569  69.229  1.00  0.00    -0.236 A  
HETATM   11  C   UNL     1      -9.785   9.398  69.097  1.00  0.00    -0.165 A  
HETATM   12  C   UNL     1      -9.997   8.242  69.889  1.00  0.00    -0.190 A  
HETATM   13  C   UNL     1      -9.122   7.029  69.709  1.00  0.00    -0.144 C  
HETATM   14  C   UNL     1     -11.019   8.284  70.841  1.00  0.00    -0.246 A  
HETATM   15  F   UNL     1      -8.567   6.617  70.879  1.00  0.00    -0.128 F  
HETATM   16  N   UNL     1     -11.295   7.146  71.704  1.00  0.00    -0.244 N  
HETATM   17  F   UNL     1      -8.074   7.243  68.864  1.00  0.00    -0.118 F  
HETATM   18  C   UNL     1     -11.807   9.422  71.006  1.00  0.00    -0.396 A  
HETATM   19  F   UNL     1      -9.787   5.963  69.194  1.00  0.00    -0.150 F  
HETATM   20  C   UNL     1     -11.578  10.546  70.202  1.00  0.00    -0.408 A  
HETATM   21  O   UNL     1     -11.604   6.085  71.154  1.00  0.00    -0.254 OA 
HETATM   22  O   UNL     1     -11.232   7.342  72.924  1.00  0.00    -0.310 OA 
ENDBRANCH   6  10
TORSDOF 1
ENDMDL
MODEL      105
REMARK 921   NORMALIZED FREE ENERGY PREDICTED BY IDOCK:   -4.91 KCAL/MOL
REMARK 922        TOTAL FREE ENERGY PREDICTED BY IDOCK:   -5.36 KCAL/MOL
REMARK 923 INTER-LIGAND FREE ENERGY PREDICTED BY IDOCK:   -4.93 KCAL/MOL
REMARK 924 INTRA-LIGAND FREE ENERGY PREDICTED BY IDOCK:   -0.44 KCAL/MOL
REMARK 927      BINDING AFFINITY PREDICTED BY RF-SCORE:    0.00 PKD
ROOT
HETATM    1  C   UNL     1     -10.517  13.745  64.460  1.00  0.00    -0.378 C  
HETATM    2  C   UNL     1     -10.886  12.275  64.342  1.00  0.00    -0.329 C  
HETATM    3  N   UNL     1     -10.176  11.618  63.286  1.00  0.00    -0.406 NA 
HETATM    4  C   UNL     1     -12.391  12.067  64.183  1.00  0.00    -0.452 C  
HETATM    5  C   UNL     1      -9.603  10.436  63.704  1.00  0.00    -0.310 C  
HETATM    6  N   UNL     1      -9.690  10.353  65.078  1.00  0.00    -0.275 N  
HETATM    7  O   UNL     1      -9.126   9.658  62.895  1.00  0.00    -0.258 OA 
HETATM    8  C   UNL     1     -10.383  11.459  65.542  1.00  0.00    -0.266 C  
HETATM    9  O   UNL     1     -10.657  11.769  66.697  1.00  0.00    -0.224 OA 
ENDROOT
BRANCH   6  10
HETATM   10  C   UNL     1      -9.158   9.297  65.888  1.00  0.00    -0.197 A  
HETATM   11  C   UNL     1      -9.978   8.270  66.404  1.00  0.00    -0.264 A  
HETATM   12  C   UNL     1      -9.475   7.216  67.207  1.00  0.00    -0.169 A  
HETATM   13  C   UNL     1     -10.401   6.142  67.715  1.00  0.00    -0.198 C  
HETATM   14  C   UNL     1      -8.105   7.205  67.482  1.00  0.00    -0.113 A  
HETATM   15  F   UNL     1      -9.962   4.894  67.403  1.00  0.00    -0.167 F  
HETATM   16  N   UNL     1      -7.504   6.152  68.287  1.00  0.00    -0.085 N  
HETATM   17  F   UNL     1     -11.658   6.226  67.196  1.00  0.00    -0.293 F  
HETATM   18  C   UNL     1      -7.260   8.197  66.988  1.00  0.00    -0.083 A  
HETATM   19  F   UNL     1     -10.565   6.173  69.063  1.00  0.00    -0.210 F  
HETATM   20  C   UNL     1      -7.790   9.230  66.205  1.00  0.00    -0.099 A  
HETATM   21  O   UNL     1      -7.922   6.019  69.441  1.00  0.00    -0.100 OA 
HETATM   22  O   UNL     1      -6.598   5.496  67.761  1.00  0.00    -0.049 OA 
ENDBRANCH   6  10
TORSDOF 1
ENDMDL
MODEL      106
REMARK 921   NORMALIZED FREE ENERGY PREDICTED BY IDOCK:   -4.83 KCAL/MOL
REMARK 922        TOTAL FREE ENERGY PREDICTED BY IDOCK:   -5.28 KCAL/MOL
REMARK 923 INTER-LIGAND FREE ENERGY PREDICTED BY IDOCK:   -4.86 KCAL/MOL
REMARK 924 INTRA-LIGAND FREE ENERGY PREDICTED BY IDOCK:   -0.42 KCAL/MOL
REMARK 927      BINDING AFFINITY PREDICTED BY RF-SCORE:    0.00 PKD
ROOT
HETATM    1  C   UNL     1     -12.562  12.794  64.260  1.00  0.00    -0.405 C  
HETATM    2  C   UNL     1     -11.560  12.969  65.390  1.00  0.00    -0.341 C  
HETATM    3  N   UNL     1     -12.197  13.173  66.656  1.00  0.00    -0.359 NA 
HETATM    4  C   UNL     1     -10.560  14.088  65.109  1.00  0.00    -0.400 C  
HETATM    5  C   UNL     1     -11.683  12.349  67.634  1.00  0.00    -0.346 C  
HETATM    6  N   UNL     1     -10.864  11.408  67.046  1.00  0.00    -0.268 N  
HETATM    7  O   UNL     1     -11.974  12.522  68.806  1.00  0.00    -0.310 OA 
HETATM    8  C   UNL     1     -10.799  11.669  65.687  1.00  0.00    -0.276 C  
HETATM    9  O   UNL     1     -10.196  11.056  64.813  1.00  0.00    -0.276 OA 
ENDROOT
BRANCH   6  10
HETATM   10  C   UNL     1     -10.190  10.343  67.728  1.00  0.00    -0.193 A  
HETATM   11  C   UNL     1      -9.027  10.569  68.496  1.00  0.00    -0.147 A  
HETATM   12  C   UNL     1      -8.343   9.533  69.178  1.00  0.00    -0.125 A  
HETATM   13  C   UNL     1      -7.114   9.844  69.993  1.00  0.00    -0.127 C  
HETATM   14  C   UNL     1      -8.862   8.239  69.084  1.00  0.00    -0.143 A  
HETATM   15  F   UNL     1      -7.210   9.379  71.267  1.00  0.00    -0.107 F  
HETATM   16  N   UNL     1      -8.229   7.119  69.764  1.00  0.00    -0.129 N  
HETATM   17  F   UNL     1      -6.870  11.179  70.109  1.00  0.00    -0.152 F  
HETATM   18  C   UNL     1     -10.011   7.973  68.341  1.00  0.00    -0.204 A  
HETATM   19  F   UNL     1      -5.979   9.315  69.468  1.00  0.00    -0.033 F  
HETATM   20  C   UNL     1     -10.658   9.019  67.670  1.00  0.00    -0.298 A  
HETATM   21  O   UNL     1      -7.059   6.867  69.465  1.00  0.00    -0.070 OA 
HETATM   22  O   UNL     1      -8.928   6.487  70.566  1.00  0.00    -0.150 OA 
ENDBRANCH   6  10
TORSDOF 1
ENDMDL
MODEL      107
REMARK 921   NORMALIZED FREE ENERGY PREDICTED BY IDOCK:   -4.81 KCAL/MOL
REMARK 922        TOTAL FREE ENERGY PREDICTED BY IDOCK:   -5.26 KCAL/MOL
REMARK 923 INTER-LIGAND FREE ENERGY PREDICTED BY IDOCK:   -4.85 KCAL/MOL
REMARK 924 INTRA-LIGAND FREE ENERGY PREDICTED BY IDOCK:   -0.41 KCAL/MOL
REMARK 927      BINDING AFFINITY PREDICTED BY RF-SCORE:    0.00 PKD
ROOT
HETATM    1  C   UNL     1     -11.741  12.162  64.629  1.00  0.00    -0.400 C  
HETATM    2  C   UNL     1     -11.065  12.021  65.983  1.00  0.00    -0.320 C  
HETATM    3  N   UNL     1     -12.007  11.991  67.062  1.00  0.00    -0.606 NA 
HETATM    4  C   UNL     1     -10.015  13.103  66.222  1.00  0.00    -0.285 C  
HETATM    5  C   UNL     1     -11.773  10.942  67.925  1.00  0.00    -0.068 C  
HETATM    6  N   UNL     1     -10.839  10.096  67.365  1.00  0.00    -0.280 N  
HETATM    7  O   UNL     1     -12.357  10.879  68.994  1.00  0.00    -0.464 OA 
HETATM    8  C   UNL     1     -10.421  10.638  66.161  1.00  0.00    -0.194 C  
HETATM    9  O   UNL     1      -9.618  10.188  65.351  1.00  0.00    -0.220 OA 
ENDROOT
BRANCH   6  10
HETATM   10  C   UNL     1     -10.377   8.866  67.936  1.00  0.00    -0.230 A  
HETATM   11  C   UNL     1      -9.494   8.842  69.038  1.00  0.00    -0.160 A  
HETATM   12  C   UNL     1      -9.023   7.639  69.619  1.00  0.00    -0.140 A  
HETATM   13  C   UNL     1      -8.092   7.682  70.803  1.00  0.00    -0.103 C  
HETATM   14  C   UNL     1      -9.469   6.433  69.071  1.00  0.00    -0.129 A  
HETATM   15  F   UNL     1      -8.550   6.938  71.845  1.00  0.00    -0.118 F  
HETATM   16  N   UNL     1      -9.044   5.152  69.615  1.00  0.00    -0.112 N  
HETATM   17  F   UNL     1      -7.917   8.938  71.302  1.00  0.00    -0.130 F  
HETATM   18  C   UNL     1     -10.344   6.412  67.987  1.00  0.00    -0.234 A  
HETATM   19  F   UNL     1      -6.845   7.230  70.518  1.00  0.00    -0.049 F  
HETATM   20  C   UNL     1     -10.784   7.620  67.429  1.00  0.00    -0.318 A  
HETATM   21  O   UNL     1      -7.834   4.914  69.615  1.00  0.00    -0.066 OA 
HETATM   22  O   UNL     1      -9.936   4.389  70.004  1.00  0.00    -0.223 OA 
ENDBRANCH   6  10
TORSDOF 1
ENDMDL
MODEL      108
REMARK 921   NORMALIZED FREE ENERGY PREDICTED BY IDOCK:   -4.79 KCAL/MOL
REMARK 922        TOTAL FREE ENERGY PREDICTED BY IDOCK:   -5.23 KCAL/MOL
REMARK 923 INTER-LIGAND FREE ENERGY PREDICTED BY IDOCK:   -4.79 KCAL/MOL
REMARK 924 INTRA-LIGAND FREE ENERGY PREDICTED BY IDOCK:   -0.44 KCAL/MOL
REMARK 927      BINDING AFFINITY PREDICTED BY RF-SCORE:    0.00 PKD
ROOT
HETATM    1  C   UNL     1      -9.444  13.095  66.139  1.00  0.00    -0.156 C  
HETATM    2  C   UNL     1     -10.446  12.066  66.636  1.00  0.00    -0.215 C  
HETATM    3  N   UNL     1     -10.286  10.796  65.995  1.00  0.00    -0.251 NA 
HETATM    4  C   UNL     1     -11.888  12.552  66.506  1.00  0.00    -0.434 C  
HETATM    5  C   UNL     1     -10.244   9.759  66.902  1.00  0.00    -0.245 C  
HETATM    6  N   UNL     1     -10.136  10.277  68.175  1.00  0.00    -0.146 N  
HETATM    7  O   UNL     1     -10.304   8.601  66.522  1.00  0.00    -0.282 OA 
HETATM    8  C   UNL     1     -10.175  11.659  68.092  1.00  0.00    -0.197 C  
HETATM    9  O   UNL     1     -10.091  12.488  68.992  1.00  0.00    -0.016 OA 
ENDROOT
BRANCH   6  10
HETATM   10  C   UNL     1     -10.011   9.513  69.381  1.00  0.00    -0.191 A  
HETATM   11  C   UNL     1     -11.140   9.018  70.070  1.00  0.00    -0.197 A  
HETATM   12  C   UNL     1     -11.041   8.261  71.263  1.00  0.00    -0.296 A  
HETATM   13  C   UNL     1     -12.285   7.749  71.942  1.00  0.00    -0.306 C  
HETATM   14  C   UNL     1      -9.763   7.995  71.761  1.00  0.00    -0.176 A  
HETATM   15  F   UNL     1     -12.235   6.409  72.164  1.00  0.00    -0.349 F  
HETATM   16  N   UNL     1      -9.570   7.215  72.974  1.00  0.00    -0.152 N  
HETATM   17  F   UNL     1     -13.418   7.955  71.213  1.00  0.00    -0.334 F  
HETATM   18  C   UNL     1      -8.622   8.461  71.110  1.00  0.00    -0.187 A  
HETATM   19  F   UNL     1     -12.517   8.337  73.143  1.00  0.00    -0.255 F  
HETATM   20  C   UNL     1      -8.754   9.215  69.936  1.00  0.00    -0.170 A  
HETATM   21  O   UNL     1     -10.081   7.649  74.009  1.00  0.00    -0.114 OA 
HETATM   22  O   UNL     1      -8.880   6.193  72.876  1.00  0.00    -0.127 OA 
ENDBRANCH   6  10
TORSDOF 1
ENDMDL
MODEL      109
REMARK 921   NORMALIZED FREE ENERGY PREDICTED BY IDOCK:   -4.71 KCAL/MOL
REMARK 922        TOTAL FREE ENERGY PREDICTED BY IDOCK:   -5.16 KCAL/MOL
REMARK 923 INTER-LIGAND FREE ENERGY PREDICTED BY IDOCK:   -4.72 KCAL/MOL
REMARK 924 INTRA-LIGAND FREE ENERGY PREDICTED BY IDOCK:   -0.43 KCAL/MOL
REMARK 927      BINDING AFFINITY PREDICTED BY RF-SCORE:    0.00 PKD
ROOT
HETATM    1  C   UNL     1     -10.141  14.733  65.376  1.00  0.00    -0.406 C  
HETATM    2  C   UNL     1     -10.884  13.518  65.907  1.00  0.00    -0.275 C  
HETATM    3  N   UNL     1     -10.626  12.340  65.134  1.00  0.00    -0.276 NA 
HETATM    4  C   UNL     1     -12.387  13.763  66.022  1.00  0.00    -0.499 C  
HETATM    5  C   UNL     1     -10.287  11.264  65.926  1.00  0.00    -0.253 C  
HETATM    6  N   UNL     1     -10.072  11.703  67.215  1.00  0.00    -0.198 N  
HETATM    7  O   UNL     1     -10.222  10.142  65.451  1.00  0.00    -0.298 OA 
HETATM    8  C   UNL     1     -10.338  13.061  67.268  1.00  0.00    -0.238 C  
HETATM    9  O   UNL     1     -10.249  13.828  68.221  1.00  0.00    -0.232 OA 
ENDROOT
BRANCH   6  10
HETATM   10  C   UNL     1      -9.649  10.888  68.316  1.00  0.00    -0.167 A  
HETATM   11  C   UNL     1      -8.289  10.780  68.683  1.00  0.00    -0.141 A  
HETATM   12  C   UNL     1      -7.847   9.981  69.766  1.00  0.00    -0.185 A  
HETATM   13  C   UNL     1      -6.383   9.920  70.116  1.00  0.00    -0.084 C  
HETATM   14  C   UNL     1      -8.813   9.283  70.496  1.00  0.00    -0.241 A  
HETATM   15  F   UNL     1      -6.154  10.211  71.423  1.00  0.00    -0.055 F  
HETATM   16  N   UNL     1      -8.447   8.450  71.631  1.00  0.00    -0.148 N  
HETATM   17  F   UNL     1      -5.625  10.803  69.407  1.00  0.00    -0.038 F  
HETATM   18  C   UNL     1     -10.166   9.366  70.170  1.00  0.00    -0.271 A  
HETATM   19  F   UNL     1      -5.830   8.702  69.882  1.00  0.00    -0.028 F  
HETATM   20  C   UNL     1     -10.569  10.158  69.088  1.00  0.00    -0.247 A  
HETATM   21  O   UNL     1      -7.672   7.514  71.416  1.00  0.00    -0.083 OA 
HETATM   22  O   UNL     1      -8.969   8.726  72.718  1.00  0.00    -0.361 OA 
ENDBRANCH   6  10
TORSDOF 1
ENDMDL
MODEL      110
REMARK 921   NORMALIZED FREE ENERGY PREDICTED BY IDOCK:   -4.71 KCAL/MOL
REMARK 922        TOTAL FREE ENERGY PREDICTED BY IDOCK:   -5.15 KCAL/MOL
REMARK 923 INTER-LIGAND FREE ENERGY PREDICTED BY IDOCK:   -4.97 KCAL/MOL
REMARK 924 INTRA-LIGAND FREE ENERGY PREDICTED BY IDOCK:   -0.19 KCAL/MOL
REMARK 927      BINDING AFFINITY PREDICTED BY RF-SCORE:    0.00 PKD
ROOT
HETATM    1  C   UNL     1      -8.235  11.044  66.184  1.00  0.00    -0.155 C  
HETATM    2  C   UNL     1      -9.571  10.546  66.713  1.00  0.00    -0.170 C  
HETATM    3  N   UNL     1      -9.957   9.297  66.128  1.00  0.00    -0.290 NA 
HETATM    4  C   UNL     1     -10.682  11.581  66.544  1.00  0.00    -0.318 C  
HETATM    5  C   UNL     1     -10.343   8.377  67.079  1.00  0.00    -0.315 C  
HETATM    6  N   UNL     1     -10.021   8.860  68.331  1.00  0.00    -0.172 N  
HETATM    7  O   UNL     1     -10.880   7.333  66.749  1.00  0.00    -0.311 OA 
HETATM    8  C   UNL     1      -9.484  10.129  68.188  1.00  0.00    -0.142 C  
HETATM    9  O   UNL     1      -9.057  10.887  69.052  1.00  0.00    -0.163 OA 
ENDROOT
BRANCH   6  10
HETATM   10  C   UNL     1     -10.216   8.167  69.570  1.00  0.00    -0.213 A  
HETATM   11  C   UNL     1      -9.709   6.866  69.783  1.00  0.00    -0.166 A  
HETATM   12  C   UNL     1      -9.890   6.160  70.998  1.00  0.00    -0.213 A  
HETATM   13  C   UNL     1      -9.311   4.780  71.167  1.00  0.00    -0.148 C  
HETATM   14  C   UNL     1     -10.595   6.798  72.022  1.00  0.00    -0.213 A  
HETATM   15  F   UNL     1      -8.537   4.679  72.280  1.00  0.00    -0.111 F  
HETATM   16  N   UNL     1     -10.814   6.151  73.306  1.00  0.00    -0.258 N  
HETATM   17  F   UNL     1      -8.509   4.404  70.131  1.00  0.00    -0.067 F  
HETATM   18  C   UNL     1     -11.108   8.084  71.855  1.00  0.00    -0.333 A  
HETATM   19  F   UNL     1     -10.258   3.812  71.259  1.00  0.00    -0.231 F  
HETATM   20  C   UNL     1     -10.920   8.751  70.637  1.00  0.00    -0.278 A  
HETATM   21  O   UNL     1     -11.432   5.083  73.300  1.00  0.00    -0.332 OA 
HETATM   22  O   UNL     1     -10.393   6.741  74.308  1.00  0.00    -0.369 OA 
ENDBRANCH   6  10
TORSDOF 1
ENDMDL
MODEL      111
REMARK 921   NORMALIZED FREE ENERGY PREDICTED BY IDOCK:   -4.71 KCAL/MOL
REMARK 922        TOTAL FREE ENERGY PREDICTED BY IDOCK:   -5.15 KCAL/MOL
REMARK 923 INTER-LIGAND FREE ENERGY PREDICTED BY IDOCK:   -5.53 KCAL/MOL
REMARK 924 INTRA-LIGAND FREE ENERGY PREDICTED BY IDOCK:    0.38 KCAL/MOL
REMARK 927      BINDING AFFINITY PREDICTED BY RF-SCORE:    0.00 PKD
ROOT
HETATM    1  C   UNL     1      -8.748  11.317  68.804  1.00  0.00    -0.105 C  
HETATM    2  C   UNL     1      -9.081  12.350  67.739  1.00  0.00    -0.193 C  
HETATM    3  N   UNL     1     -10.380  12.923  67.922  1.00  0.00    -0.225 NA 
HETATM    4  C   UNL     1      -8.939  11.789  66.325  1.00  0.00    -0.176 C  
HETATM    5  C   UNL     1     -10.353  14.300  67.862  1.00  0.00    -0.233 C  
HETATM    6  N   UNL     1      -9.041  14.726  67.873  1.00  0.00    -0.180 N  
HETATM    7  O   UNL     1     -11.391  14.938  67.807  1.00  0.00    -0.306 OA 
HETATM    8  C   UNL     1      -8.217  13.613  67.874  1.00  0.00    -0.171 C  
HETATM    9  O   UNL     1      -6.992  13.560  67.902  1.00  0.00    -0.108 OA 
ENDROOT
BRANCH   6  10
HETATM   10  C   UNL     1      -8.605  16.091  67.878  1.00  0.00    -0.164 A  
HETATM   11  C   UNL     1      -9.444  17.141  67.445  1.00  0.00    -0.247 A  
HETATM   12  C   UNL     1      -9.036  18.498  67.439  1.00  0.00    -0.280 A  
HETATM   13  C   UNL     1      -9.985  19.574  66.979  1.00  0.00    -0.378 C  
HETATM   14  C   UNL     1      -7.747  18.791  67.893  1.00  0.00    -0.256 A  
HETATM   15  F   UNL     1     -10.123  20.566  67.897  1.00  0.00    -0.529 F  
HETATM   16  N   UNL     1      -7.253  20.159  67.932  1.00  0.00    -0.290 N  
HETATM   17  F   UNL     1     -11.247  19.114  66.748  1.00  0.00    -0.410 F  
HETATM   18  C   UNL     1      -6.889  17.785  68.333  1.00  0.00    -0.221 A  
HETATM   19  F   UNL     1      -9.599  20.164  65.819  1.00  0.00    -0.457 F  
HETATM   20  C   UNL     1      -7.320  16.452  68.317  1.00  0.00    -0.158 A  
HETATM   21  O   UNL     1      -7.213  20.774  66.863  1.00  0.00    -0.303 OA 
HETATM   22  O   UNL     1      -6.879  20.586  69.032  1.00  0.00    -0.138 OA 
ENDBRANCH   6  10
TORSDOF 1
ENDMDL
MODEL      112
REMARK 921   NORMALIZED FREE ENERGY PREDICTED BY IDOCK:   -4.64 KCAL/MOL
REMARK 922        TOTAL FREE ENERGY PREDICTED BY IDOCK:   -5.08 KCAL/MOL
REMARK 923 INTER-LIGAND FREE ENERGY PREDICTED BY IDOCK:   -5.46 KCAL/MOL
REMARK 924 INTRA-LIGAND FREE ENERGY PREDICTED BY IDOCK:    0.38 KCAL/MOL
REMARK 927      BINDING AFFINITY PREDICTED BY RF-SCORE:    0.00 PKD
ROOT
HETATM    1  C   UNL     1     -11.859   6.415  72.206  1.00  0.00    -0.315 C  
HETATM    2  C   UNL     1     -10.747   7.417  71.940  1.00  0.00    -0.216 C  
HETATM    3  N   UNL     1      -9.961   7.066  70.795  1.00  0.00    -0.190 NA 
HETATM    4  C   UNL     1      -9.851   7.625  73.159  1.00  0.00    -0.337 C  
HETATM    5  C   UNL     1      -9.798   8.129  69.933  1.00  0.00    -0.186 C  
HETATM    6  N   UNL     1     -10.637   9.155  70.317  1.00  0.00    -0.210 N  
HETATM    7  O   UNL     1      -9.003   8.062  69.010  1.00  0.00    -0.144 OA 
HETATM    8  C   UNL     1     -11.297   8.773  71.474  1.00  0.00    -0.304 C  
HETATM    9  O   UNL     1     -12.137   9.388  72.120  1.00  0.00    -0.332 OA 
ENDROOT
BRANCH   6  10
HETATM   10  C   UNL     1     -10.794  10.406  69.637  1.00  0.00    -0.277 A  
HETATM   11  C   UNL     1      -9.810  10.901  68.753  1.00  0.00    -0.203 A  
HETATM   12  C   UNL     1      -9.942  12.136  68.070  1.00  0.00    -0.203 A  
HETATM   13  C   UNL     1      -8.861  12.601  67.129  1.00  0.00    -0.204 C  
HETATM   14  C   UNL     1     -11.107  12.876  68.285  1.00  0.00    -0.264 A  
HETATM   15  F   UNL     1      -9.348  12.908  65.898  1.00  0.00    -0.213 F  
HETATM   16  N   UNL     1     -11.329  14.148  67.613  1.00  0.00    -0.303 N  
HETATM   17  F   UNL     1      -7.895  11.664  66.916  1.00  0.00    -0.142 F  
HETATM   18  C   UNL     1     -12.105  12.421  69.145  1.00  0.00    -0.195 A  
HETATM   19  F   UNL     1      -8.203  13.701  67.576  1.00  0.00    -0.138 F  
HETATM   20  C   UNL     1     -11.940  11.201  69.813  1.00  0.00    -0.428 A  
HETATM   21  O   UNL     1     -10.505  15.043  67.817  1.00  0.00    -0.244 OA 
HETATM   22  O   UNL     1     -12.347  14.240  66.917  1.00  0.00    -0.408 OA 
ENDBRANCH   6  10
TORSDOF 1
ENDMDL
MODEL      113
REMARK 921   NORMALIZED FREE ENERGY PREDICTED BY IDOCK:   -4.63 KCAL/MOL
REMARK 922        TOTAL FREE ENERGY PREDICTED BY IDOCK:   -5.07 KCAL/MOL
REMARK 923 INTER-LIGAND FREE ENERGY PREDICTED BY IDOCK:   -4.63 KCAL/MOL
REMARK 924 INTRA-LIGAND FREE ENERGY PREDICTED BY IDOCK:   -0.43 KCAL/MOL
REMARK 927      BINDING AFFINITY PREDICTED BY RF-SCORE:    0.00 PKD
ROOT
HETATM    1  C   UNL     1     -10.897  17.442  67.719  1.00  0.00    -0.257 C  
HETATM    2  C   UNL     1      -9.889  16.393  67.280  1.00  0.00    -0.245 C  
HETATM    3  N   UNL     1      -8.925  16.103  68.299  1.00  0.00    -0.185 NA 
HETATM    4  C   UNL     1      -9.189  16.773  65.976  1.00  0.00    -0.236 C  
HETATM    5  C   UNL     1      -8.781  14.748  68.505  1.00  0.00    -0.174 C  
HETATM    6  N   UNL     1      -9.779  14.079  67.827  1.00  0.00    -0.223 N  
HETATM    7  O   UNL     1      -7.871  14.320  69.196  1.00  0.00    -0.090 OA 
HETATM    8  C   UNL     1     -10.532  15.007  67.127  1.00  0.00    -0.277 C  
HETATM    9  O   UNL     1     -11.517  14.824  66.420  1.00  0.00    -0.350 OA 
ENDROOT
BRANCH   6  10
HETATM   10  C   UNL     1      -9.996  12.663  67.843  1.00  0.00    -0.228 A  
HETATM   11  C   UNL     1      -9.245  11.786  67.029  1.00  0.00    -0.187 A  
HETATM   12  C   UNL     1      -9.442  10.383  67.026  1.00  0.00    -0.189 A  
HETATM   13  C   UNL     1      -8.598   9.500  66.143  1.00  0.00    -0.131 C  
HETATM   14  C   UNL     1     -10.419   9.861  67.878  1.00  0.00    -0.236 A  
HETATM   15  F   UNL     1      -7.998   8.500  66.840  1.00  0.00    -0.092 F  
HETATM   16  N   UNL     1     -10.676   8.431  67.947  1.00  0.00    -0.136 N  
HETATM   17  F   UNL     1      -7.585  10.171  65.525  1.00  0.00    -0.119 F  
HETATM   18  C   UNL     1     -11.178  10.691  68.701  1.00  0.00    -0.337 A  
HETATM   19  F   UNL     1      -9.304   8.913  65.144  1.00  0.00    -0.252 F  
HETATM   20  C   UNL     1     -10.966  12.075  68.674  1.00  0.00    -0.281 A  
HETATM   21  O   UNL     1     -11.028   7.871  66.905  1.00  0.00    -0.188 OA 
HETATM   22  O   UNL     1     -10.555   7.895  69.055  1.00  0.00    -0.219 OA 
ENDBRANCH   6  10
TORSDOF 1
ENDMDL
MODEL      114
REMARK 921   NORMALIZED FREE ENERGY PREDICTED BY IDOCK:   -4.62 KCAL/MOL
REMARK 922        TOTAL FREE ENERGY PREDICTED BY IDOCK:   -5.05 KCAL/MOL
REMARK 923 INTER-LIGAND FREE ENERGY PREDICTED BY IDOCK:   -4.66 KCAL/MOL
REMARK 924 INTRA-LIGAND FREE ENERGY PREDICTED BY IDOCK:   -0.39 KCAL/MOL
REMARK 927      BINDING AFFINITY PREDICTED BY RF-SCORE:    0.00 PKD
ROOT
HETATM    1  C   UNL     1     -10.920  13.737  68.216  1.00  0.00    -0.269 C  
HETATM    2  C   UNL     1     -10.111  12.588  67.636  1.00  0.00    -0.217 C  
HETATM    3  N   UNL     1      -8.755  12.589  68.096  1.00  0.00    -0.186 NA 
HETATM    4  C   UNL     1     -10.157  12.561  66.109  1.00  0.00    -0.265 C  
HETATM    5  C   UNL     1      -8.362  11.349  68.553  1.00  0.00    -0.153 C  
HETATM    6  N   UNL     1      -9.469  10.531  68.646  1.00  0.00    -0.164 N  
HETATM    7  O   UNL     1      -7.189  11.124  68.802  1.00  0.00    -0.083 OA 
HETATM    8  C   UNL     1     -10.572  11.229  68.183  1.00  0.00    -0.192 C  
HETATM    9  O   UNL     1     -11.741  10.867  68.118  1.00  0.00    -0.506 OA 
ENDROOT
BRANCH   6  10
HETATM   10  C   UNL     1      -9.474   9.184  69.135  1.00  0.00    -0.156 A  
HETATM   11  C   UNL     1     -10.034   8.848  70.387  1.00  0.00    -0.230 A  
HETATM   12  C   UNL     1     -10.050   7.524  70.892  1.00  0.00    -0.192 A  
HETATM   13  C   UNL     1     -10.677   7.230  72.230  1.00  0.00    -0.231 C  
HETATM   14  C   UNL     1      -9.490   6.519  70.099  1.00  0.00    -0.157 A  
HETATM   15  F   UNL     1     -11.608   6.243  72.156  1.00  0.00    -0.297 F  
HETATM   16  N   UNL     1      -9.476   5.131  70.535  1.00  0.00    -0.160 N  
HETATM   17  F   UNL     1     -11.325   8.302  72.766  1.00  0.00    -0.422 F  
HETATM   18  C   UNL     1      -8.931   6.807  68.855  1.00  0.00    -0.131 A  
HETATM   19  F   UNL     1      -9.774   6.848  73.169  1.00  0.00    -0.163 F  
HETATM   20  C   UNL     1      -8.923   8.128  68.389  1.00  0.00    -0.136 A  
HETATM   21  O   UNL     1      -8.887   4.879  71.590  1.00  0.00    -0.127 OA 
HETATM   22  O   UNL     1     -10.028   4.308  69.795  1.00  0.00    -0.222 OA 
ENDBRANCH   6  10
TORSDOF 1
ENDMDL
MODEL      115
REMARK 921   NORMALIZED FREE ENERGY PREDICTED BY IDOCK:   -4.61 KCAL/MOL
REMARK 922        TOTAL FREE ENERGY PREDICTED BY IDOCK:   -5.04 KCAL/MOL
REMARK 923 INTER-LIGAND FREE ENERGY PREDICTED BY IDOCK:   -4.69 KCAL/MOL
REMARK 924 INTRA-LIGAND FREE ENERGY PREDICTED BY IDOCK:   -0.36 KCAL/MOL
REMARK 927      BINDING AFFINITY PREDICTED BY RF-SCORE:    0.00 PKD
ROOT
HETATM    1  C   UNL     1     -11.253  14.735  67.118  1.00  0.00    -0.346 C  
HETATM    2  C   UNL     1     -10.822  14.007  68.381  1.00  0.00    -0.249 C  
HETATM    3  N   UNL     1     -11.936  13.579  69.172  1.00  0.00    -0.337 NA 
HETATM    4  C   UNL     1      -9.856  14.836  69.225  1.00  0.00    -0.123 C  
HETATM    5  C   UNL     1     -11.831  12.255  69.542  1.00  0.00    -0.315 C  
HETATM    6  N   UNL     1     -10.793  11.673  68.845  1.00  0.00    -0.215 N  
HETATM    7  O   UNL     1     -12.591  11.782  70.371  1.00  0.00    -0.208 OA 
HETATM    8  C   UNL     1     -10.184  12.645  68.069  1.00  0.00    -0.230 C  
HETATM    9  O   UNL     1      -9.241  12.533  67.293  1.00  0.00    -0.177 OA 
ENDROOT
BRANCH   6  10
HETATM   10  C   UNL     1     -10.407  10.294  68.917  1.00  0.00    -0.204 A  
HETATM   11  C   UNL     1      -9.843   9.739  70.086  1.00  0.00    -0.306 A  
HETATM   12  C   UNL     1      -9.454   8.380  70.181  1.00  0.00    -0.165 A  
HETATM   13  C   UNL     1      -8.871   7.846  71.464  1.00  0.00    -0.132 C  
HETATM   14  C   UNL     1      -9.652   7.567  69.062  1.00  0.00    -0.153 A  
HETATM   15  F   UNL     1      -9.529   6.743  71.908  1.00  0.00    -0.148 F  
HETATM   16  N   UNL     1      -9.292   6.158  69.079  1.00  0.00    -0.128 N  
HETATM   17  F   UNL     1      -8.923   8.740  72.491  1.00  0.00    -0.300 F  
HETATM   18  C   UNL     1     -10.210   8.074  67.890  1.00  0.00    -0.267 A  
HETATM   19  F   UNL     1      -7.562   7.503  71.352  1.00  0.00    -0.076 F  
HETATM   20  C   UNL     1     -10.576   9.425  67.825  1.00  0.00    -0.317 A  
HETATM   21  O   UNL     1      -8.109   5.881  69.296  1.00  0.00    -0.103 OA 
HETATM   22  O   UNL     1     -10.196   5.348  68.839  1.00  0.00    -0.184 OA 
ENDBRANCH   6  10
TORSDOF 1
ENDMDL
MODEL      116
REMARK 921   NORMALIZED FREE ENERGY PREDICTED BY IDOCK:   -4.54 KCAL/MOL
REMARK 922        TOTAL FREE ENERGY PREDICTED BY IDOCK:   -4.98 KCAL/MOL
REMARK 923 INTER-LIGAND FREE ENERGY PREDICTED BY IDOCK:   -5.02 KCAL/MOL
REMARK 924 INTRA-LIGAND FREE ENERGY PREDICTED BY IDOCK:    0.05 KCAL/MOL
REMARK 927      BINDING AFFINITY PREDICTED BY RF-SCORE:    0.00 PKD
ROOT
HETATM    1  C   UNL     1     -11.296  11.909  66.404  1.00  0.00    -0.400 C  
HETATM    2  C   UNL     1     -10.897  11.975  67.869  1.00  0.00    -0.215 C  
HETATM    3  N   UNL     1     -12.029  12.113  68.736  1.00  0.00    -0.288 NA 
HETATM    4  C   UNL     1      -9.878  13.078  68.143  1.00  0.00    -0.228 C  
HETATM    5  C   UNL     1     -11.999  11.208  69.775  1.00  0.00    -0.357 C  
HETATM    6  N   UNL     1     -11.003  10.283  69.540  1.00  0.00    -0.241 N  
HETATM    7  O   UNL     1     -12.779  11.310  70.708  1.00  0.00    -0.318 OA 
HETATM    8  C   UNL     1     -10.344  10.634  68.374  1.00  0.00    -0.175 C  
HETATM    9  O   UNL     1      -9.415  10.063  67.812  1.00  0.00    -0.140 OA 
ENDROOT
BRANCH   6  10
HETATM   10  C   UNL     1     -10.699   9.154  70.368  1.00  0.00    -0.238 A  
HETATM   11  C   UNL     1     -10.375   7.894  69.819  1.00  0.00    -0.219 A  
HETATM   12  C   UNL     1     -10.072   6.763  70.617  1.00  0.00    -0.204 A  
HETATM   13  C   UNL     1      -9.720   5.449  69.968  1.00  0.00    -0.185 C  
HETATM   14  C   UNL     1     -10.090   6.922  72.004  1.00  0.00    -0.185 A  
HETATM   15  F   UNL     1      -8.540   4.951  70.422  1.00  0.00    -0.092 F  
HETATM   16  N   UNL     1      -9.777   5.816  72.897  1.00  0.00    -0.155 N  
HETATM   17  F   UNL     1      -9.581   5.539  68.615  1.00  0.00    -0.127 F  
HETATM   18  C   UNL     1     -10.399   8.150  72.587  1.00  0.00    -0.398 A  
HETATM   19  F   UNL     1     -10.656   4.487  70.170  1.00  0.00    -0.226 F  
HETATM   20  C   UNL     1     -10.704   9.247  71.771  1.00  0.00    -0.324 A  
HETATM   21  O   UNL     1     -10.492   4.813  72.820  1.00  0.00    -0.186 OA 
HETATM   22  O   UNL     1      -8.840   5.983  73.686  1.00  0.00    -0.125 OA 
ENDBRANCH   6  10
TORSDOF 1
ENDMDL
MODEL      117
REMARK 921   NORMALIZED FREE ENERGY PREDICTED BY IDOCK:   -4.54 KCAL/MOL
REMARK 922        TOTAL FREE ENERGY PREDICTED BY IDOCK:   -4.97 KCAL/MOL
REMARK 923 INTER-LIGAND FREE ENERGY PREDICTED BY IDOCK:   -4.54 KCAL/MOL
REMARK 924 INTRA-LIGAND FREE ENERGY PREDICTED BY IDOCK:   -0.44 KCAL/MOL
REMARK 927      BINDING AFFINITY PREDICTED BY RF-SCORE:    0.00 PKD
ROOT
HETATM    1  C   UNL     1     -10.442  11.625  66.122  1.00  0.00    -0.289 C  
HETATM    2  C   UNL     1     -10.349  11.603  67.639  1.00  0.00    -0.189 C  
HETATM    3  N   UNL     1     -11.637  11.655  68.264  1.00  0.00    -0.338 NA 
HETATM    4  C   UNL     1      -9.448  12.712  68.180  1.00  0.00    -0.218 C  
HETATM    5  C   UNL     1     -11.782  10.685  69.232  1.00  0.00    -0.264 C  
HETATM    6  N   UNL     1     -10.725   9.803  69.150  1.00  0.00    -0.217 N  
HETATM    7  O   UNL     1     -12.737  10.706  69.991  1.00  0.00    -0.278 OA 
HETATM    8  C   UNL     1      -9.858  10.246  68.164  1.00  0.00    -0.148 C  
HETATM    9  O   UNL     1      -8.815   9.738  67.770  1.00  0.00    -0.128 OA 
ENDROOT
BRANCH   6  10
HETATM   10  C   UNL     1     -10.551   8.629  69.953  1.00  0.00    -0.224 A  
HETATM   11  C   UNL     1      -9.698   8.617  71.078  1.00  0.00    -0.266 A  
HETATM   12  C   UNL     1      -9.510   7.468  71.887  1.00  0.00    -0.173 A  
HETATM   13  C   UNL     1      -8.596   7.525  73.084  1.00  0.00    -0.150 C  
HETATM   14  C   UNL     1     -10.213   6.310  71.546  1.00  0.00    -0.200 A  
HETATM   15  F   UNL     1      -9.211   7.106  74.221  1.00  0.00    -0.216 F  
HETATM   16  N   UNL     1     -10.088   5.091  72.330  1.00  0.00    -0.181 N  
HETATM   17  F   UNL     1      -8.145   8.782  73.355  1.00  0.00    -0.171 F  
HETATM   18  C   UNL     1     -11.069   6.281  70.446  1.00  0.00    -0.416 A  
HETATM   19  F   UNL     1      -7.480   6.766  72.939  1.00  0.00    -0.082 F  
HETATM   20  C   UNL     1     -11.226   7.431  69.661  1.00  0.00    -0.065 A  
HETATM   21  O   UNL     1      -8.961   4.597  72.426  1.00  0.00    -0.123 OA 
HETATM   22  O   UNL     1     -11.128   4.627  72.811  1.00  0.00    -0.200 OA 
ENDBRANCH   6  10
TORSDOF 1
ENDMDL
MODEL      118
REMARK 921   NORMALIZED FREE ENERGY PREDICTED BY IDOCK:   -4.53 KCAL/MOL
REMARK 922        TOTAL FREE ENERGY PREDICTED BY IDOCK:   -4.97 KCAL/MOL
REMARK 923 INTER-LIGAND FREE ENERGY PREDICTED BY IDOCK:   -4.56 KCAL/MOL
REMARK 924 INTRA-LIGAND FREE ENERGY PREDICTED BY IDOCK:   -0.41 KCAL/MOL
REMARK 927      BINDING AFFINITY PREDICTED BY RF-SCORE:    0.00 PKD
ROOT
HETATM    1  C   UNL     1     -11.196   4.678  72.929  1.00  0.00    -0.246 C  
HETATM    2  C   UNL     1     -10.334   5.899  72.652  1.00  0.00    -0.197 C  
HETATM    3  N   UNL     1      -9.043   5.550  72.140  1.00  0.00    -0.143 NA 
HETATM    4  C   UNL     1     -10.196   6.801  73.878  1.00  0.00    -0.396 C  
HETATM    5  C   UNL     1      -8.719   6.275  71.014  1.00  0.00    -0.136 C  
HETATM    6  N   UNL     1      -9.836   6.958  70.580  1.00  0.00    -0.179 N  
HETATM    7  O   UNL     1      -7.586   6.244  70.561  1.00  0.00    -0.091 OA 
HETATM    8  C   UNL     1     -10.869   6.723  71.472  1.00  0.00    -0.234 C  
HETATM    9  O   UNL     1     -12.025   7.129  71.436  1.00  0.00    -0.291 OA 
ENDROOT
BRANCH   6  10
HETATM   10  C   UNL     1      -9.911   7.777  69.406  1.00  0.00    -0.188 A  
HETATM   11  C   UNL     1      -9.319   9.058  69.353  1.00  0.00    -0.158 A  
HETATM   12  C   UNL     1      -9.381   9.886  68.205  1.00  0.00    -0.136 A  
HETATM   13  C   UNL     1      -8.715  11.237  68.208  1.00  0.00    -0.158 C  
HETATM   14  C   UNL     1     -10.054   9.394  67.084  1.00  0.00    -0.231 A  
HETATM   15  F   UNL     1      -7.867  11.395  67.157  1.00  0.00    -0.125 F  
HETATM   16  N   UNL     1     -10.154  10.174  65.859  1.00  0.00    -0.265 N  
HETATM   17  F   UNL     1      -7.961  11.462  69.321  1.00  0.00    -0.106 F  
HETATM   18  C   UNL     1     -10.649   8.134  67.093  1.00  0.00    -0.355 A  
HETATM   19  F   UNL     1      -9.598  12.267  68.157  1.00  0.00    -0.187 F  
HETATM   20  C   UNL     1     -10.577   7.343  68.247  1.00  0.00    -0.204 A  
HETATM   21  O   UNL     1     -10.709  11.273  65.936  1.00  0.00    -0.265 OA 
HETATM   22  O   UNL     1      -9.703   9.656  64.830  1.00  0.00    -0.267 OA 
ENDBRANCH   6  10
TORSDOF 1
ENDMDL
MODEL      119
REMARK 921   NORMALIZED FREE ENERGY PREDICTED BY IDOCK:   -4.53 KCAL/MOL
REMARK 922        TOTAL FREE ENERGY PREDICTED BY IDOCK:   -4.96 KCAL/MOL
REMARK 923 INTER-LIGAND FREE ENERGY PREDICTED BY IDOCK:   -4.64 KCAL/MOL
REMARK 924 INTRA-LIGAND FREE ENERGY PREDICTED BY IDOCK:   -0.32 KCAL/MOL
REMARK 927      BINDING AFFINITY PREDICTED BY RF-SCORE:    0.00 PKD
ROOT
HETATM    1  C   UNL     1      -9.867   3.466  64.748  1.00  0.00    -0.124 C  
HETATM    2  C   UNL     1      -8.969   4.189  65.738  1.00  0.00    -0.129 C  
HETATM    3  N   UNL     1      -9.146   5.610  65.697  1.00  0.00    -0.137 NA 
HETATM    4  C   UNL     1      -7.497   3.828  65.555  1.00  0.00    -0.077 C  
HETATM    5  C   UNL     1      -9.321   6.147  66.954  1.00  0.00    -0.134 C  
HETATM    6  N   UNL     1      -9.506   5.124  67.860  1.00  0.00    -0.124 N  
HETATM    7  O   UNL     1      -9.294   7.356  67.120  1.00  0.00    -0.132 OA 
HETATM    8  C   UNL     1      -9.383   3.917  67.192  1.00  0.00    -0.191 C  
HETATM    9  O   UNL     1      -9.496   2.778  67.632  1.00  0.00    -0.204 OA 
ENDROOT
BRANCH   6  10
HETATM   10  C   UNL     1      -9.774   5.285  69.259  1.00  0.00    -0.170 A  
HETATM   11  C   UNL     1     -10.949   5.916  69.724  1.00  0.00    -0.452 A  
HETATM   12  C   UNL     1     -11.235   6.088  71.101  1.00  0.00    -0.328 A  
HETATM   13  C   UNL     1     -12.514   6.757  71.532  1.00  0.00    -0.341 C  
HETATM   14  C   UNL     1     -10.308   5.596  72.024  1.00  0.00    -0.212 A  
HETATM   15  F   UNL     1     -13.220   6.000  72.412  1.00  0.00    -0.209 F  
HETATM   16  N   UNL     1     -10.531   5.719  73.457  1.00  0.00    -0.238 N  
HETATM   17  F   UNL     1     -13.366   7.003  70.497  1.00  0.00    -0.210 F  
HETATM   18  C   UNL     1      -9.139   4.963  71.607  1.00  0.00    -0.169 A  
HETATM   19  F   UNL     1     -12.312   7.961  72.125  1.00  0.00    -0.302 F  
HETATM   20  C   UNL     1      -8.881   4.818  70.238  1.00  0.00    -0.137 A  
HETATM   21  O   UNL     1     -10.653   6.859  73.912  1.00  0.00    -0.369 OA 
HETATM   22  O   UNL     1     -10.546   4.669  74.111  1.00  0.00    -0.256 OA 
ENDBRANCH   6  10
TORSDOF 1
ENDMDL
MODEL      120
REMARK 921   NORMALIZED FREE ENERGY PREDICTED BY IDOCK:   -4.53 KCAL/MOL
REMARK 922        TOTAL FREE ENERGY PREDICTED BY IDOCK:   -4.96 KCAL/MOL
REMARK 923 INTER-LIGAND FREE ENERGY PREDICTED BY IDOCK:   -4.85 KCAL/MOL
REMARK 924 INTRA-LIGAND FREE ENERGY PREDICTED BY IDOCK:   -0.11 KCAL/MOL
REMARK 927      BINDING AFFINITY PREDICTED BY RF-SCORE:    0.00 PKD
ROOT
HETATM    1  C   UNL     1      -8.994   8.564  65.353  1.00  0.00    -0.150 C  
HETATM    2  C   UNL     1      -8.958   9.981  64.805  1.00  0.00    -0.212 C  
HETATM    3  N   UNL     1     -10.231  10.404  64.304  1.00  0.00    -0.262 NA 
HETATM    4  C   UNL     1      -7.878  10.163  63.740  1.00  0.00    -0.149 C  
HETATM    5  C   UNL     1     -10.594  11.642  64.789  1.00  0.00    -0.304 C  
HETATM    6  N   UNL     1      -9.725  12.005  65.797  1.00  0.00    -0.242 N  
HETATM    7  O   UNL     1     -11.551  12.235  64.320  1.00  0.00    -0.332 OA 
HETATM    8  C   UNL     1      -8.756  11.022  65.917  1.00  0.00    -0.178 C  
HETATM    9  O   UNL     1      -7.818  10.956  66.703  1.00  0.00    -0.133 OA 
ENDROOT
BRANCH   6  10
HETATM   10  C   UNL     1      -9.808  13.200  66.583  1.00  0.00    -0.261 A  
HETATM   11  C   UNL     1      -9.939  14.474  65.988  1.00  0.00    -0.343 A  
HETATM   12  C   UNL     1     -10.023  15.670  66.744  1.00  0.00    -0.258 A  
HETATM   13  C   UNL     1     -10.177  16.997  66.048  1.00  0.00    -0.325 C  
HETATM   14  C   UNL     1      -9.980  15.563  68.136  1.00  0.00    -0.217 A  
HETATM   15  F   UNL     1     -11.241  17.702  66.516  1.00  0.00     0.022 F  
HETATM   16  N   UNL     1     -10.072  16.740  68.988  1.00  0.00    -0.272 N  
HETATM   17  F   UNL     1     -10.380  16.880  64.706  1.00  0.00    -0.016 F  
HETATM   18  C   UNL     1      -9.855  14.325  68.763  1.00  0.00    -0.189 A  
HETATM   19  F   UNL     1      -9.089  17.798  66.180  1.00  0.00    -0.272 F  
HETATM   20  C   UNL     1      -9.766  13.162  67.987  1.00  0.00    -0.224 A  
HETATM   21  O   UNL     1      -9.205  17.607  68.846  1.00  0.00    -0.241 OA 
HETATM   22  O   UNL     1     -10.994  16.761  69.812  1.00  0.00    -0.293 OA 
ENDBRANCH   6  10
TORSDOF 1
ENDMDL
MODEL      121
REMARK 921   NORMALIZED FREE ENERGY PREDICTED BY IDOCK:   -4.52 KCAL/MOL
REMARK 922        TOTAL FREE ENERGY PREDICTED BY IDOCK:   -4.95 KCAL/MOL
REMARK 923 INTER-LIGAND FREE ENERGY PREDICTED BY IDOCK:   -4.52 KCAL/MOL
REMARK 924 INTRA-LIGAND FREE ENERGY PREDICTED BY IDOCK:   -0.43 KCAL/MOL
REMARK 927      BINDING AFFINITY PREDICTED BY RF-SCORE:    0.00 PKD
ROOT
HETATM    1  C   UNL     1      -8.817   4.124  63.861  1.00  0.00    -0.127 C  
HETATM    2  C   UNL     1      -8.812   3.823  65.351  1.00  0.00    -0.121 C  
HETATM    3  N   UNL     1      -7.608   4.261  65.992  1.00  0.00    -0.088 NA 
HETATM    4  C   UNL     1      -9.066   2.346  65.644  1.00  0.00    -0.096 C  
HETATM    5  C   UNL     1      -7.865   4.993  67.131  1.00  0.00    -0.096 C  
HETATM    6  N   UNL     1      -9.212   5.282  67.188  1.00  0.00    -0.111 N  
HETATM    7  O   UNL     1      -6.961   5.279  67.899  1.00  0.00    -0.062 OA 
HETATM    8  C   UNL     1      -9.838   4.676  66.112  1.00  0.00    -0.226 C  
HETATM    9  O   UNL     1     -11.021   4.705  65.792  1.00  0.00    -0.237 OA 
ENDROOT
BRANCH   6  10
HETATM   10  C   UNL     1      -9.855   6.073  68.196  1.00  0.00    -0.131 A  
HETATM   11  C   UNL     1      -9.951   7.478  68.091  1.00  0.00    -0.198 A  
HETATM   12  C   UNL     1     -10.581   8.280  69.075  1.00  0.00    -0.167 A  
HETATM   13  C   UNL     1     -10.663   9.774  68.896  1.00  0.00    -0.217 C  
HETATM   14  C   UNL     1     -11.133   7.635  70.184  1.00  0.00    -0.218 A  
HETATM   15  F   UNL     1     -11.936  10.237  69.009  1.00  0.00    -0.223 F  
HETATM   16  N   UNL     1     -11.810   8.382  71.234  1.00  0.00    -0.286 N  
HETATM   17  F   UNL     1     -10.230  10.193  67.674  1.00  0.00    -0.192 F  
HETATM   18  C   UNL     1     -11.065   6.250  70.324  1.00  0.00    -0.430 A  
HETATM   19  F   UNL     1      -9.915  10.460  69.798  1.00  0.00    -0.241 F  
HETATM   20  C   UNL     1     -10.427   5.486  69.338  1.00  0.00    -0.360 A  
HETATM   21  O   UNL     1     -11.150   9.237  71.831  1.00  0.00    -0.367 OA 
HETATM   22  O   UNL     1     -12.986   8.077  71.467  1.00  0.00    -0.321 OA 
ENDBRANCH   6  10
TORSDOF 1
ENDMDL
MODEL      122
REMARK 921   NORMALIZED FREE ENERGY PREDICTED BY IDOCK:   -4.51 KCAL/MOL
REMARK 922        TOTAL FREE ENERGY PREDICTED BY IDOCK:   -4.94 KCAL/MOL
REMARK 923 INTER-LIGAND FREE ENERGY PREDICTED BY IDOCK:   -4.63 KCAL/MOL
REMARK 924 INTRA-LIGAND FREE ENERGY PREDICTED BY IDOCK:   -0.31 KCAL/MOL
REMARK 927      BINDING AFFINITY PREDICTED BY RF-SCORE:    0.00 PKD
ROOT
HETATM    1  C   UNL     1      -8.768   6.761  68.062  1.00  0.00    -0.118 C  
HETATM    2  C   UNL     1      -9.141   7.901  68.996  1.00  0.00    -0.144 C  
HETATM    3  N   UNL     1      -8.011   8.410  69.714  1.00  0.00    -0.102 NA 
HETATM    4  C   UNL     1     -10.257   7.513  69.964  1.00  0.00    -0.215 C  
HETATM    5  C   UNL     1      -7.933   9.785  69.648  1.00  0.00    -0.150 C  
HETATM    6  N   UNL     1      -8.839  10.245  68.716  1.00  0.00    -0.140 N  
HETATM    7  O   UNL     1      -7.148  10.395  70.356  1.00  0.00    -0.268 OA 
HETATM    8  C   UNL     1      -9.552   9.164  68.225  1.00  0.00    -0.148 C  
HETATM    9  O   UNL     1     -10.432   9.144  67.371  1.00  0.00    -0.249 OA 
ENDROOT
BRANCH   6  10
HETATM   10  C   UNL     1      -9.016  11.613  68.326  1.00  0.00    -0.185 A  
HETATM   11  C   UNL     1     -10.239  12.291  68.525  1.00  0.00    -0.213 A  
HETATM   12  C   UNL     1     -10.438  13.642  68.147  1.00  0.00    -0.250 A  
HETATM   13  C   UNL     1     -11.763  14.313  68.400  1.00  0.00    -0.338 C  
HETATM   14  C   UNL     1      -9.364  14.319  67.563  1.00  0.00    -0.199 A  
HETATM   15  F   UNL     1     -11.628  15.476  69.089  1.00  0.00    -0.275 F  
HETATM   16  N   UNL     1      -9.478  15.712  67.158  1.00  0.00    -0.215 N  
HETATM   17  F   UNL     1     -12.619  13.550  69.136  1.00  0.00    -0.265 F  
HETATM   18  C   UNL     1      -8.139  13.688  67.354  1.00  0.00    -0.184 A  
HETATM   19  F   UNL     1     -12.436  14.610  67.259  1.00  0.00    -0.331 F  
HETATM   20  C   UNL     1      -7.977  12.348  67.730  1.00  0.00    -0.156 A  
HETATM   21  O   UNL     1     -10.342  15.985  66.320  1.00  0.00    -0.296 OA 
HETATM   22  O   UNL     1      -8.677  16.507  67.662  1.00  0.00    -0.188 OA 
ENDBRANCH   6  10
TORSDOF 1
ENDMDL
MODEL      123
REMARK 921   NORMALIZED FREE ENERGY PREDICTED BY IDOCK:   -4.51 KCAL/MOL
REMARK 922        TOTAL FREE ENERGY PREDICTED BY IDOCK:   -4.94 KCAL/MOL
REMARK 923 INTER-LIGAND FREE ENERGY PREDICTED BY IDOCK:   -4.70 KCAL/MOL
REMARK 924 INTRA-LIGAND FREE ENERGY PREDICTED BY IDOCK:   -0.24 KCAL/MOL
REMARK 927      BINDING AFFINITY PREDICTED BY RF-SCORE:    0.00 PKD
ROOT
HETATM    1  C   UNL     1      -8.568   4.284  64.249  1.00  0.00    -0.121 C  
HETATM    2  C   UNL     1      -7.991   5.217  65.301  1.00  0.00    -0.108 C  
HETATM    3  N   UNL     1      -7.186   6.254  64.728  1.00  0.00    -0.060 NA 
HETATM    4  C   UNL     1      -7.206   4.464  66.375  1.00  0.00    -0.076 C  
HETATM    5  C   UNL     1      -7.524   7.499  65.212  1.00  0.00    -0.084 C  
HETATM    6  N   UNL     1      -8.695   7.400  65.934  1.00  0.00    -0.156 N  
HETATM    7  O   UNL     1      -6.819   8.467  64.977  1.00  0.00    -0.066 OA 
HETATM    8  C   UNL     1      -9.079   6.070  65.970  1.00  0.00    -0.129 C  
HETATM    9  O   UNL     1     -10.067   5.567  66.492  1.00  0.00    -0.173 OA 
ENDROOT
BRANCH   6  10
HETATM   10  C   UNL     1      -9.393   8.491  66.547  1.00  0.00    -0.203 A  
HETATM   11  C   UNL     1      -9.833   9.607  65.802  1.00  0.00    -0.373 A  
HETATM   12  C   UNL     1     -10.524  10.697  66.386  1.00  0.00    -0.276 A  
HETATM   13  C   UNL     1     -10.980  11.852  65.532  1.00  0.00    -0.297 C  
HETATM   14  C   UNL     1     -10.780  10.645  67.759  1.00  0.00    -0.257 A  
HETATM   15  F   UNL     1     -12.306  12.110  65.681  1.00  0.00    -0.435 F  
HETATM   16  N   UNL     1     -11.495  11.716  68.436  1.00  0.00    -0.270 N  
HETATM   17  F   UNL     1     -10.798  11.638  64.199  1.00  0.00    -0.329 F  
HETATM   18  C   UNL     1     -10.367   9.560  68.530  1.00  0.00    -0.234 A  
HETATM   19  F   UNL     1     -10.323  13.008  65.804  1.00  0.00    -0.265 F  
HETATM   20  C   UNL     1      -9.678   8.502  67.924  1.00  0.00    -0.193 A  
HETATM   21  O   UNL     1     -10.997  12.843  68.388  1.00  0.00    -0.236 OA 
HETATM   22  O   UNL     1     -12.531  11.403  69.037  1.00  0.00    -0.364 OA 
ENDBRANCH   6  10
TORSDOF 1
ENDMDL
MODEL      124
REMARK 921   NORMALIZED FREE ENERGY PREDICTED BY IDOCK:   -4.50 KCAL/MOL
REMARK 922        TOTAL FREE ENERGY PREDICTED BY IDOCK:   -4.93 KCAL/MOL
REMARK 923 INTER-LIGAND FREE ENERGY PREDICTED BY IDOCK:   -4.72 KCAL/MOL
REMARK 924 INTRA-LIGAND FREE ENERGY PREDICTED BY IDOCK:   -0.21 KCAL/MOL
REMARK 927      BINDING AFFINITY PREDICTED BY RF-SCORE:    0.00 PKD
ROOT
HETATM    1  C   UNL     1      -8.269   9.789  66.075  1.00  0.00    -0.117 C  
HETATM    2  C   UNL     1      -8.590  10.630  67.300  1.00  0.00    -0.126 C  
HETATM    3  N   UNL     1      -7.473  10.745  68.190  1.00  0.00    -0.088 NA 
HETATM    4  C   UNL     1      -9.818  10.117  68.049  1.00  0.00    -0.169 C  
HETATM    5  C   UNL     1      -7.237  12.052  68.559  1.00  0.00    -0.101 C  
HETATM    6  N   UNL     1      -8.007  12.887  67.777  1.00  0.00    -0.148 N  
HETATM    7  O   UNL     1      -6.451  12.310  69.455  1.00  0.00    -0.116 OA 
HETATM    8  C   UNL     1      -8.793  12.110  66.943  1.00  0.00    -0.202 C  
HETATM    9  O   UNL     1      -9.596  12.466  66.088  1.00  0.00    -0.244 OA 
ENDROOT
BRANCH   6  10
HETATM   10  C   UNL     1      -7.998  14.320  67.825  1.00  0.00    -0.168 A  
HETATM   11  C   UNL     1      -9.183  15.066  68.010  1.00  0.00    -0.183 A  
HETATM   12  C   UNL     1      -9.199  16.482  68.061  1.00  0.00    -0.214 A  
HETATM   13  C   UNL     1     -10.496  17.218  68.275  1.00  0.00    -0.385 C  
HETATM   14  C   UNL     1      -7.980  17.151  67.928  1.00  0.00    -0.192 A  
HETATM   15  F   UNL     1     -10.427  18.089  69.316  1.00  0.00    -0.345 F  
HETATM   16  N   UNL     1      -7.906  18.604  67.981  1.00  0.00    -0.264 N  
HETATM   17  F   UNL     1     -11.542  16.392  68.561  1.00  0.00    -0.359 F  
HETATM   18  C   UNL     1      -6.788  16.453  67.748  1.00  0.00    -0.152 A  
HETATM   19  F   UNL     1     -10.889  17.934  67.191  1.00  0.00    -0.350 F  
HETATM   20  C   UNL     1      -6.806  15.053  67.694  1.00  0.00    -0.203 A  
HETATM   21  O   UNL     1      -8.550  19.231  67.136  1.00  0.00    -0.277 OA 
HETATM   22  O   UNL     1      -7.174  19.093  68.849  1.00  0.00    -0.318 OA 
ENDBRANCH   6  10
TORSDOF 1
ENDMDL
MODEL      125
REMARK 921   NORMALIZED FREE ENERGY PREDICTED BY IDOCK:   -4.49 KCAL/MOL
REMARK 922        TOTAL FREE ENERGY PREDICTED BY IDOCK:   -4.92 KCAL/MOL
REMARK 923 INTER-LIGAND FREE ENERGY PREDICTED BY IDOCK:   -4.59 KCAL/MOL
REMARK 924 INTRA-LIGAND FREE ENERGY PREDICTED BY IDOCK:   -0.34 KCAL/MOL
REMARK 927      BINDING AFFINITY PREDICTED BY RF-SCORE:    0.00 PKD
ROOT
HETATM    1  C   UNL     1      -7.630  13.546  67.762  1.00  0.00    -0.163 C  
HETATM    2  C   UNL     1      -7.003  12.187  68.028  1.00  0.00    -0.090 C  
HETATM    3  N   UNL     1      -6.283  12.152  69.265  1.00  0.00    -0.088 NA 
HETATM    4  C   UNL     1      -6.111  11.727  66.877  1.00  0.00    -0.140 C  
HETATM    5  C   UNL     1      -6.623  11.059  70.032  1.00  0.00    -0.134 C  
HETATM    6  N   UNL     1      -7.729  10.447  69.479  1.00  0.00    -0.154 N  
HETATM    7  O   UNL     1      -5.973  10.771  71.023  1.00  0.00    -0.324 OA 
HETATM    8  C   UNL     1      -8.063  11.112  68.312  1.00  0.00    -0.131 C  
HETATM    9  O   UNL     1      -8.989  10.895  67.538  1.00  0.00    -0.136 OA 
ENDROOT
BRANCH   6  10
HETATM   10  C   UNL     1      -8.413   9.309  70.021  1.00  0.00    -0.176 A  
HETATM   11  C   UNL     1      -9.737   9.397  70.502  1.00  0.00    -0.331 A  
HETATM   12  C   UNL     1     -10.433   8.287  71.043  1.00  0.00    -0.241 A  
HETATM   13  C   UNL     1     -11.852   8.444  71.526  1.00  0.00    -0.297 C  
HETATM   14  C   UNL     1      -9.767   7.060  71.085  1.00  0.00    -0.172 A  
HETATM   15  F   UNL     1     -12.691   7.537  70.960  1.00  0.00    -0.336 F  
HETATM   16  N   UNL     1     -10.413   5.867  71.612  1.00  0.00    -0.225 N  
HETATM   17  F   UNL     1     -12.385   9.664  71.237  1.00  0.00    -0.339 F  
HETATM   18  C   UNL     1      -8.461   6.929  70.616  1.00  0.00    -0.136 A  
HETATM   19  F   UNL     1     -11.975   8.306  72.871  1.00  0.00    -0.460 F  
HETATM   20  C   UNL     1      -7.797   8.048  70.096  1.00  0.00    -0.099 A  
HETATM   21  O   UNL     1     -10.796   5.906  72.784  1.00  0.00    -0.223 OA 
HETATM   22  O   UNL     1     -10.496   4.895  70.851  1.00  0.00    -0.191 OA 
ENDBRANCH   6  10
TORSDOF 1
ENDMDL
MODEL      126
REMARK 921   NORMALIZED FREE ENERGY PREDICTED BY IDOCK:   -4.49 KCAL/MOL
REMARK 922        TOTAL FREE ENERGY PREDICTED BY IDOCK:   -4.92 KCAL/MOL
REMARK 923 INTER-LIGAND FREE ENERGY PREDICTED BY IDOCK:   -4.48 KCAL/MOL
REMARK 924 INTRA-LIGAND FREE ENERGY PREDICTED BY IDOCK:   -0.43 KCAL/MOL
REMARK 927      BINDING AFFINITY PREDICTED BY RF-SCORE:    0.00 PKD
ROOT
HETATM    1  C   UNL     1     -10.718  16.290  65.561  1.00  0.00    -0.326 C  
HETATM    2  C   UNL     1     -10.809  15.214  66.630  1.00  0.00    -0.318 C  
HETATM    3  N   UNL     1     -11.879  14.293  66.386  1.00  0.00    -0.399 NA 
HETATM    4  C   UNL     1     -10.922  15.803  68.035  1.00  0.00    -0.330 C  
HETATM    5  C   UNL     1     -11.466  12.982  66.482  1.00  0.00    -0.340 C  
HETATM    6  N   UNL     1     -10.089  12.947  66.558  1.00  0.00    -0.255 N  
HETATM    7  O   UNL     1     -12.281  12.075  66.493  1.00  0.00    -0.548 OA 
HETATM    8  C   UNL     1      -9.616  14.249  66.576  1.00  0.00    -0.297 C  
HETATM    9  O   UNL     1      -8.458  14.648  66.618  1.00  0.00    -0.177 OA 
ENDROOT
BRANCH   6  10
HETATM   10  C   UNL     1      -9.285  11.762  66.613  1.00  0.00    -0.198 A  
HETATM   11  C   UNL     1      -8.905  11.065  65.445  1.00  0.00    -0.157 A  
HETATM   12  C   UNL     1      -8.111   9.892  65.475  1.00  0.00    -0.127 A  
HETATM   13  C   UNL     1      -7.728   9.203  64.191  1.00  0.00    -0.121 C  
HETATM   14  C   UNL     1      -7.688   9.424  66.721  1.00  0.00    -0.098 A  
HETATM   15  F   UNL     1      -6.386   9.013  64.089  1.00  0.00    -0.076 F  
HETATM   16  N   UNL     1      -6.860   8.233  66.841  1.00  0.00    -0.068 N  
HETATM   17  F   UNL     1      -8.081   9.906  63.078  1.00  0.00    -0.126 F  
HETATM   18  C   UNL     1      -8.037  10.084  67.898  1.00  0.00    -0.109 A  
HETATM   19  F   UNL     1      -8.308   7.984  64.046  1.00  0.00    -0.156 F  
HETATM   20  C   UNL     1      -8.831  11.237  67.835  1.00  0.00    -0.142 A  
HETATM   21  O   UNL     1      -7.324   7.178  66.399  1.00  0.00    -0.076 OA 
HETATM   22  O   UNL     1      -5.769   8.368  67.408  1.00  0.00    -0.038 OA 
ENDBRANCH   6  10
TORSDOF 1
ENDMDL
MODEL      127
REMARK 921   NORMALIZED FREE ENERGY PREDICTED BY IDOCK:   -4.47 KCAL/MOL
REMARK 922        TOTAL FREE ENERGY PREDICTED BY IDOCK:   -4.90 KCAL/MOL
REMARK 923 INTER-LIGAND FREE ENERGY PREDICTED BY IDOCK:   -4.46 KCAL/MOL
REMARK 924 INTRA-LIGAND FREE ENERGY PREDICTED BY IDOCK:   -0.44 KCAL/MOL
REMARK 927      BINDING AFFINITY PREDICTED BY RF-SCORE:    0.00 PKD
ROOT
HETATM    1  C   UNL     1      -8.813   4.215  63.906  1.00  0.00    -0.127 C  
HETATM    2  C   UNL     1      -8.788   3.965  65.405  1.00  0.00    -0.123 C  
HETATM    3  N   UNL     1      -7.577   4.427  66.014  1.00  0.00    -0.085 NA 
HETATM    4  C   UNL     1      -9.033   2.498  65.751  1.00  0.00    -0.129 C  
HETATM    5  C   UNL     1      -7.820   5.197  67.131  1.00  0.00    -0.096 C  
HETATM    6  N   UNL     1      -9.167   5.485  67.196  1.00  0.00    -0.111 N  
HETATM    7  O   UNL     1      -6.908   5.511  67.878  1.00  0.00    -0.060 OA 
HETATM    8  C   UNL     1      -9.806   4.841  66.150  1.00  0.00    -0.219 C  
HETATM    9  O   UNL     1     -10.993   4.857  65.844  1.00  0.00    -0.248 OA 
ENDROOT
BRANCH   6  10
HETATM   10  C   UNL     1      -9.799   6.308  68.185  1.00  0.00    -0.129 A  
HETATM   11  C   UNL     1     -10.173   5.800  69.449  1.00  0.00    -0.301 A  
HETATM   12  C   UNL     1     -10.799   6.594  70.441  1.00  0.00    -0.316 A  
HETATM   13  C   UNL     1     -11.160   5.994  71.776  1.00  0.00    -0.276 C  
HETATM   14  C   UNL     1     -11.042   7.937  70.142  1.00  0.00    -0.201 A  
HETATM   15  F   UNL     1     -10.656   6.711  72.814  1.00  0.00    -0.197 F  
HETATM   16  N   UNL     1     -11.669   8.825  71.109  1.00  0.00    -0.284 N  
HETATM   17  F   UNL     1     -10.683   4.728  71.941  1.00  0.00    -0.259 F  
HETATM   18  C   UNL     1     -10.685   8.479  68.909  1.00  0.00    -0.100 A  
HETATM   19  F   UNL     1     -12.499   5.904  71.975  1.00  0.00    -0.309 F  
HETATM   20  C   UNL     1     -10.076   7.666  67.945  1.00  0.00    -0.231 A  
HETATM   21  O   UNL     1     -12.798   8.520  71.504  1.00  0.00    -0.320 OA 
HETATM   22  O   UNL     1     -11.033   9.835  71.434  1.00  0.00    -0.342 OA 
ENDBRANCH   6  10
TORSDOF 1
ENDMDL
MODEL      128
REMARK 921   NORMALIZED FREE ENERGY PREDICTED BY IDOCK:   -4.47 KCAL/MOL
REMARK 922        TOTAL FREE ENERGY PREDICTED BY IDOCK:   -4.90 KCAL/MOL
REMARK 923 INTER-LIGAND FREE ENERGY PREDICTED BY IDOCK:   -4.53 KCAL/MOL
REMARK 924 INTRA-LIGAND FREE ENERGY PREDICTED BY IDOCK:   -0.36 KCAL/MOL
REMARK 927      BINDING AFFINITY PREDICTED BY RF-SCORE:    0.00 PKD
ROOT
HETATM    1  C   UNL     1      -5.134   6.246  71.748  1.00  0.00    -0.022 C  
HETATM    2  C   UNL     1      -6.189   6.533  70.692  1.00  0.00    -0.039 C  
HETATM    3  N   UNL     1      -7.079   5.428  70.495  1.00  0.00    -0.059 NA 
HETATM    4  C   UNL     1      -5.574   6.966  69.362  1.00  0.00    -0.015 C  
HETATM    5  C   UNL     1      -8.401   5.816  70.524  1.00  0.00    -0.119 C  
HETATM    6  N   UNL     1      -8.479   7.121  70.965  1.00  0.00    -0.128 N  
HETATM    7  O   UNL     1      -9.281   5.042  70.186  1.00  0.00    -0.124 OA 
HETATM    8  C   UNL     1      -7.194   7.598  71.159  1.00  0.00    -0.062 C  
HETATM    9  O   UNL     1      -6.832   8.698  71.561  1.00  0.00    -0.072 OA 
ENDROOT
BRANCH   6  10
HETATM   10  C   UNL     1      -9.689   7.859  71.180  1.00  0.00    -0.158 A  
HETATM   11  C   UNL     1     -10.025   8.982  70.392  1.00  0.00    -0.244 A  
HETATM   12  C   UNL     1     -11.214   9.728  70.587  1.00  0.00    -0.402 A  
HETATM   13  C   UNL     1     -11.522  10.908  69.702  1.00  0.00    -0.305 C  
HETATM   14  C   UNL     1     -12.083   9.315  71.600  1.00  0.00    -0.379 A  
HETATM   15  F   UNL     1     -12.753  10.816  69.133  1.00  0.00    -0.240 F  
HETATM   16  N   UNL     1     -13.331  10.016  71.858  1.00  0.00    -0.422 N  
HETATM   17  F   UNL     1     -10.650  11.042  68.664  1.00  0.00    -0.166 F  
HETATM   18  C   UNL     1     -11.791   8.209  72.397  1.00  0.00    -0.448 A  
HETATM   19  F   UNL     1     -11.483  12.093  70.362  1.00  0.00    -0.282 F  
HETATM   20  C   UNL     1     -10.602   7.498  72.186  1.00  0.00    -0.262 A  
HETATM   21  O   UNL     1     -13.254  11.210  72.162  1.00  0.00    -0.481 OA 
HETATM   22  O   UNL     1     -14.371   9.350  71.786  1.00  0.00    -0.107 OA 
ENDBRANCH   6  10
TORSDOF 1
ENDMDL
MODEL      129
REMARK 921   NORMALIZED FREE ENERGY PREDICTED BY IDOCK:   -4.46 KCAL/MOL
REMARK 922        TOTAL FREE ENERGY PREDICTED BY IDOCK:   -4.89 KCAL/MOL
REMARK 923 INTER-LIGAND FREE ENERGY PREDICTED BY IDOCK:   -4.77 KCAL/MOL
REMARK 924 INTRA-LIGAND FREE ENERGY PREDICTED BY IDOCK:   -0.12 KCAL/MOL
REMARK 927      BINDING AFFINITY PREDICTED BY RF-SCORE:    0.00 PKD
ROOT
HETATM    1  C   UNL     1      -5.873   8.304  64.666  1.00  0.00    -0.048 C  
HETATM    2  C   UNL     1      -7.392   8.299  64.624  1.00  0.00    -0.090 C  
HETATM    3  N   UNL     1      -7.945   7.058  65.077  1.00  0.00    -0.125 NA 
HETATM    4  C   UNL     1      -7.935   8.652  63.241  1.00  0.00    -0.163 C  
HETATM    5  C   UNL     1      -8.942   7.245  66.010  1.00  0.00    -0.116 C  
HETATM    6  N   UNL     1      -8.952   8.567  66.401  1.00  0.00    -0.154 N  
HETATM    7  O   UNL     1      -9.648   6.312  66.358  1.00  0.00    -0.162 OA 
HETATM    8  C   UNL     1      -7.997   9.251  65.667  1.00  0.00    -0.103 C  
HETATM    9  O   UNL     1      -7.680  10.433  65.726  1.00  0.00    -0.137 OA 
ENDROOT
BRANCH   6  10
HETATM   10  C   UNL     1      -9.811   9.138  67.397  1.00  0.00    -0.184 A  
HETATM   11  C   UNL     1      -9.965   8.551  68.672  1.00  0.00    -0.197 A  
HETATM   12  C   UNL     1     -10.808   9.096  69.672  1.00  0.00    -0.210 A  
HETATM   13  C   UNL     1     -10.918   8.429  71.018  1.00  0.00    -0.246 C  
HETATM   14  C   UNL     1     -11.502  10.271  69.368  1.00  0.00    -0.186 A  
HETATM   15  F   UNL     1     -10.673   9.289  72.041  1.00  0.00    -0.421 F  
HETATM   16  N   UNL     1     -12.379  10.904  70.342  1.00  0.00    -0.333 N  
HETATM   17  F   UNL     1     -10.034   7.405  71.183  1.00  0.00    -0.183 F  
HETATM   18  C   UNL     1     -11.374  10.885  68.124  1.00  0.00    -0.383 A  
HETATM   19  F   UNL     1     -12.142   7.888  71.247  1.00  0.00    -0.288 F  
HETATM   20  C   UNL     1     -10.539  10.315  67.153  1.00  0.00    -0.320 A  
HETATM   21  O   UNL     1     -13.328  10.237  70.762  1.00  0.00    -0.349 OA 
HETATM   22  O   UNL     1     -12.121  12.075  70.645  1.00  0.00    -0.373 OA 
ENDBRANCH   6  10
TORSDOF 1
ENDMDL
MODEL      130
REMARK 921   NORMALIZED FREE ENERGY PREDICTED BY IDOCK:   -4.43 KCAL/MOL
REMARK 922        TOTAL FREE ENERGY PREDICTED BY IDOCK:   -4.86 KCAL/MOL
REMARK 923 INTER-LIGAND FREE ENERGY PREDICTED BY IDOCK:   -4.93 KCAL/MOL
REMARK 924 INTRA-LIGAND FREE ENERGY PREDICTED BY IDOCK:    0.07 KCAL/MOL
REMARK 927      BINDING AFFINITY PREDICTED BY RF-SCORE:    0.00 PKD
ROOT
HETATM    1  C   UNL     1      -9.676  10.670  63.918  1.00  0.00    -0.378 C  
HETATM    2  C   UNL     1      -8.966  10.592  65.260  1.00  0.00    -0.189 C  
HETATM    3  N   UNL     1      -9.134  11.783  66.036  1.00  0.00    -0.192 NA 
HETATM    4  C   UNL     1      -7.483  10.256  65.111  1.00  0.00    -0.130 C  
HETATM    5  C   UNL     1      -9.528  11.509  67.328  1.00  0.00    -0.169 C  
HETATM    6  N   UNL     1      -9.867  10.176  67.423  1.00  0.00    -0.180 N  
HETATM    7  O   UNL     1      -9.532  12.388  68.174  1.00  0.00    -0.204 OA 
HETATM    8  C   UNL     1      -9.627   9.572  66.200  1.00  0.00    -0.239 C  
HETATM    9  O   UNL     1      -9.814   8.408  65.865  1.00  0.00    -0.116 OA 
ENDROOT
BRANCH   6  10
HETATM   10  C   UNL     1     -10.376   9.524  68.594  1.00  0.00    -0.205 A  
HETATM   11  C   UNL     1     -10.001   8.205  68.934  1.00  0.00    -0.198 A  
HETATM   12  C   UNL     1     -10.492   7.540  70.085  1.00  0.00    -0.226 A  
HETATM   13  C   UNL     1     -10.041   6.138  70.400  1.00  0.00    -0.189 C  
HETATM   14  C   UNL     1     -11.376   8.238  70.912  1.00  0.00    -0.268 A  
HETATM   15  F   UNL     1      -9.549   6.026  71.662  1.00  0.00    -0.156 F  
HETATM   16  N   UNL     1     -11.917   7.634  72.121  1.00  0.00    -0.303 N  
HETATM   17  F   UNL     1      -9.046   5.696  69.580  1.00  0.00    -0.123 F  
HETATM   18  C   UNL     1     -11.767   9.542  70.615  1.00  0.00    -0.330 A  
HETATM   19  F   UNL     1     -11.035   5.220  70.285  1.00  0.00    -0.335 F  
HETATM   20  C   UNL     1     -11.272  10.169  69.464  1.00  0.00    -0.288 A  
HETATM   21  O   UNL     1     -12.573   6.598  71.987  1.00  0.00    -0.317 OA 
HETATM   22  O   UNL     1     -11.703   8.228  73.184  1.00  0.00    -0.196 OA 
ENDBRANCH   6  10
TORSDOF 1
ENDMDL
MODEL      131
REMARK 921   NORMALIZED FREE ENERGY PREDICTED BY IDOCK:   -4.42 KCAL/MOL
REMARK 922        TOTAL FREE ENERGY PREDICTED BY IDOCK:   -4.84 KCAL/MOL
REMARK 923 INTER-LIGAND FREE ENERGY PREDICTED BY IDOCK:   -4.93 KCAL/MOL
REMARK 924 INTRA-LIGAND FREE ENERGY PREDICTED BY IDOCK:    0.09 KCAL/MOL
REMARK 927      BINDING AFFINITY PREDICTED BY RF-SCORE:    0.00 PKD
ROOT
HETATM    1  C   UNL     1      -5.978  11.986  70.078  1.00  0.00    -0.159 C  
HETATM    2  C   UNL     1      -6.104  12.463  68.640  1.00  0.00    -0.065 C  
HETATM    3  N   UNL     1      -5.687  11.469  67.698  1.00  0.00    -0.049 NA 
HETATM    4  C   UNL     1      -5.358  13.774  68.398  1.00  0.00    -0.100 C  
HETATM    5  C   UNL     1      -6.612  11.288  66.692  1.00  0.00    -0.135 C  
HETATM    6  N   UNL     1      -7.773  11.956  67.021  1.00  0.00    -0.160 N  
HETATM    7  O   UNL     1      -6.335  10.623  65.708  1.00  0.00    -0.122 OA 
HETATM    8  C   UNL     1      -7.571  12.626  68.216  1.00  0.00    -0.133 C  
HETATM    9  O   UNL     1      -8.357  13.316  68.856  1.00  0.00     0.041 OA 
ENDROOT
BRANCH   6  10
HETATM   10  C   UNL     1      -8.982  11.961  66.252  1.00  0.00    -0.157 A  
HETATM   11  C   UNL     1      -9.794  13.111  66.148  1.00  0.00    -0.284 A  
HETATM   12  C   UNL     1     -10.994  13.139  65.394  1.00  0.00    -0.298 A  
HETATM   13  C   UNL     1     -11.808  14.403  65.311  1.00  0.00    -0.373 C  
HETATM   14  C   UNL     1     -11.368  11.971  64.724  1.00  0.00    -0.313 A  
HETATM   15  F   UNL     1     -12.064  14.768  64.027  1.00  0.00    -0.454 F  
HETATM   16  N   UNL     1     -12.578  11.917  63.917  1.00  0.00    -0.394 N  
HETATM   17  F   UNL     1     -11.191  15.478  65.879  1.00  0.00    -0.321 F  
HETATM   18  C   UNL     1     -10.592  10.815  64.796  1.00  0.00    -0.264 A  
HETATM   19  F   UNL     1     -13.009  14.306  65.937  1.00  0.00    -0.511 F  
HETATM   20  C   UNL     1      -9.417  10.818  65.558  1.00  0.00    -0.253 A  
HETATM   21  O   UNL     1     -13.646  12.148  64.489  1.00  0.00    -0.477 OA 
HETATM   22  O   UNL     1     -12.441  11.610  62.727  1.00  0.00     0.045 OA 
ENDBRANCH   6  10
TORSDOF 1
ENDMDL
MODEL      132
REMARK 921   NORMALIZED FREE ENERGY PREDICTED BY IDOCK:   -4.40 KCAL/MOL
REMARK 922        TOTAL FREE ENERGY PREDICTED BY IDOCK:   -4.83 KCAL/MOL
REMARK 923 INTER-LIGAND FREE ENERGY PREDICTED BY IDOCK:   -4.40 KCAL/MOL
REMARK 924 INTRA-LIGAND FREE ENERGY PREDICTED BY IDOCK:   -0.43 KCAL/MOL
REMARK 927      BINDING AFFINITY PREDICTED BY RF-SCORE:    0.00 PKD
ROOT
HETATM    1  C   UNL     1     -11.641   4.885  73.119  1.00  0.00    -0.300 C  
HETATM    2  C   UNL     1     -10.401   5.764  73.129  1.00  0.00    -0.205 C  
HETATM    3  N   UNL     1      -9.268   5.115  72.539  1.00  0.00    -0.132 NA 
HETATM    4  C   UNL     1     -10.058   6.266  74.530  1.00  0.00    -0.353 C  
HETATM    5  C   UNL     1      -8.638   5.915  71.611  1.00  0.00    -0.132 C  
HETATM    6  N   UNL     1      -9.425   7.019  71.358  1.00  0.00    -0.159 N  
HETATM    7  O   UNL     1      -7.552   5.598  71.154  1.00  0.00    -0.096 OA 
HETATM    8  C   UNL     1     -10.539   6.962  72.179  1.00  0.00    -0.213 C  
HETATM    9  O   UNL     1     -11.486   7.738  72.249  1.00  0.00    -0.289 OA 
ENDROOT
BRANCH   6  10
HETATM   10  C   UNL     1      -9.134   8.054  70.410  1.00  0.00    -0.150 A  
HETATM   11  C   UNL     1      -9.648   8.025  69.095  1.00  0.00    -0.156 A  
HETATM   12  C   UNL     1      -9.374   9.035  68.140  1.00  0.00    -0.151 A  
HETATM   13  C   UNL     1      -9.965   8.952  66.757  1.00  0.00    -0.267 C  
HETATM   14  C   UNL     1      -8.566  10.103  68.538  1.00  0.00    -0.118 A  
HETATM   15  F   UNL     1     -10.637  10.083  66.416  1.00  0.00    -0.287 F  
HETATM   16  N   UNL     1      -8.246  11.190  67.624  1.00  0.00    -0.116 N  
HETATM   17  F   UNL     1     -10.865   7.937  66.618  1.00  0.00    -0.390 F  
HETATM   18  C   UNL     1      -8.043  10.174  69.827  1.00  0.00    -0.167 A  
HETATM   19  F   UNL     1      -9.035   8.742  65.791  1.00  0.00    -0.178 F  
HETATM   20  C   UNL     1      -8.325   9.154  70.745  1.00  0.00    -0.248 A  
HETATM   21  O   UNL     1      -7.655  10.893  66.582  1.00  0.00    -0.126 OA 
HETATM   22  O   UNL     1      -8.563  12.331  67.981  1.00  0.00    -0.160 OA 
ENDBRANCH   6  10
TORSDOF 1
ENDMDL
MODEL      133
REMARK 921   NORMALIZED FREE ENERGY PREDICTED BY IDOCK:   -4.37 KCAL/MOL
REMARK 922        TOTAL FREE ENERGY PREDICTED BY IDOCK:   -4.80 KCAL/MOL
REMARK 923 INTER-LIGAND FREE ENERGY PREDICTED BY IDOCK:   -4.62 KCAL/MOL
REMARK 924 INTRA-LIGAND FREE ENERGY PREDICTED BY IDOCK:   -0.17 KCAL/MOL
REMARK 927      BINDING AFFINITY PREDICTED BY RF-SCORE:    0.00 PKD
ROOT
HETATM    1  C   UNL     1      -5.918  10.312  65.892  1.00  0.00    -0.094 C  
HETATM    2  C   UNL     1      -6.981  11.047  66.692  1.00  0.00    -0.140 C  
HETATM    3  N   UNL     1      -8.187  11.242  65.945  1.00  0.00    -0.057 NA 
HETATM    4  C   UNL     1      -6.473  12.379  67.242  1.00  0.00    -0.140 C  
HETATM    5  C   UNL     1      -9.304  10.860  66.657  1.00  0.00    -0.171 C  
HETATM    6  N   UNL     1      -8.907  10.187  67.793  1.00  0.00    -0.125 N  
HETATM    7  O   UNL     1     -10.421  11.133  66.250  1.00  0.00    -0.246 OA 
HETATM    8  C   UNL     1      -7.523  10.192  67.847  1.00  0.00    -0.088 C  
HETATM    9  O   UNL     1      -6.781   9.687  68.682  1.00  0.00    -0.052 OA 
ENDROOT
BRANCH   6  10
HETATM   10  C   UNL     1      -9.781   9.587  68.759  1.00  0.00    -0.159 A  
HETATM   11  C   UNL     1     -10.807  10.323  69.391  1.00  0.00    -0.282 A  
HETATM   12  C   UNL     1     -11.682   9.753  70.349  1.00  0.00    -0.301 A  
HETATM   13  C   UNL     1     -12.767  10.588  70.977  1.00  0.00    -0.408 C  
HETATM   14  C   UNL     1     -11.513   8.401  70.661  1.00  0.00    -0.219 A  
HETATM   15  F   UNL     1     -13.993  10.015  70.856  1.00  0.00    -0.291 F  
HETATM   16  N   UNL     1     -12.377   7.734  71.624  1.00  0.00    -0.311 N  
HETATM   17  F   UNL     1     -12.886  11.824  70.415  1.00  0.00    -0.227 F  
HETATM   18  C   UNL     1     -10.516   7.639  70.056  1.00  0.00    -0.229 A  
HETATM   19  F   UNL     1     -12.568  10.812  72.301  1.00  0.00    -0.365 F  
HETATM   20  C   UNL     1      -9.660   8.234  69.120  1.00  0.00    -0.160 A  
HETATM   21  O   UNL     1     -12.393   8.185  72.772  1.00  0.00    -0.259 OA 
HETATM   22  O   UNL     1     -13.001   6.745  71.221  1.00  0.00    -0.301 OA 
ENDBRANCH   6  10
TORSDOF 1
ENDMDL
MODEL      134
REMARK 921   NORMALIZED FREE ENERGY PREDICTED BY IDOCK:   -4.37 KCAL/MOL
REMARK 922        TOTAL FREE ENERGY PREDICTED BY IDOCK:   -4.79 KCAL/MOL
REMARK 923 INTER-LIGAND FREE ENERGY PREDICTED BY IDOCK:   -4.38 KCAL/MOL
REMARK 924 INTRA-LIGAND FREE ENERGY PREDICTED BY IDOCK:   -0.41 KCAL/MOL
REMARK 927      BINDING AFFINITY PREDICTED BY RF-SCORE:    0.00 PKD
ROOT
HETATM    1  C   UNL     1      -8.221  10.163  64.550  1.00  0.00    -0.162 C  
HETATM    2  C   UNL     1      -7.726  10.551  65.934  1.00  0.00    -0.148 C  
HETATM    3  N   UNL     1      -8.521  11.584  66.528  1.00  0.00    -0.172 NA 
HETATM    4  C   UNL     1      -6.251  10.948  65.931  1.00  0.00    -0.089 C  
HETATM    5  C   UNL     1      -8.897  11.271  67.817  1.00  0.00    -0.141 C  
HETATM    6  N   UNL     1      -8.588   9.951  68.070  1.00  0.00    -0.121 N  
HETATM    7  O   UNL     1      -9.412  12.114  68.533  1.00  0.00    -0.193 OA 
HETATM    8  C   UNL     1      -7.949   9.428  66.958  1.00  0.00    -0.102 C  
HETATM    9  O   UNL     1      -7.532   8.290  66.773  1.00  0.00    -0.084 OA 
ENDROOT
BRANCH   6  10
HETATM   10  C   UNL     1      -8.876   9.243  69.282  1.00  0.00    -0.146 A  
HETATM   11  C   UNL     1      -9.927   8.303  69.363  1.00  0.00    -0.188 A  
HETATM   12  C   UNL     1     -10.231   7.591  70.550  1.00  0.00    -0.201 A  
HETATM   13  C   UNL     1     -11.357   6.590  70.567  1.00  0.00    -0.367 C  
HETATM   14  C   UNL     1      -9.441   7.837  71.676  1.00  0.00    -0.144 A  
HETATM   15  F   UNL     1     -10.957   5.374  71.023  1.00  0.00    -0.307 F  
HETATM   16  N   UNL     1      -9.677   7.140  72.932  1.00  0.00    -0.156 N  
HETATM   17  F   UNL     1     -11.889   6.360  69.334  1.00  0.00    -0.446 F  
HETATM   18  C   UNL     1      -8.392   8.754  71.638  1.00  0.00    -0.190 A  
HETATM   19  F   UNL     1     -12.402   6.976  71.344  1.00  0.00    -0.331 F  
HETATM   20  C   UNL     1      -8.123   9.448  70.451  1.00  0.00    -0.197 A  
HETATM   21  O   UNL     1     -10.786   7.282  73.454  1.00  0.00    -0.374 OA 
HETATM   22  O   UNL     1      -8.733   6.488  73.394  1.00  0.00    -0.123 OA 
ENDBRANCH   6  10
TORSDOF 1
ENDMDL
MODEL      135
REMARK 921   NORMALIZED FREE ENERGY PREDICTED BY IDOCK:   -4.31 KCAL/MOL
REMARK 922        TOTAL FREE ENERGY PREDICTED BY IDOCK:   -4.73 KCAL/MOL
REMARK 923 INTER-LIGAND FREE ENERGY PREDICTED BY IDOCK:   -5.04 KCAL/MOL
REMARK 924 INTRA-LIGAND FREE ENERGY PREDICTED BY IDOCK:    0.32 KCAL/MOL
REMARK 927      BINDING AFFINITY PREDICTED BY RF-SCORE:    0.00 PKD
ROOT
HETATM    1  C   UNL     1     -10.815   6.293  68.732  1.00  0.00    -0.398 C  
HETATM    2  C   UNL     1      -9.690   7.279  68.459  1.00  0.00    -0.149 C  
HETATM    3  N   UNL     1      -9.494   7.509  67.059  1.00  0.00    -0.153 NA 
HETATM    4  C   UNL     1      -8.379   6.859  69.120  1.00  0.00    -0.125 C  
HETATM    5  C   UNL     1      -9.433   8.852  66.758  1.00  0.00    -0.187 C  
HETATM    6  N   UNL     1      -9.811   9.581  67.866  1.00  0.00    -0.150 N  
HETATM    7  O   UNL     1      -9.081   9.223  65.650  1.00  0.00    -0.186 OA 
HETATM    8  C   UNL     1     -10.054   8.702  68.909  1.00  0.00    -0.202 C  
HETATM    9  O   UNL     1     -10.427   8.945  70.051  1.00  0.00    -0.200 OA 
ENDROOT
BRANCH   6  10
HETATM   10  C   UNL     1      -9.926  11.008  67.929  1.00  0.00    -0.174 A  
HETATM   11  C   UNL     1     -10.766  11.647  68.867  1.00  0.00    -0.244 A  
HETATM   12  C   UNL     1     -10.897  13.055  68.947  1.00  0.00    -0.244 A  
HETATM   13  C   UNL     1     -11.800  13.675  69.982  1.00  0.00    -0.308 C  
HETATM   14  C   UNL     1     -10.149  13.830  68.057  1.00  0.00    -0.245 A  
HETATM   15  F   UNL     1     -11.157  14.604  70.736  1.00  0.00    -0.252 F  
HETATM   16  N   UNL     1     -10.214  15.283  68.080  1.00  0.00    -0.228 N  
HETATM   17  F   UNL     1     -12.302  12.770  70.868  1.00  0.00    -0.425 F  
HETATM   18  C   UNL     1      -9.304  13.240  67.119  1.00  0.00    -0.240 A  
HETATM   19  F   UNL     1     -12.884  14.291  69.444  1.00  0.00    -0.222 F  
HETATM   20  C   UNL     1      -9.204  11.844  67.059  1.00  0.00    -0.191 A  
HETATM   21  O   UNL     1     -11.318  15.800  67.886  1.00  0.00    -0.338 OA 
HETATM   22  O   UNL     1      -9.150  15.887  68.259  1.00  0.00    -0.181 OA 
ENDBRANCH   6  10
TORSDOF 1
ENDMDL
MODEL      136
REMARK 921   NORMALIZED FREE ENERGY PREDICTED BY IDOCK:   -4.29 KCAL/MOL
REMARK 922        TOTAL FREE ENERGY PREDICTED BY IDOCK:   -4.70 KCAL/MOL
REMARK 923 INTER-LIGAND FREE ENERGY PREDICTED BY IDOCK:   -4.63 KCAL/MOL
REMARK 924 INTRA-LIGAND FREE ENERGY PREDICTED BY IDOCK:   -0.07 KCAL/MOL
REMARK 927      BINDING AFFINITY PREDICTED BY RF-SCORE:    0.00 PKD
ROOT
HETATM    1  C   UNL     1     -12.607  14.301  64.904  1.00  0.00    -0.339 C  
HETATM    2  C   UNL     1     -11.661  13.843  66.003  1.00  0.00    -0.366 C  
HETATM    3  N   UNL     1     -12.350  13.204  67.084  1.00  0.00    -0.260 NA 
HETATM    4  C   UNL     1     -10.787  14.981  66.525  1.00  0.00    -0.320 C  
HETATM    5  C   UNL     1     -11.772  12.001  67.428  1.00  0.00    -0.281 C  
HETATM    6  N   UNL     1     -10.837  11.661  66.473  1.00  0.00    -0.273 N  
HETATM    7  O   UNL     1     -12.111  11.420  68.445  1.00  0.00    -0.575 OA 
HETATM    8  C   UNL     1     -10.766  12.683  65.542  1.00  0.00    -0.274 C  
HETATM    9  O   UNL     1     -10.075  12.760  64.532  1.00  0.00    -0.307 OA 
ENDROOT
BRANCH   6  10
HETATM   10  C   UNL     1     -10.065  10.453  66.453  1.00  0.00    -0.228 A  
HETATM   11  C   UNL     1      -8.675  10.462  66.202  1.00  0.00    -0.163 A  
HETATM   12  C   UNL     1      -7.892   9.282  66.176  1.00  0.00    -0.099 A  
HETATM   13  C   UNL     1      -6.410   9.361  65.917  1.00  0.00    -0.068 C  
HETATM   14  C   UNL     1      -8.537   8.067  66.420  1.00  0.00    -0.145 A  
HETATM   15  F   UNL     1      -5.684   8.733  66.879  1.00  0.00    -0.041 F  
HETATM   16  N   UNL     1      -7.805   6.809  66.426  1.00  0.00    -0.101 N  
HETATM   17  F   UNL     1      -5.938  10.639  65.881  1.00  0.00    -0.083 F  
HETATM   18  C   UNL     1      -9.906   8.014  66.677  1.00  0.00    -0.322 A  
HETATM   19  F   UNL     1      -6.046   8.810  64.730  1.00  0.00    -0.061 F  
HETATM   20  C   UNL     1     -10.655   9.199  66.687  1.00  0.00    -0.157 A  
HETATM   21  O   UNL     1      -7.217   6.496  65.387  1.00  0.00    -0.069 OA 
HETATM   22  O   UNL     1      -7.859   6.137  67.462  1.00  0.00    -0.099 OA 
ENDBRANCH   6  10
TORSDOF 1
ENDMDL
MODEL      137
REMARK 921   NORMALIZED FREE ENERGY PREDICTED BY IDOCK:   -4.29 KCAL/MOL
REMARK 922        TOTAL FREE ENERGY PREDICTED BY IDOCK:   -4.70 KCAL/MOL
REMARK 923 INTER-LIGAND FREE ENERGY PREDICTED BY IDOCK:   -4.30 KCAL/MOL
REMARK 924 INTRA-LIGAND FREE ENERGY PREDICTED BY IDOCK:   -0.40 KCAL/MOL
REMARK 927      BINDING AFFINITY PREDICTED BY RF-SCORE:    0.00 PKD
ROOT
HETATM    1  C   UNL     1     -11.071   7.859  72.946  1.00  0.00    -0.442 C  
HETATM    2  C   UNL     1     -11.689   7.946  71.560  1.00  0.00    -0.283 C  
HETATM    3  N   UNL     1     -11.344   9.162  70.885  1.00  0.00    -0.277 NA 
HETATM    4  C   UNL     1     -13.205   7.764  71.590  1.00  0.00    -0.381 C  
HETATM    5  C   UNL     1     -10.891   8.932  69.604  1.00  0.00    -0.178 C  
HETATM    6  N   UNL     1     -10.686   7.579  69.433  1.00  0.00    -0.220 N  
HETATM    7  O   UNL     1     -10.737   9.860  68.827  1.00  0.00    -0.210 OA 
HETATM    8  C   UNL     1     -11.072   6.926  70.592  1.00  0.00    -0.278 C  
HETATM    9  O   UNL     1     -11.031   5.729  70.852  1.00  0.00    -0.276 OA 
ENDROOT
BRANCH   6  10
HETATM   10  C   UNL     1     -10.166   6.955  68.253  1.00  0.00    -0.180 A  
HETATM   11  C   UNL     1      -8.806   7.066  67.889  1.00  0.00    -0.124 A  
HETATM   12  C   UNL     1      -8.270   6.458  66.727  1.00  0.00    -0.110 A  
HETATM   13  C   UNL     1      -6.805   6.603  66.403  1.00  0.00    -0.061 C  
HETATM   14  C   UNL     1      -9.137   5.715  65.922  1.00  0.00    -0.148 A  
HETATM   15  F   UNL     1      -6.202   5.401  66.204  1.00  0.00    -0.029 F  
HETATM   16  N   UNL     1      -8.665   5.047  64.718  1.00  0.00    -0.153 N  
HETATM   17  F   UNL     1      -6.093   7.208  67.395  1.00  0.00    -0.030 F  
HETATM   18  C   UNL     1     -10.485   5.576  66.247  1.00  0.00    -0.230 A  
HETATM   19  F   UNL     1      -6.576   7.345  65.290  1.00  0.00    -0.042 F  
HETATM   20  C   UNL     1     -10.987   6.197  67.399  1.00  0.00    -0.409 A  
HETATM   21  O   UNL     1      -8.167   5.757  63.840  1.00  0.00    -0.123 OA 
HETATM   22  O   UNL     1      -8.833   3.824  64.657  1.00  0.00    -0.114 OA 
ENDBRANCH   6  10
TORSDOF 1
ENDMDL
MODEL      138
REMARK 921   NORMALIZED FREE ENERGY PREDICTED BY IDOCK:   -4.27 KCAL/MOL
REMARK 922        TOTAL FREE ENERGY PREDICTED BY IDOCK:   -4.69 KCAL/MOL
REMARK 923 INTER-LIGAND FREE ENERGY PREDICTED BY IDOCK:   -4.46 KCAL/MOL
REMARK 924 INTRA-LIGAND FREE ENERGY PREDICTED BY IDOCK:   -0.23 KCAL/MOL
REMARK 927      BINDING AFFINITY PREDICTED BY RF-SCORE:    0.00 PKD
ROOT
HETATM    1  C   UNL     1      -9.110   3.754  64.452  1.00  0.00    -0.129 C  
HETATM    2  C   UNL     1      -8.436   4.609  65.513  1.00  0.00    -0.123 C  
HETATM    3  N   UNL     1      -7.622   5.642  64.945  1.00  0.00    -0.078 NA 
HETATM    4  C   UNL     1      -7.625   3.773  66.501  1.00  0.00    -0.084 C  
HETATM    5  C   UNL     1      -7.881   6.873  65.507  1.00  0.00    -0.112 C  
HETATM    6  N   UNL     1      -9.012   6.784  66.290  1.00  0.00    -0.153 N  
HETATM    7  O   UNL     1      -7.150   7.824  65.280  1.00  0.00    -0.058 OA 
HETATM    8  C   UNL     1      -9.449   5.469  66.284  1.00  0.00    -0.157 C  
HETATM    9  O   UNL     1     -10.427   4.979  66.838  1.00  0.00    -0.234 OA 
ENDROOT
BRANCH   6  10
HETATM   10  C   UNL     1      -9.629   7.868  66.996  1.00  0.00    -0.192 A  
HETATM   11  C   UNL     1      -9.868   7.811  68.386  1.00  0.00    -0.180 A  
HETATM   12  C   UNL     1     -10.477   8.870  69.105  1.00  0.00    -0.236 A  
HETATM   13  C   UNL     1     -10.691   8.753  70.592  1.00  0.00    -0.225 C  
HETATM   14  C   UNL     1     -10.841  10.015  68.392  1.00  0.00    -0.235 A  
HETATM   15  F   UNL     1     -10.166   9.806  71.272  1.00  0.00    -0.342 F  
HETATM   16  N   UNL     1     -11.459  11.154  69.055  1.00  0.00    -0.267 N  
HETATM   17  F   UNL     1     -10.110   7.645  71.132  1.00  0.00    -0.183 F  
HETATM   18  C   UNL     1     -10.619  10.114  67.020  1.00  0.00    -0.290 A  
HETATM   19  F   UNL     1     -12.001   8.677  70.937  1.00  0.00    -0.292 F  
HETATM   20  C   UNL     1     -10.023   9.045  66.337  1.00  0.00    -0.370 A  
HETATM   21  O   UNL     1     -12.530  10.954  69.635  1.00  0.00    -0.302 OA 
HETATM   22  O   UNL     1     -10.879  12.241  68.954  1.00  0.00    -0.223 OA 
ENDBRANCH   6  10
TORSDOF 1
ENDMDL
MODEL      139
REMARK 921   NORMALIZED FREE ENERGY PREDICTED BY IDOCK:   -4.26 KCAL/MOL
REMARK 922        TOTAL FREE ENERGY PREDICTED BY IDOCK:   -4.67 KCAL/MOL
REMARK 923 INTER-LIGAND FREE ENERGY PREDICTED BY IDOCK:   -4.27 KCAL/MOL
REMARK 924 INTRA-LIGAND FREE ENERGY PREDICTED BY IDOCK:   -0.41 KCAL/MOL
REMARK 927      BINDING AFFINITY PREDICTED BY RF-SCORE:    0.00 PKD
ROOT
HETATM    1  C   UNL     1     -13.374   7.573  71.668  1.00  0.00    -0.414 C  
HETATM    2  C   UNL     1     -11.863   7.501  71.518  1.00  0.00    -0.295 C  
HETATM    3  N   UNL     1     -11.420   6.215  71.070  1.00  0.00    -0.292 NA 
HETATM    4  C   UNL     1     -11.134   7.899  72.800  1.00  0.00    -0.462 C  
HETATM    5  C   UNL     1     -10.543   6.309  70.010  1.00  0.00    -0.248 C  
HETATM    6  N   UNL     1     -10.533   7.608  69.547  1.00  0.00    -0.225 N  
HETATM    7  O   UNL     1      -9.924   5.329  69.629  1.00  0.00    -0.189 OA 
HETATM    8  C   UNL     1     -11.359   8.370  70.356  1.00  0.00    -0.172 C  
HETATM    9  O   UNL     1     -11.636   9.562  70.271  1.00  0.00    -0.245 OA 
ENDROOT
BRANCH   6  10
HETATM   10  C   UNL     1      -9.788   8.089  68.421  1.00  0.00    -0.171 A  
HETATM   11  C   UNL     1      -8.390   8.282  68.481  1.00  0.00    -0.129 A  
HETATM   12  C   UNL     1      -7.632   8.756  67.382  1.00  0.00    -0.090 A  
HETATM   13  C   UNL     1      -6.140   8.927  67.506  1.00  0.00    -0.051 C  
HETATM   14  C   UNL     1      -8.312   9.031  66.193  1.00  0.00    -0.121 A  
HETATM   15  F   UNL     1      -5.464   8.276  66.523  1.00  0.00    -0.027 F  
HETATM   16  N   UNL     1      -7.609   9.509  65.012  1.00  0.00    -0.109 N  
HETATM   17  F   UNL     1      -5.640   8.439  68.677  1.00  0.00    -0.033 F  
HETATM   18  C   UNL     1      -9.690   8.849  66.090  1.00  0.00    -0.338 A  
HETATM   19  F   UNL     1      -5.747  10.225  67.460  1.00  0.00    -0.044 F  
HETATM   20  C   UNL     1     -10.413   8.388  67.198  1.00  0.00    -0.380 A  
HETATM   21  O   UNL     1      -6.991  10.572  65.117  1.00  0.00    -0.113 OA 
HETATM   22  O   UNL     1      -7.714   8.827  63.986  1.00  0.00    -0.117 OA 
ENDBRANCH   6  10
TORSDOF 1
ENDMDL
MODEL      140
REMARK 921   NORMALIZED FREE ENERGY PREDICTED BY IDOCK:   -4.23 KCAL/MOL
REMARK 922        TOTAL FREE ENERGY PREDICTED BY IDOCK:   -4.64 KCAL/MOL
REMARK 923 INTER-LIGAND FREE ENERGY PREDICTED BY IDOCK:   -4.21 KCAL/MOL
REMARK 924 INTRA-LIGAND FREE ENERGY PREDICTED BY IDOCK:   -0.43 KCAL/MOL
REMARK 927      BINDING AFFINITY PREDICTED BY RF-SCORE:    0.00 PKD
ROOT
HETATM    1  C   UNL     1      -7.042   2.512  66.123  1.00  0.00    -0.064 C  
HETATM    2  C   UNL     1      -7.133   2.798  67.613  1.00  0.00    -0.049 C  
HETATM    3  N   UNL     1      -6.341   3.926  68.002  1.00  0.00    -0.036 NA 
HETATM    4  C   UNL     1      -6.775   1.577  68.459  1.00  0.00    -0.029 C  
HETATM    5  C   UNL     1      -7.052   4.816  68.778  1.00  0.00    -0.053 C  
HETATM    6  N   UNL     1      -8.386   4.466  68.757  1.00  0.00    -0.083 N  
HETATM    7  O   UNL     1      -6.483   5.730  69.351  1.00  0.00    -0.038 OA 
HETATM    8  C   UNL     1      -8.526   3.305  68.016  1.00  0.00    -0.086 C  
HETATM    9  O   UNL     1      -9.546   2.683  67.743  1.00  0.00    -0.178 OA 
ENDROOT
BRANCH   6  10
HETATM   10  C   UNL     1      -9.448   5.183  69.401  1.00  0.00    -0.140 A  
HETATM   11  C   UNL     1      -9.702   5.052  70.784  1.00  0.00    -0.263 A  
HETATM   12  C   UNL     1     -10.746   5.750  71.442  1.00  0.00    -0.319 A  
HETATM   13  C   UNL     1     -10.956   5.577  72.924  1.00  0.00    -0.285 C  
HETATM   14  C   UNL     1     -11.541   6.605  70.675  1.00  0.00    -0.382 A  
HETATM   15  F   UNL     1     -10.978   6.766  73.582  1.00  0.00    -0.302 F  
HETATM   16  N   UNL     1     -12.626   7.368  71.274  1.00  0.00    -0.350 N  
HETATM   17  F   UNL     1      -9.975   4.847  73.524  1.00  0.00    -0.148 F  
HETATM   18  C   UNL     1     -11.321   6.766  69.308  1.00  0.00    -0.224 A  
HETATM   19  F   UNL     1     -12.116   4.940  73.227  1.00  0.00    -0.374 F  
HETATM   20  C   UNL     1     -10.286   6.055  68.686  1.00  0.00    -0.264 A  
HETATM   21  O   UNL     1     -13.526   6.729  71.825  1.00  0.00    -0.282 OA 
HETATM   22  O   UNL     1     -12.576   8.598  71.152  1.00  0.00    -0.260 OA 
ENDBRANCH   6  10
TORSDOF 1
ENDMDL
MODEL      141
REMARK 921   NORMALIZED FREE ENERGY PREDICTED BY IDOCK:   -4.22 KCAL/MOL
REMARK 922        TOTAL FREE ENERGY PREDICTED BY IDOCK:   -4.64 KCAL/MOL
REMARK 923 INTER-LIGAND FREE ENERGY PREDICTED BY IDOCK:   -4.68 KCAL/MOL
REMARK 924 INTRA-LIGAND FREE ENERGY PREDICTED BY IDOCK:    0.05 KCAL/MOL
REMARK 927      BINDING AFFINITY PREDICTED BY RF-SCORE:    0.00 PKD
ROOT
HETATM    1  C   UNL     1     -10.470  20.685  65.147  1.00  0.00     0.880 C  
HETATM    2  C   UNL     1      -9.653  19.817  66.090  1.00  0.00    -0.398 C  
HETATM    3  N   UNL     1      -9.810  20.203  67.460  1.00  0.00    -0.412 NA 
HETATM    4  C   UNL     1      -8.174  19.784  65.711  1.00  0.00    -0.111 C  
HETATM    5  C   UNL     1     -10.088  19.125  68.273  1.00  0.00    -0.416 C  
HETATM    6  N   UNL     1     -10.360  18.025  67.487  1.00  0.00    -0.369 N  
HETATM    7  O   UNL     1     -10.063  19.243  69.487  1.00  0.00    -0.214 OA 
HETATM    8  C   UNL     1     -10.192  18.380  66.159  1.00  0.00    -0.389 C  
HETATM    9  O   UNL     1     -10.355  17.700  65.153  1.00  0.00    -0.390 OA 
ENDROOT
BRANCH   6  10
HETATM   10  C   UNL     1     -10.746  16.730  67.967  1.00  0.00    -0.355 A  
HETATM   11  C   UNL     1     -10.263  15.543  67.374  1.00  0.00    -0.255 A  
HETATM   12  C   UNL     1     -10.630  14.253  67.829  1.00  0.00    -0.253 A  
HETATM   13  C   UNL     1     -10.068  13.024  67.162  1.00  0.00    -0.244 C  
HETATM   14  C   UNL     1     -11.502  14.171  68.918  1.00  0.00    -0.293 A  
HETATM   15  F   UNL     1      -9.486  12.177  68.051  1.00  0.00    -0.174 F  
HETATM   16  N   UNL     1     -11.920  12.886  69.458  1.00  0.00    -0.308 N  
HETATM   17  F   UNL     1      -9.103  13.307  66.243  1.00  0.00    -0.219 F  
HETATM   18  C   UNL     1     -11.998  15.318  69.535  1.00  0.00    -0.356 A  
HETATM   19  F   UNL     1     -11.005  12.306  66.491  1.00  0.00    -0.266 F  
HETATM   20  C   UNL     1     -11.622  16.580  69.055  1.00  0.00    -0.027 A  
HETATM   21  O   UNL     1     -12.514  12.121  68.693  1.00  0.00    -0.033 OA 
HETATM   22  O   UNL     1     -11.676  12.676  70.652  1.00  0.00    -0.079 OA 
ENDBRANCH   6  10
TORSDOF 1
ENDMDL
MODEL      142
REMARK 921   NORMALIZED FREE ENERGY PREDICTED BY IDOCK:   -4.21 KCAL/MOL
REMARK 922        TOTAL FREE ENERGY PREDICTED BY IDOCK:   -4.63 KCAL/MOL
REMARK 923 INTER-LIGAND FREE ENERGY PREDICTED BY IDOCK:   -4.61 KCAL/MOL
REMARK 924 INTRA-LIGAND FREE ENERGY PREDICTED BY IDOCK:   -0.02 KCAL/MOL
REMARK 927      BINDING AFFINITY PREDICTED BY RF-SCORE:    0.00 PKD
ROOT
HETATM    1  C   UNL     1      -6.673  10.472  67.561  1.00  0.00    -0.070 C  
HETATM    2  C   UNL     1      -7.276  11.270  68.706  1.00  0.00    -0.104 C  
HETATM    3  N   UNL     1      -6.281  11.953  69.477  1.00  0.00    -0.105 NA 
HETATM    4  C   UNL     1      -8.155  10.409  69.611  1.00  0.00    -0.116 C  
HETATM    5  C   UNL     1      -6.599  13.280  69.674  1.00  0.00     0.002 C  
HETATM    6  N   UNL     1      -7.671  13.611  68.871  1.00  0.00    -0.054 N  
HETATM    7  O   UNL     1      -5.964  13.958  70.464  1.00  0.00    -0.164 OA 
HETATM    8  C   UNL     1      -8.087  12.473  68.201  1.00  0.00    -0.167 C  
HETATM    9  O   UNL     1      -8.992  12.347  67.383  1.00  0.00    -0.171 OA 
ENDROOT
BRANCH   6  10
HETATM   10  C   UNL     1      -8.258  14.914  68.755  1.00  0.00    -0.161 A  
HETATM   11  C   UNL     1      -7.467  16.079  68.647  1.00  0.00    -0.166 A  
HETATM   12  C   UNL     1      -8.024  17.377  68.532  1.00  0.00    -0.266 A  
HETATM   13  C   UNL     1      -7.125  18.579  68.406  1.00  0.00    -0.272 C  
HETATM   14  C   UNL     1      -9.417  17.488  68.518  1.00  0.00    -0.296 A  
HETATM   15  F   UNL     1      -7.434  19.341  67.323  1.00  0.00    -0.234 F  
HETATM   16  N   UNL     1     -10.070  18.782  68.390  1.00  0.00    -0.382 N  
HETATM   17  F   UNL     1      -5.810  18.253  68.259  1.00  0.00    -0.168 F  
HETATM   18  C   UNL     1     -10.233  16.363  68.618  1.00  0.00    -0.258 A  
HETATM   19  F   UNL     1      -7.174  19.398  69.488  1.00  0.00    -0.362 F  
HETATM   20  C   UNL     1      -9.651  15.094  68.739  1.00  0.00    -0.219 A  
HETATM   21  O   UNL     1      -9.830  19.622  69.261  1.00  0.00    -0.416 OA 
HETATM   22  O   UNL     1     -10.843  18.925  67.435  1.00  0.00    -0.458 OA 
ENDBRANCH   6  10
TORSDOF 1
ENDMDL
MODEL      143
REMARK 921   NORMALIZED FREE ENERGY PREDICTED BY IDOCK:   -4.21 KCAL/MOL
REMARK 922        TOTAL FREE ENERGY PREDICTED BY IDOCK:   -4.62 KCAL/MOL
REMARK 923 INTER-LIGAND FREE ENERGY PREDICTED BY IDOCK:   -4.19 KCAL/MOL
REMARK 924 INTRA-LIGAND FREE ENERGY PREDICTED BY IDOCK:   -0.43 KCAL/MOL
REMARK 927      BINDING AFFINITY PREDICTED BY RF-SCORE:    0.00 PKD
ROOT
HETATM    1  C   UNL     1      -7.128   3.237  67.374  1.00  0.00    -0.058 C  
HETATM    2  C   UNL     1      -7.732   4.511  66.807  1.00  0.00    -0.090 C  
HETATM    3  N   UNL     1      -9.009   4.286  66.200  1.00  0.00    -0.119 NA 
HETATM    4  C   UNL     1      -6.791   5.211  65.827  1.00  0.00    -0.061 C  
HETATM    5  C   UNL     1      -9.956   5.189  66.634  1.00  0.00    -0.210 C  
HETATM    6  N   UNL     1      -9.446   5.899  67.701  1.00  0.00    -0.110 N  
HETATM    7  O   UNL     1     -11.041   5.263  66.081  1.00  0.00    -0.144 OA 
HETATM    8  C   UNL     1      -8.138   5.496  67.913  1.00  0.00    -0.100 C  
HETATM    9  O   UNL     1      -7.347   5.868  68.772  1.00  0.00    -0.080 OA 
ENDROOT
BRANCH   6  10
HETATM   10  C   UNL     1     -10.151   6.892  68.457  1.00  0.00    -0.161 A  
HETATM   11  C   UNL     1     -10.805   6.578  69.669  1.00  0.00    -0.359 A  
HETATM   12  C   UNL     1     -11.509   7.542  70.434  1.00  0.00    -0.219 A  
HETATM   13  C   UNL     1     -12.174   7.145  71.726  1.00  0.00    -0.344 C  
HETATM   14  C   UNL     1     -11.538   8.855  69.957  1.00  0.00     0.124 A  
HETATM   15  F   UNL     1     -11.791   7.934  72.765  1.00  0.00    -0.384 F  
HETATM   16  N   UNL     1     -12.226   9.909  70.687  1.00  0.00    -0.265 N  
HETATM   17  F   UNL     1     -11.883   5.871  72.110  1.00  0.00    -0.340 F  
HETATM   18  C   UNL     1     -10.901   9.208  68.769  1.00  0.00    -0.096 A  
HETATM   19  F   UNL     1     -13.529   7.204  71.668  1.00  0.00    -0.390 F  
HETATM   20  C   UNL     1     -10.222   8.229  68.031  1.00  0.00    -0.265 A  
HETATM   21  O   UNL     1     -13.436   9.760  70.883  1.00  0.00    -0.309 OA 
HETATM   22  O   UNL     1     -11.550  10.888  71.024  1.00  0.00    -0.211 OA 
ENDBRANCH   6  10
TORSDOF 1
ENDMDL
MODEL      144
REMARK 921   NORMALIZED FREE ENERGY PREDICTED BY IDOCK:   -4.18 KCAL/MOL
REMARK 922        TOTAL FREE ENERGY PREDICTED BY IDOCK:   -4.59 KCAL/MOL
REMARK 923 INTER-LIGAND FREE ENERGY PREDICTED BY IDOCK:   -4.16 KCAL/MOL
REMARK 924 INTRA-LIGAND FREE ENERGY PREDICTED BY IDOCK:   -0.43 KCAL/MOL
REMARK 927      BINDING AFFINITY PREDICTED BY RF-SCORE:    0.00 PKD
ROOT
HETATM    1  C   UNL     1      -6.352   8.256  63.257  1.00  0.00    -0.081 C  
HETATM    2  C   UNL     1      -6.201   8.644  64.719  1.00  0.00    -0.065 C  
HETATM    3  N   UNL     1      -5.457   9.856  64.887  1.00  0.00    -0.065 NA 
HETATM    4  C   UNL     1      -5.589   7.522  65.555  1.00  0.00    -0.033 C  
HETATM    5  C   UNL     1      -6.095  10.744  65.727  1.00  0.00    -0.116 C  
HETATM    6  N   UNL     1      -7.374  10.292  65.974  1.00  0.00    -0.122 N  
HETATM    7  O   UNL     1      -5.517  11.740  66.130  1.00  0.00    -0.271 OA 
HETATM    8  C   UNL     1      -7.539   9.071  65.341  1.00  0.00    -0.090 C  
HETATM    9  O   UNL     1      -8.532   8.352  65.298  1.00  0.00    -0.165 OA 
ENDROOT
BRANCH   6  10
HETATM   10  C   UNL     1      -8.363  10.970  66.758  1.00  0.00    -0.147 A  
HETATM   11  C   UNL     1      -9.240  11.920  66.191  1.00  0.00    -0.204 A  
HETATM   12  C   UNL     1     -10.225  12.604  66.946  1.00  0.00    -0.242 A  
HETATM   13  C   UNL     1     -11.140  13.596  66.277  1.00  0.00    -0.301 C  
HETATM   14  C   UNL     1     -10.324  12.305  68.308  1.00  0.00    -0.221 A  
HETATM   15  F   UNL     1     -12.451  13.327  66.512  1.00  0.00    -0.420 F  
HETATM   16  N   UNL     1     -11.317  12.951  69.153  1.00  0.00    -0.273 N  
HETATM   17  F   UNL     1     -11.010  13.618  64.921  1.00  0.00    -0.306 F  
HETATM   18  C   UNL     1      -9.482  11.370  68.906  1.00  0.00    -0.064 A  
HETATM   19  F   UNL     1     -10.925  14.875  66.680  1.00  0.00    -0.300 F  
HETATM   20  C   UNL     1      -8.512  10.718  68.133  1.00  0.00    -0.125 A  
HETATM   21  O   UNL     1     -11.266  14.181  69.241  1.00  0.00    -0.255 OA 
HETATM   22  O   UNL     1     -12.112  12.211  69.745  1.00  0.00    -0.290 OA 
ENDBRANCH   6  10
TORSDOF 1
ENDMDL
MODEL      145
REMARK 921   NORMALIZED FREE ENERGY PREDICTED BY IDOCK:   -4.18 KCAL/MOL
REMARK 922        TOTAL FREE ENERGY PREDICTED BY IDOCK:   -4.59 KCAL/MOL
REMARK 923 INTER-LIGAND FREE ENERGY PREDICTED BY IDOCK:   -4.26 KCAL/MOL
REMARK 924 INTRA-LIGAND FREE ENERGY PREDICTED BY IDOCK:   -0.33 KCAL/MOL
REMARK 927      BINDING AFFINITY PREDICTED BY RF-SCORE:    0.00 PKD
ROOT
HETATM    1  C   UNL     1      -9.636  10.096  64.371  1.00  0.00    -0.366 C  
HETATM    2  C   UNL     1      -9.023  10.185  65.759  1.00  0.00    -0.160 C  
HETATM    3  N   UNL     1      -9.672  11.162  66.581  1.00  0.00    -0.192 NA 
HETATM    4  C   UNL     1      -7.518  10.444  65.711  1.00  0.00    -0.147 C  
HETATM    5  C   UNL     1     -10.001  10.660  67.821  1.00  0.00    -0.167 C  
HETATM    6  N   UNL     1      -9.812   9.293  67.820  1.00  0.00    -0.164 N  
HETATM    7  O   UNL     1     -10.384  11.404  68.709  1.00  0.00    -0.201 OA 
HETATM    8  C   UNL     1      -9.296   8.922  66.589  1.00  0.00    -0.185 C  
HETATM    9  O   UNL     1      -9.008   7.803  66.180  1.00  0.00    -0.162 OA 
ENDROOT
BRANCH   6  10
HETATM   10  C   UNL     1     -10.097   8.409  68.911  1.00  0.00    -0.199 A  
HETATM   11  C   UNL     1      -9.387   8.478  70.130  1.00  0.00    -0.164 A  
HETATM   12  C   UNL     1      -9.651   7.614  71.222  1.00  0.00    -0.171 A  
HETATM   13  C   UNL     1      -8.867   7.749  72.501  1.00  0.00    -0.150 C  
HETATM   14  C   UNL     1     -10.665   6.665  71.071  1.00  0.00    -0.236 A  
HETATM   15  F   UNL     1      -9.673   7.880  73.587  1.00  0.00    -0.334 F  
HETATM   16  N   UNL     1     -11.009   5.748  72.147  1.00  0.00    -0.247 N  
HETATM   17  F   UNL     1      -8.051   8.840  72.519  1.00  0.00    -0.178 F  
HETATM   18  C   UNL     1     -11.393   6.567  69.886  1.00  0.00    -0.469 A  
HETATM   19  F   UNL     1      -8.054   6.688  72.743  1.00  0.00    -0.106 F  
HETATM   20  C   UNL     1     -11.102   7.430  68.822  1.00  0.00     0.104 A  
HETATM   21  O   UNL     1     -10.118   4.997  72.552  1.00  0.00    -0.171 OA 
HETATM   22  O   UNL     1     -12.179   5.771  72.547  1.00  0.00    -0.196 OA 
ENDBRANCH   6  10
TORSDOF 1
ENDMDL
MODEL      146
REMARK 921   NORMALIZED FREE ENERGY PREDICTED BY IDOCK:   -4.15 KCAL/MOL
REMARK 922        TOTAL FREE ENERGY PREDICTED BY IDOCK:   -4.56 KCAL/MOL
REMARK 923 INTER-LIGAND FREE ENERGY PREDICTED BY IDOCK:   -5.05 KCAL/MOL
REMARK 924 INTRA-LIGAND FREE ENERGY PREDICTED BY IDOCK:    0.49 KCAL/MOL
REMARK 927      BINDING AFFINITY PREDICTED BY RF-SCORE:    0.00 PKD
ROOT
HETATM    1  C   UNL     1      -9.372  15.903  65.967  1.00  0.00    -0.385 C  
HETATM    2  C   UNL     1     -10.359  15.114  66.813  1.00  0.00    -0.273 C  
HETATM    3  N   UNL     1     -11.321  14.413  66.017  1.00  0.00    -0.330 NA 
HETATM    4  C   UNL     1     -11.061  15.989  67.850  1.00  0.00    -0.307 C  
HETATM    5  C   UNL     1     -11.439  13.092  66.392  1.00  0.00    -0.334 C  
HETATM    6  N   UNL     1     -10.426  12.781  67.274  1.00  0.00    -0.232 N  
HETATM    7  O   UNL     1     -12.344  12.402  65.951  1.00  0.00    -0.638 OA 
HETATM    8  C   UNL     1      -9.688  13.927  67.519  1.00  0.00    -0.232 C  
HETATM    9  O   UNL     1      -8.698  14.069  68.227  1.00  0.00    -0.171 OA 
ENDROOT
BRANCH   6  10
HETATM   10  C   UNL     1     -10.182  11.489  67.845  1.00  0.00    -0.184 A  
HETATM   11  C   UNL     1      -9.086  11.248  68.702  1.00  0.00    -0.153 A  
HETATM   12  C   UNL     1      -8.824   9.980  69.277  1.00  0.00    -0.184 A  
HETATM   13  C   UNL     1      -7.645   9.793  70.196  1.00  0.00    -0.171 C  
HETATM   14  C   UNL     1      -9.705   8.937  68.979  1.00  0.00    -0.171 A  
HETATM   15  F   UNL     1      -8.003   9.246  71.388  1.00  0.00    -0.162 F  
HETATM   16  N   UNL     1      -9.517   7.606  69.538  1.00  0.00    -0.153 N  
HETATM   17  F   UNL     1      -7.015  10.961  70.505  1.00  0.00    -0.099 F  
HETATM   18  C   UNL     1     -10.801   9.132  68.142  1.00  0.00    -0.118 A  
HETATM   19  F   UNL     1      -6.682   8.992  69.671  1.00  0.00    -0.043 F  
HETATM   20  C   UNL     1     -11.027  10.396  67.581  1.00  0.00    -0.374 A  
HETATM   21  O   UNL     1      -8.458   7.030  69.275  1.00  0.00    -0.131 OA 
HETATM   22  O   UNL     1     -10.450   7.144  70.205  1.00  0.00    -0.206 OA 
ENDBRANCH   6  10
TORSDOF 1
ENDMDL
MODEL      147
REMARK 921   NORMALIZED FREE ENERGY PREDICTED BY IDOCK:   -4.15 KCAL/MOL
REMARK 922        TOTAL FREE ENERGY PREDICTED BY IDOCK:   -4.55 KCAL/MOL
REMARK 923 INTER-LIGAND FREE ENERGY PREDICTED BY IDOCK:   -4.36 KCAL/MOL
REMARK 924 INTRA-LIGAND FREE ENERGY PREDICTED BY IDOCK:   -0.20 KCAL/MOL
REMARK 927      BINDING AFFINITY PREDICTED BY RF-SCORE:    0.00 PKD
ROOT
HETATM    1  C   UNL     1      -7.749   9.440  69.940  1.00  0.00    -0.114 C  
HETATM    2  C   UNL     1      -7.282  10.174  68.693  1.00  0.00    -0.080 C  
HETATM    3  N   UNL     1      -8.265  10.159  67.651  1.00  0.00    -0.110 NA 
HETATM    4  C   UNL     1      -5.947   9.642  68.175  1.00  0.00    -0.047 C  
HETATM    5  C   UNL     1      -8.481  11.414  67.125  1.00  0.00    -0.153 C  
HETATM    6  N   UNL     1      -7.851  12.351  67.919  1.00  0.00    -0.132 N  
HETATM    7  O   UNL     1      -9.140  11.555  66.108  1.00  0.00    -0.206 OA 
HETATM    8  C   UNL     1      -7.171  11.688  68.926  1.00  0.00    -0.113 C  
HETATM    9  O   UNL     1      -6.505  12.155  69.844  1.00  0.00    -0.110 OA 
ENDROOT
BRANCH   6  10
HETATM   10  C   UNL     1      -7.892  13.771  67.728  1.00  0.00    -0.172 A  
HETATM   11  C   UNL     1      -9.112  14.475  67.636  1.00  0.00    -0.195 A  
HETATM   12  C   UNL     1      -9.177  15.878  67.447  1.00  0.00    -0.207 A  
HETATM   13  C   UNL     1     -10.512  16.572  67.371  1.00  0.00    -0.310 C  
HETATM   14  C   UNL     1      -7.972  16.579  67.359  1.00  0.00    -0.152 A  
HETATM   15  F   UNL     1     -10.607  17.602  68.252  1.00  0.00    -0.342 F  
HETATM   16  N   UNL     1      -7.948  18.022  67.178  1.00  0.00    -0.208 N  
HETATM   17  F   UNL     1     -11.561  15.750  67.656  1.00  0.00    -0.296 F  
HETATM   18  C   UNL     1      -6.745  15.923  67.450  1.00  0.00    -0.229 A  
HETATM   19  F   UNL     1     -10.779  17.082  66.141  1.00  0.00    -0.304 F  
HETATM   20  C   UNL     1      -6.715  14.533  67.627  1.00  0.00    -0.194 A  
HETATM   21  O   UNL     1      -8.493  18.472  66.166  1.00  0.00    -0.441 OA 
HETATM   22  O   UNL     1      -7.353  18.683  68.038  1.00  0.00    -0.239 OA 
ENDBRANCH   6  10
TORSDOF 1
ENDMDL
MODEL      148
REMARK 921   NORMALIZED FREE ENERGY PREDICTED BY IDOCK:   -4.14 KCAL/MOL
REMARK 922        TOTAL FREE ENERGY PREDICTED BY IDOCK:   -4.55 KCAL/MOL
REMARK 923 INTER-LIGAND FREE ENERGY PREDICTED BY IDOCK:   -4.43 KCAL/MOL
REMARK 924 INTRA-LIGAND FREE ENERGY PREDICTED BY IDOCK:   -0.12 KCAL/MOL
REMARK 927      BINDING AFFINITY PREDICTED BY RF-SCORE:    0.00 PKD
ROOT
HETATM    1  C   UNL     1      -9.858  16.974  65.837  1.00  0.00    -0.202 C  
HETATM    2  C   UNL     1     -10.440  16.004  66.853  1.00  0.00    -0.306 C  
HETATM    3  N   UNL     1     -11.414  15.128  66.274  1.00  0.00    -0.225 NA 
HETATM    4  C   UNL     1     -11.023  16.721  68.069  1.00  0.00    -0.296 C  
HETATM    5  C   UNL     1     -11.183  13.809  66.601  1.00  0.00    -0.318 C  
HETATM    6  N   UNL     1      -9.946  13.702  67.200  1.00  0.00    -0.243 N  
HETATM    7  O   UNL     1     -12.018  12.955  66.353  1.00  0.00    -0.398 OA 
HETATM    8  C   UNL     1      -9.404  14.971  67.320  1.00  0.00    -0.202 C  
HETATM    9  O   UNL     1      -8.317  15.305  67.778  1.00  0.00    -0.143 OA 
ENDROOT
BRANCH   6  10
HETATM   10  C   UNL     1      -9.328  12.483  67.631  1.00  0.00    -0.189 A  
HETATM   11  C   UNL     1     -10.006  11.555  68.452  1.00  0.00    -0.206 A  
HETATM   12  C   UNL     1      -9.416  10.344  68.892  1.00  0.00    -0.190 A  
HETATM   13  C   UNL     1     -10.199   9.389  69.755  1.00  0.00    -0.220 C  
HETATM   14  C   UNL     1      -8.110  10.069  68.478  1.00  0.00    -0.103 A  
HETATM   15  F   UNL     1     -10.221   8.131  69.241  1.00  0.00    -0.192 F  
HETATM   16  N   UNL     1      -7.435   8.842  68.872  1.00  0.00    -0.081 N  
HETATM   17  F   UNL     1     -11.506   9.746  69.902  1.00  0.00    -0.249 F  
HETATM   18  C   UNL     1      -7.408  10.955  67.663  1.00  0.00    -0.094 A  
HETATM   19  F   UNL     1      -9.709   9.288  71.017  1.00  0.00    -0.279 F  
HETATM   20  C   UNL     1      -8.016  12.149  67.254  1.00  0.00    -0.176 A  
HETATM   21  O   UNL     1      -7.287   8.645  70.082  1.00  0.00    -0.049 OA 
HETATM   22  O   UNL     1      -7.032   8.109  67.961  1.00  0.00    -0.074 OA 
ENDBRANCH   6  10
TORSDOF 1
ENDMDL
MODEL      149
REMARK 921   NORMALIZED FREE ENERGY PREDICTED BY IDOCK:   -4.13 KCAL/MOL
REMARK 922        TOTAL FREE ENERGY PREDICTED BY IDOCK:   -4.54 KCAL/MOL
REMARK 923 INTER-LIGAND FREE ENERGY PREDICTED BY IDOCK:   -4.28 KCAL/MOL
REMARK 924 INTRA-LIGAND FREE ENERGY PREDICTED BY IDOCK:   -0.26 KCAL/MOL
REMARK 927      BINDING AFFINITY PREDICTED BY RF-SCORE:    0.00 PKD
ROOT
HETATM    1  C   UNL     1     -11.515  15.965  70.617  1.00  0.00    -0.426 C  
HETATM    2  C   UNL     1     -10.764  15.746  69.314  1.00  0.00    -0.246 C  
HETATM    3  N   UNL     1      -9.343  15.782  69.491  1.00  0.00    -0.268 NA 
HETATM    4  C   UNL     1     -11.191  16.730  68.227  1.00  0.00    -0.167 C  
HETATM    5  C   UNL     1      -8.719  14.705  68.898  1.00  0.00    -0.138 C  
HETATM    6  N   UNL     1      -9.674  13.789  68.508  1.00  0.00    -0.219 N  
HETATM    7  O   UNL     1      -7.505  14.676  68.787  1.00  0.00    -0.120 OA 
HETATM    8  C   UNL     1     -10.926  14.310  68.793  1.00  0.00    -0.255 C  
HETATM    9  O   UNL     1     -12.029  13.805  68.619  1.00  0.00    -0.351 OA 
ENDROOT
BRANCH   6  10
HETATM   10  C   UNL     1      -9.414  12.515  67.905  1.00  0.00    -0.196 A  
HETATM   11  C   UNL     1      -9.839  11.308  68.502  1.00  0.00    -0.198 A  
HETATM   12  C   UNL     1      -9.593  10.038  67.925  1.00  0.00    -0.163 A  
HETATM   13  C   UNL     1     -10.086   8.787  68.606  1.00  0.00    -0.189 C  
HETATM   14  C   UNL     1      -8.906   9.998  66.709  1.00  0.00    -0.132 A  
HETATM   15  F   UNL     1     -10.829   8.009  67.776  1.00  0.00    -0.276 F  
HETATM   16  N   UNL     1      -8.623   8.736  66.042  1.00  0.00    -0.139 N  
HETATM   17  F   UNL     1     -10.885   9.041  69.680  1.00  0.00    -0.226 F  
HETATM   18  C   UNL     1      -8.473  11.166  66.084  1.00  0.00    -0.156 A  
HETATM   19  F   UNL     1      -9.082   8.007  69.080  1.00  0.00    -0.142 F  
HETATM   20  C   UNL     1      -8.724  12.406  66.685  1.00  0.00    -0.119 A  
HETATM   21  O   UNL     1      -7.944   7.912  66.661  1.00  0.00    -0.099 OA 
HETATM   22  O   UNL     1      -9.058   8.603  64.892  1.00  0.00    -0.050 OA 
ENDBRANCH   6  10
TORSDOF 1
ENDMDL
MODEL      150
REMARK 921   NORMALIZED FREE ENERGY PREDICTED BY IDOCK:   -4.12 KCAL/MOL
REMARK 922        TOTAL FREE ENERGY PREDICTED BY IDOCK:   -4.53 KCAL/MOL
REMARK 923 INTER-LIGAND FREE ENERGY PREDICTED BY IDOCK:   -4.14 KCAL/MOL
REMARK 924 INTRA-LIGAND FREE ENERGY PREDICTED BY IDOCK:   -0.39 KCAL/MOL
REMARK 927      BINDING AFFINITY PREDICTED BY RF-SCORE:    0.00 PKD
ROOT
HETATM    1  C   UNL     1      -7.850   4.290  64.654  1.00  0.00    -0.085 C  
HETATM    2  C   UNL     1      -9.144   4.144  65.438  1.00  0.00    -0.139 C  
HETATM    3  N   UNL     1      -9.117   3.024  66.330  1.00  0.00    -0.152 NA 
HETATM    4  C   UNL     1     -10.368   4.071  64.528  1.00  0.00    -0.221 C  
HETATM    5  C   UNL     1      -9.525   3.364  67.602  1.00  0.00    -0.181 C  
HETATM    6  N   UNL     1      -9.618   4.737  67.694  1.00  0.00    -0.146 N  
HETATM    7  O   UNL     1      -9.744   2.500  68.434  1.00  0.00    -0.125 OA 
HETATM    8  C   UNL     1      -9.331   5.281  66.453  1.00  0.00    -0.148 C  
HETATM    9  O   UNL     1      -9.287   6.460  66.120  1.00  0.00    -0.153 OA 
ENDROOT
BRANCH   6  10
HETATM   10  C   UNL     1      -9.960   5.475  68.874  1.00  0.00    -0.174 A  
HETATM   11  C   UNL     1      -9.079   5.570  69.974  1.00  0.00    -0.160 A  
HETATM   12  C   UNL     1      -9.396   6.292  71.151  1.00  0.00    -0.169 A  
HETATM   13  C   UNL     1      -8.405   6.367  72.284  1.00  0.00    -0.107 C  
HETATM   14  C   UNL     1     -10.633   6.940  71.204  1.00  0.00    -0.222 A  
HETATM   15  F   UNL     1      -8.147   7.648  72.658  1.00  0.00    -0.108 F  
HETATM   16  N   UNL     1     -11.031   7.714  72.370  1.00  0.00    -0.276 N  
HETATM   17  F   UNL     1      -7.193   5.827  71.974  1.00  0.00    -0.078 F  
HETATM   18  C   UNL     1     -11.529   6.875  70.139  1.00  0.00    -0.354 A  
HETATM   19  F   UNL     1      -8.818   5.709  73.397  1.00  0.00    -0.123 F  
HETATM   20  C   UNL     1     -11.190   6.145  68.993  1.00  0.00    -0.375 A  
HETATM   21  O   UNL     1     -11.093   7.117  73.448  1.00  0.00    -0.289 OA 
HETATM   22  O   UNL     1     -11.310   8.904  72.181  1.00  0.00    -0.356 OA 
ENDBRANCH   6  10
TORSDOF 1
ENDMDL
MODEL      151
REMARK 921   NORMALIZED FREE ENERGY PREDICTED BY IDOCK:   -4.12 KCAL/MOL
REMARK 922        TOTAL FREE ENERGY PREDICTED BY IDOCK:   -4.53 KCAL/MOL
REMARK 923 INTER-LIGAND FREE ENERGY PREDICTED BY IDOCK:   -4.18 KCAL/MOL
REMARK 924 INTRA-LIGAND FREE ENERGY PREDICTED BY IDOCK:   -0.35 KCAL/MOL
REMARK 927      BINDING AFFINITY PREDICTED BY RF-SCORE:    0.00 PKD
ROOT
HETATM    1  C   UNL     1     -10.567  13.935  64.486  1.00  0.00    -0.375 C  
HETATM    2  C   UNL     1     -11.041  12.801  65.380  1.00  0.00    -0.284 C  
HETATM    3  N   UNL     1     -10.775  11.512  64.813  1.00  0.00    -0.301 NA 
HETATM    4  C   UNL     1     -12.520  12.929  65.742  1.00  0.00    -0.327 C  
HETATM    5  C   UNL     1     -10.165  10.666  65.715  1.00  0.00    -0.252 C  
HETATM    6  N   UNL     1      -9.784  11.389  66.825  1.00  0.00    -0.195 N  
HETATM    7  O   UNL     1     -10.041   9.479  65.463  1.00  0.00    -0.260 OA 
HETATM    8  C   UNL     1     -10.209  12.697  66.667  1.00  0.00    -0.236 C  
HETATM    9  O   UNL     1     -10.053  13.655  67.416  1.00  0.00    -0.236 OA 
ENDROOT
BRANCH   6  10
HETATM   10  C   UNL     1      -9.072  10.871  67.956  1.00  0.00    -0.152 A  
HETATM   11  C   UNL     1      -9.653   9.930  68.835  1.00  0.00    -0.172 A  
HETATM   12  C   UNL     1      -8.969   9.404  69.959  1.00  0.00    -0.234 A  
HETATM   13  C   UNL     1      -9.641   8.392  70.850  1.00  0.00    -0.175 C  
HETATM   14  C   UNL     1      -7.661   9.840  70.187  1.00  0.00    -0.177 A  
HETATM   15  F   UNL     1      -8.891   7.271  71.012  1.00  0.00    -0.138 F  
HETATM   16  N   UNL     1      -6.883   9.340  71.311  1.00  0.00    -0.066 N  
HETATM   17  F   UNL     1     -10.840   7.962  70.365  1.00  0.00    -0.226 F  
HETATM   18  C   UNL     1      -7.049  10.763  69.341  1.00  0.00    -0.122 A  
HETATM   19  F   UNL     1      -9.906   8.869  72.093  1.00  0.00    -0.357 F  
HETATM   20  C   UNL     1      -7.755  11.271  68.243  1.00  0.00    -0.122 A  
HETATM   21  O   UNL     1      -7.338   9.535  72.441  1.00  0.00     0.258 OA 
HETATM   22  O   UNL     1      -5.808   8.789  71.044  1.00  0.00    -0.033 OA 
ENDBRANCH   6  10
TORSDOF 1
ENDMDL
MODEL      152
REMARK 921   NORMALIZED FREE ENERGY PREDICTED BY IDOCK:   -4.11 KCAL/MOL
REMARK 922        TOTAL FREE ENERGY PREDICTED BY IDOCK:   -4.51 KCAL/MOL
REMARK 923 INTER-LIGAND FREE ENERGY PREDICTED BY IDOCK:   -4.71 KCAL/MOL
REMARK 924 INTRA-LIGAND FREE ENERGY PREDICTED BY IDOCK:    0.19 KCAL/MOL
REMARK 927      BINDING AFFINITY PREDICTED BY RF-SCORE:    0.00 PKD
ROOT
HETATM    1  C   UNL     1      -6.643  10.035  64.581  1.00  0.00    -0.128 C  
HETATM    2  C   UNL     1      -8.042   9.464  64.741  1.00  0.00    -0.131 C  
HETATM    3  N   UNL     1      -8.046   8.032  64.772  1.00  0.00    -0.146 NA 
HETATM    4  C   UNL     1      -9.003   9.977  63.671  1.00  0.00    -0.280 C  
HETATM    5  C   UNL     1      -8.777   7.538  65.830  1.00  0.00    -0.147 C  
HETATM    6  N   UNL     1      -9.098   8.575  66.681  1.00  0.00    -0.155 N  
HETATM    7  O   UNL     1      -9.044   6.349  65.898  1.00  0.00    -0.138 OA 
HETATM    8  C   UNL     1      -8.625   9.756  66.132  1.00  0.00    -0.127 C  
HETATM    9  O   UNL     1      -8.688  10.894  66.582  1.00  0.00    -0.146 OA 
ENDROOT
BRANCH   6  10
HETATM   10  C   UNL     1      -9.806   8.451  67.920  1.00  0.00    -0.170 A  
HETATM   11  C   UNL     1     -10.632   9.486  68.412  1.00  0.00    -0.261 A  
HETATM   12  C   UNL     1     -11.341   9.387  69.635  1.00  0.00    -0.023 A  
HETATM   13  C   UNL     1     -12.218  10.521  70.097  1.00  0.00    -0.280 C  
HETATM   14  C   UNL     1     -11.212   8.204  70.368  1.00  0.00    -0.221 A  
HETATM   15  F   UNL     1     -13.482  10.112  70.382  1.00  0.00    -0.352 F  
HETATM   16  N   UNL     1     -11.916   8.014  71.627  1.00  0.00    -0.286 N  
HETATM   17  F   UNL     1     -12.355  11.507  69.167  1.00  0.00    -0.346 F  
HETATM   18  C   UNL     1     -10.411   7.157  69.916  1.00  0.00    -0.237 A  
HETATM   19  F   UNL     1     -11.747  11.140  71.210  1.00  0.00    -0.295 F  
HETATM   20  C   UNL     1      -9.716   7.290  68.707  1.00  0.00    -0.151 A  
HETATM   21  O   UNL     1     -11.674   8.816  72.533  1.00  0.00    -0.326 OA 
HETATM   22  O   UNL     1     -12.677   7.042  71.700  1.00  0.00    -0.361 OA 
ENDBRANCH   6  10
TORSDOF 1
ENDMDL
MODEL      153
REMARK 921   NORMALIZED FREE ENERGY PREDICTED BY IDOCK:   -4.10 KCAL/MOL
REMARK 922        TOTAL FREE ENERGY PREDICTED BY IDOCK:   -4.50 KCAL/MOL
REMARK 923 INTER-LIGAND FREE ENERGY PREDICTED BY IDOCK:   -4.06 KCAL/MOL
REMARK 924 INTRA-LIGAND FREE ENERGY PREDICTED BY IDOCK:   -0.44 KCAL/MOL
REMARK 927      BINDING AFFINITY PREDICTED BY RF-SCORE:    0.00 PKD
ROOT
HETATM    1  C   UNL     1     -11.279   7.631  72.805  1.00  0.00    -0.431 C  
HETATM    2  C   UNL     1     -11.690   7.429  71.355  1.00  0.00    -0.288 C  
HETATM    3  N   UNL     1     -11.431   8.584  70.549  1.00  0.00    -0.230 NA 
HETATM    4  C   UNL     1     -13.150   7.000  71.222  1.00  0.00    -0.329 C  
HETATM    5  C   UNL     1     -10.764   8.266  69.386  1.00  0.00    -0.151 C  
HETATM    6  N   UNL     1     -10.338   6.956  69.455  1.00  0.00    -0.197 N  
HETATM    7  O   UNL     1     -10.633   9.094  68.501  1.00  0.00    -0.212 OA 
HETATM    8  C   UNL     1     -10.792   6.407  70.642  1.00  0.00    -0.276 C  
HETATM    9  O   UNL     1     -10.614   5.279  71.088  1.00  0.00    -0.228 OA 
ENDROOT
BRANCH   6  10
HETATM   10  C   UNL     1      -9.561   6.276  68.460  1.00  0.00    -0.126 A  
HETATM   11  C   UNL     1     -10.165   5.616  67.367  1.00  0.00    -0.249 A  
HETATM   12  C   UNL     1      -9.418   4.937  66.372  1.00  0.00    -0.156 A  
HETATM   13  C   UNL     1     -10.123   4.264  65.223  1.00  0.00    -0.218 C  
HETATM   14  C   UNL     1      -8.026   4.939  66.489  1.00  0.00    -0.107 A  
HETATM   15  F   UNL     1      -9.641   4.667  64.018  1.00  0.00    -0.134 F  
HETATM   16  N   UNL     1      -7.184   4.278  65.505  1.00  0.00    -0.067 N  
HETATM   17  F   UNL     1     -11.460   4.524  65.187  1.00  0.00    -0.331 F  
HETATM   18  C   UNL     1      -7.390   5.583  67.550  1.00  0.00    -0.076 A  
HETATM   19  F   UNL     1     -10.019   2.911  65.253  1.00  0.00    -0.048 F  
HETATM   20  C   UNL     1      -8.158   6.237  68.522  1.00  0.00    -0.109 A  
HETATM   21  O   UNL     1      -7.350   3.065  65.345  1.00  0.00    -0.069 OA 
HETATM   22  O   UNL     1      -6.343   4.978  64.929  1.00  0.00    -0.033 OA 
ENDBRANCH   6  10
TORSDOF 1
ENDMDL
MODEL      154
REMARK 921   NORMALIZED FREE ENERGY PREDICTED BY IDOCK:   -4.08 KCAL/MOL
REMARK 922        TOTAL FREE ENERGY PREDICTED BY IDOCK:   -4.48 KCAL/MOL
REMARK 923 INTER-LIGAND FREE ENERGY PREDICTED BY IDOCK:   -4.71 KCAL/MOL
REMARK 924 INTRA-LIGAND FREE ENERGY PREDICTED BY IDOCK:    0.23 KCAL/MOL
REMARK 927      BINDING AFFINITY PREDICTED BY RF-SCORE:    0.00 PKD
ROOT
HETATM    1  C   UNL     1     -12.277  15.502  72.391  1.00  0.00    -0.506 C  
HETATM    2  C   UNL     1     -12.830  14.841  71.140  1.00  0.00    -0.341 C  
HETATM    3  N   UNL     1     -12.233  15.353  69.943  1.00  0.00    -0.347 NA 
HETATM    4  C   UNL     1     -14.353  14.936  71.060  1.00  0.00    -0.169 C  
HETATM    5  C   UNL     1     -11.803  14.345  69.106  1.00  0.00    -0.323 C  
HETATM    6  N   UNL     1     -11.869  13.142  69.778  1.00  0.00    -0.321 N  
HETATM    7  O   UNL     1     -11.447  14.596  67.967  1.00  0.00    -0.295 OA 
HETATM    8  C   UNL     1     -12.406  13.368  71.034  1.00  0.00    -0.315 C  
HETATM    9  O   UNL     1     -12.611  12.568  71.940  1.00  0.00    -0.107 OA 
ENDROOT
BRANCH   6  10
HETATM   10  C   UNL     1     -11.454  11.872  69.259  1.00  0.00    -0.306 A  
HETATM   11  C   UNL     1     -10.417  11.759  68.308  1.00  0.00    -0.224 A  
HETATM   12  C   UNL     1      -9.991  10.515  67.781  1.00  0.00    -0.198 A  
HETATM   13  C   UNL     1      -8.867  10.461  66.778  1.00  0.00    -0.130 C  
HETATM   14  C   UNL     1     -10.630   9.360  68.239  1.00  0.00    -0.210 A  
HETATM   15  F   UNL     1      -7.881   9.606  67.157  1.00  0.00    -0.091 F  
HETATM   16  N   UNL     1     -10.246   8.041  67.760  1.00  0.00    -0.208 N  
HETATM   17  F   UNL     1      -8.255  11.664  66.593  1.00  0.00    -0.159 F  
HETATM   18  C   UNL     1     -11.656   9.427  69.181  1.00  0.00     0.417 A  
HETATM   19  F   UNL     1      -9.273  10.069  65.543  1.00  0.00    -0.176 F  
HETATM   20  C   UNL     1     -12.060  10.674  69.676  1.00  0.00    -0.312 A  
HETATM   21  O   UNL     1     -10.344   7.833  66.547  1.00  0.00    -0.234 OA 
HETATM   22  O   UNL     1      -9.883   7.222  68.612  1.00  0.00    -0.155 OA 
ENDBRANCH   6  10
TORSDOF 1
ENDMDL
MODEL      155
REMARK 921   NORMALIZED FREE ENERGY PREDICTED BY IDOCK:   -4.05 KCAL/MOL
REMARK 922        TOTAL FREE ENERGY PREDICTED BY IDOCK:   -4.45 KCAL/MOL
REMARK 923 INTER-LIGAND FREE ENERGY PREDICTED BY IDOCK:   -4.01 KCAL/MOL
REMARK 924 INTRA-LIGAND FREE ENERGY PREDICTED BY IDOCK:   -0.44 KCAL/MOL
REMARK 927      BINDING AFFINITY PREDICTED BY RF-SCORE:    0.00 PKD
ROOT
HETATM    1  C   UNL     1      -9.385   8.207  72.947  1.00  0.00    -0.343 C  
HETATM    2  C   UNL     1      -9.156   7.518  71.611  1.00  0.00    -0.134 C  
HETATM    3  N   UNL     1     -10.336   6.873  71.121  1.00  0.00    -0.204 NA 
HETATM    4  C   UNL     1      -7.990   6.532  71.661  1.00  0.00    -0.104 C  
HETATM    5  C   UNL     1     -10.595   7.194  69.806  1.00  0.00    -0.234 C  
HETATM    6  N   UNL     1      -9.765   8.227  69.422  1.00  0.00    -0.175 N  
HETATM    7  O   UNL     1     -11.446   6.589  69.176  1.00  0.00    -0.306 OA 
HETATM    8  C   UNL     1      -8.920   8.528  70.478  1.00  0.00    -0.155 C  
HETATM    9  O   UNL     1      -8.053   9.391  70.549  1.00  0.00    -0.161 OA 
ENDROOT
BRANCH   6  10
HETATM   10  C   UNL     1      -9.772   8.874  68.143  1.00  0.00    -0.160 A  
HETATM   11  C   UNL     1      -9.001   8.394  67.062  1.00  0.00    -0.161 A  
HETATM   12  C   UNL     1      -8.992   9.017  65.789  1.00  0.00    -0.242 A  
HETATM   13  C   UNL     1      -8.158   8.446  64.672  1.00  0.00    -0.156 C  
HETATM   14  C   UNL     1      -9.791  10.149  65.613  1.00  0.00    -0.280 A  
HETATM   15  F   UNL     1      -8.888   8.223  63.547  1.00  0.00     0.005 F  
HETATM   16  N   UNL     1      -9.850  10.842  64.335  1.00  0.00    -0.287 N  
HETATM   17  F   UNL     1      -7.593   7.245  64.983  1.00  0.00    -0.080 F  
HETATM   18  C   UNL     1     -10.571  10.653  66.653  1.00  0.00    -0.276 A  
HETATM   19  F   UNL     1      -7.124   9.249  64.314  1.00  0.00    -0.092 F  
HETATM   20  C   UNL     1     -10.551  10.019  67.902  1.00  0.00    -0.298 A  
HETATM   21  O   UNL     1      -8.792  11.297  63.893  1.00  0.00     0.013 OA 
HETATM   22  O   UNL     1     -10.964  10.949  63.809  1.00  0.00    -0.182 OA 
ENDBRANCH   6  10
TORSDOF 1
ENDMDL
MODEL      156
REMARK 921   NORMALIZED FREE ENERGY PREDICTED BY IDOCK:   -4.04 KCAL/MOL
REMARK 922        TOTAL FREE ENERGY PREDICTED BY IDOCK:   -4.44 KCAL/MOL
REMARK 923 INTER-LIGAND FREE ENERGY PREDICTED BY IDOCK:   -4.18 KCAL/MOL
REMARK 924 INTRA-LIGAND FREE ENERGY PREDICTED BY IDOCK:   -0.26 KCAL/MOL
REMARK 927      BINDING AFFINITY PREDICTED BY RF-SCORE:    0.00 PKD
ROOT
HETATM    1  C   UNL     1      -5.926   5.108  72.602  1.00  0.00    -0.026 C  
HETATM    2  C   UNL     1      -6.626   5.295  71.266  1.00  0.00    -0.043 C  
HETATM    3  N   UNL     1      -7.913   4.666  71.233  1.00  0.00    -0.086 NA 
HETATM    4  C   UNL     1      -5.771   4.821  70.093  1.00  0.00    -0.016 C  
HETATM    5  C   UNL     1      -8.891   5.514  70.760  1.00  0.00    -0.134 C  
HETATM    6  N   UNL     1      -8.380   6.792  70.676  1.00  0.00    -0.127 N  
HETATM    7  O   UNL     1     -10.001   5.087  70.487  1.00  0.00    -0.206 OA 
HETATM    8  C   UNL     1      -7.043   6.755  71.036  1.00  0.00    -0.072 C  
HETATM    9  O   UNL     1      -6.239   7.678  71.111  1.00  0.00    -0.035 OA 
ENDROOT
BRANCH   6  10
HETATM   10  C   UNL     1      -9.109   7.960  70.279  1.00  0.00    -0.152 A  
HETATM   11  C   UNL     1     -10.263   8.388  70.970  1.00  0.00    -0.245 A  
HETATM   12  C   UNL     1     -11.001   9.539  70.595  1.00  0.00    -0.370 A  
HETATM   13  C   UNL     1     -12.216   9.951  71.385  1.00  0.00    -0.408 C  
HETATM   14  C   UNL     1     -10.546  10.273  69.497  1.00  0.00    -0.245 A  
HETATM   15  F   UNL     1     -12.149  11.244  71.795  1.00  0.00    -0.199 F  
HETATM   16  N   UNL     1     -11.237  11.475  69.053  1.00  0.00    -0.240 N  
HETATM   17  F   UNL     1     -12.394   9.217  72.519  1.00  0.00    -0.395 F  
HETATM   18  C   UNL     1      -9.409   9.888  68.790  1.00  0.00    -0.157 A  
HETATM   19  F   UNL     1     -13.374   9.821  70.687  1.00  0.00    -0.329 F  
HETATM   20  C   UNL     1      -8.707   8.740  69.180  1.00  0.00    -0.136 A  
HETATM   21  O   UNL     1     -12.417  11.353  68.713  1.00  0.00    -0.396 OA 
HETATM   22  O   UNL     1     -10.574  12.519  69.019  1.00  0.00    -0.165 OA 
ENDBRANCH   6  10
TORSDOF 1
ENDMDL
MODEL      157
REMARK 921   NORMALIZED FREE ENERGY PREDICTED BY IDOCK:   -4.03 KCAL/MOL
REMARK 922        TOTAL FREE ENERGY PREDICTED BY IDOCK:   -4.43 KCAL/MOL
REMARK 923 INTER-LIGAND FREE ENERGY PREDICTED BY IDOCK:   -4.69 KCAL/MOL
REMARK 924 INTRA-LIGAND FREE ENERGY PREDICTED BY IDOCK:    0.26 KCAL/MOL
REMARK 927      BINDING AFFINITY PREDICTED BY RF-SCORE:    0.00 PKD
ROOT
HETATM    1  C   UNL     1     -12.367   8.946  72.352  1.00  0.00    -0.385 C  
HETATM    2  C   UNL     1     -11.176   8.047  72.063  1.00  0.00    -0.298 C  
HETATM    3  N   UNL     1     -11.400   6.695  72.478  1.00  0.00    -0.264 NA 
HETATM    4  C   UNL     1      -9.883   8.585  72.673  1.00  0.00    -0.281 C  
HETATM    5  C   UNL     1     -11.085   5.790  71.487  1.00  0.00    -0.214 C  
HETATM    6  N   UNL     1     -10.865   6.470  70.308  1.00  0.00    -0.255 N  
HETATM    7  O   UNL     1     -11.034   4.596  71.733  1.00  0.00     0.083 OA 
HETATM    8  C   UNL     1     -10.975   7.828  70.556  1.00  0.00    -0.245 C  
HETATM    9  O   UNL     1     -10.869   8.766  69.773  1.00  0.00    -0.235 OA 
ENDROOT
BRANCH   6  10
HETATM   10  C   UNL     1     -10.566   5.870  69.041  1.00  0.00    -0.290 A  
HETATM   11  C   UNL     1      -9.889   4.635  68.942  1.00  0.00    -0.211 A  
HETATM   12  C   UNL     1      -9.582   4.024  67.701  1.00  0.00    -0.210 A  
HETATM   13  C   UNL     1      -8.869   2.697  67.665  1.00  0.00    -0.132 C  
HETATM   14  C   UNL     1      -9.983   4.682  66.536  1.00  0.00    -0.242 A  
HETATM   15  F   UNL     1      -9.535   1.776  66.919  1.00  0.00    -0.104 F  
HETATM   16  N   UNL     1      -9.720   4.117  65.220  1.00  0.00    -0.187 N  
HETATM   17  F   UNL     1      -8.724   2.132  68.897  1.00  0.00    -0.083 F  
HETATM   18  C   UNL     1     -10.658   5.900  66.588  1.00  0.00    -0.330 A  
HETATM   19  F   UNL     1      -7.614   2.780  67.156  1.00  0.00    -0.066 F  
HETATM   20  C   UNL     1     -10.938   6.483  67.831  1.00  0.00    -0.382 A  
HETATM   21  O   UNL     1      -8.540   3.919  64.919  1.00  0.00    -0.110 OA 
HETATM   22  O   UNL     1     -10.700   3.914  64.494  1.00  0.00    -0.252 OA 
ENDBRANCH   6  10
TORSDOF 1
ENDMDL
MODEL      158
REMARK 921   NORMALIZED FREE ENERGY PREDICTED BY IDOCK:   -4.02 KCAL/MOL
REMARK 922        TOTAL FREE ENERGY PREDICTED BY IDOCK:   -4.43 KCAL/MOL
REMARK 923 INTER-LIGAND FREE ENERGY PREDICTED BY IDOCK:   -3.99 KCAL/MOL
REMARK 924 INTRA-LIGAND FREE ENERGY PREDICTED BY IDOCK:   -0.44 KCAL/MOL
REMARK 927      BINDING AFFINITY PREDICTED BY RF-SCORE:    0.00 PKD
ROOT
HETATM    1  C   UNL     1      -7.727   1.934  66.224  1.00  0.00    -0.070 C  
HETATM    2  C   UNL     1      -7.979   3.432  66.187  1.00  0.00    -0.092 C  
HETATM    3  N   UNL     1      -9.316   3.751  65.783  1.00  0.00    -0.157 NA 
HETATM    4  C   UNL     1      -6.967   4.168  65.311  1.00  0.00    -0.058 C  
HETATM    5  C   UNL     1      -9.913   4.656  66.634  1.00  0.00    -0.236 C  
HETATM    6  N   UNL     1      -9.123   4.810  67.755  1.00  0.00    -0.112 N  
HETATM    7  O   UNL     1     -10.973   5.180  66.336  1.00  0.00    -0.212 OA 
HETATM    8  C   UNL     1      -7.978   4.049  67.594  1.00  0.00    -0.090 C  
HETATM    9  O   UNL     1      -7.038   3.898  68.367  1.00  0.00    -0.050 OA 
ENDROOT
BRANCH   6  10
HETATM   10  C   UNL     1      -9.435   5.626  68.891  1.00  0.00    -0.126 A  
HETATM   11  C   UNL     1      -9.119   7.002  68.929  1.00  0.00    -0.134 A  
HETATM   12  C   UNL     1      -9.416   7.829  70.040  1.00  0.00    -0.161 A  
HETATM   13  C   UNL     1      -9.065   9.294  70.012  1.00  0.00    -0.210 C  
HETATM   14  C   UNL     1     -10.058   7.242  71.134  1.00  0.00    -0.186 A  
HETATM   15  F   UNL     1     -10.134  10.084  70.293  1.00  0.00    -0.282 F  
HETATM   16  N   UNL     1     -10.411   8.021  72.311  1.00  0.00    -0.255 N  
HETATM   17  F   UNL     1      -8.611   9.713  68.797  1.00  0.00    -0.114 F  
HETATM   18  C   UNL     1     -10.392   5.889  71.135  1.00  0.00    -0.276 A  
HETATM   19  F   UNL     1      -8.089   9.625  70.895  1.00  0.00    -0.194 F  
HETATM   20  C   UNL     1     -10.076   5.096  70.024  1.00  0.00    -0.345 A  
HETATM   21  O   UNL     1      -9.490   8.574  72.917  1.00  0.00    -0.239 OA 
HETATM   22  O   UNL     1     -11.606   8.039  72.630  1.00  0.00    -0.388 OA 
ENDBRANCH   6  10
TORSDOF 1
ENDMDL
MODEL      159
REMARK 921   NORMALIZED FREE ENERGY PREDICTED BY IDOCK:   -4.02 KCAL/MOL
REMARK 922        TOTAL FREE ENERGY PREDICTED BY IDOCK:   -4.42 KCAL/MOL
REMARK 923 INTER-LIGAND FREE ENERGY PREDICTED BY IDOCK:   -3.98 KCAL/MOL
REMARK 924 INTRA-LIGAND FREE ENERGY PREDICTED BY IDOCK:   -0.44 KCAL/MOL
REMARK 927      BINDING AFFINITY PREDICTED BY RF-SCORE:    0.00 PKD
ROOT
HETATM    1  C   UNL     1     -10.749   7.636  67.149  1.00  0.00    -0.361 C  
HETATM    2  C   UNL     1      -9.784   8.728  66.717  1.00  0.00    -0.221 C  
HETATM    3  N   UNL     1     -10.173   9.344  65.484  1.00  0.00     0.063 NA 
HETATM    4  C   UNL     1      -8.343   8.227  66.632  1.00  0.00    -0.111 C  
HETATM    5  C   UNL     1     -10.164  10.719  65.566  1.00  0.00    -0.266 C  
HETATM    6  N   UNL     1     -10.005  11.092  66.884  1.00  0.00    -0.191 N  
HETATM    7  O   UNL     1     -10.282  11.401  64.561  1.00  0.00    -0.257 OA 
HETATM    8  C   UNL     1      -9.844   9.948  67.649  1.00  0.00    -0.163 C  
HETATM    9  O   UNL     1      -9.695   9.845  68.861  1.00  0.00    -0.162 OA 
ENDROOT
BRANCH   6  10
HETATM   10  C   UNL     1     -10.000  12.437  67.378  1.00  0.00    -0.202 A  
HETATM   11  C   UNL     1      -8.831  13.229  67.371  1.00  0.00    -0.204 A  
HETATM   12  C   UNL     1      -8.802  14.561  67.854  1.00  0.00    -0.176 A  
HETATM   13  C   UNL     1      -7.524  15.358  67.805  1.00  0.00    -0.155 C  
HETATM   14  C   UNL     1      -9.993  15.100  68.348  1.00  0.00    -0.222 A  
HETATM   15  F   UNL     1      -7.688  16.553  67.179  1.00  0.00    -0.154 F  
HETATM   16  N   UNL     1     -10.054  16.464  68.851  1.00  0.00    -0.241 N  
HETATM   17  F   UNL     1      -6.524  14.727  67.129  1.00  0.00    -0.130 F  
HETATM   18  C   UNL     1     -11.170  14.354  68.369  1.00  0.00    -0.294 A  
HETATM   19  F   UNL     1      -7.015  15.626  69.035  1.00  0.00    -0.115 F  
HETATM   20  C   UNL     1     -11.163  13.037  67.892  1.00  0.00    -0.304 A  
HETATM   21  O   UNL     1      -9.320  16.746  69.802  1.00  0.00     0.248 OA 
HETATM   22  O   UNL     1     -10.864  17.223  68.306  1.00  0.00    -0.365 OA 
ENDBRANCH   6  10
TORSDOF 1
ENDMDL
MODEL      160
REMARK 921   NORMALIZED FREE ENERGY PREDICTED BY IDOCK:   -4.02 KCAL/MOL
REMARK 922        TOTAL FREE ENERGY PREDICTED BY IDOCK:   -4.42 KCAL/MOL
REMARK 923 INTER-LIGAND FREE ENERGY PREDICTED BY IDOCK:   -3.98 KCAL/MOL
REMARK 924 INTRA-LIGAND FREE ENERGY PREDICTED BY IDOCK:   -0.44 KCAL/MOL
REMARK 927      BINDING AFFINITY PREDICTED BY RF-SCORE:    0.00 PKD
ROOT
HETATM    1  C   UNL     1     -10.276  10.917  62.922  1.00  0.00    -0.089 C  
HETATM    2  C   UNL     1     -10.952  11.520  64.142  1.00  0.00    -0.366 C  
HETATM    3  N   UNL     1     -10.670  10.788  65.340  1.00  0.00    -0.144 NA 
HETATM    4  C   UNL     1     -12.460  11.672  63.952  1.00  0.00    -0.223 C  
HETATM    5  C   UNL     1     -10.264  11.612  66.368  1.00  0.00    -0.221 C  
HETATM    6  N   UNL     1     -10.028  12.875  65.866  1.00  0.00    -0.275 N  
HETATM    7  O   UNL     1     -10.167  11.182  67.505  1.00  0.00    -0.179 OA 
HETATM    8  C   UNL     1     -10.348  12.881  64.519  1.00  0.00    -0.357 C  
HETATM    9  O   UNL     1     -10.262  13.798  63.710  1.00  0.00     0.350 OA 
ENDROOT
BRANCH   6  10
HETATM   10  C   UNL     1      -9.539  13.994  66.617  1.00  0.00    -0.289 A  
HETATM   11  C   UNL     1     -10.412  14.876  67.291  1.00  0.00    -0.263 A  
HETATM   12  C   UNL     1      -9.953  15.989  68.039  1.00  0.00    -0.229 A  
HETATM   13  C   UNL     1     -10.936  16.884  68.748  1.00  0.00    -0.234 C  
HETATM   14  C   UNL     1      -8.574  16.203  68.107  1.00  0.00    -0.177 A  
HETATM   15  F   UNL     1     -10.639  17.031  70.066  1.00  0.00    -0.249 F  
HETATM   16  N   UNL     1      -8.017  17.314  68.863  1.00  0.00    -0.235 N  
HETATM   17  F   UNL     1     -12.214  16.413  68.712  1.00  0.00    -0.191 F  
HETATM   18  C   UNL     1      -7.678  15.353  67.459  1.00  0.00    -0.205 A  
HETATM   19  F   UNL     1     -10.998  18.133  68.218  1.00  0.00    -0.296 F  
HETATM   20  C   UNL     1      -8.164  14.267  66.721  1.00  0.00     0.114 A  
HETATM   21  O   UNL     1      -8.359  18.451  68.527  1.00  0.00    -0.317 OA 
HETATM   22  O   UNL     1      -7.216  17.032  69.762  1.00  0.00     0.098 OA 
ENDBRANCH   6  10
TORSDOF 1
ENDMDL
MODEL      161
REMARK 921   NORMALIZED FREE ENERGY PREDICTED BY IDOCK:   -4.02 KCAL/MOL
REMARK 922        TOTAL FREE ENERGY PREDICTED BY IDOCK:   -4.42 KCAL/MOL
REMARK 923 INTER-LIGAND FREE ENERGY PREDICTED BY IDOCK:   -3.98 KCAL/MOL
REMARK 924 INTRA-LIGAND FREE ENERGY PREDICTED BY IDOCK:   -0.43 KCAL/MOL
REMARK 927      BINDING AFFINITY PREDICTED BY RF-SCORE:    0.00 PKD
ROOT
HETATM    1  C   UNL     1      -6.366   6.615  64.653  1.00  0.00    -0.038 C  
HETATM    2  C   UNL     1      -7.357   5.701  65.356  1.00  0.00    -0.072 C  
HETATM    3  N   UNL     1      -6.736   4.899  66.367  1.00  0.00    -0.049 NA 
HETATM    4  C   UNL     1      -8.129   4.821  64.375  1.00  0.00    -0.110 C  
HETATM    5  C   UNL     1      -7.422   4.947  67.561  1.00  0.00    -0.079 C  
HETATM    6  N   UNL     1      -8.377   5.940  67.493  1.00  0.00    -0.105 N  
HETATM    7  O   UNL     1      -7.144   4.179  68.467  1.00  0.00    -0.053 OA 
HETATM    8  C   UNL     1      -8.350   6.491  66.222  1.00  0.00    -0.124 C  
HETATM    9  O   UNL     1      -9.024   7.406  65.764  1.00  0.00    -0.127 OA 
ENDROOT
BRANCH   6  10
HETATM   10  C   UNL     1      -9.255   6.330  68.557  1.00  0.00    -0.123 A  
HETATM   11  C   UNL     1      -8.884   7.307  69.506  1.00  0.00    -0.137 A  
HETATM   12  C   UNL     1      -9.734   7.709  70.567  1.00  0.00    -0.182 A  
HETATM   13  C   UNL     1      -9.284   8.768  71.539  1.00  0.00    -0.262 C  
HETATM   14  C   UNL     1     -10.992   7.108  70.656  1.00  0.00    -0.258 A  
HETATM   15  F   UNL     1     -10.182   9.782  71.647  1.00  0.00    -0.250 F  
HETATM   16  N   UNL     1     -11.931   7.472  71.706  1.00  0.00    -0.290 N  
HETATM   17  F   UNL     1      -8.108   9.358  71.184  1.00  0.00    -0.190 F  
HETATM   18  C   UNL     1     -11.399   6.143  69.736  1.00  0.00    -0.452 A  
HETATM   19  F   UNL     1      -9.081   8.289  72.793  1.00  0.00    -0.241 F  
HETATM   20  C   UNL     1     -10.532   5.761  68.704  1.00  0.00    -0.298 A  
HETATM   21  O   UNL     1     -11.566   7.299  72.872  1.00  0.00    -0.229 OA 
HETATM   22  O   UNL     1     -13.036   7.893  71.344  1.00  0.00    -0.313 OA 
ENDBRANCH   6  10
TORSDOF 1
ENDMDL
MODEL      162
REMARK 921   NORMALIZED FREE ENERGY PREDICTED BY IDOCK:   -3.92 KCAL/MOL
REMARK 922        TOTAL FREE ENERGY PREDICTED BY IDOCK:   -4.31 KCAL/MOL
REMARK 923 INTER-LIGAND FREE ENERGY PREDICTED BY IDOCK:   -4.01 KCAL/MOL
REMARK 924 INTRA-LIGAND FREE ENERGY PREDICTED BY IDOCK:   -0.30 KCAL/MOL
REMARK 927      BINDING AFFINITY PREDICTED BY RF-SCORE:    0.00 PKD
ROOT
HETATM    1  C   UNL     1      -8.073   4.191  64.454  1.00  0.00    -0.091 C  
HETATM    2  C   UNL     1      -9.260   3.943  65.371  1.00  0.00    -0.151 C  
HETATM    3  N   UNL     1      -9.154   2.702  66.077  1.00  0.00    -0.137 NA 
HETATM    4  C   UNL     1     -10.592   4.022  64.627  1.00  0.00    -0.188 C  
HETATM    5  C   UNL     1      -9.386   2.852  67.427  1.00  0.00    -0.161 C  
HETATM    6  N   UNL     1      -9.425   4.196  67.732  1.00  0.00    -0.172 N  
HETATM    7  O   UNL     1      -9.524   1.874  68.144  1.00  0.00    -0.190 OA 
HETATM    8  C   UNL     1      -9.282   4.918  66.558  1.00  0.00    -0.135 C  
HETATM    9  O   UNL     1      -9.244   6.133  66.400  1.00  0.00    -0.148 OA 
ENDROOT
BRANCH   6  10
HETATM   10  C   UNL     1      -9.591   4.752  69.042  1.00  0.00    -0.165 A  
HETATM   11  C   UNL     1     -10.686   5.582  69.366  1.00  0.00    -0.312 A  
HETATM   12  C   UNL     1     -10.871   6.143  70.653  1.00  0.00    -0.355 A  
HETATM   13  C   UNL     1     -12.070   7.010  70.938  1.00  0.00    -0.357 C  
HETATM   14  C   UNL     1      -9.923   5.845  71.635  1.00  0.00    -0.175 A  
HETATM   15  F   UNL     1     -12.769   6.581  72.022  1.00  0.00    -0.378 F  
HETATM   16  N   UNL     1     -10.044   6.369  72.987  1.00  0.00    -0.181 N  
HETATM   17  F   UNL     1     -12.968   7.037  69.913  1.00  0.00     0.269 F  
HETATM   18  C   UNL     1      -8.829   5.026  71.359  1.00  0.00    -0.151 A  
HETATM   19  F   UNL     1     -11.747   8.308  71.168  1.00  0.00    -0.270 F  
HETATM   20  C   UNL     1      -8.670   4.494  70.073  1.00  0.00    -0.115 A  
HETATM   21  O   UNL     1     -10.057   7.596  73.116  1.00  0.00    -0.268 OA 
HETATM   22  O   UNL     1     -10.089   5.541  73.905  1.00  0.00    -0.182 OA 
ENDBRANCH   6  10
TORSDOF 1
ENDMDL
MODEL      163
REMARK 921   NORMALIZED FREE ENERGY PREDICTED BY IDOCK:   -3.91 KCAL/MOL
REMARK 922        TOTAL FREE ENERGY PREDICTED BY IDOCK:   -4.30 KCAL/MOL
REMARK 923 INTER-LIGAND FREE ENERGY PREDICTED BY IDOCK:   -3.89 KCAL/MOL
REMARK 924 INTRA-LIGAND FREE ENERGY PREDICTED BY IDOCK:   -0.41 KCAL/MOL
REMARK 927      BINDING AFFINITY PREDICTED BY RF-SCORE:    0.00 PKD
ROOT
HETATM    1  C   UNL     1      -9.133   2.949  65.232  1.00  0.00    -0.149 C  
HETATM    2  C   UNL     1      -8.972   4.346  65.809  1.00  0.00    -0.129 C  
HETATM    3  N   UNL     1     -10.213   5.059  65.865  1.00  0.00    -0.198 NA 
HETATM    4  C   UNL     1      -7.921   5.163  65.060  1.00  0.00    -0.104 C  
HETATM    5  C   UNL     1     -10.427   5.630  67.101  1.00  0.00    -0.270 C  
HETATM    6  N   UNL     1      -9.487   5.149  67.989  1.00  0.00    -0.121 N  
HETATM    7  O   UNL     1     -11.335   6.427  67.266  1.00  0.00    -0.295 OA 
HETATM    8  C   UNL     1      -8.621   4.313  67.304  1.00  0.00    -0.104 C  
HETATM    9  O   UNL     1      -7.665   3.676  67.731  1.00  0.00    -0.069 OA 
ENDROOT
BRANCH   6  10
HETATM   10  C   UNL     1      -9.416   5.468  69.385  1.00  0.00    -0.133 A  
HETATM   11  C   UNL     1      -9.826   4.553  70.379  1.00  0.00    -0.302 A  
HETATM   12  C   UNL     1      -9.765   4.845  71.764  1.00  0.00    -0.223 A  
HETATM   13  C   UNL     1     -10.205   3.819  72.775  1.00  0.00    -0.166 C  
HETATM   14  C   UNL     1      -9.268   6.094  72.144  1.00  0.00    -0.141 A  
HETATM   15  F   UNL     1      -9.250   3.578  73.712  1.00  0.00    -0.092 F  
HETATM   16  N   UNL     1      -9.159   6.471  73.545  1.00  0.00    -0.124 N  
HETATM   17  F   UNL     1     -10.487   2.606  72.222  1.00  0.00    -0.233 F  
HETATM   18  C   UNL     1      -8.848   7.025  71.195  1.00  0.00    -0.141 A  
HETATM   19  F   UNL     1     -11.330   4.179  73.446  1.00  0.00    -0.306 F  
HETATM   20  C   UNL     1      -8.929   6.708  69.833  1.00  0.00    -0.144 A  
HETATM   21  O   UNL     1     -10.201   6.482  74.207  1.00  0.00    -0.339 OA 
HETATM   22  O   UNL     1      -8.034   6.783  73.954  1.00  0.00    -0.107 OA 
ENDBRANCH   6  10
TORSDOF 1
ENDMDL
MODEL      164
REMARK 921   NORMALIZED FREE ENERGY PREDICTED BY IDOCK:   -3.90 KCAL/MOL
REMARK 922        TOTAL FREE ENERGY PREDICTED BY IDOCK:   -4.30 KCAL/MOL
REMARK 923 INTER-LIGAND FREE ENERGY PREDICTED BY IDOCK:   -3.88 KCAL/MOL
REMARK 924 INTRA-LIGAND FREE ENERGY PREDICTED BY IDOCK:   -0.42 KCAL/MOL
REMARK 927      BINDING AFFINITY PREDICTED BY RF-SCORE:    0.00 PKD
ROOT
HETATM    1  C   UNL     1     -12.471   7.970  71.677  1.00  0.00    -0.347 C  
HETATM    2  C   UNL     1     -11.052   7.425  71.710  1.00  0.00    -0.238 C  
HETATM    3  N   UNL     1     -11.006   6.052  72.116  1.00  0.00    -0.254 NA 
HETATM    4  C   UNL     1     -10.127   8.270  72.584  1.00  0.00    -0.365 C  
HETATM    5  C   UNL     1     -10.240   5.286  71.263  1.00  0.00    -0.224 C  
HETATM    6  N   UNL     1      -9.934   6.027  70.142  1.00  0.00    -0.172 N  
HETATM    7  O   UNL     1      -9.938   4.142  71.562  1.00  0.00    -0.182 OA 
HETATM    8  C   UNL     1     -10.451   7.302  70.302  1.00  0.00    -0.219 C  
HETATM    9  O   UNL     1     -10.413   8.253  69.529  1.00  0.00    -0.223 OA 
ENDROOT
BRANCH   6  10
HETATM   10  C   UNL     1      -9.199   5.558  69.004  1.00  0.00    -0.119 A  
HETATM   11  C   UNL     1      -9.843   5.171  67.809  1.00  0.00    -0.196 A  
HETATM   12  C   UNL     1      -9.138   4.703  66.673  1.00  0.00    -0.119 A  
HETATM   13  C   UNL     1      -9.885   4.319  65.422  1.00  0.00    -0.211 C  
HETATM   14  C   UNL     1      -7.745   4.638  66.753  1.00  0.00    -0.095 A  
HETATM   15  F   UNL     1      -9.411   4.961  64.322  1.00  0.00    -0.134 F  
HETATM   16  N   UNL     1      -6.943   4.182  65.628  1.00  0.00    -0.061 N  
HETATM   17  F   UNL     1     -11.213   4.621  65.476  1.00  0.00    -0.343 F  
HETATM   18  C   UNL     1      -7.069   5.015  67.912  1.00  0.00    -0.062 A  
HETATM   19  F   UNL     1      -9.828   2.989  65.155  1.00  0.00    -0.138 F  
HETATM   20  C   UNL     1      -7.796   5.465  69.022  1.00  0.00    -0.090 A  
HETATM   21  O   UNL     1      -7.154   3.039  65.213  1.00  0.00    -0.058 OA 
HETATM   22  O   UNL     1      -6.088   4.966  65.198  1.00  0.00    -0.028 OA 
ENDBRANCH   6  10
TORSDOF 1
ENDMDL
MODEL      165
REMARK 921   NORMALIZED FREE ENERGY PREDICTED BY IDOCK:   -3.88 KCAL/MOL
REMARK 922        TOTAL FREE ENERGY PREDICTED BY IDOCK:   -4.27 KCAL/MOL
REMARK 923 INTER-LIGAND FREE ENERGY PREDICTED BY IDOCK:   -3.95 KCAL/MOL
REMARK 924 INTRA-LIGAND FREE ENERGY PREDICTED BY IDOCK:   -0.32 KCAL/MOL
REMARK 927      BINDING AFFINITY PREDICTED BY RF-SCORE:    0.00 PKD
ROOT
HETATM    1  C   UNL     1      -7.138   6.870  70.517  1.00  0.00    -0.067 C  
HETATM    2  C   UNL     1      -6.486   8.217  70.250  1.00  0.00    -0.036 C  
HETATM    3  N   UNL     1      -5.927   8.301  68.934  1.00  0.00    -0.042 NA 
HETATM    4  C   UNL     1      -5.434   8.568  71.300  1.00  0.00    -0.034 C  
HETATM    5  C   UNL     1      -6.310   9.453  68.282  1.00  0.00    -0.053 C  
HETATM    6  N   UNL     1      -7.307  10.073  69.007  1.00  0.00    -0.078 N  
HETATM    7  O   UNL     1      -5.778   9.777  67.233  1.00  0.00    -0.046 OA 
HETATM    8  C   UNL     1      -7.521   9.349  70.168  1.00  0.00    -0.120 C  
HETATM    9  O   UNL     1      -8.330   9.553  71.066  1.00  0.00    -0.294 OA 
ENDROOT
BRANCH   6  10
HETATM   10  C   UNL     1      -7.999  11.268  68.625  1.00  0.00    -0.145 A  
HETATM   11  C   UNL     1      -9.382  11.268  68.339  1.00  0.00    -0.181 A  
HETATM   12  C   UNL     1     -10.087  12.436  67.959  1.00  0.00    -0.214 A  
HETATM   13  C   UNL     1     -11.567  12.372  67.681  1.00  0.00    -0.357 C  
HETATM   14  C   UNL     1      -9.369  13.632  67.877  1.00  0.00    -0.206 A  
HETATM   15  F   UNL     1     -12.266  13.285  68.405  1.00  0.00    -0.372 F  
HETATM   16  N   UNL     1     -10.019  14.880  67.506  1.00  0.00    -0.219 N  
HETATM   17  F   UNL     1     -12.119  11.164  67.987  1.00  0.00    -0.307 F  
HETATM   18  C   UNL     1      -8.005  13.677  68.155  1.00  0.00    -0.148 A  
HETATM   19  F   UNL     1     -11.874  12.588  66.376  1.00  0.00    -0.402 F  
HETATM   20  C   UNL     1      -7.334  12.502  68.520  1.00  0.00    -0.115 A  
HETATM   21  O   UNL     1     -10.568  14.923  66.402  1.00  0.00    -0.293 OA 
HETATM   22  O   UNL     1      -9.940  15.812  68.315  1.00  0.00    -0.218 OA 
ENDBRANCH   6  10
TORSDOF 1
ENDMDL
MODEL      166
REMARK 921   NORMALIZED FREE ENERGY PREDICTED BY IDOCK:   -3.87 KCAL/MOL
REMARK 922        TOTAL FREE ENERGY PREDICTED BY IDOCK:   -4.26 KCAL/MOL
REMARK 923 INTER-LIGAND FREE ENERGY PREDICTED BY IDOCK:   -4.28 KCAL/MOL
REMARK 924 INTRA-LIGAND FREE ENERGY PREDICTED BY IDOCK:    0.02 KCAL/MOL
REMARK 927      BINDING AFFINITY PREDICTED BY RF-SCORE:    0.00 PKD
ROOT
HETATM    1  C   UNL     1     -11.338   7.883  73.016  1.00  0.00    -0.298 C  
HETATM    2  C   UNL     1     -11.834   8.339  71.654  1.00  0.00    -0.299 C  
HETATM    3  N   UNL     1     -11.544   9.719  71.402  1.00  0.00    -0.382 NA 
HETATM    4  C   UNL     1     -13.324   8.062  71.458  1.00  0.00    -0.324 C  
HETATM    5  C   UNL     1     -10.958   9.908  70.169  1.00  0.00    -0.301 C  
HETATM    6  N   UNL     1     -10.615   8.682  69.639  1.00  0.00    -0.222 N  
HETATM    7  O   UNL     1     -10.821  11.032  69.714  1.00  0.00    -0.231 OA 
HETATM    8  C   UNL     1     -11.042   7.692  70.508  1.00  0.00    -0.255 C  
HETATM    9  O   UNL     1     -10.914   6.476  70.415  1.00  0.00    -0.252 OA 
ENDROOT
BRANCH   6  10
HETATM   10  C   UNL     1      -9.935   8.469  68.395  1.00  0.00    -0.187 A  
HETATM   11  C   UNL     1      -8.851   9.279  67.991  1.00  0.00    -0.128 A  
HETATM   12  C   UNL     1      -8.165   9.089  66.766  1.00  0.00    -0.115 A  
HETATM   13  C   UNL     1      -7.006   9.980  66.400  1.00  0.00    -0.101 C  
HETATM   14  C   UNL     1      -8.586   8.044  65.940  1.00  0.00    -0.152 A  
HETATM   15  F   UNL     1      -5.890   9.270  66.087  1.00  0.00    -0.052 F  
HETATM   16  N   UNL     1      -7.928   7.771  64.671  1.00  0.00    -0.136 N  
HETATM   17  F   UNL     1      -6.634  10.818  67.408  1.00  0.00    -0.064 F  
HETATM   18  C   UNL     1      -9.648   7.218  66.304  1.00  0.00    -0.103 A  
HETATM   19  F   UNL     1      -7.268  10.786  65.340  1.00  0.00    -0.130 F  
HETATM   20  C   UNL     1     -10.312   7.438  67.517  1.00  0.00    -0.320 A  
HETATM   21  O   UNL     1      -7.925   8.676  63.832  1.00  0.00    -0.144 OA 
HETATM   22  O   UNL     1      -7.452   6.639  64.522  1.00  0.00    -0.080 OA 
ENDBRANCH   6  10
TORSDOF 1
ENDMDL
MODEL      167
REMARK 921   NORMALIZED FREE ENERGY PREDICTED BY IDOCK:   -3.86 KCAL/MOL
REMARK 922        TOTAL FREE ENERGY PREDICTED BY IDOCK:   -4.25 KCAL/MOL
REMARK 923 INTER-LIGAND FREE ENERGY PREDICTED BY IDOCK:   -3.81 KCAL/MOL
REMARK 924 INTRA-LIGAND FREE ENERGY PREDICTED BY IDOCK:   -0.44 KCAL/MOL
REMARK 927      BINDING AFFINITY PREDICTED BY RF-SCORE:    0.00 PKD
ROOT
HETATM    1  C   UNL     1     -12.175   8.404  72.439  1.00  0.00    -0.430 C  
HETATM    2  C   UNL     1     -10.893   7.672  72.075  1.00  0.00    -0.238 C  
HETATM    3  N   UNL     1     -11.019   6.252  72.209  1.00  0.00    -0.245 NA 
HETATM    4  C   UNL     1      -9.692   8.178  72.872  1.00  0.00    -0.340 C  
HETATM    5  C   UNL     1     -10.566   5.584  71.091  1.00  0.00    -0.233 C  
HETATM    6  N   UNL     1     -10.338   6.497  70.082  1.00  0.00    -0.194 N  
HETATM    7  O   UNL     1     -10.423   4.373  71.109  1.00  0.00    -0.045 OA 
HETATM    8  C   UNL     1     -10.584   7.768  70.574  1.00  0.00    -0.226 C  
HETATM    9  O   UNL     1     -10.517   8.845  69.993  1.00  0.00    -0.200 OA 
ENDROOT
BRANCH   6  10
HETATM   10  C   UNL     1      -9.913   6.181  68.750  1.00  0.00    -0.145 A  
HETATM   11  C   UNL     1      -8.556   6.249  68.366  1.00  0.00    -0.114 A  
HETATM   12  C   UNL     1      -8.112   5.942  67.056  1.00  0.00    -0.102 A  
HETATM   13  C   UNL     1      -6.647   6.021  66.714  1.00  0.00    -0.056 C  
HETATM   14  C   UNL     1      -9.072   5.549  66.119  1.00  0.00    -0.150 A  
HETATM   15  F   UNL     1      -6.186   4.869  66.159  1.00  0.00    -0.030 F  
HETATM   16  N   UNL     1      -8.700   5.204  64.755  1.00  0.00    -0.151 N  
HETATM   17  F   UNL     1      -5.854   6.245  67.799  1.00  0.00    -0.011 F  
HETATM   18  C   UNL     1     -10.421   5.465  66.458  1.00  0.00    -0.352 A  
HETATM   19  F   UNL     1      -6.356   7.019  65.842  1.00  0.00    -0.041 F  
HETATM   20  C   UNL     1     -10.829   5.783  67.760  1.00  0.00    -0.259 A  
HETATM   21  O   UNL     1      -8.141   6.078  64.086  1.00  0.00    -0.120 OA 
HETATM   22  O   UNL     1      -9.005   4.072  64.363  1.00  0.00    -0.125 OA 
ENDBRANCH   6  10
TORSDOF 1
ENDMDL
MODEL      168
REMARK 921   NORMALIZED FREE ENERGY PREDICTED BY IDOCK:   -3.85 KCAL/MOL
REMARK 922        TOTAL FREE ENERGY PREDICTED BY IDOCK:   -4.25 KCAL/MOL
REMARK 923 INTER-LIGAND FREE ENERGY PREDICTED BY IDOCK:   -4.38 KCAL/MOL
REMARK 924 INTRA-LIGAND FREE ENERGY PREDICTED BY IDOCK:    0.13 KCAL/MOL
REMARK 927      BINDING AFFINITY PREDICTED BY RF-SCORE:    0.00 PKD
ROOT
HETATM    1  C   UNL     1      -9.110   5.711  71.772  1.00  0.00    -0.145 C  
HETATM    2  C   UNL     1      -9.136   7.204  72.056  1.00  0.00    -0.130 C  
HETATM    3  N   UNL     1      -7.820   7.760  72.165  1.00  0.00    -0.099 NA 
HETATM    4  C   UNL     1      -9.963   7.544  73.294  1.00  0.00    -0.368 C  
HETATM    5  C   UNL     1      -7.673   8.897  71.399  1.00  0.00    -0.087 C  
HETATM    6  N   UNL     1      -8.770   9.029  70.574  1.00  0.00    -0.186 N  
HETATM    7  O   UNL     1      -6.686   9.602  71.521  1.00  0.00    -0.316 OA 
HETATM    8  C   UNL     1      -9.660   8.007  70.856  1.00  0.00    -0.161 C  
HETATM    9  O   UNL     1     -10.741   7.759  70.334  1.00  0.00    -0.227 OA 
ENDROOT
BRANCH   6  10
HETATM   10  C   UNL     1      -8.958  10.057  69.592  1.00  0.00    -0.202 A  
HETATM   11  C   UNL     1     -10.235  10.587  69.304  1.00  0.00    -0.245 A  
HETATM   12  C   UNL     1     -10.445  11.602  68.338  1.00  0.00    -0.230 A  
HETATM   13  C   UNL     1     -11.832  12.135  68.088  1.00  0.00    -0.299 C  
HETATM   14  C   UNL     1      -9.329  12.093  67.657  1.00  0.00    -0.187 A  
HETATM   15  F   UNL     1     -11.890  13.488  68.193  1.00  0.00    -0.331 F  
HETATM   16  N   UNL     1      -9.454  13.145  66.659  1.00  0.00    -0.257 N  
HETATM   17  F   UNL     1     -12.757  11.661  68.970  1.00  0.00    -0.064 F  
HETATM   18  C   UNL     1      -8.050  11.602  67.915  1.00  0.00    -0.138 A  
HETATM   19  F   UNL     1     -12.312  11.816  66.858  1.00  0.00    -0.071 F  
HETATM   20  C   UNL     1      -7.877  10.591  68.870  1.00  0.00    -0.124 A  
HETATM   21  O   UNL     1     -10.172  12.911  65.683  1.00  0.00    -0.279 OA 
HETATM   22  O   UNL     1      -8.802  14.178  66.852  1.00  0.00    -0.227 OA 
ENDBRANCH   6  10
TORSDOF 1
ENDMDL
MODEL      169
REMARK 921   NORMALIZED FREE ENERGY PREDICTED BY IDOCK:   -3.84 KCAL/MOL
REMARK 922        TOTAL FREE ENERGY PREDICTED BY IDOCK:   -4.23 KCAL/MOL
REMARK 923 INTER-LIGAND FREE ENERGY PREDICTED BY IDOCK:   -4.47 KCAL/MOL
REMARK 924 INTRA-LIGAND FREE ENERGY PREDICTED BY IDOCK:    0.23 KCAL/MOL
REMARK 927      BINDING AFFINITY PREDICTED BY RF-SCORE:    0.00 PKD
ROOT
HETATM    1  C   UNL     1     -11.935  11.949  64.882  1.00  0.00    -0.186 C  
HETATM    2  C   UNL     1     -11.064  12.007  66.126  1.00  0.00    -0.322 C  
HETATM    3  N   UNL     1      -9.835  11.289  65.965  1.00  0.00    -0.219 NA 
HETATM    4  C   UNL     1     -11.804  11.525  67.373  1.00  0.00    -0.108 C  
HETATM    5  C   UNL     1      -8.744  12.037  66.353  1.00  0.00    -0.088 C  
HETATM    6  N   UNL     1      -9.143  13.340  66.564  1.00  0.00    -0.174 N  
HETATM    7  O   UNL     1      -7.645  11.519  66.462  1.00  0.00    -0.124 OA 
HETATM    8  C   UNL     1     -10.512  13.418  66.375  1.00  0.00    -0.286 C  
HETATM    9  O   UNL     1     -11.247  14.397  66.449  1.00  0.00    -0.329 OA 
ENDROOT
BRANCH   6  10
HETATM   10  C   UNL     1      -8.283  14.429  66.925  1.00  0.00    -0.016 A  
HETATM   11  C   UNL     1      -8.565  15.759  66.542  1.00  0.00    -0.343 A  
HETATM   12  C   UNL     1      -7.731  16.851  66.886  1.00  0.00    -0.252 A  
HETATM   13  C   UNL     1      -8.096  18.249  66.459  1.00  0.00    -0.269 C  
HETATM   14  C   UNL     1      -6.588  16.583  67.644  1.00  0.00    -0.148 A  
HETATM   15  F   UNL     1      -8.123  19.116  67.505  1.00  0.00    -0.274 F  
HETATM   16  N   UNL     1      -5.684  17.648  68.052  1.00  0.00    -0.148 N  
HETATM   17  F   UNL     1      -9.330  18.330  65.887  1.00  0.00    -0.230 F  
HETATM   18  C   UNL     1      -6.275  15.286  68.047  1.00  0.00    -0.156 A  
HETATM   19  F   UNL     1      -7.240  18.767  65.542  1.00  0.00    -0.289 F  
HETATM   20  C   UNL     1      -7.116  14.226  67.682  1.00  0.00    -0.200 A  
HETATM   21  O   UNL     1      -5.155  18.310  67.155  1.00  0.00    -0.125 OA 
HETATM   22  O   UNL     1      -5.491  17.782  69.266  1.00  0.00    -0.182 OA 
ENDBRANCH   6  10
TORSDOF 1
ENDMDL
MODEL      170
REMARK 921   NORMALIZED FREE ENERGY PREDICTED BY IDOCK:   -3.80 KCAL/MOL
REMARK 922        TOTAL FREE ENERGY PREDICTED BY IDOCK:   -4.19 KCAL/MOL
REMARK 923 INTER-LIGAND FREE ENERGY PREDICTED BY IDOCK:   -4.35 KCAL/MOL
REMARK 924 INTRA-LIGAND FREE ENERGY PREDICTED BY IDOCK:    0.16 KCAL/MOL
REMARK 927      BINDING AFFINITY PREDICTED BY RF-SCORE:    0.00 PKD
ROOT
HETATM    1  C   UNL     1      -9.976   6.233  72.019  1.00  0.00    -0.187 C  
HETATM    2  C   UNL     1     -11.018   7.087  71.315  1.00  0.00    -0.243 C  
HETATM    3  N   UNL     1     -11.558   8.103  72.168  1.00  0.00    -0.331 NA 
HETATM    4  C   UNL     1     -12.140   6.247  70.708  1.00  0.00     0.006 C  
HETATM    5  C   UNL     1     -11.551   9.343  71.566  1.00  0.00    -0.397 C  
HETATM    6  N   UNL     1     -10.812   9.276  70.403  1.00  0.00    -0.238 N  
HETATM    7  O   UNL     1     -12.146  10.280  72.072  1.00  0.00    -0.106 OA 
HETATM    8  C   UNL     1     -10.394   7.968  70.222  1.00  0.00    -0.212 C  
HETATM    9  O   UNL     1      -9.703   7.497  69.326  1.00  0.00    -0.161 OA 
ENDROOT
BRANCH   6  10
HETATM   10  C   UNL     1     -10.529  10.375  69.528  1.00  0.00    -0.247 A  
HETATM   11  C   UNL     1      -9.302  10.480  68.837  1.00  0.00    -0.192 A  
HETATM   12  C   UNL     1      -9.000  11.557  67.968  1.00  0.00    -0.170 A  
HETATM   13  C   UNL     1      -7.677  11.602  67.248  1.00  0.00    -0.154 C  
HETATM   14  C   UNL     1      -9.973  12.545  67.793  1.00  0.00    -0.210 A  
HETATM   15  F   UNL     1      -7.827  11.754  65.906  1.00  0.00     0.083 F  
HETATM   16  N   UNL     1      -9.749  13.678  66.908  1.00  0.00    -0.254 N  
HETATM   17  F   UNL     1      -6.940  10.467  67.407  1.00  0.00    -0.079 F  
HETATM   18  C   UNL     1     -11.199  12.477  68.452  1.00  0.00    -0.313 A  
HETATM   19  F   UNL     1      -6.875  12.614  67.669  1.00  0.00    -0.087 F  
HETATM   20  C   UNL     1     -11.463  11.403  69.312  1.00  0.00    -0.370 A  
HETATM   21  O   UNL     1      -8.791  14.412  67.165  1.00  0.00    -0.206 OA 
HETATM   22  O   UNL     1     -10.559  13.835  65.987  1.00  0.00    -0.282 OA 
ENDBRANCH   6  10
TORSDOF 1
ENDMDL
MODEL      171
REMARK 921   NORMALIZED FREE ENERGY PREDICTED BY IDOCK:   -3.79 KCAL/MOL
REMARK 922        TOTAL FREE ENERGY PREDICTED BY IDOCK:   -4.18 KCAL/MOL
REMARK 923 INTER-LIGAND FREE ENERGY PREDICTED BY IDOCK:   -3.93 KCAL/MOL
REMARK 924 INTRA-LIGAND FREE ENERGY PREDICTED BY IDOCK:   -0.26 KCAL/MOL
REMARK 927      BINDING AFFINITY PREDICTED BY RF-SCORE:    0.00 PKD
ROOT
HETATM    1  C   UNL     1      -9.046   5.862  71.847  1.00  0.00    -0.142 C  
HETATM    2  C   UNL     1      -8.682   6.299  70.437  1.00  0.00    -0.146 C  
HETATM    3  N   UNL     1      -9.790   6.206  69.535  1.00  0.00    -0.155 NA 
HETATM    4  C   UNL     1      -7.480   5.533  69.887  1.00  0.00    -0.070 C  
HETATM    5  C   UNL     1      -9.959   7.361  68.801  1.00  0.00    -0.169 C  
HETATM    6  N   UNL     1      -9.149   8.348  69.322  1.00  0.00    -0.150 N  
HETATM    7  O   UNL     1     -10.730   7.387  67.856  1.00  0.00    -0.206 OA 
HETATM    8  C   UNL     1      -8.405   7.807  70.357  1.00  0.00    -0.123 C  
HETATM    9  O   UNL     1      -7.586   8.355  71.086  1.00  0.00    -0.070 OA 
ENDROOT
BRANCH   6  10
HETATM   10  C   UNL     1      -9.085   9.705  68.864  1.00  0.00    -0.144 A  
HETATM   11  C   UNL     1     -10.224  10.540  68.849  1.00  0.00    -0.223 A  
HETATM   12  C   UNL     1     -10.186  11.883  68.400  1.00  0.00    -0.205 A  
HETATM   13  C   UNL     1     -11.435  12.726  68.424  1.00  0.00    -0.311 C  
HETATM   14  C   UNL     1      -8.958  12.389  67.966  1.00  0.00    -0.194 A  
HETATM   15  F   UNL     1     -11.251  13.899  69.086  1.00  0.00    -0.250 F  
HETATM   16  N   UNL     1      -8.828  13.762  67.501  1.00  0.00    -0.186 N  
HETATM   17  F   UNL     1     -12.483  12.117  69.045  1.00  0.00    -0.197 F  
HETATM   18  C   UNL     1      -7.809  11.600  67.968  1.00  0.00    -0.128 A  
HETATM   19  F   UNL     1     -11.887  13.044  67.183  1.00  0.00    -0.361 F  
HETATM   20  C   UNL     1      -7.882  10.273  68.410  1.00  0.00    -0.102 A  
HETATM   21  O   UNL     1      -9.515  14.096  66.531  1.00  0.00    -0.276 OA 
HETATM   22  O   UNL     1      -8.012  14.477  68.095  1.00  0.00    -0.117 OA 
ENDBRANCH   6  10
TORSDOF 1
ENDMDL
MODEL      172
REMARK 921   NORMALIZED FREE ENERGY PREDICTED BY IDOCK:   -3.77 KCAL/MOL
REMARK 922        TOTAL FREE ENERGY PREDICTED BY IDOCK:   -4.16 KCAL/MOL
REMARK 923 INTER-LIGAND FREE ENERGY PREDICTED BY IDOCK:   -3.72 KCAL/MOL
REMARK 924 INTRA-LIGAND FREE ENERGY PREDICTED BY IDOCK:   -0.43 KCAL/MOL
REMARK 927      BINDING AFFINITY PREDICTED BY RF-SCORE:    0.00 PKD
ROOT
HETATM    1  C   UNL     1      -7.287  10.771  65.527  1.00  0.00     0.016 C  
HETATM    2  C   UNL     1      -8.512  10.508  66.387  1.00  0.00    -0.143 C  
HETATM    3  N   UNL     1      -9.339   9.467  65.855  1.00  0.00    -0.206 NA 
HETATM    4  C   UNL     1      -9.333  11.774  66.626  1.00  0.00    -0.205 C  
HETATM    5  C   UNL     1      -9.672   8.531  66.810  1.00  0.00    -0.236 C  
HETATM    6  N   UNL     1      -8.917   8.753  67.943  1.00  0.00    -0.139 N  
HETATM    7  O   UNL     1     -10.521   7.686  66.579  1.00  0.00    -0.215 OA 
HETATM    8  C   UNL     1      -8.139   9.881  67.739  1.00  0.00    -0.109 C  
HETATM    9  O   UNL     1      -7.321  10.400  68.491  1.00  0.00    -0.081 OA 
ENDROOT
BRANCH   6  10
HETATM   10  C   UNL     1      -8.939   7.954  69.132  1.00  0.00    -0.145 A  
HETATM   11  C   UNL     1      -9.616   8.372  70.298  1.00  0.00    -0.170 A  
HETATM   12  C   UNL     1      -9.651   7.600  71.485  1.00  0.00    -0.179 A  
HETATM   13  C   UNL     1     -10.405   8.097  72.692  1.00  0.00    -0.328 C  
HETATM   14  C   UNL     1      -8.989   6.370  71.481  1.00  0.00    -0.144 A  
HETATM   15  F   UNL     1     -11.299   7.183  73.153  1.00  0.00    -0.299 F  
HETATM   16  N   UNL     1      -8.986   5.508  72.653  1.00  0.00    -0.129 N  
HETATM   17  F   UNL     1     -11.130   9.224  72.445  1.00  0.00    -0.321 F  
HETATM   18  C   UNL     1      -8.312   5.917  70.349  1.00  0.00    -0.123 A  
HETATM   19  F   UNL     1      -9.594   8.412  73.734  1.00  0.00    -0.195 F  
HETATM   20  C   UNL     1      -8.289   6.709  69.194  1.00  0.00    -0.124 A  
HETATM   21  O   UNL     1      -8.502   5.970  73.690  1.00  0.00    -0.118 OA 
HETATM   22  O   UNL     1      -9.439   4.366  72.508  1.00  0.00    -0.131 OA 
ENDBRANCH   6  10
TORSDOF 1
ENDMDL
MODEL      173
REMARK 921   NORMALIZED FREE ENERGY PREDICTED BY IDOCK:   -3.71 KCAL/MOL
REMARK 922        TOTAL FREE ENERGY PREDICTED BY IDOCK:   -4.10 KCAL/MOL
REMARK 923 INTER-LIGAND FREE ENERGY PREDICTED BY IDOCK:   -3.69 KCAL/MOL
REMARK 924 INTRA-LIGAND FREE ENERGY PREDICTED BY IDOCK:   -0.40 KCAL/MOL
REMARK 927      BINDING AFFINITY PREDICTED BY RF-SCORE:    0.00 PKD
ROOT
HETATM    1  C   UNL     1     -11.431  13.259  69.078  1.00  0.00    -0.350 C  
HETATM    2  C   UNL     1     -10.472  12.995  67.929  1.00  0.00    -0.229 C  
HETATM    3  N   UNL     1      -9.108  12.930  68.361  1.00  0.00    -0.167 NA 
HETATM    4  C   UNL     1     -10.626  14.013  66.801  1.00  0.00    -0.277 C  
HETATM    5  C   UNL     1      -8.463  11.815  67.872  1.00  0.00    -0.154 C  
HETATM    6  N   UNL     1      -9.391  10.971  67.299  1.00  0.00    -0.156 N  
HETATM    7  O   UNL     1      -7.253  11.701  67.983  1.00  0.00    -0.075 OA 
HETATM    8  C   UNL     1     -10.634  11.577  67.361  1.00  0.00    -0.214 C  
HETATM    9  O   UNL     1     -11.719  11.152  66.980  1.00  0.00    -0.460 OA 
ENDROOT
BRANCH   6  10
HETATM   10  C   UNL     1      -9.112   9.685  66.729  1.00  0.00    -0.146 A  
HETATM   11  C   UNL     1      -8.451   9.548  65.489  1.00  0.00    -0.150 A  
HETATM   12  C   UNL     1      -8.166   8.288  64.906  1.00  0.00    -0.154 A  
HETATM   13  C   UNL     1      -7.444   8.209  63.586  1.00  0.00    -0.120 C  
HETATM   14  C   UNL     1      -8.556   7.144  65.608  1.00  0.00    -0.107 A  
HETATM   15  F   UNL     1      -6.347   7.410  63.647  1.00  0.00    -0.049 F  
HETATM   16  N   UNL     1      -8.290   5.811  65.087  1.00  0.00    -0.144 N  
HETATM   17  F   UNL     1      -6.991   9.418  63.149  1.00  0.00    -0.097 F  
HETATM   18  C   UNL     1      -9.206   7.235  66.837  1.00  0.00    -0.180 A  
HETATM   19  F   UNL     1      -8.222   7.731  62.581  1.00  0.00    -0.148 F  
HETATM   20  C   UNL     1      -9.482   8.496  67.382  1.00  0.00    -0.188 A  
HETATM   21  O   UNL     1      -8.780   5.527  63.991  1.00  0.00    -0.045 OA 
HETATM   22  O   UNL     1      -7.621   5.056  65.803  1.00  0.00    -0.084 OA 
ENDBRANCH   6  10
TORSDOF 1
ENDMDL
MODEL      174
REMARK 921   NORMALIZED FREE ENERGY PREDICTED BY IDOCK:   -3.71 KCAL/MOL
REMARK 922        TOTAL FREE ENERGY PREDICTED BY IDOCK:   -4.10 KCAL/MOL
REMARK 923 INTER-LIGAND FREE ENERGY PREDICTED BY IDOCK:   -4.50 KCAL/MOL
REMARK 924 INTRA-LIGAND FREE ENERGY PREDICTED BY IDOCK:    0.40 KCAL/MOL
REMARK 927      BINDING AFFINITY PREDICTED BY RF-SCORE:    0.00 PKD
ROOT
HETATM    1  C   UNL     1      -9.157   9.267  70.174  1.00  0.00    -0.248 C  
HETATM    2  C   UNL     1      -9.888   9.973  69.043  1.00  0.00    -0.199 C  
HETATM    3  N   UNL     1     -11.252  10.259  69.371  1.00  0.00    -0.240 NA 
HETATM    4  C   UNL     1      -9.805   9.199  67.729  1.00  0.00    -0.214 C  
HETATM    5  C   UNL     1     -11.587  11.568  69.099  1.00  0.00    -0.316 C  
HETATM    6  N   UNL     1     -10.440  12.276  68.806  1.00  0.00    -0.200 N  
HETATM    7  O   UNL     1     -12.751  11.930  69.137  1.00  0.00     0.212 OA 
HETATM    8  C   UNL     1      -9.366  11.401  68.826  1.00  0.00    -0.106 C  
HETATM    9  O   UNL     1      -8.178  11.636  68.638  1.00  0.00    -0.151 OA 
ENDROOT
BRANCH   6  10
HETATM   10  C   UNL     1     -10.373  13.679  68.524  1.00  0.00    -0.243 A  
HETATM   11  C   UNL     1      -9.236  14.265  67.925  1.00  0.00    -0.194 A  
HETATM   12  C   UNL     1      -9.146  15.649  67.638  1.00  0.00    -0.193 A  
HETATM   13  C   UNL     1      -7.909  16.210  66.984  1.00  0.00    -0.223 C  
HETATM   14  C   UNL     1     -10.243  16.453  67.959  1.00  0.00    -0.264 A  
HETATM   15  F   UNL     1      -8.198  16.923  65.864  1.00  0.00    -0.326 F  
HETATM   16  N   UNL     1     -10.240  17.882  67.685  1.00  0.00    -0.348 N  
HETATM   17  F   UNL     1      -7.030  15.248  66.587  1.00  0.00     0.014 F  
HETATM   18  C   UNL     1     -11.387  15.914  68.546  1.00  0.00    -0.374 A  
HETATM   19  F   UNL     1      -7.201  17.031  67.801  1.00  0.00    -0.143 F  
HETATM   20  C   UNL     1     -11.440  14.543  68.826  1.00  0.00    -0.322 A  
HETATM   21  O   UNL     1      -9.358  18.556  68.224  1.00  0.00    -0.305 OA 
HETATM   22  O   UNL     1     -11.143  18.313  66.959  1.00  0.00    -0.117 OA 
ENDBRANCH   6  10
TORSDOF 1
ENDMDL
MODEL      175
REMARK 921   NORMALIZED FREE ENERGY PREDICTED BY IDOCK:   -3.71 KCAL/MOL
REMARK 922        TOTAL FREE ENERGY PREDICTED BY IDOCK:   -4.09 KCAL/MOL
REMARK 923 INTER-LIGAND FREE ENERGY PREDICTED BY IDOCK:   -3.66 KCAL/MOL
REMARK 924 INTRA-LIGAND FREE ENERGY PREDICTED BY IDOCK:   -0.44 KCAL/MOL
REMARK 927      BINDING AFFINITY PREDICTED BY RF-SCORE:    0.00 PKD
ROOT
HETATM    1  C   UNL     1      -7.470   7.586  69.618  1.00  0.00    -0.092 C  
HETATM    2  C   UNL     1      -6.927   8.994  69.436  1.00  0.00    -0.052 C  
HETATM    3  N   UNL     1      -6.173   9.135  68.226  1.00  0.00    -0.053 NA 
HETATM    4  C   UNL     1      -6.102   9.455  70.636  1.00  0.00    -0.065 C  
HETATM    5  C   UNL     1      -6.563  10.239  67.499  1.00  0.00    -0.067 C  
HETATM    6  N   UNL     1      -7.723  10.751  68.042  1.00  0.00    -0.098 N  
HETATM    7  O   UNL     1      -5.903  10.617  66.545  1.00  0.00    -0.062 OA 
HETATM    8  C   UNL     1      -8.046  10.010  69.167  1.00  0.00    -0.126 C  
HETATM    9  O   UNL     1      -9.008  10.129  69.918  1.00  0.00    -0.185 OA 
ENDROOT
BRANCH   6  10
HETATM   10  C   UNL     1      -8.464  11.866  67.531  1.00  0.00    -0.161 A  
HETATM   11  C   UNL     1      -8.136  13.197  67.871  1.00  0.00    -0.159 A  
HETATM   12  C   UNL     1      -8.854  14.315  67.380  1.00  0.00    -0.211 A  
HETATM   13  C   UNL     1      -8.444  15.711  67.770  1.00  0.00    -0.151 C  
HETATM   14  C   UNL     1      -9.925  14.071  66.515  1.00  0.00    -0.284 A  
HETATM   15  F   UNL     1      -8.248  16.511  66.688  1.00  0.00    -0.198 F  
HETATM   16  N   UNL     1     -10.707  15.162  65.954  1.00  0.00    -0.321 N  
HETATM   17  F   UNL     1      -7.276  15.752  68.469  1.00  0.00    -0.113 F  
HETATM   18  C   UNL     1     -10.278  12.773  66.150  1.00  0.00    -0.286 A  
HETATM   19  F   UNL     1      -9.357  16.335  68.557  1.00  0.00    -0.189 F  
HETATM   20  C   UNL     1      -9.554  11.689  66.661  1.00  0.00    -0.220 A  
HETATM   21  O   UNL     1     -11.283  15.909  66.750  1.00  0.00    -0.149 OA 
HETATM   22  O   UNL     1     -10.759  15.234  64.720  1.00  0.00    -0.410 OA 
ENDBRANCH   6  10
TORSDOF 1
ENDMDL
MODEL      176
REMARK 921   NORMALIZED FREE ENERGY PREDICTED BY IDOCK:   -3.71 KCAL/MOL
REMARK 922        TOTAL FREE ENERGY PREDICTED BY IDOCK:   -4.09 KCAL/MOL
REMARK 923 INTER-LIGAND FREE ENERGY PREDICTED BY IDOCK:   -3.66 KCAL/MOL
REMARK 924 INTRA-LIGAND FREE ENERGY PREDICTED BY IDOCK:   -0.43 KCAL/MOL
REMARK 927      BINDING AFFINITY PREDICTED BY RF-SCORE:    0.00 PKD
ROOT
HETATM    1  C   UNL     1      -6.688   2.869  66.526  1.00  0.00    -0.044 C  
HETATM    2  C   UNL     1      -7.154   2.903  67.972  1.00  0.00    -0.049 C  
HETATM    3  N   UNL     1      -6.237   3.600  68.824  1.00  0.00    -0.028 NA 
HETATM    4  C   UNL     1      -7.438   1.507  68.521  1.00  0.00    -0.042 C  
HETATM    5  C   UNL     1      -6.873   4.530  69.618  1.00  0.00    -0.045 C  
HETATM    6  N   UNL     1      -8.175   4.675  69.189  1.00  0.00    -0.080 N  
HETATM    7  O   UNL     1      -6.276   5.074  70.533  1.00  0.00    -0.018 OA 
HETATM    8  C   UNL     1      -8.399   3.784  68.153  1.00  0.00    -0.091 C  
HETATM    9  O   UNL     1      -9.416   3.613  67.489  1.00  0.00    -0.191 OA 
ENDROOT
BRANCH   6  10
HETATM   10  C   UNL     1      -9.136   5.591  69.729  1.00  0.00    -0.132 A  
HETATM   11  C   UNL     1      -9.229   6.926  69.276  1.00  0.00    -0.139 A  
HETATM   12  C   UNL     1     -10.170   7.849  69.795  1.00  0.00    -0.212 A  
HETATM   13  C   UNL     1     -10.228   9.256  69.258  1.00  0.00    -0.206 C  
HETATM   14  C   UNL     1     -11.041   7.400  70.791  1.00  0.00    -0.265 A  
HETATM   15  F   UNL     1     -11.478   9.601  68.853  1.00  0.00    -0.135 F  
HETATM   16  N   UNL     1     -12.046   8.280  71.370  1.00  0.00    -0.296 N  
HETATM   17  F   UNL     1      -9.427   9.449  68.173  1.00  0.00    -0.133 F  
HETATM   18  C   UNL     1     -10.985   6.090  71.263  1.00  0.00    -0.340 A  
HETATM   19  F   UNL     1      -9.838  10.189  70.164  1.00  0.00    -0.267 F  
HETATM   20  C   UNL     1     -10.037   5.204  70.736  1.00  0.00    -0.303 A  
HETATM   21  O   UNL     1     -11.643   9.303  71.929  1.00  0.00    -0.372 OA 
HETATM   22  O   UNL     1     -13.224   7.913  71.284  1.00  0.00    -0.270 OA 
ENDBRANCH   6  10
TORSDOF 1
ENDMDL
MODEL      177
REMARK 921   NORMALIZED FREE ENERGY PREDICTED BY IDOCK:   -3.69 KCAL/MOL
REMARK 922        TOTAL FREE ENERGY PREDICTED BY IDOCK:   -4.08 KCAL/MOL
REMARK 923 INTER-LIGAND FREE ENERGY PREDICTED BY IDOCK:   -3.66 KCAL/MOL
REMARK 924 INTRA-LIGAND FREE ENERGY PREDICTED BY IDOCK:   -0.42 KCAL/MOL
REMARK 927      BINDING AFFINITY PREDICTED BY RF-SCORE:    0.00 PKD
ROOT
HETATM    1  C   UNL     1     -10.663  14.273  64.873  1.00  0.00    -0.448 C  
HETATM    2  C   UNL     1     -10.142  12.916  65.316  1.00  0.00    -0.238 C  
HETATM    3  N   UNL     1      -8.978  13.023  66.144  1.00  0.00     0.091 NA 
HETATM    4  C   UNL     1      -9.873  11.986  64.135  1.00  0.00    -0.210 C  
HETATM    5  C   UNL     1      -9.088  12.268  67.292  1.00  0.00    -0.184 C  
HETATM    6  N   UNL     1     -10.386  11.815  67.412  1.00  0.00    -0.202 N  
HETATM    7  O   UNL     1      -8.120  12.092  68.013  1.00  0.00    -0.136 OA 
HETATM    8  C   UNL     1     -11.100  12.227  66.299  1.00  0.00    -0.302 C  
HETATM    9  O   UNL     1     -12.283  12.047  66.032  1.00  0.00    -0.546 OA 
ENDROOT
BRANCH   6  10
HETATM   10  C   UNL     1     -10.904  11.044  68.503  1.00  0.00    -0.213 A  
HETATM   11  C   UNL     1     -11.690  11.628  69.520  1.00  0.00    -0.410 A  
HETATM   12  C   UNL     1     -12.213  10.886  70.608  1.00  0.00    -0.472 A  
HETATM   13  C   UNL     1     -13.058  11.566  71.654  1.00  0.00    -0.373 C  
HETATM   14  C   UNL     1     -11.936   9.517  70.655  1.00  0.00    -0.197 A  
HETATM   15  F   UNL     1     -14.252  10.944  71.836  1.00  0.00     0.196 F  
HETATM   16  N   UNL     1     -12.445   8.679  71.730  1.00  0.00    -0.326 N  
HETATM   17  F   UNL     1     -13.364  12.857  71.341  1.00  0.00    -0.399 F  
HETATM   18  C   UNL     1     -11.169   8.900  69.668  1.00  0.00     0.035 A  
HETATM   19  F   UNL     1     -12.456  11.624  72.870  1.00  0.00     1.197 F  
HETATM   20  C   UNL     1     -10.658   9.664  68.610  1.00  0.00    -0.246 A  
HETATM   21  O   UNL     1     -12.107   8.972  72.880  1.00  0.00     0.047 OA 
HETATM   22  O   UNL     1     -13.151   7.718  71.402  1.00  0.00    -0.321 OA 
ENDBRANCH   6  10
TORSDOF 1
ENDMDL
MODEL      178
REMARK 921   NORMALIZED FREE ENERGY PREDICTED BY IDOCK:   -3.69 KCAL/MOL
REMARK 922        TOTAL FREE ENERGY PREDICTED BY IDOCK:   -4.07 KCAL/MOL
REMARK 923 INTER-LIGAND FREE ENERGY PREDICTED BY IDOCK:   -3.83 KCAL/MOL
REMARK 924 INTRA-LIGAND FREE ENERGY PREDICTED BY IDOCK:   -0.24 KCAL/MOL
REMARK 927      BINDING AFFINITY PREDICTED BY RF-SCORE:    0.00 PKD
ROOT
HETATM    1  C   UNL     1     -10.339   7.960  67.950  1.00  0.00    -0.281 C  
HETATM    2  C   UNL     1      -8.970   8.619  67.909  1.00  0.00    -0.140 C  
HETATM    3  N   UNL     1      -8.537   8.895  66.572  1.00  0.00    -0.121 NA 
HETATM    4  C   UNL     1      -7.914   7.806  68.655  1.00  0.00    -0.122 C  
HETATM    5  C   UNL     1      -8.087  10.190  66.430  1.00  0.00    -0.122 C  
HETATM    6  N   UNL     1      -8.403  10.905  67.566  1.00  0.00    -0.116 N  
HETATM    7  O   UNL     1      -7.507  10.535  65.414  1.00  0.00    -0.145 OA 
HETATM    8  C   UNL     1      -9.004  10.048  68.472  1.00  0.00    -0.124 C  
HETATM    9  O   UNL     1      -9.448  10.293  69.589  1.00  0.00    -0.211 OA 
ENDROOT
BRANCH   6  10
HETATM   10  C   UNL     1      -8.148  12.300  67.773  1.00  0.00    -0.155 A  
HETATM   11  C   UNL     1      -9.188  13.214  68.049  1.00  0.00    -0.211 A  
HETATM   12  C   UNL     1      -8.960  14.597  68.257  1.00  0.00    -0.184 A  
HETATM   13  C   UNL     1     -10.113  15.518  68.561  1.00  0.00    -0.211 C  
HETATM   14  C   UNL     1      -7.642  15.056  68.192  1.00  0.00    -0.111 A  
HETATM   15  F   UNL     1      -9.908  16.243  69.692  1.00  0.00    -0.241 F  
HETATM   16  N   UNL     1      -7.319  16.459  68.406  1.00  0.00    -0.161 N  
HETATM   17  F   UNL     1     -11.289  14.859  68.760  1.00  0.00    -0.243 F  
HETATM   18  C   UNL     1      -6.586  14.186  67.927  1.00  0.00    -0.174 A  
HETATM   19  F   UNL     1     -10.362  16.407  67.566  1.00  0.00    -0.259 F  
HETATM   20  C   UNL     1      -6.846  12.826  67.717  1.00  0.00    -0.135 A  
HETATM   21  O   UNL     1      -7.834  17.278  67.641  1.00  0.00    -0.178 OA 
HETATM   22  O   UNL     1      -6.524  16.715  69.319  1.00  0.00    -0.181 OA 
ENDBRANCH   6  10
TORSDOF 1
ENDMDL
MODEL      179
REMARK 921   NORMALIZED FREE ENERGY PREDICTED BY IDOCK:   -3.69 KCAL/MOL
REMARK 922        TOTAL FREE ENERGY PREDICTED BY IDOCK:   -4.07 KCAL/MOL
REMARK 923 INTER-LIGAND FREE ENERGY PREDICTED BY IDOCK:   -3.93 KCAL/MOL
REMARK 924 INTRA-LIGAND FREE ENERGY PREDICTED BY IDOCK:   -0.14 KCAL/MOL
REMARK 927      BINDING AFFINITY PREDICTED BY RF-SCORE:    0.00 PKD
ROOT
HETATM    1  C   UNL     1      -7.557  13.686  68.577  1.00  0.00    -0.130 C  
HETATM    2  C   UNL     1      -7.457  12.208  68.239  1.00  0.00    -0.107 C  
HETATM    3  N   UNL     1      -6.397  11.557  68.949  1.00  0.00    -0.055 NA 
HETATM    4  C   UNL     1      -7.320  11.966  66.737  1.00  0.00    -0.011 C  
HETATM    5  C   UNL     1      -6.817  10.391  69.553  1.00  0.00    -0.093 C  
HETATM    6  N   UNL     1      -8.193  10.319  69.486  1.00  0.00    -0.166 N  
HETATM    7  O   UNL     1      -6.007   9.617  70.036  1.00  0.00    -0.038 OA 
HETATM    8  C   UNL     1      -8.657  11.413  68.775  1.00  0.00    -0.083 C  
HETATM    9  O   UNL     1      -9.812  11.728  68.510  1.00  0.00    -0.203 OA 
ENDROOT
BRANCH   6  10
HETATM   10  C   UNL     1      -9.004   9.282  70.051  1.00  0.00    -0.198 A  
HETATM   11  C   UNL     1      -8.867   8.881  71.398  1.00  0.00    -0.283 A  
HETATM   12  C   UNL     1      -9.656   7.858  71.980  1.00  0.00    -0.242 A  
HETATM   13  C   UNL     1      -9.470   7.486  73.428  1.00  0.00    -0.252 C  
HETATM   14  C   UNL     1     -10.613   7.236  71.172  1.00  0.00    -0.222 A  
HETATM   15  F   UNL     1     -10.638   7.526  74.123  1.00  0.00    -0.274 F  
HETATM   16  N   UNL     1     -11.474   6.186  71.693  1.00  0.00    -0.289 N  
HETATM   17  F   UNL     1      -8.622   8.322  74.091  1.00  0.00    -0.313 F  
HETATM   18  C   UNL     1     -10.784   7.605  69.839  1.00  0.00    -0.253 A  
HETATM   19  F   UNL     1      -8.956   6.242  73.597  1.00  0.00    -0.124 F  
HETATM   20  C   UNL     1      -9.981   8.614  69.292  1.00  0.00    -0.195 A  
HETATM   21  O   UNL     1     -10.924   5.173  72.133  1.00  0.00    -0.193 OA 
HETATM   22  O   UNL     1     -12.694   6.378  71.621  1.00  0.00    -0.206 OA 
ENDBRANCH   6  10
TORSDOF 1
ENDMDL
MODEL      180
REMARK 921   NORMALIZED FREE ENERGY PREDICTED BY IDOCK:   -3.69 KCAL/MOL
REMARK 922        TOTAL FREE ENERGY PREDICTED BY IDOCK:   -4.07 KCAL/MOL
REMARK 923 INTER-LIGAND FREE ENERGY PREDICTED BY IDOCK:   -3.65 KCAL/MOL
REMARK 924 INTRA-LIGAND FREE ENERGY PREDICTED BY IDOCK:   -0.42 KCAL/MOL
REMARK 927      BINDING AFFINITY PREDICTED BY RF-SCORE:    0.00 PKD
ROOT
HETATM    1  C   UNL     1      -6.135   7.703  63.472  1.00  0.00    -0.054 C  
HETATM    2  C   UNL     1      -6.944   7.576  64.752  1.00  0.00    -0.055 C  
HETATM    3  N   UNL     1      -6.138   7.738  65.925  1.00  0.00    -0.038 NA 
HETATM    4  C   UNL     1      -7.723   6.264  64.817  1.00  0.00    -0.101 C  
HETATM    5  C   UNL     1      -6.692   8.632  66.815  1.00  0.00    -0.069 C  
HETATM    6  N   UNL     1      -7.746   9.280  66.207  1.00  0.00    -0.096 N  
HETATM    7  O   UNL     1      -6.239   8.744  67.943  1.00  0.00    -0.050 OA 
HETATM    8  C   UNL     1      -7.913   8.753  64.937  1.00  0.00    -0.135 C  
HETATM    9  O   UNL     1      -8.724   9.067  64.073  1.00  0.00    -0.178 OA 
ENDROOT
BRANCH   6  10
HETATM   10  C   UNL     1      -8.539  10.321  66.794  1.00  0.00    -0.127 A  
HETATM   11  C   UNL     1      -9.538  10.044  67.753  1.00  0.00    -0.168 A  
HETATM   12  C   UNL     1     -10.334  11.055  68.346  1.00  0.00    -0.200 A  
HETATM   13  C   UNL     1     -11.374  10.695  69.375  1.00  0.00    -0.284 C  
HETATM   14  C   UNL     1     -10.100  12.377  67.959  1.00  0.00    -0.214 A  
HETATM   15  F   UNL     1     -11.229  11.407  70.524  1.00  0.00    -0.267 F  
HETATM   16  N   UNL     1     -10.864  13.478  68.529  1.00  0.00    -0.257 N  
HETATM   17  F   UNL     1     -11.329   9.386  69.749  1.00  0.00    -0.234 F  
HETATM   18  C   UNL     1      -9.121  12.694  67.020  1.00  0.00    -0.215 A  
HETATM   19  F   UNL     1     -12.645  10.903  68.944  1.00  0.00    -0.268 F  
HETATM   20  C   UNL     1      -8.357  11.670  66.445  1.00  0.00    -0.084 A  
HETATM   21  O   UNL     1     -12.087  13.456  68.369  1.00  0.00    -0.343 OA 
HETATM   22  O   UNL     1     -10.221  14.367  69.099  1.00  0.00    -0.212 OA 
ENDBRANCH   6  10
TORSDOF 1
ENDMDL
MODEL      181
REMARK 921   NORMALIZED FREE ENERGY PREDICTED BY IDOCK:   -3.69 KCAL/MOL
REMARK 922        TOTAL FREE ENERGY PREDICTED BY IDOCK:   -4.07 KCAL/MOL
REMARK 923 INTER-LIGAND FREE ENERGY PREDICTED BY IDOCK:   -3.96 KCAL/MOL
REMARK 924 INTRA-LIGAND FREE ENERGY PREDICTED BY IDOCK:   -0.11 KCAL/MOL
REMARK 927      BINDING AFFINITY PREDICTED BY RF-SCORE:    0.00 PKD
ROOT
HETATM    1  C   UNL     1      -5.514   7.909  64.619  1.00  0.00    -0.040 C  
HETATM    2  C   UNL     1      -7.014   8.106  64.479  1.00  0.00    -0.075 C  
HETATM    3  N   UNL     1      -7.762   7.038  65.073  1.00  0.00    -0.108 NA 
HETATM    4  C   UNL     1      -7.439   8.310  63.026  1.00  0.00    -0.115 C  
HETATM    5  C   UNL     1      -8.761   7.503  65.901  1.00  0.00    -0.147 C  
HETATM    6  N   UNL     1      -8.596   8.859  66.090  1.00  0.00    -0.133 N  
HETATM    7  O   UNL     1      -9.610   6.742  66.335  1.00  0.00    -0.163 OA 
HETATM    8  C   UNL     1      -7.520   9.282  65.327  1.00  0.00    -0.098 C  
HETATM    9  O   UNL     1      -7.037  10.405  65.231  1.00  0.00    -0.136 OA 
ENDROOT
BRANCH   6  10
HETATM   10  C   UNL     1      -9.405   9.690  66.932  1.00  0.00    -0.146 A  
HETATM   11  C   UNL     1      -9.927  10.922  66.481  1.00  0.00    -0.255 A  
HETATM   12  C   UNL     1     -10.729  11.761  67.294  1.00  0.00    -0.279 A  
HETATM   13  C   UNL     1     -11.268  13.057  66.747  1.00  0.00    -0.298 C  
HETATM   14  C   UNL     1     -11.011  11.330  68.593  1.00  0.00    -0.218 A  
HETATM   15  F   UNL     1     -12.615  13.157  66.896  1.00  0.00    -0.296 F  
HETATM   16  N   UNL     1     -11.837  12.124  69.490  1.00  0.00    -0.322 N  
HETATM   17  F   UNL     1     -11.035  13.215  65.414  1.00  0.00    -0.280 F  
HETATM   18  C   UNL     1     -10.519  10.119  69.076  1.00  0.00    -0.239 A  
HETATM   19  F   UNL     1     -10.726  14.152  67.340  1.00  0.00    -0.272 F  
HETATM   20  C   UNL     1      -9.722   9.316  68.250  1.00  0.00    -0.167 A  
HETATM   21  O   UNL     1     -11.443  13.262  69.759  1.00  0.00    -0.243 OA 
HETATM   22  O   UNL     1     -12.853  11.581  69.940  1.00  0.00     0.068 OA 
ENDBRANCH   6  10
TORSDOF 1
ENDMDL
MODEL      182
REMARK 921   NORMALIZED FREE ENERGY PREDICTED BY IDOCK:   -3.66 KCAL/MOL
REMARK 922        TOTAL FREE ENERGY PREDICTED BY IDOCK:   -4.04 KCAL/MOL
REMARK 923 INTER-LIGAND FREE ENERGY PREDICTED BY IDOCK:   -3.60 KCAL/MOL
REMARK 924 INTRA-LIGAND FREE ENERGY PREDICTED BY IDOCK:   -0.43 KCAL/MOL
REMARK 927      BINDING AFFINITY PREDICTED BY RF-SCORE:    0.00 PKD
ROOT
HETATM    1  C   UNL     1     -10.043   7.930  67.502  1.00  0.00    -0.276 C  
HETATM    2  C   UNL     1      -9.204   9.014  68.159  1.00  0.00    -0.136 C  
HETATM    3  N   UNL     1      -8.087   9.403  67.351  1.00  0.00    -0.109 NA 
HETATM    4  C   UNL     1      -8.737   8.615  69.558  1.00  0.00    -0.139 C  
HETATM    5  C   UNL     1      -7.994  10.772  67.222  1.00  0.00    -0.117 C  
HETATM    6  N   UNL     1      -9.142  11.352  67.720  1.00  0.00    -0.154 N  
HETATM    7  O   UNL     1      -7.001  11.282  66.730  1.00  0.00    -0.129 OA 
HETATM    8  C   UNL     1      -9.952  10.353  68.234  1.00  0.00    -0.151 C  
HETATM    9  O   UNL     1     -11.061  10.447  68.748  1.00  0.00    -0.231 OA 
ENDROOT
BRANCH   6  10
HETATM   10  C   UNL     1      -9.443  12.753  67.712  1.00  0.00    -0.205 A  
HETATM   11  C   UNL     1     -10.101  13.367  66.624  1.00  0.00    -0.275 A  
HETATM   12  C   UNL     1     -10.408  14.750  66.593  1.00  0.00    -0.273 A  
HETATM   13  C   UNL     1     -11.126  15.341  65.407  1.00  0.00    -0.347 C  
HETATM   14  C   UNL     1     -10.044  15.522  67.699  1.00  0.00    -0.243 A  
HETATM   15  F   UNL     1     -12.238  16.031  65.771  1.00  0.00     0.761 F  
HETATM   16  N   UNL     1     -10.333  16.947  67.754  1.00  0.00    -0.315 N  
HETATM   17  F   UNL     1     -11.554  14.403  64.517  1.00  0.00    -0.365 F  
HETATM   18  C   UNL     1      -9.397  14.955  68.795  1.00  0.00    -0.203 A  
HETATM   19  F   UNL     1     -10.353  16.194  64.687  1.00  0.00    -0.244 F  
HETATM   20  C   UNL     1      -9.099  13.586  68.791  1.00  0.00     0.090 A  
HETATM   21  O   UNL     1      -9.844  17.655  66.870  1.00  0.00    -0.281 OA 
HETATM   22  O   UNL     1     -11.019  17.341  68.705  1.00  0.00    -0.260 OA 
ENDBRANCH   6  10
TORSDOF 1
ENDMDL
MODEL      183
REMARK 921   NORMALIZED FREE ENERGY PREDICTED BY IDOCK:   -3.61 KCAL/MOL
REMARK 922        TOTAL FREE ENERGY PREDICTED BY IDOCK:   -3.99 KCAL/MOL
REMARK 923 INTER-LIGAND FREE ENERGY PREDICTED BY IDOCK:   -3.82 KCAL/MOL
REMARK 924 INTRA-LIGAND FREE ENERGY PREDICTED BY IDOCK:   -0.18 KCAL/MOL
REMARK 927      BINDING AFFINITY PREDICTED BY RF-SCORE:    0.00 PKD
ROOT
HETATM    1  C   UNL     1      -9.142   4.651  66.464  1.00  0.00    -0.123 C  
HETATM    2  C   UNL     1      -9.315   5.431  67.757  1.00  0.00    -0.116 C  
HETATM    3  N   UNL     1      -8.080   5.977  68.234  1.00  0.00    -0.109 NA 
HETATM    4  C   UNL     1      -9.988   4.601  68.849  1.00  0.00    -0.168 C  
HETATM    5  C   UNL     1      -8.193   7.312  68.555  1.00  0.00    -0.125 C  
HETATM    6  N   UNL     1      -9.407   7.784  68.102  1.00  0.00    -0.145 N  
HETATM    7  O   UNL     1      -7.295   7.884  69.152  1.00  0.00    -0.079 OA 
HETATM    8  C   UNL     1     -10.109   6.729  67.543  1.00  0.00    -0.170 C  
HETATM    9  O   UNL     1     -11.214   6.732  67.014  1.00  0.00    -0.393 OA 
ENDROOT
BRANCH   6  10
HETATM   10  C   UNL     1      -9.866   9.138  68.198  1.00  0.00    -0.164 A  
HETATM   11  C   UNL     1      -9.096  10.222  67.721  1.00  0.00    -0.138 A  
HETATM   12  C   UNL     1      -9.529  11.568  67.806  1.00  0.00    -0.168 A  
HETATM   13  C   UNL     1      -8.666  12.678  67.265  1.00  0.00    -0.198 C  
HETATM   14  C   UNL     1     -10.778  11.815  68.383  1.00  0.00    -0.219 A  
HETATM   15  F   UNL     1      -9.338  13.472  66.390  1.00  0.00    -0.252 F  
HETATM   16  N   UNL     1     -11.304  13.167  68.498  1.00  0.00    -0.265 N  
HETATM   17  F   UNL     1      -7.575  12.226  66.584  1.00  0.00    -0.086 F  
HETATM   18  C   UNL     1     -11.571  10.774  68.862  1.00  0.00    -0.361 A  
HETATM   19  F   UNL     1      -8.174  13.492  68.234  1.00  0.00    -0.131 F  
HETATM   20  C   UNL     1     -11.111   9.454  68.771  1.00  0.00     0.009 A  
HETATM   21  O   UNL     1     -10.640  13.975  69.152  1.00  0.00    -0.214 OA 
HETATM   22  O   UNL     1     -12.394  13.389  67.958  1.00  0.00    -0.199 OA 
ENDBRANCH   6  10
TORSDOF 1
ENDMDL
MODEL      184
REMARK 921   NORMALIZED FREE ENERGY PREDICTED BY IDOCK:   -3.57 KCAL/MOL
REMARK 922        TOTAL FREE ENERGY PREDICTED BY IDOCK:   -3.95 KCAL/MOL
REMARK 923 INTER-LIGAND FREE ENERGY PREDICTED BY IDOCK:   -3.91 KCAL/MOL
REMARK 924 INTRA-LIGAND FREE ENERGY PREDICTED BY IDOCK:   -0.04 KCAL/MOL
REMARK 927      BINDING AFFINITY PREDICTED BY RF-SCORE:    0.00 PKD
ROOT
HETATM    1  C   UNL     1      -6.545  13.350  68.186  1.00  0.00    -0.118 C  
HETATM    2  C   UNL     1      -6.748  11.846  68.257  1.00  0.00    -0.063 C  
HETATM    3  N   UNL     1      -6.101  11.261  69.393  1.00  0.00    -0.065 NA 
HETATM    4  C   UNL     1      -6.312  11.142  66.973  1.00  0.00    -0.097 C  
HETATM    5  C   UNL     1      -6.943  10.427  70.096  1.00  0.00    -0.141 C  
HETATM    6  N   UNL     1      -8.230  10.584  69.626  1.00  0.00    -0.085 N  
HETATM    7  O   UNL     1      -6.505   9.702  70.975  1.00  0.00    -0.148 OA 
HETATM    8  C   UNL     1      -8.206  11.478  68.569  1.00  0.00    -0.148 C  
HETATM    9  O   UNL     1      -9.139  11.898  67.894  1.00  0.00    -0.169 OA 
ENDROOT
BRANCH   6  10
HETATM   10  C   UNL     1      -9.394   9.928  70.144  1.00  0.00    -0.149 A  
HETATM   11  C   UNL     1      -9.409   8.542  70.415  1.00  0.00    -0.179 A  
HETATM   12  C   UNL     1     -10.548   7.872  70.926  1.00  0.00    -0.227 A  
HETATM   13  C   UNL     1     -10.494   6.393  71.208  1.00  0.00    -0.216 C  
HETATM   14  C   UNL     1     -11.694   8.632  71.173  1.00  0.00    -0.288 A  
HETATM   15  F   UNL     1     -10.879   6.097  72.478  1.00  0.00    -0.224 F  
HETATM   16  N   UNL     1     -12.903   8.025  71.709  1.00  0.00    -0.326 N  
HETATM   17  F   UNL     1      -9.245   5.866  71.074  1.00  0.00    -0.144 F  
HETATM   18  C   UNL     1     -11.720  10.003  70.923  1.00  0.00    -0.462 A  
HETATM   19  F   UNL     1     -11.283   5.663  70.379  1.00  0.00    -0.365 F  
HETATM   20  C   UNL     1     -10.580  10.635  70.410  1.00  0.00     0.175 A  
HETATM   21  O   UNL     1     -13.423   7.125  71.045  1.00  0.00    -0.249 OA 
HETATM   22  O   UNL     1     -13.333   8.484  72.774  1.00  0.00    -0.219 OA 
ENDBRANCH   6  10
TORSDOF 1
ENDMDL
MODEL      185
REMARK 921   NORMALIZED FREE ENERGY PREDICTED BY IDOCK:   -3.56 KCAL/MOL
REMARK 922        TOTAL FREE ENERGY PREDICTED BY IDOCK:   -3.94 KCAL/MOL
REMARK 923 INTER-LIGAND FREE ENERGY PREDICTED BY IDOCK:   -3.51 KCAL/MOL
REMARK 924 INTRA-LIGAND FREE ENERGY PREDICTED BY IDOCK:   -0.43 KCAL/MOL
REMARK 927      BINDING AFFINITY PREDICTED BY RF-SCORE:    0.00 PKD
ROOT
HETATM    1  C   UNL     1      -5.965   7.584  63.948  1.00  0.00    -0.049 C  
HETATM    2  C   UNL     1      -6.776   6.685  64.868  1.00  0.00    -0.049 C  
HETATM    3  N   UNL     1      -5.947   5.911  65.743  1.00  0.00    -0.027 NA 
HETATM    4  C   UNL     1      -7.731   5.778  64.096  1.00  0.00    -0.097 C  
HETATM    5  C   UNL     1      -6.365   5.987  67.054  1.00  0.00    -0.042 C  
HETATM    6  N   UNL     1      -7.321   6.975  67.167  1.00  0.00    -0.088 N  
HETATM    7  O   UNL     1      -5.894   5.243  67.898  1.00  0.00    -0.016 OA 
HETATM    8  C   UNL     1      -7.569   7.493  65.907  1.00  0.00    -0.088 C  
HETATM    9  O   UNL     1      -8.333   8.395  65.580  1.00  0.00    -0.135 OA 
ENDROOT
BRANCH   6  10
HETATM   10  C   UNL     1      -7.956   7.389  68.383  1.00  0.00    -0.124 A  
HETATM   11  C   UNL     1      -8.998   6.640  68.972  1.00  0.00    -0.130 A  
HETATM   12  C   UNL     1      -9.640   7.030  70.173  1.00  0.00    -0.164 A  
HETATM   13  C   UNL     1     -10.736   6.177  70.758  1.00  0.00    -0.266 C  
HETATM   14  C   UNL     1      -9.205   8.204  70.792  1.00  0.00    -0.150 A  
HETATM   15  F   UNL     1     -10.501   5.857  72.058  1.00  0.00    -0.219 F  
HETATM   16  N   UNL     1      -9.801   8.670  72.035  1.00  0.00    -0.308 N  
HETATM   17  F   UNL     1     -10.894   4.988  70.112  1.00  0.00    -0.310 F  
HETATM   18  C   UNL     1      -8.176   8.971  70.247  1.00  0.00    -0.150 A  
HETATM   19  F   UNL     1     -11.955   6.774  70.717  1.00  0.00    -0.371 F  
HETATM   20  C   UNL     1      -7.568   8.563  69.053  1.00  0.00    -0.094 A  
HETATM   21  O   UNL     1     -11.012   8.910  72.023  1.00  0.00    -0.352 OA 
HETATM   22  O   UNL     1      -9.039   8.822  72.997  1.00  0.00    -0.279 OA 
ENDBRANCH   6  10
TORSDOF 1
ENDMDL
MODEL      186
REMARK 921   NORMALIZED FREE ENERGY PREDICTED BY IDOCK:   -3.56 KCAL/MOL
REMARK 922        TOTAL FREE ENERGY PREDICTED BY IDOCK:   -3.94 KCAL/MOL
REMARK 923 INTER-LIGAND FREE ENERGY PREDICTED BY IDOCK:   -3.54 KCAL/MOL
REMARK 924 INTRA-LIGAND FREE ENERGY PREDICTED BY IDOCK:   -0.40 KCAL/MOL
REMARK 927      BINDING AFFINITY PREDICTED BY RF-SCORE:    0.00 PKD
ROOT
HETATM    1  C   UNL     1      -9.124  12.704  67.408  1.00  0.00    -0.191 C  
HETATM    2  C   UNL     1      -9.106  11.196  67.212  1.00  0.00    -0.150 C  
HETATM    3  N   UNL     1      -7.785  10.693  66.981  1.00  0.00    -0.113 NA 
HETATM    4  C   UNL     1     -10.051  10.745  66.101  1.00  0.00    -0.297 C  
HETATM    5  C   UNL     1      -7.493   9.613  67.786  1.00  0.00    -0.087 C  
HETATM    6  N   UNL     1      -8.480   9.482  68.740  1.00  0.00    -0.120 N  
HETATM    7  O   UNL     1      -6.491   8.946  67.588  1.00  0.00    -0.059 OA 
HETATM    8  C   UNL     1      -9.448  10.445  68.508  1.00  0.00    -0.159 C  
HETATM    9  O   UNL     1     -10.473  10.676  69.139  1.00  0.00    -0.199 OA 
ENDROOT
BRANCH   6  10
HETATM   10  C   UNL     1      -8.502   8.508  69.792  1.00  0.00    -0.129 A  
HETATM   11  C   UNL     1      -9.421   7.436  69.795  1.00  0.00    -0.159 A  
HETATM   12  C   UNL     1      -9.462   6.462  70.824  1.00  0.00    -0.179 A  
HETATM   13  C   UNL     1     -10.458   5.334  70.760  1.00  0.00    -0.228 C  
HETATM   14  C   UNL     1      -8.540   6.580  71.867  1.00  0.00    -0.129 A  
HETATM   15  F   UNL     1      -9.865   4.117  70.881  1.00  0.00    -0.232 F  
HETATM   16  N   UNL     1      -8.505   5.616  72.957  1.00  0.00    -0.118 N  
HETATM   17  F   UNL     1     -11.144   5.289  69.584  1.00  0.00    -0.323 F  
HETATM   18  C   UNL     1      -7.613   7.620  71.900  1.00  0.00    -0.086 A  
HETATM   19  F   UNL     1     -11.407   5.405  71.728  1.00  0.00    -0.277 F  
HETATM   20  C   UNL     1      -7.605   8.572  70.872  1.00  0.00    -0.080 A  
HETATM   21  O   UNL     1      -9.530   5.493  73.633  1.00  0.00    -0.137 OA 
HETATM   22  O   UNL     1      -7.437   5.019  73.140  1.00  0.00    -0.085 OA 
ENDBRANCH   6  10
TORSDOF 1
ENDMDL
MODEL      187
REMARK 921   NORMALIZED FREE ENERGY PREDICTED BY IDOCK:   -3.53 KCAL/MOL
REMARK 922        TOTAL FREE ENERGY PREDICTED BY IDOCK:   -3.90 KCAL/MOL
REMARK 923 INTER-LIGAND FREE ENERGY PREDICTED BY IDOCK:   -3.74 KCAL/MOL
REMARK 924 INTRA-LIGAND FREE ENERGY PREDICTED BY IDOCK:   -0.16 KCAL/MOL
REMARK 927      BINDING AFFINITY PREDICTED BY RF-SCORE:    0.00 PKD
ROOT
HETATM    1  C   UNL     1      -7.942   3.184  64.101  1.00  0.00    -0.082 C  
HETATM    2  C   UNL     1      -9.092   3.465  65.054  1.00  0.00    -0.142 C  
HETATM    3  N   UNL     1      -9.049   2.634  66.220  1.00  0.00    -0.136 NA 
HETATM    4  C   UNL     1     -10.452   3.353  64.369  1.00  0.00    -0.073 C  
HETATM    5  C   UNL     1      -9.191   3.363  67.381  1.00  0.00    -0.195 C  
HETATM    6  N   UNL     1      -9.102   4.707  67.084  1.00  0.00    -0.117 N  
HETATM    7  O   UNL     1      -9.369   2.800  68.448  1.00  0.00    -0.180 OA 
HETATM    8  C   UNL     1      -8.966   4.847  65.713  1.00  0.00    -0.142 C  
HETATM    9  O   UNL     1      -8.837   5.871  65.051  1.00  0.00    -0.075 OA 
ENDROOT
BRANCH   6  10
HETATM   10  C   UNL     1      -9.147   5.778  68.035  1.00  0.00    -0.110 A  
HETATM   11  C   UNL     1     -10.201   5.902  68.967  1.00  0.00    -0.261 A  
HETATM   12  C   UNL     1     -10.268   6.952  69.916  1.00  0.00    -0.214 A  
HETATM   13  C   UNL     1     -11.413   7.019  70.893  1.00  0.00    -0.308 C  
HETATM   14  C   UNL     1      -9.234   7.892  69.921  1.00  0.00    -0.153 A  
HETATM   15  F   UNL     1     -10.986   7.107  72.181  1.00  0.00    -0.227 F  
HETATM   16  N   UNL     1      -9.218   8.994  70.870  1.00  0.00    -0.238 N  
HETATM   17  F   UNL     1     -12.220   5.922  70.851  1.00  0.00    -0.019 F  
HETATM   18  C   UNL     1      -8.173   7.803  69.021  1.00  0.00    -0.126 A  
HETATM   19  F   UNL     1     -12.234   8.079  70.680  1.00  0.00    -0.230 F  
HETATM   20  C   UNL     1      -8.141   6.758  68.089  1.00  0.00    -0.115 A  
HETATM   21  O   UNL     1     -10.172   9.776  70.841  1.00  0.00    -0.271 OA 
HETATM   22  O   UNL     1      -8.230   9.079  71.610  1.00  0.00    -0.330 OA 
ENDBRANCH   6  10
TORSDOF 1
ENDMDL
MODEL      188
REMARK 921   NORMALIZED FREE ENERGY PREDICTED BY IDOCK:   -3.50 KCAL/MOL
REMARK 922        TOTAL FREE ENERGY PREDICTED BY IDOCK:   -3.87 KCAL/MOL
REMARK 923 INTER-LIGAND FREE ENERGY PREDICTED BY IDOCK:   -4.33 KCAL/MOL
REMARK 924 INTRA-LIGAND FREE ENERGY PREDICTED BY IDOCK:    0.46 KCAL/MOL
REMARK 927      BINDING AFFINITY PREDICTED BY RF-SCORE:    0.00 PKD
ROOT
HETATM    1  C   UNL     1      -6.065   7.900  63.675  1.00  0.00    -0.062 C  
HETATM    2  C   UNL     1      -6.272   8.491  65.060  1.00  0.00    -0.060 C  
HETATM    3  N   UNL     1      -5.473   9.659  65.280  1.00  0.00    -0.048 NA 
HETATM    4  C   UNL     1      -6.034   7.466  66.168  1.00  0.00    -0.037 C  
HETATM    5  C   UNL     1      -6.213  10.705  65.789  1.00  0.00    -0.126 C  
HETATM    6  N   UNL     1      -7.553  10.385  65.718  1.00  0.00    -0.143 N  
HETATM    7  O   UNL     1      -5.660  11.707  66.211  1.00  0.00    -0.256 OA 
HETATM    8  C   UNL     1      -7.673   9.098  65.221  1.00  0.00    -0.099 C  
HETATM    9  O   UNL     1      -8.690   8.453  64.990  1.00  0.00    -0.154 OA 
ENDROOT
BRANCH   6  10
HETATM   10  C   UNL     1      -8.638  11.241  66.101  1.00  0.00    -0.156 A  
HETATM   11  C   UNL     1      -8.426  12.427  66.838  1.00  0.00    -0.147 A  
HETATM   12  C   UNL     1      -9.481  13.288  67.228  1.00  0.00    -0.233 A  
HETATM   13  C   UNL     1      -9.187  14.547  68.001  1.00  0.00    -0.190 C  
HETATM   14  C   UNL     1     -10.780  12.936  66.852  1.00  0.00    -0.257 A  
HETATM   15  F   UNL     1      -9.723  15.649  67.413  1.00  0.00    -0.217 F  
HETATM   16  N   UNL     1     -11.920  13.770  67.200  1.00  0.00    -0.403 N  
HETATM   17  F   UNL     1      -7.854  14.807  68.116  1.00  0.00    -0.108 F  
HETATM   18  C   UNL     1     -11.032  11.777  66.120  1.00  0.00    -0.355 A  
HETATM   19  F   UNL     1      -9.658  14.514  69.274  1.00  0.00    -0.180 F  
HETATM   20  C   UNL     1      -9.967  10.942  65.758  1.00  0.00    -0.299 A  
HETATM   21  O   UNL     1     -12.127  13.968  68.400  1.00  0.00    -0.354 OA 
HETATM   22  O   UNL     1     -12.613  14.188  66.264  1.00  0.00    -0.449 OA 
ENDBRANCH   6  10
TORSDOF 1
ENDMDL
MODEL      189
REMARK 921   NORMALIZED FREE ENERGY PREDICTED BY IDOCK:   -3.50 KCAL/MOL
REMARK 922        TOTAL FREE ENERGY PREDICTED BY IDOCK:   -3.87 KCAL/MOL
REMARK 923 INTER-LIGAND FREE ENERGY PREDICTED BY IDOCK:   -3.50 KCAL/MOL
REMARK 924 INTRA-LIGAND FREE ENERGY PREDICTED BY IDOCK:   -0.36 KCAL/MOL
REMARK 927      BINDING AFFINITY PREDICTED BY RF-SCORE:    0.00 PKD
ROOT
HETATM    1  C   UNL     1     -10.058   4.187  64.019  1.00  0.00    -0.100 C  
HETATM    2  C   UNL     1      -8.893   4.521  64.935  1.00  0.00    -0.148 C  
HETATM    3  N   UNL     1      -8.372   5.834  64.697  1.00  0.00    -0.128 NA 
HETATM    4  C   UNL     1      -7.776   3.482  64.854  1.00  0.00    -0.078 C  
HETATM    5  C   UNL     1      -8.229   6.554  65.864  1.00  0.00    -0.131 C  
HETATM    6  N   UNL     1      -8.849   5.875  66.892  1.00  0.00    -0.114 N  
HETATM    7  O   UNL     1      -7.624   7.614  65.867  1.00  0.00    -0.085 OA 
HETATM    8  C   UNL     1      -9.338   4.678  66.397  1.00  0.00    -0.149 C  
HETATM    9  O   UNL     1      -9.966   3.801  66.980  1.00  0.00    -0.101 OA 
ENDROOT
BRANCH   6  10
HETATM   10  C   UNL     1      -8.963   6.331  68.246  1.00  0.00    -0.115 A  
HETATM   11  C   UNL     1      -9.753   7.450  68.591  1.00  0.00    -0.152 A  
HETATM   12  C   UNL     1      -9.880   7.919  69.922  1.00  0.00    -0.182 A  
HETATM   13  C   UNL     1     -10.751   9.111  70.225  1.00  0.00    -0.231 C  
HETATM   14  C   UNL     1      -9.194   7.229  70.923  1.00  0.00    -0.155 A  
HETATM   15  F   UNL     1     -11.664   8.846  71.197  1.00  0.00    -0.292 F  
HETATM   16  N   UNL     1      -9.280   7.636  72.318  1.00  0.00    -0.137 N  
HETATM   17  F   UNL     1     -11.475   9.534  69.151  1.00  0.00    -0.129 F  
HETATM   18  C   UNL     1      -8.407   6.117  70.626  1.00  0.00    -0.126 A  
HETATM   19  F   UNL     1     -10.046  10.196  70.635  1.00  0.00    -0.294 F  
HETATM   20  C   UNL     1      -8.294   5.683  69.299  1.00  0.00    -0.107 A  
HETATM   21  O   UNL     1      -8.903   8.778  72.595  1.00  0.00    -0.394 OA 
HETATM   22  O   UNL     1      -9.693   6.791  73.121  1.00  0.00    -0.156 OA 
ENDBRANCH   6  10
TORSDOF 1
ENDMDL
MODEL      190
REMARK 921   NORMALIZED FREE ENERGY PREDICTED BY IDOCK:   -3.48 KCAL/MOL
REMARK 922        TOTAL FREE ENERGY PREDICTED BY IDOCK:   -3.85 KCAL/MOL
REMARK 923 INTER-LIGAND FREE ENERGY PREDICTED BY IDOCK:   -3.42 KCAL/MOL
REMARK 924 INTRA-LIGAND FREE ENERGY PREDICTED BY IDOCK:   -0.44 KCAL/MOL
REMARK 927      BINDING AFFINITY PREDICTED BY RF-SCORE:    0.00 PKD
ROOT
HETATM    1  C   UNL     1      -5.777  10.253  64.652  1.00  0.00    -0.132 C  
HETATM    2  C   UNL     1      -6.055   9.650  66.019  1.00  0.00    -0.064 C  
HETATM    3  N   UNL     1      -5.444  10.395  67.079  1.00  0.00    -0.041 NA 
HETATM    4  C   UNL     1      -5.647   8.180  66.097  1.00  0.00    -0.036 C  
HETATM    5  C   UNL     1      -6.330  10.668  68.098  1.00  0.00    -0.058 C  
HETATM    6  N   UNL     1      -7.605  10.340  67.688  1.00  0.00    -0.090 N  
HETATM    7  O   UNL     1      -5.934  11.125  69.158  1.00  0.00    -0.041 OA 
HETATM    8  C   UNL     1      -7.531   9.790  66.418  1.00  0.00    -0.099 C  
HETATM    9  O   UNL     1      -8.438   9.389  65.698  1.00  0.00    -0.125 OA 
ENDROOT
BRANCH   6  10
HETATM   10  C   UNL     1      -8.804  10.530  68.450  1.00  0.00    -0.140 A  
HETATM   11  C   UNL     1      -9.586  11.700  68.328  1.00  0.00    -0.198 A  
HETATM   12  C   UNL     1     -10.774  11.911  69.071  1.00  0.00    -0.197 A  
HETATM   13  C   UNL     1     -11.571  13.176  68.883  1.00  0.00    -0.311 C  
HETATM   14  C   UNL     1     -11.178  10.904  69.951  1.00  0.00    -0.282 A  
HETATM   15  F   UNL     1     -12.875  12.924  68.598  1.00  0.00     0.373 F  
HETATM   16  N   UNL     1     -12.392  11.034  70.743  1.00  0.00    -0.368 N  
HETATM   17  F   UNL     1     -11.116  13.950  67.858  1.00  0.00    -0.245 F  
HETATM   18  C   UNL     1     -10.438   9.732  70.098  1.00  0.00    -0.338 A  
HETATM   19  F   UNL     1     -11.557  13.982  69.976  1.00  0.00    -0.299 F  
HETATM   20  C   UNL     1      -9.263   9.558  69.355  1.00  0.00    -0.181 A  
HETATM   21  O   UNL     1     -12.457  11.991  71.520  1.00  0.00    -0.209 OA 
HETATM   22  O   UNL     1     -13.249  10.155  70.598  1.00  0.00    -0.336 OA 
ENDBRANCH   6  10
TORSDOF 1
ENDMDL
MODEL      191
REMARK 921   NORMALIZED FREE ENERGY PREDICTED BY IDOCK:   -3.46 KCAL/MOL
REMARK 922        TOTAL FREE ENERGY PREDICTED BY IDOCK:   -3.83 KCAL/MOL
REMARK 923 INTER-LIGAND FREE ENERGY PREDICTED BY IDOCK:   -3.90 KCAL/MOL
REMARK 924 INTRA-LIGAND FREE ENERGY PREDICTED BY IDOCK:    0.07 KCAL/MOL
REMARK 927      BINDING AFFINITY PREDICTED BY RF-SCORE:    0.00 PKD
ROOT
HETATM    1  C   UNL     1      -5.128   6.248  71.740  1.00  0.00    -0.022 C  
HETATM    2  C   UNL     1      -6.086   6.560  70.602  1.00  0.00    -0.031 C  
HETATM    3  N   UNL     1      -6.977   5.473  70.326  1.00  0.00    -0.059 NA 
HETATM    4  C   UNL     1      -5.355   6.986  69.330  1.00  0.00    -0.015 C  
HETATM    5  C   UNL     1      -8.290   5.887  70.247  1.00  0.00    -0.122 C  
HETATM    6  N   UNL     1      -8.379   7.191  70.688  1.00  0.00    -0.124 N  
HETATM    7  O   UNL     1      -9.153   5.131  69.833  1.00  0.00    -0.117 OA 
HETATM    8  C   UNL     1      -7.105   7.642  70.990  1.00  0.00    -0.054 C  
HETATM    9  O   UNL     1      -6.757   8.733  71.428  1.00  0.00    -0.069 OA 
ENDROOT
BRANCH   6  10
HETATM   10  C   UNL     1      -9.588   7.952  70.806  1.00  0.00    -0.165 A  
HETATM   11  C   UNL     1     -10.791   7.372  71.264  1.00  0.00    -0.258 A  
HETATM   12  C   UNL     1     -11.998   8.103  71.389  1.00  0.00    -0.330 A  
HETATM   13  C   UNL     1     -13.245   7.428  71.897  1.00  0.00    -0.240 C  
HETATM   14  C   UNL     1     -11.975   9.458  71.048  1.00  0.00    -0.315 A  
HETATM   15  F   UNL     1     -13.798   8.092  72.946  1.00  0.00    -0.043 F  
HETATM   16  N   UNL     1     -13.167  10.286  71.159  1.00  0.00    -0.374 N  
HETATM   17  F   UNL     1     -13.024   6.160  72.345  1.00  0.00    -0.241 F  
HETATM   18  C   UNL     1     -10.808  10.071  70.596  1.00  0.00    -0.367 A  
HETATM   19  F   UNL     1     -14.213   7.313  70.952  1.00  0.00    -0.455 F  
HETATM   20  C   UNL     1      -9.633   9.317  70.475  1.00  0.00    -0.317 A  
HETATM   21  O   UNL     1     -14.151   9.948  70.494  1.00  0.00     0.310 OA 
HETATM   22  O   UNL     1     -13.088  11.283  71.886  1.00  0.00    -0.493 OA 
ENDBRANCH   6  10
TORSDOF 1
ENDMDL
MODEL      192
REMARK 921   NORMALIZED FREE ENERGY PREDICTED BY IDOCK:   -3.45 KCAL/MOL
REMARK 922        TOTAL FREE ENERGY PREDICTED BY IDOCK:   -3.82 KCAL/MOL
REMARK 923 INTER-LIGAND FREE ENERGY PREDICTED BY IDOCK:   -3.38 KCAL/MOL
REMARK 924 INTRA-LIGAND FREE ENERGY PREDICTED BY IDOCK:   -0.44 KCAL/MOL
REMARK 927      BINDING AFFINITY PREDICTED BY RF-SCORE:    0.00 PKD
ROOT
HETATM    1  C   UNL     1     -10.274   4.051  64.897  1.00  0.00    -0.211 C  
HETATM    2  C   UNL     1      -9.276   4.708  65.837  1.00  0.00    -0.144 C  
HETATM    3  N   UNL     1      -9.455   6.126  65.918  1.00  0.00    -0.015 NA 
HETATM    4  C   UNL     1      -7.831   4.372  65.472  1.00  0.00    -0.094 C  
HETATM    5  C   UNL     1      -9.495   6.570  67.222  1.00  0.00    -0.125 C  
HETATM    6  N   UNL     1      -9.583   5.482  68.066  1.00  0.00    -0.120 N  
HETATM    7  O   UNL     1      -9.450   7.763  67.472  1.00  0.00    -0.137 OA 
HETATM    8  C   UNL     1      -9.532   4.328  67.303  1.00  0.00    -0.181 C  
HETATM    9  O   UNL     1      -9.599   3.159  67.667  1.00  0.00    -0.197 OA 
ENDROOT
BRANCH   6  10
HETATM   10  C   UNL     1      -9.701   5.539  69.493  1.00  0.00    -0.161 A  
HETATM   11  C   UNL     1      -8.578   5.407  70.339  1.00  0.00    -0.127 A  
HETATM   12  C   UNL     1      -8.670   5.459  71.752  1.00  0.00    -0.138 A  
HETATM   13  C   UNL     1      -7.430   5.325  72.598  1.00  0.00    -0.096 C  
HETATM   14  C   UNL     1      -9.933   5.659  72.314  1.00  0.00    -0.172 A  
HETATM   15  F   UNL     1      -7.295   6.352  73.478  1.00  0.00    -0.085 F  
HETATM   16  N   UNL     1     -10.114   5.738  73.756  1.00  0.00    -0.197 N  
HETATM   17  F   UNL     1      -6.280   5.318  71.867  1.00  0.00    -0.028 F  
HETATM   18  C   UNL     1     -11.066   5.799  71.516  1.00  0.00    -0.281 A  
HETATM   19  F   UNL     1      -7.402   4.180  73.325  1.00  0.00    -0.062 F  
HETATM   20  C   UNL     1     -10.943   5.733  70.122  1.00  0.00    -0.368 A  
HETATM   21  O   UNL     1      -9.774   4.756  74.421  1.00  0.00    -0.126 OA 
HETATM   22  O   UNL     1     -10.629   6.772  74.198  1.00  0.00    -0.312 OA 
ENDBRANCH   6  10
TORSDOF 1
ENDMDL
MODEL      193
REMARK 921   NORMALIZED FREE ENERGY PREDICTED BY IDOCK:   -3.43 KCAL/MOL
REMARK 922        TOTAL FREE ENERGY PREDICTED BY IDOCK:   -3.79 KCAL/MOL
REMARK 923 INTER-LIGAND FREE ENERGY PREDICTED BY IDOCK:   -3.91 KCAL/MOL
REMARK 924 INTRA-LIGAND FREE ENERGY PREDICTED BY IDOCK:    0.12 KCAL/MOL
REMARK 927      BINDING AFFINITY PREDICTED BY RF-SCORE:    0.00 PKD
ROOT
HETATM    1  C   UNL     1     -13.583   8.544  72.205  1.00  0.00    -0.402 C  
HETATM    2  C   UNL     1     -12.120   8.542  71.793  1.00  0.00    -0.333 C  
HETATM    3  N   UNL     1     -11.243   8.306  72.901  1.00  0.00    -0.256 NA 
HETATM    4  C   UNL     1     -11.723   9.822  71.060  1.00  0.00    -0.453 C  
HETATM    5  C   UNL     1     -10.313   7.327  72.626  1.00  0.00    -0.225 C  
HETATM    6  N   UNL     1     -10.652   6.701  71.445  1.00  0.00    -0.221 N  
HETATM    7  O   UNL     1      -9.374   7.134  73.381  1.00  0.00    -0.150 OA 
HETATM    8  C   UNL     1     -11.772   7.326  70.921  1.00  0.00    -0.315 C  
HETATM    9  O   UNL     1     -12.395   7.062  69.899  1.00  0.00     0.135 OA 
ENDROOT
BRANCH   6  10
HETATM   10  C   UNL     1      -9.958   5.594  70.856  1.00  0.00    -0.194 A  
HETATM   11  C   UNL     1      -9.834   5.452  69.456  1.00  0.00    -0.264 A  
HETATM   12  C   UNL     1      -9.153   4.366  68.852  1.00  0.00    -0.175 A  
HETATM   13  C   UNL     1      -9.043   4.282  67.351  1.00  0.00    -0.138 C  
HETATM   14  C   UNL     1      -8.580   3.409  69.692  1.00  0.00    -0.064 A  
HETATM   15  F   UNL     1      -7.757   4.135  66.937  1.00  0.00    -0.087 F  
HETATM   16  N   UNL     1      -7.853   2.269  69.154  1.00  0.00    -0.042 N  
HETATM   17  F   UNL     1      -9.506   5.394  66.715  1.00  0.00    -0.124 F  
HETATM   18  C   UNL     1      -8.676   3.513  71.078  1.00  0.00    -0.122 A  
HETATM   19  F   UNL     1      -9.745   3.247  66.823  1.00  0.00    -0.199 F  
HETATM   20  C   UNL     1      -9.363   4.594  71.645  1.00  0.00    -0.195 A  
HETATM   21  O   UNL     1      -8.473   1.507  68.408  1.00  0.00    -0.056 OA 
HETATM   22  O   UNL     1      -6.677   2.136  69.516  1.00  0.00    -0.032 OA 
ENDBRANCH   6  10
TORSDOF 1
ENDMDL
MODEL      194
REMARK 921   NORMALIZED FREE ENERGY PREDICTED BY IDOCK:   -3.42 KCAL/MOL
REMARK 922        TOTAL FREE ENERGY PREDICTED BY IDOCK:   -3.79 KCAL/MOL
REMARK 923 INTER-LIGAND FREE ENERGY PREDICTED BY IDOCK:   -3.35 KCAL/MOL
REMARK 924 INTRA-LIGAND FREE ENERGY PREDICTED BY IDOCK:   -0.44 KCAL/MOL
REMARK 927      BINDING AFFINITY PREDICTED BY RF-SCORE:    0.00 PKD
ROOT
HETATM    1  C   UNL     1     -11.164  15.726  70.750  1.00  0.00    -0.404 C  
HETATM    2  C   UNL     1     -11.160  15.415  69.263  1.00  0.00    -0.280 C  
HETATM    3  N   UNL     1     -10.137  16.129  68.559  1.00  0.00    -0.234 NA 
HETATM    4  C   UNL     1     -12.523  15.661  68.617  1.00  0.00     0.509 C  
HETATM    5  C   UNL     1      -9.397  15.301  67.742  1.00  0.00    -0.196 C  
HETATM    6  N   UNL     1      -9.716  13.989  68.021  1.00  0.00    -0.215 N  
HETATM    7  O   UNL     1      -8.615  15.770  66.931  1.00  0.00    -0.203 OA 
HETATM    8  C   UNL     1     -10.715  13.973  68.979  1.00  0.00    -0.211 C  
HETATM    9  O   UNL     1     -11.260  13.011  69.509  1.00  0.00    -0.187 OA 
ENDROOT
BRANCH   6  10
HETATM   10  C   UNL     1      -9.116  12.836  67.416  1.00  0.00    -0.192 A  
HETATM   11  C   UNL     1      -9.536  12.353  66.157  1.00  0.00    -0.201 A  
HETATM   12  C   UNL     1      -8.958  11.215  65.540  1.00  0.00    -0.178 A  
HETATM   13  C   UNL     1      -9.442  10.759  64.188  1.00  0.00    -0.268 C  
HETATM   14  C   UNL     1      -7.925  10.562  66.216  1.00  0.00    -0.144 A  
HETATM   15  F   UNL     1      -8.426  10.630  63.294  1.00  0.00    -0.164 F  
HETATM   16  N   UNL     1      -7.268   9.395  65.647  1.00  0.00    -0.090 N  
HETATM   17  F   UNL     1     -10.325  11.624  63.613  1.00  0.00    -0.296 F  
HETATM   18  C   UNL     1      -7.477  11.010  67.458  1.00  0.00    -0.102 A  
HETATM   19  F   UNL     1     -10.084   9.563  64.227  1.00  0.00     0.023 F  
HETATM   20  C   UNL     1      -8.075  12.132  68.046  1.00  0.00    -0.155 A  
HETATM   21  O   UNL     1      -7.976   8.413  65.407  1.00  0.00    -0.107 OA 
HETATM   22  O   UNL     1      -6.045   9.468  65.482  1.00  0.00    -0.061 OA 
ENDBRANCH   6  10
TORSDOF 1
ENDMDL
MODEL      195
REMARK 921   NORMALIZED FREE ENERGY PREDICTED BY IDOCK:   -3.40 KCAL/MOL
REMARK 922        TOTAL FREE ENERGY PREDICTED BY IDOCK:   -3.77 KCAL/MOL
REMARK 923 INTER-LIGAND FREE ENERGY PREDICTED BY IDOCK:   -3.97 KCAL/MOL
REMARK 924 INTRA-LIGAND FREE ENERGY PREDICTED BY IDOCK:    0.20 KCAL/MOL
REMARK 927      BINDING AFFINITY PREDICTED BY RF-SCORE:    0.00 PKD
ROOT
HETATM    1  C   UNL     1      -6.873   2.674  65.455  1.00  0.00    -0.044 C  
HETATM    2  C   UNL     1      -7.533   4.024  65.680  1.00  0.00    -0.081 C  
HETATM    3  N   UNL     1      -8.849   4.088  65.119  1.00  0.00    -0.123 NA 
HETATM    4  C   UNL     1      -6.677   5.180  65.164  1.00  0.00    -0.048 C  
HETATM    5  C   UNL     1      -9.771   4.581  66.018  1.00  0.00    -0.210 C  
HETATM    6  N   UNL     1      -9.192   4.650  67.267  1.00  0.00    -0.123 N  
HETATM    7  O   UNL     1     -10.895   4.880  65.650  1.00  0.00    -0.223 OA 
HETATM    8  C   UNL     1      -7.867   4.260  67.160  1.00  0.00    -0.096 C  
HETATM    9  O   UNL     1      -7.018   4.165  68.039  1.00  0.00    -0.056 OA 
ENDROOT
BRANCH   6  10
HETATM   10  C   UNL     1      -9.850   5.061  68.472  1.00  0.00    -0.151 A  
HETATM   11  C   UNL     1      -9.499   4.527  69.732  1.00  0.00    -0.247 A  
HETATM   12  C   UNL     1     -10.135   4.917  70.936  1.00  0.00    -0.292 A  
HETATM   13  C   UNL     1      -9.703   4.320  72.250  1.00  0.00    -0.152 C  
HETATM   14  C   UNL     1     -11.145   5.879  70.856  1.00  0.00    -0.242 A  
HETATM   15  F   UNL     1      -9.396   5.271  73.171  1.00  0.00    -0.134 F  
HETATM   16  N   UNL     1     -11.841   6.346  72.045  1.00  0.00    -0.329 N  
HETATM   17  F   UNL     1      -8.590   3.541  72.145  1.00  0.00    -0.081 F  
HETATM   18  C   UNL     1     -11.519   6.435  69.634  1.00  0.00    -0.446 A  
HETATM   19  F   UNL     1     -10.649   3.523  72.810  1.00  0.00    -0.221 F  
HETATM   20  C   UNL     1     -10.877   6.021  68.459  1.00  0.00    -0.363 A  
HETATM   21  O   UNL     1     -12.448   5.501  72.710  1.00  0.00    -0.008 OA 
HETATM   22  O   UNL     1     -11.798   7.560  72.277  1.00  0.00    -0.298 OA 
ENDBRANCH   6  10
TORSDOF 1
ENDMDL
MODEL      196
REMARK 921   NORMALIZED FREE ENERGY PREDICTED BY IDOCK:   -3.38 KCAL/MOL
REMARK 922        TOTAL FREE ENERGY PREDICTED BY IDOCK:   -3.75 KCAL/MOL
REMARK 923 INTER-LIGAND FREE ENERGY PREDICTED BY IDOCK:   -3.31 KCAL/MOL
REMARK 924 INTRA-LIGAND FREE ENERGY PREDICTED BY IDOCK:   -0.43 KCAL/MOL
REMARK 927      BINDING AFFINITY PREDICTED BY RF-SCORE:    0.00 PKD
ROOT
HETATM    1  C   UNL     1      -8.056   9.298  70.942  1.00  0.00    -0.168 C  
HETATM    2  C   UNL     1      -9.296   8.650  70.347  1.00  0.00    -0.171 C  
HETATM    3  N   UNL     1      -9.954   9.499  69.400  1.00  0.00    -0.181 NA 
HETATM    4  C   UNL     1     -10.279   8.185  71.420  1.00  0.00    -0.248 C  
HETATM    5  C   UNL     1     -10.235   8.842  68.221  1.00  0.00    -0.201 C  
HETATM    6  N   UNL     1      -9.590   7.623  68.220  1.00  0.00    -0.152 N  
HETATM    7  O   UNL     1     -10.958   9.355  67.383  1.00  0.00    -0.210 OA 
HETATM    8  C   UNL     1      -8.942   7.466  69.434  1.00  0.00    -0.139 C  
HETATM    9  O   UNL     1      -8.245   6.535  69.822  1.00  0.00    -0.122 OA 
ENDROOT
BRANCH   6  10
HETATM   10  C   UNL     1      -9.595   6.676  67.144  1.00  0.00    -0.138 A  
HETATM   11  C   UNL     1      -8.679   6.761  66.073  1.00  0.00    -0.155 A  
HETATM   12  C   UNL     1      -8.665   5.837  64.999  1.00  0.00    -0.037 A  
HETATM   13  C   UNL     1      -7.651   5.975  63.893  1.00  0.00    -0.088 C  
HETATM   14  C   UNL     1      -9.600   4.799  65.021  1.00  0.00    -0.046 A  
HETATM   15  F   UNL     1      -6.950   4.829  63.692  1.00  0.00    -0.043 F  
HETATM   16  N   UNL     1      -9.646   3.800  63.964  1.00  0.00    -0.150 N  
HETATM   17  F   UNL     1      -6.716   6.936  64.139  1.00  0.00    -0.041 F  
HETATM   18  C   UNL     1     -10.519   4.676  66.062  1.00  0.00    -0.303 A  
HETATM   19  F   UNL     1      -8.206   6.310  62.700  1.00  0.00    -0.102 F  
HETATM   20  C   UNL     1     -10.512   5.611  67.105  1.00  0.00    -0.334 A  
HETATM   21  O   UNL     1      -9.852   4.204  62.817  1.00  0.00    -0.153 OA 
HETATM   22  O   UNL     1      -9.509   2.619  64.306  1.00  0.00    -0.128 OA 
ENDBRANCH   6  10
TORSDOF 1
ENDMDL
MODEL      197
REMARK 921   NORMALIZED FREE ENERGY PREDICTED BY IDOCK:   -3.33 KCAL/MOL
REMARK 922        TOTAL FREE ENERGY PREDICTED BY IDOCK:   -3.70 KCAL/MOL
REMARK 923 INTER-LIGAND FREE ENERGY PREDICTED BY IDOCK:   -3.86 KCAL/MOL
REMARK 924 INTRA-LIGAND FREE ENERGY PREDICTED BY IDOCK:    0.16 KCAL/MOL
REMARK 927      BINDING AFFINITY PREDICTED BY RF-SCORE:    0.00 PKD
ROOT
HETATM    1  C   UNL     1      -7.214  14.346  68.458  1.00  0.00    -0.119 C  
HETATM    2  C   UNL     1      -6.622  12.946  68.429  1.00  0.00    -0.085 C  
HETATM    3  N   UNL     1      -6.092  12.551  69.700  1.00  0.00    -0.124 NA 
HETATM    4  C   UNL     1      -5.564  12.787  67.338  1.00  0.00    -0.057 C  
HETATM    5  C   UNL     1      -6.534  11.302  70.080  1.00  0.00    -0.114 C  
HETATM    6  N   UNL     1      -7.540  10.900  69.226  1.00  0.00    -0.131 N  
HETATM    7  O   UNL     1      -6.036  10.733  71.037  1.00  0.00    -0.324 OA 
HETATM    8  C   UNL     1      -7.703  11.869  68.250  1.00  0.00    -0.127 C  
HETATM    9  O   UNL     1      -8.502  11.902  67.321  1.00  0.00    -0.156 OA 
ENDROOT
BRANCH   6  10
HETATM   10  C   UNL     1      -8.288   9.682  69.330  1.00  0.00    -0.137 A  
HETATM   11  C   UNL     1      -8.773   9.007  68.189  1.00  0.00    -0.130 A  
HETATM   12  C   UNL     1      -9.514   7.802  68.266  1.00  0.00    -0.150 A  
HETATM   13  C   UNL     1      -9.992   7.123  67.008  1.00  0.00    -0.217 C  
HETATM   14  C   UNL     1      -9.758   7.268  69.534  1.00  0.00    -0.158 A  
HETATM   15  F   UNL     1      -9.612   5.819  66.951  1.00  0.00    -0.124 F  
HETATM   16  N   UNL     1     -10.500   6.028  69.703  1.00  0.00    -0.232 N  
HETATM   17  F   UNL     1      -9.504   7.695  65.872  1.00  0.00    -0.184 F  
HETATM   18  C   UNL     1      -9.293   7.900  70.686  1.00  0.00    -0.158 A  
HETATM   19  F   UNL     1     -11.342   7.143  66.871  1.00  0.00    -0.431 F  
HETATM   20  C   UNL     1      -8.571   9.096  70.576  1.00  0.00    -0.252 A  
HETATM   21  O   UNL     1     -11.655   5.999  69.269  1.00  0.00    -0.240 OA 
HETATM   22  O   UNL     1      -9.924   5.110  70.299  1.00  0.00    -0.208 OA 
ENDBRANCH   6  10
TORSDOF 1
ENDMDL
MODEL      198
REMARK 921   NORMALIZED FREE ENERGY PREDICTED BY IDOCK:   -3.30 KCAL/MOL
REMARK 922        TOTAL FREE ENERGY PREDICTED BY IDOCK:   -3.66 KCAL/MOL
REMARK 923 INTER-LIGAND FREE ENERGY PREDICTED BY IDOCK:   -3.24 KCAL/MOL
REMARK 924 INTRA-LIGAND FREE ENERGY PREDICTED BY IDOCK:   -0.42 KCAL/MOL
REMARK 927      BINDING AFFINITY PREDICTED BY RF-SCORE:    0.00 PKD
ROOT
HETATM    1  C   UNL     1      -5.739   7.680  63.643  1.00  0.00    -0.045 C  
HETATM    2  C   UNL     1      -7.158   7.161  63.815  1.00  0.00    -0.068 C  
HETATM    3  N   UNL     1      -7.210   5.732  63.892  1.00  0.00    -0.052 NA 
HETATM    4  C   UNL     1      -8.096   7.671  62.723  1.00  0.00    -0.097 C  
HETATM    5  C   UNL     1      -7.962   5.298  64.962  1.00  0.00    -0.103 C  
HETATM    6  N   UNL     1      -8.251   6.373  65.776  1.00  0.00    -0.127 N  
HETATM    7  O   UNL     1      -8.269   4.122  65.067  1.00  0.00    -0.100 OA 
HETATM    8  C   UNL     1      -7.736   7.518  65.192  1.00  0.00    -0.111 C  
HETATM    9  O   UNL     1      -7.762   8.673  65.604  1.00  0.00    -0.087 OA 
ENDROOT
BRANCH   6  10
HETATM   10  C   UNL     1      -8.968   6.314  67.016  1.00  0.00    -0.115 A  
HETATM   11  C   UNL     1      -8.306   6.373  68.262  1.00  0.00    -0.116 A  
HETATM   12  C   UNL     1      -8.993   6.316  69.500  1.00  0.00    -0.134 A  
HETATM   13  C   UNL     1      -8.229   6.399  70.796  1.00  0.00    -0.125 C  
HETATM   14  C   UNL     1     -10.386   6.205  69.466  1.00  0.00    -0.219 A  
HETATM   15  F   UNL     1      -8.707   7.373  71.613  1.00  0.00    -0.115 F  
HETATM   16  N   UNL     1     -11.170   6.153  70.691  1.00  0.00    -0.323 N  
HETATM   17  F   UNL     1      -6.908   6.683  70.623  1.00  0.00    -0.055 F  
HETATM   18  C   UNL     1     -11.078   6.148  68.258  1.00  0.00    -0.336 A  
HETATM   19  F   UNL     1      -8.258   5.242  71.506  1.00  0.00    -0.107 F  
HETATM   20  C   UNL     1     -10.368   6.198  67.051  1.00  0.00    -0.295 A  
HETATM   21  O   UNL     1     -10.933   5.227  71.472  1.00  0.00    -0.159 OA 
HETATM   22  O   UNL     1     -12.036   7.024  70.836  1.00  0.00    -0.353 OA 
ENDBRANCH   6  10
TORSDOF 1
ENDMDL
MODEL      199
REMARK 921   NORMALIZED FREE ENERGY PREDICTED BY IDOCK:   -3.26 KCAL/MOL
REMARK 922        TOTAL FREE ENERGY PREDICTED BY IDOCK:   -3.62 KCAL/MOL
REMARK 923 INTER-LIGAND FREE ENERGY PREDICTED BY IDOCK:   -3.20 KCAL/MOL
REMARK 924 INTRA-LIGAND FREE ENERGY PREDICTED BY IDOCK:   -0.42 KCAL/MOL
REMARK 927      BINDING AFFINITY PREDICTED BY RF-SCORE:    0.00 PKD
ROOT
HETATM    1  C   UNL     1      -8.126   3.412  71.091  1.00  0.00    -0.067 C  
HETATM    2  C   UNL     1      -8.978   3.772  69.884  1.00  0.00    -0.101 C  
HETATM    3  N   UNL     1     -10.161   4.492  70.248  1.00  0.00    -0.167 NA 
HETATM    4  C   UNL     1      -9.335   2.548  69.042  1.00  0.00    -0.209 C  
HETATM    5  C   UNL     1     -10.332   5.626  69.484  1.00  0.00    -0.275 C  
HETATM    6  N   UNL     1      -9.187   5.853  68.750  1.00  0.00    -0.115 N  
HETATM    7  O   UNL     1     -11.380   6.250  69.528  1.00  0.00    -0.409 OA 
HETATM    8  C   UNL     1      -8.296   4.821  68.994  1.00  0.00    -0.081 C  
HETATM    9  O   UNL     1      -7.163   4.660  68.553  1.00  0.00    -0.056 OA 
ENDROOT
BRANCH   6  10
HETATM   10  C   UNL     1      -8.960   6.968  67.878  1.00  0.00    -0.122 A  
HETATM   11  C   UNL     1      -8.663   8.255  68.377  1.00  0.00    -0.133 A  
HETATM   12  C   UNL     1      -8.436   9.372  67.534  1.00  0.00    -0.122 A  
HETATM   13  C   UNL     1      -8.108  10.716  68.130  1.00  0.00    -0.114 C  
HETATM   14  C   UNL     1      -8.504   9.169  66.154  1.00  0.00    -0.129 A  
HETATM   15  F   UNL     1      -6.968  11.244  67.612  1.00  0.00    -0.074 F  
HETATM   16  N   UNL     1      -8.271  10.259  65.217  1.00  0.00    -0.157 N  
HETATM   17  F   UNL     1      -7.911  10.673  69.477  1.00  0.00    -0.133 F  
HETATM   18  C   UNL     1      -8.790   7.914  65.620  1.00  0.00    -0.121 A  
HETATM   19  F   UNL     1      -9.088  11.637  67.939  1.00  0.00    -0.149 F  
HETATM   20  C   UNL     1      -9.019   6.832  66.480  1.00  0.00    -0.162 A  
HETATM   21  O   UNL     1      -9.020  11.237  65.295  1.00  0.00    -0.169 OA 
HETATM   22  O   UNL     1      -7.361  10.103  64.395  1.00  0.00    -0.138 OA 
ENDBRANCH   6  10
TORSDOF 1
ENDMDL
MODEL      200
REMARK 921   NORMALIZED FREE ENERGY PREDICTED BY IDOCK:   -3.25 KCAL/MOL
REMARK 922        TOTAL FREE ENERGY PREDICTED BY IDOCK:   -3.61 KCAL/MOL
REMARK 923 INTER-LIGAND FREE ENERGY PREDICTED BY IDOCK:   -3.17 KCAL/MOL
REMARK 924 INTRA-LIGAND FREE ENERGY PREDICTED BY IDOCK:   -0.43 KCAL/MOL
REMARK 927      BINDING AFFINITY PREDICTED BY RF-SCORE:    0.00 PKD
ROOT
HETATM    1  C   UNL     1     -13.278   9.734  70.872  1.00  0.00    -0.265 C  
HETATM    2  C   UNL     1     -11.792   9.469  70.696  1.00  0.00    -0.233 C  
HETATM    3  N   UNL     1     -11.050   9.699  71.899  1.00  0.00    -0.024 NA 
HETATM    4  C   UNL     1     -11.194  10.270  69.540  1.00  0.00    -0.314 C  
HETATM    5  C   UNL     1     -10.209   8.648  72.198  1.00  0.00    -0.323 C  
HETATM    6  N   UNL     1     -10.503   7.585  71.370  1.00  0.00    -0.209 N  
HETATM    7  O   UNL     1      -9.370   8.758  73.077  1.00  0.00    -0.204 OA 
HETATM    8  C   UNL     1     -11.496   7.976  70.488  1.00  0.00    -0.187 C  
HETATM    9  O   UNL     1     -12.047   7.323  69.609  1.00  0.00     0.362 OA 
ENDROOT
BRANCH   6  10
HETATM   10  C   UNL     1      -9.879   6.295  71.413  1.00  0.00    -0.173 A  
HETATM   11  C   UNL     1     -10.331   5.279  72.283  1.00  0.00    -0.265 A  
HETATM   12  C   UNL     1      -9.731   3.997  72.343  1.00  0.00    -0.210 A  
HETATM   13  C   UNL     1     -10.270   2.951  73.284  1.00  0.00    -0.129 C  
HETATM   14  C   UNL     1      -8.652   3.743  71.492  1.00  0.00    -0.085 A  
HETATM   15  F   UNL     1     -10.556   1.785  72.647  1.00  0.00    -0.198 F  
HETATM   16  N   UNL     1      -7.987   2.449  71.481  1.00  0.00    -0.047 N  
HETATM   17  F   UNL     1     -11.429   3.325  73.896  1.00  0.00    -0.273 F  
HETATM   18  C   UNL     1      -8.178   4.717  70.615  1.00  0.00    -0.083 A  
HETATM   19  F   UNL     1      -9.413   2.647  74.291  1.00  0.00    -0.092 F  
HETATM   20  C   UNL     1      -8.788   5.978  70.586  1.00  0.00    -0.142 A  
HETATM   21  O   UNL     1      -7.476   2.070  72.538  1.00  0.00    -0.037 OA 
HETATM   22  O   UNL     1      -7.956   1.847  70.401  1.00  0.00    -0.042 OA 
ENDBRANCH   6  10
TORSDOF 1
ENDMDL
MODEL      201
REMARK 921   NORMALIZED FREE ENERGY PREDICTED BY IDOCK:   -3.24 KCAL/MOL
REMARK 922        TOTAL FREE ENERGY PREDICTED BY IDOCK:   -3.60 KCAL/MOL
REMARK 923 INTER-LIGAND FREE ENERGY PREDICTED BY IDOCK:   -3.33 KCAL/MOL
REMARK 924 INTRA-LIGAND FREE ENERGY PREDICTED BY IDOCK:   -0.26 KCAL/MOL
REMARK 927      BINDING AFFINITY PREDICTED BY RF-SCORE:    0.00 PKD
ROOT
HETATM    1  C   UNL     1     -11.269  13.027  68.887  1.00  0.00    -0.326 C  
HETATM    2  C   UNL     1     -10.762  12.772  67.476  1.00  0.00    -0.229 C  
HETATM    3  N   UNL     1      -9.369  13.072  67.335  1.00  0.00    -0.201 NA 
HETATM    4  C   UNL     1     -11.579  13.520  66.424  1.00  0.00    -0.381 C  
HETATM    5  C   UNL     1      -8.678  12.049  66.722  1.00  0.00    -0.192 C  
HETATM    6  N   UNL     1      -9.496  10.941  66.634  1.00  0.00    -0.176 N  
HETATM    7  O   UNL     1      -7.528  12.214  66.352  1.00  0.00     0.200 OA 
HETATM    8  C   UNL     1     -10.743  11.274  67.136  1.00  0.00    -0.253 C  
HETATM    9  O   UNL     1     -11.740  10.570  67.253  1.00  0.00    -0.217 OA 
ENDROOT
BRANCH   6  10
HETATM   10  C   UNL     1      -9.117   9.663  66.108  1.00  0.00    -0.161 A  
HETATM   11  C   UNL     1      -9.164   8.491  66.893  1.00  0.00    -0.197 A  
HETATM   12  C   UNL     1      -8.795   7.217  66.395  1.00  0.00    -0.161 A  
HETATM   13  C   UNL     1      -8.881   6.002  67.281  1.00  0.00    -0.107 C  
HETATM   14  C   UNL     1      -8.377   7.135  65.064  1.00  0.00    -0.046 A  
HETATM   15  F   UNL     1      -9.610   5.003  66.716  1.00  0.00    -0.125 F  
HETATM   16  N   UNL     1      -7.993   5.864  64.469  1.00  0.00    -0.122 N  
HETATM   17  F   UNL     1      -9.477   6.253  68.481  1.00  0.00    -0.125 F  
HETATM   18  C   UNL     1      -8.321   8.267  64.253  1.00  0.00    -0.068 A  
HETATM   19  F   UNL     1      -7.667   5.477  67.586  1.00  0.00    -0.087 F  
HETATM   20  C   UNL     1      -8.685   9.514  64.779  1.00  0.00    -0.225 A  
HETATM   21  O   UNL     1      -7.052   5.260  64.991  1.00  0.00    -0.059 OA 
HETATM   22  O   UNL     1      -8.619   5.506  63.464  1.00  0.00    -0.075 OA 
ENDBRANCH   6  10
TORSDOF 1
ENDMDL
MODEL      202
REMARK 921   NORMALIZED FREE ENERGY PREDICTED BY IDOCK:   -3.17 KCAL/MOL
REMARK 922        TOTAL FREE ENERGY PREDICTED BY IDOCK:   -3.52 KCAL/MOL
REMARK 923 INTER-LIGAND FREE ENERGY PREDICTED BY IDOCK:   -3.17 KCAL/MOL
REMARK 924 INTRA-LIGAND FREE ENERGY PREDICTED BY IDOCK:   -0.35 KCAL/MOL
REMARK 927      BINDING AFFINITY PREDICTED BY RF-SCORE:    0.00 PKD
ROOT
HETATM    1  C   UNL     1      -5.683   7.139  63.275  1.00  0.00    -0.040 C  
HETATM    2  C   UNL     1      -7.131   7.305  63.706  1.00  0.00    -0.069 C  
HETATM    3  N   UNL     1      -7.773   6.049  63.953  1.00  0.00    -0.095 NA 
HETATM    4  C   UNL     1      -7.941   8.131  62.709  1.00  0.00    -0.159 C  
HETATM    5  C   UNL     1      -8.434   6.034  65.163  1.00  0.00    -0.112 C  
HETATM    6  N   UNL     1      -8.086   7.158  65.881  1.00  0.00    -0.115 N  
HETATM    7  O   UNL     1      -9.188   5.118  65.445  1.00  0.00    -0.159 OA 
HETATM    8  C   UNL     1      -7.245   7.936  65.101  1.00  0.00    -0.061 C  
HETATM    9  O   UNL     1      -6.703   9.000  65.378  1.00  0.00    -0.071 OA 
ENDROOT
BRANCH   6  10
HETATM   10  C   UNL     1      -8.525   7.471  67.209  1.00  0.00    -0.118 A  
HETATM   11  C   UNL     1      -9.340   8.593  67.479  1.00  0.00    -0.162 A  
HETATM   12  C   UNL     1      -9.786   8.922  68.782  1.00  0.00    -0.170 A  
HETATM   13  C   UNL     1     -10.666  10.125  69.001  1.00  0.00    -0.221 C  
HETATM   14  C   UNL     1      -9.400   8.086  69.833  1.00  0.00    -0.156 A  
HETATM   15  F   UNL     1     -11.804   9.814  69.676  1.00  0.00    -0.161 F  
HETATM   16  N   UNL     1      -9.824   8.344  71.200  1.00  0.00    -0.181 N  
HETATM   17  F   UNL     1     -11.079  10.707  67.840  1.00  0.00    -0.261 F  
HETATM   18  C   UNL     1      -8.600   6.966  69.609  1.00  0.00    -0.134 A  
HETATM   19  F   UNL     1     -10.053  11.114  69.701  1.00  0.00    -0.148 F  
HETATM   20  C   UNL     1      -8.168   6.673  68.310  1.00  0.00    -0.114 A  
HETATM   21  O   UNL     1      -9.493   9.424  71.698  1.00  0.00    -0.262 OA 
HETATM   22  O   UNL     1     -10.456   7.445  71.768  1.00  0.00    -0.197 OA 
ENDBRANCH   6  10
TORSDOF 1
ENDMDL
MODEL      203
REMARK 921   NORMALIZED FREE ENERGY PREDICTED BY IDOCK:   -3.13 KCAL/MOL
REMARK 922        TOTAL FREE ENERGY PREDICTED BY IDOCK:   -3.48 KCAL/MOL
REMARK 923 INTER-LIGAND FREE ENERGY PREDICTED BY IDOCK:   -3.05 KCAL/MOL
REMARK 924 INTRA-LIGAND FREE ENERGY PREDICTED BY IDOCK:   -0.43 KCAL/MOL
REMARK 927      BINDING AFFINITY PREDICTED BY RF-SCORE:    0.00 PKD
ROOT
HETATM    1  C   UNL     1      -9.211  11.561  66.185  1.00  0.00    -0.230 C  
HETATM    2  C   UNL     1      -9.037  10.386  65.236  1.00  0.00    -0.193 C  
HETATM    3  N   UNL     1      -7.664  10.150  64.906  1.00  0.00    -0.143 NA 
HETATM    4  C   UNL     1      -9.873  10.538  63.966  1.00  0.00    -0.387 C  
HETATM    5  C   UNL     1      -7.315   8.825  65.056  1.00  0.00    -0.089 C  
HETATM    6  N   UNL     1      -8.335   8.160  65.702  1.00  0.00    -0.136 N  
HETATM    7  O   UNL     1      -6.244   8.416  64.638  1.00  0.00    -0.063 OA 
HETATM    8  C   UNL     1      -9.377   9.048  65.911  1.00  0.00    -0.242 C  
HETATM    9  O   UNL     1     -10.453   8.858  66.468  1.00  0.00    -0.238 OA 
ENDROOT
BRANCH   6  10
HETATM   10  C   UNL     1      -8.321   6.779  66.086  1.00  0.00    -0.130 A  
HETATM   11  C   UNL     1      -8.575   5.745  65.158  1.00  0.00    -0.110 A  
HETATM   12  C   UNL     1      -8.567   4.374  65.514  1.00  0.00    -0.121 A  
HETATM   13  C   UNL     1      -8.832   3.318  64.472  1.00  0.00    -0.108 C  
HETATM   14  C   UNL     1      -8.286   4.049  66.844  1.00  0.00    -0.100 A  
HETATM   15  F   UNL     1      -7.852   2.377  64.434  1.00  0.00    -0.071 F  
HETATM   16  N   UNL     1      -8.246   2.665  67.292  1.00  0.00    -0.077 N  
HETATM   17  F   UNL     1      -8.905   3.819  63.207  1.00  0.00    -0.092 F  
HETATM   18  C   UNL     1      -8.026   5.038  67.791  1.00  0.00    -0.095 A  
HETATM   19  F   UNL     1     -10.002   2.658  64.667  1.00  0.00    -0.133 F  
HETATM   20  C   UNL     1      -8.050   6.386  67.408  1.00  0.00    -0.116 A  
HETATM   21  O   UNL     1      -9.276   1.999  67.156  1.00  0.00    -0.126 OA 
HETATM   22  O   UNL     1      -7.190   2.276  67.804  1.00  0.00    -0.047 OA 
ENDBRANCH   6  10
TORSDOF 1
ENDMDL
MODEL      204
REMARK 921   NORMALIZED FREE ENERGY PREDICTED BY IDOCK:   -3.08 KCAL/MOL
REMARK 922        TOTAL FREE ENERGY PREDICTED BY IDOCK:   -3.43 KCAL/MOL
REMARK 923 INTER-LIGAND FREE ENERGY PREDICTED BY IDOCK:   -3.29 KCAL/MOL
REMARK 924 INTRA-LIGAND FREE ENERGY PREDICTED BY IDOCK:   -0.13 KCAL/MOL
REMARK 927      BINDING AFFINITY PREDICTED BY RF-SCORE:    0.00 PKD
ROOT
HETATM    1  C   UNL     1     -11.496  15.654  71.004  1.00  0.00    -0.439 C  
HETATM    2  C   UNL     1     -11.515  14.751  69.781  1.00  0.00    -0.291 C  
HETATM    3  N   UNL     1     -10.247  14.708  69.116  1.00  0.00    -0.221 NA 
HETATM    4  C   UNL     1     -12.621  15.130  68.798  1.00  0.00     0.383 C  
HETATM    5  C   UNL     1      -9.842  13.417  68.856  1.00  0.00     0.087 C  
HETATM    6  N   UNL     1     -10.672  12.540  69.523  1.00  0.00     0.177 N  
HETATM    7  O   UNL     1      -8.885  13.202  68.131  1.00  0.00    -0.185 OA 
HETATM    8  C   UNL     1     -11.659  13.270  70.164  1.00  0.00    -0.084 C  
HETATM    9  O   UNL     1     -12.575  12.871  70.874  1.00  0.00    -0.343 OA 
ENDROOT
BRANCH   6  10
HETATM   10  C   UNL     1     -10.538  11.113  69.544  1.00  0.00    -0.090 A  
HETATM   11  C   UNL     1     -10.414  10.360  68.356  1.00  0.00    -0.216 A  
HETATM   12  C   UNL     1     -10.281   8.949  68.351  1.00  0.00    -0.231 A  
HETATM   13  C   UNL     1     -10.139   8.205  67.049  1.00  0.00    -0.280 C  
HETATM   14  C   UNL     1     -10.265   8.294  69.585  1.00  0.00    -0.209 A  
HETATM   15  F   UNL     1      -9.046   7.398  67.034  1.00  0.00    -0.122 F  
HETATM   16  N   UNL     1     -10.118   6.848  69.671  1.00  0.00    -0.181 N  
HETATM   17  F   UNL     1      -9.998   9.029  65.973  1.00  0.00    -0.324 F  
HETATM   18  C   UNL     1     -10.379   9.000  70.781  1.00  0.00    -0.305 A  
HETATM   19  F   UNL     1     -11.210   7.421  66.764  1.00  0.00    -0.389 F  
HETATM   20  C   UNL     1     -10.518  10.394  70.751  1.00  0.00     0.440 A  
HETATM   21  O   UNL     1     -10.978   6.162  69.113  1.00  0.00    -0.318 OA 
HETATM   22  O   UNL     1      -9.161   6.423  70.328  1.00  0.00    -0.152 OA 
ENDBRANCH   6  10
TORSDOF 1
ENDMDL
MODEL      205
REMARK 921   NORMALIZED FREE ENERGY PREDICTED BY IDOCK:   -3.07 KCAL/MOL
REMARK 922        TOTAL FREE ENERGY PREDICTED BY IDOCK:   -3.42 KCAL/MOL
REMARK 923 INTER-LIGAND FREE ENERGY PREDICTED BY IDOCK:   -3.63 KCAL/MOL
REMARK 924 INTRA-LIGAND FREE ENERGY PREDICTED BY IDOCK:    0.21 KCAL/MOL
REMARK 927      BINDING AFFINITY PREDICTED BY RF-SCORE:    0.00 PKD
ROOT
HETATM    1  C   UNL     1     -10.932   8.123  72.759  1.00  0.00    -0.401 C  
HETATM    2  C   UNL     1     -11.526   7.775  71.404  1.00  0.00    -0.260 C  
HETATM    3  N   UNL     1     -11.262   8.780  70.419  1.00  0.00    -0.247 NA 
HETATM    4  C   UNL     1     -13.024   7.487  71.486  1.00  0.00    -0.400 C  
HETATM    5  C   UNL     1     -10.767   8.243  69.250  1.00  0.00    -0.128 C  
HETATM    6  N   UNL     1     -10.455   6.916  69.460  1.00  0.00    -0.213 N  
HETATM    7  O   UNL     1     -10.668   8.929  68.246  1.00  0.00    -0.180 OA 
HETATM    8  C   UNL     1     -10.813   6.579  70.755  1.00  0.00    -0.261 C  
HETATM    9  O   UNL     1     -10.685   5.507  71.336  1.00  0.00    -0.249 OA 
ENDROOT
BRANCH   6  10
HETATM   10  C   UNL     1      -9.864   6.034  68.498  1.00  0.00    -0.130 A  
HETATM   11  C   UNL     1      -9.006   4.979  68.882  1.00  0.00    -0.127 A  
HETATM   12  C   UNL     1      -8.410   4.095  67.949  1.00  0.00    -0.097 A  
HETATM   13  C   UNL     1      -7.515   2.981  68.425  1.00  0.00    -0.049 C  
HETATM   14  C   UNL     1      -8.702   4.285  66.595  1.00  0.00    -0.113 A  
HETATM   15  F   UNL     1      -7.904   1.769  67.948  1.00  0.00    -0.056 F  
HETATM   16  N   UNL     1      -8.142   3.414  65.572  1.00  0.00    -0.092 N  
HETATM   17  F   UNL     1      -7.497   2.849  69.781  1.00  0.00    -0.043 F  
HETATM   18  C   UNL     1      -9.547   5.310  66.174  1.00  0.00    -0.176 A  
HETATM   19  F   UNL     1      -6.218   3.147  68.062  1.00  0.00    -0.028 F  
HETATM   20  C   UNL     1     -10.113   6.173  67.121  1.00  0.00    -0.210 A  
HETATM   21  O   UNL     1      -6.912   3.364  65.487  1.00  0.00    -0.055 OA 
HETATM   22  O   UNL     1      -8.947   2.818  64.846  1.00  0.00    -0.118 OA 
ENDBRANCH   6  10
TORSDOF 1
ENDMDL
MODEL      206
REMARK 921   NORMALIZED FREE ENERGY PREDICTED BY IDOCK:   -3.05 KCAL/MOL
REMARK 922        TOTAL FREE ENERGY PREDICTED BY IDOCK:   -3.39 KCAL/MOL
REMARK 923 INTER-LIGAND FREE ENERGY PREDICTED BY IDOCK:   -2.97 KCAL/MOL
REMARK 924 INTRA-LIGAND FREE ENERGY PREDICTED BY IDOCK:   -0.42 KCAL/MOL
REMARK 927      BINDING AFFINITY PREDICTED BY RF-SCORE:    0.00 PKD
ROOT
HETATM    1  C   UNL     1     -12.718  14.017  66.451  1.00  0.00    -0.138 C  
HETATM    2  C   UNL     1     -11.394  13.486  65.926  1.00  0.00    -0.308 C  
HETATM    3  N   UNL     1     -10.306  14.381  66.185  1.00  0.00    -0.288 NA 
HETATM    4  C   UNL     1     -11.457  13.140  64.439  1.00  0.00    -0.407 C  
HETATM    5  C   UNL     1      -9.227  13.734  66.750  1.00  0.00    -0.244 C  
HETATM    6  N   UNL     1      -9.604  12.457  67.109  1.00  0.00    -0.202 N  
HETATM    7  O   UNL     1      -8.153  14.302  66.859  1.00  0.00    -0.112 OA 
HETATM    8  C   UNL     1     -10.916  12.258  66.714  1.00  0.00    -0.276 C  
HETATM    9  O   UNL     1     -11.624  11.268  66.865  1.00  0.00    -0.464 OA 
ENDROOT
BRANCH   6  10
HETATM   10  C   UNL     1      -8.773  11.497  67.775  1.00  0.00    -0.142 A  
HETATM   11  C   UNL     1      -8.228  10.386  67.095  1.00  0.00    -0.122 A  
HETATM   12  C   UNL     1      -7.405   9.424  67.732  1.00  0.00    -0.083 A  
HETATM   13  C   UNL     1      -6.843   8.268  66.946  1.00  0.00    -0.069 C  
HETATM   14  C   UNL     1      -7.125   9.604  69.088  1.00  0.00    -0.062 A  
HETATM   15  F   UNL     1      -5.494   8.169  67.070  1.00  0.00    -0.032 F  
HETATM   16  N   UNL     1      -6.278   8.670  69.816  1.00  0.00    -0.035 N  
HETATM   17  F   UNL     1      -7.080   8.363  65.607  1.00  0.00    -0.069 F  
HETATM   18  C   UNL     1      -7.638  10.690  69.795  1.00  0.00    -0.054 A  
HETATM   19  F   UNL     1      -7.360   7.069  67.318  1.00  0.00    -0.080 F  
HETATM   20  C   UNL     1      -8.456  11.618  69.139  1.00  0.00     0.279 A  
HETATM   21  O   UNL     1      -6.648   7.494  69.862  1.00  0.00    -0.038 OA 
HETATM   22  O   UNL     1      -5.271   9.138  70.360  1.00  0.00    -0.027 OA 
ENDBRANCH   6  10
TORSDOF 1
ENDMDL
MODEL      207
REMARK 921   NORMALIZED FREE ENERGY PREDICTED BY IDOCK:   -2.96 KCAL/MOL
REMARK 922        TOTAL FREE ENERGY PREDICTED BY IDOCK:   -3.30 KCAL/MOL
REMARK 923 INTER-LIGAND FREE ENERGY PREDICTED BY IDOCK:   -2.95 KCAL/MOL
REMARK 924 INTRA-LIGAND FREE ENERGY PREDICTED BY IDOCK:   -0.35 KCAL/MOL
REMARK 927      BINDING AFFINITY PREDICTED BY RF-SCORE:    0.00 PKD
ROOT
HETATM    1  C   UNL     1     -10.509  10.427  69.231  1.00  0.00    -0.257 C  
HETATM    2  C   UNL     1      -9.432   9.880  68.308  1.00  0.00    -0.139 C  
HETATM    3  N   UNL     1      -8.275   9.435  69.026  1.00  0.00    -0.105 NA 
HETATM    4  C   UNL     1      -9.035  10.880  67.224  1.00  0.00    -0.139 C  
HETATM    5  C   UNL     1      -7.878   8.173  68.637  1.00  0.00    -0.114 C  
HETATM    6  N   UNL     1      -8.854   7.620  67.834  1.00  0.00    -0.127 N  
HETATM    7  O   UNL     1      -6.807   7.720  69.005  1.00  0.00    -0.054 OA 
HETATM    8  C   UNL     1      -9.856   8.558  67.651  1.00  0.00    -0.174 C  
HETATM    9  O   UNL     1     -10.903   8.454  67.022  1.00  0.00    -0.224 OA 
ENDROOT
BRANCH   6  10
HETATM   10  C   UNL     1      -8.830   6.299  67.279  1.00  0.00    -0.107 A  
HETATM   11  C   UNL     1      -8.907   5.148  68.093  1.00  0.00    -0.107 A  
HETATM   12  C   UNL     1      -8.885   3.832  67.567  1.00  0.00    -0.140 A  
HETATM   13  C   UNL     1      -8.985   2.645  68.490  1.00  0.00    -0.132 C  
HETATM   14  C   UNL     1      -8.790   3.688  66.181  1.00  0.00    -0.127 A  
HETATM   15  F   UNL     1      -9.983   1.796  68.128  1.00  0.00    -0.217 F  
HETATM   16  N   UNL     1      -8.774   2.373  65.557  1.00  0.00    -0.115 N  
HETATM   17  F   UNL     1      -9.250   2.990  69.781  1.00  0.00    -0.155 F  
HETATM   18  C   UNL     1      -8.717   4.798  65.341  1.00  0.00    -0.138 A  
HETATM   19  F   UNL     1      -7.845   1.911  68.540  1.00  0.00    -0.051 F  
HETATM   20  C   UNL     1      -8.732   6.085  65.893  1.00  0.00    -0.157 A  
HETATM   21  O   UNL     1      -7.862   1.608  65.882  1.00  0.00    -0.066 OA 
HETATM   22  O   UNL     1      -9.658   2.140  64.725  1.00  0.00    -0.108 OA 
ENDBRANCH   6  10
TORSDOF 1
ENDMDL
MODEL      208
REMARK 921   NORMALIZED FREE ENERGY PREDICTED BY IDOCK:   -2.96 KCAL/MOL
REMARK 922        TOTAL FREE ENERGY PREDICTED BY IDOCK:   -3.30 KCAL/MOL
REMARK 923 INTER-LIGAND FREE ENERGY PREDICTED BY IDOCK:   -2.94 KCAL/MOL
REMARK 924 INTRA-LIGAND FREE ENERGY PREDICTED BY IDOCK:   -0.35 KCAL/MOL
REMARK 927      BINDING AFFINITY PREDICTED BY RF-SCORE:    0.00 PKD
ROOT
HETATM    1  C   UNL     1      -9.694   8.618  72.451  1.00  0.00    -0.313 C  
HETATM    2  C   UNL     1      -9.945   7.244  71.851  1.00  0.00    -0.166 C  
HETATM    3  N   UNL     1     -11.112   7.216  71.021  1.00  0.00    -0.253 NA 
HETATM    4  C   UNL     1     -10.022   6.152  72.917  1.00  0.00    -0.184 C  
HETATM    5  C   UNL     1     -10.864   6.630  69.798  1.00  0.00    -0.286 C  
HETATM    6  N   UNL     1      -9.504   6.453  69.650  1.00  0.00    -0.147 N  
HETATM    7  O   UNL     1     -11.784   6.353  69.047  1.00  0.00    -0.156 OA 
HETATM    8  C   UNL     1      -8.877   6.867  70.813  1.00  0.00    -0.150 C  
HETATM    9  O   UNL     1      -7.680   6.890  71.077  1.00  0.00    -0.093 OA 
ENDROOT
BRANCH   6  10
HETATM   10  C   UNL     1      -8.852   5.923  68.489  1.00  0.00    -0.111 A  
HETATM   11  C   UNL     1      -9.007   4.575  68.098  1.00  0.00    -0.140 A  
HETATM   12  C   UNL     1      -8.372   4.029  66.955  1.00  0.00    -0.100 A  
HETATM   13  C   UNL     1      -8.590   2.585  66.584  1.00  0.00    -0.112 C  
HETATM   14  C   UNL     1      -7.569   4.878  66.189  1.00  0.00    -0.091 A  
HETATM   15  F   UNL     1      -9.005   2.441  65.298  1.00  0.00    -0.111 F  
HETATM   16  N   UNL     1      -6.892   4.401  64.993  1.00  0.00    -0.049 N  
HETATM   17  F   UNL     1      -9.541   1.973  67.345  1.00  0.00    -0.162 F  
HETATM   18  C   UNL     1      -7.394   6.216  66.537  1.00  0.00    -0.081 A  
HETATM   19  F   UNL     1      -7.474   1.825  66.723  1.00  0.00    -0.055 F  
HETATM   20  C   UNL     1      -8.028   6.723  67.678  1.00  0.00    -0.113 A  
HETATM   21  O   UNL     1      -6.092   3.472  65.131  1.00  0.00    -0.022 OA 
HETATM   22  O   UNL     1      -7.147   4.990  63.935  1.00  0.00    -0.047 OA 
ENDBRANCH   6  10
TORSDOF 1
ENDMDL
MODEL      209
REMARK 921   NORMALIZED FREE ENERGY PREDICTED BY IDOCK:   -2.95 KCAL/MOL
REMARK 922        TOTAL FREE ENERGY PREDICTED BY IDOCK:   -3.29 KCAL/MOL
REMARK 923 INTER-LIGAND FREE ENERGY PREDICTED BY IDOCK:   -2.86 KCAL/MOL
REMARK 924 INTRA-LIGAND FREE ENERGY PREDICTED BY IDOCK:   -0.43 KCAL/MOL
REMARK 927      BINDING AFFINITY PREDICTED BY RF-SCORE:    0.00 PKD
ROOT
HETATM    1  C   UNL     1      -9.211  11.561  66.188  1.00  0.00    -0.230 C  
HETATM    2  C   UNL     1      -9.017  10.366  65.268  1.00  0.00    -0.187 C  
HETATM    3  N   UNL     1      -7.639  10.145  64.945  1.00  0.00    -0.140 NA 
HETATM    4  C   UNL     1      -9.853  10.475  63.994  1.00  0.00    -0.387 C  
HETATM    5  C   UNL     1      -7.270   8.829  65.127  1.00  0.00    -0.087 C  
HETATM    6  N   UNL     1      -8.281   8.164  65.787  1.00  0.00    -0.118 N  
HETATM    7  O   UNL     1      -6.192   8.427  64.721  1.00  0.00    -0.062 OA 
HETATM    8  C   UNL     1      -9.336   9.040  65.974  1.00  0.00    -0.242 C  
HETATM    9  O   UNL     1     -10.410   8.847  66.534  1.00  0.00    -0.276 OA 
ENDROOT
BRANCH   6  10
HETATM   10  C   UNL     1      -8.246   6.793  66.205  1.00  0.00    -0.124 A  
HETATM   11  C   UNL     1      -7.859   6.422  67.511  1.00  0.00    -0.105 A  
HETATM   12  C   UNL     1      -7.816   5.074  67.946  1.00  0.00    -0.090 A  
HETATM   13  C   UNL     1      -7.408   4.746  69.359  1.00  0.00    -0.052 C  
HETATM   14  C   UNL     1      -8.184   4.084  67.032  1.00  0.00    -0.100 A  
HETATM   15  F   UNL     1      -8.325   3.968  69.991  1.00  0.00    -0.056 F  
HETATM   16  N   UNL     1      -8.180   2.676  67.400  1.00  0.00    -0.076 N  
HETATM   17  F   UNL     1      -7.261   5.849  70.145  1.00  0.00    -0.063 F  
HETATM   18  C   UNL     1      -8.577   4.407  65.734  1.00  0.00    -0.115 A  
HETATM   19  F   UNL     1      -6.221   4.091  69.432  1.00  0.00    -0.024 F  
HETATM   20  C   UNL     1      -8.600   5.749  65.332  1.00  0.00    -0.143 A  
HETATM   21  O   UNL     1      -7.106   2.193  67.768  1.00  0.00    -0.046 OA 
HETATM   22  O   UNL     1      -9.250   2.066  67.283  1.00  0.00    -0.136 OA 
ENDBRANCH   6  10
TORSDOF 1
ENDMDL
MODEL      210
REMARK 921   NORMALIZED FREE ENERGY PREDICTED BY IDOCK:   -2.95 KCAL/MOL
REMARK 922        TOTAL FREE ENERGY PREDICTED BY IDOCK:   -3.29 KCAL/MOL
REMARK 923 INTER-LIGAND FREE ENERGY PREDICTED BY IDOCK:   -2.91 KCAL/MOL
REMARK 924 INTRA-LIGAND FREE ENERGY PREDICTED BY IDOCK:   -0.38 KCAL/MOL
REMARK 927      BINDING AFFINITY PREDICTED BY RF-SCORE:    0.00 PKD
ROOT
HETATM    1  C   UNL     1     -11.757  10.579  70.085  1.00  0.00    -0.410 C  
HETATM    2  C   UNL     1     -10.654   9.678  69.555  1.00  0.00    -0.229 C  
HETATM    3  N   UNL     1      -9.357  10.076  70.015  1.00  0.00    -0.186 NA 
HETATM    4  C   UNL     1     -10.671   9.578  68.030  1.00  0.00    -0.266 C  
HETATM    5  C   UNL     1      -8.640   9.015  70.525  1.00  0.00    -0.201 C  
HETATM    6  N   UNL     1      -9.476   7.925  70.651  1.00  0.00    -0.162 N  
HETATM    7  O   UNL     1      -7.454   9.136  70.783  1.00  0.00    -0.097 OA 
HETATM    8  C   UNL     1     -10.724   8.268  70.158  1.00  0.00    -0.239 C  
HETATM    9  O   UNL     1     -11.745   7.591  70.107  1.00  0.00    -0.111 OA 
ENDROOT
BRANCH   6  10
HETATM   10  C   UNL     1      -9.111   6.651  71.196  1.00  0.00    -0.152 A  
HETATM   11  C   UNL     1      -8.245   5.769  70.513  1.00  0.00    -0.118 A  
HETATM   12  C   UNL     1      -7.871   4.505  71.032  1.00  0.00    -0.073 A  
HETATM   13  C   UNL     1      -6.930   3.616  70.259  1.00  0.00    -0.034 C  
HETATM   14  C   UNL     1      -8.384   4.135  72.277  1.00  0.00    -0.102 A  
HETATM   15  F   UNL     1      -5.866   3.222  71.006  1.00  0.00    -0.012 F  
HETATM   16  N   UNL     1      -8.040   2.859  72.888  1.00  0.00    -0.066 N  
HETATM   17  F   UNL     1      -6.400   4.223  69.160  1.00  0.00    -0.028 F  
HETATM   18  C   UNL     1      -9.238   4.977  72.987  1.00  0.00    -0.130 A  
HETATM   19  F   UNL     1      -7.524   2.487  69.795  1.00  0.00    -0.043 F  
HETATM   20  C   UNL     1      -9.596   6.217  72.443  1.00  0.00    -0.156 A  
HETATM   21  O   UNL     1      -8.333   1.838  72.261  1.00  0.00    -0.052 OA 
HETATM   22  O   UNL     1      -7.511   2.900  74.005  1.00  0.00    -0.045 OA 
ENDBRANCH   6  10
TORSDOF 1
ENDMDL
MODEL      211
REMARK 921   NORMALIZED FREE ENERGY PREDICTED BY IDOCK:   -2.94 KCAL/MOL
REMARK 922        TOTAL FREE ENERGY PREDICTED BY IDOCK:   -3.27 KCAL/MOL
REMARK 923 INTER-LIGAND FREE ENERGY PREDICTED BY IDOCK:   -2.83 KCAL/MOL
REMARK 924 INTRA-LIGAND FREE ENERGY PREDICTED BY IDOCK:   -0.44 KCAL/MOL
REMARK 927      BINDING AFFINITY PREDICTED BY RF-SCORE:    0.00 PKD
ROOT
HETATM    1  C   UNL     1      -6.097   3.163  70.624  1.00  0.00    -0.019 C  
HETATM    2  C   UNL     1      -7.090   3.673  69.592  1.00  0.00    -0.042 C  
HETATM    3  N   UNL     1      -8.446   3.563  70.039  1.00  0.00    -0.055 NA 
HETATM    4  C   UNL     1      -6.918   2.991  68.236  1.00  0.00    -0.049 C  
HETATM    5  C   UNL     1      -9.146   4.737  69.863  1.00  0.00    -0.104 C  
HETATM    6  N   UNL     1      -8.265   5.741  69.521  1.00  0.00    -0.107 N  
HETATM    7  O   UNL     1     -10.357   4.764  70.011  1.00  0.00    -0.249 OA 
HETATM    8  C   UNL     1      -6.997   5.196  69.411  1.00  0.00    -0.055 C  
HETATM    9  O   UNL     1      -5.938   5.753  69.144  1.00  0.00    -0.018 OA 
ENDROOT
BRANCH   6  10
HETATM   10  C   UNL     1      -8.607   7.117  69.309  1.00  0.00    -0.137 A  
HETATM   11  C   UNL     1      -8.958   7.609  68.033  1.00  0.00    -0.126 A  
HETATM   12  C   UNL     1      -9.299   8.964  67.798  1.00  0.00    -0.157 A  
HETATM   13  C   UNL     1      -9.679   9.422  66.414  1.00  0.00    -0.250 C  
HETATM   14  C   UNL     1      -9.290   9.835  68.891  1.00  0.00    -0.158 A  
HETATM   15  F   UNL     1     -10.876  10.066  66.396  1.00  0.00    -0.223 F  
HETATM   16  N   UNL     1      -9.640  11.239  68.741  1.00  0.00    -0.181 N  
HETATM   17  F   UNL     1      -9.803   8.397  65.525  1.00  0.00    -0.094 F  
HETATM   18  C   UNL     1      -8.954   9.390  70.168  1.00  0.00    -0.256 A  
HETATM   19  F   UNL     1      -8.770  10.268  65.865  1.00  0.00    -0.141 F  
HETATM   20  C   UNL     1      -8.613   8.045  70.365  1.00  0.00    -0.131 A  
HETATM   21  O   UNL     1      -8.951  11.911  67.968  1.00  0.00    -0.171 OA 
HETATM   22  O   UNL     1     -10.580  11.657  69.428  1.00  0.00    -0.112 OA 
ENDBRANCH   6  10
TORSDOF 1
ENDMDL
MODEL      212
REMARK 921   NORMALIZED FREE ENERGY PREDICTED BY IDOCK:   -2.89 KCAL/MOL
REMARK 922        TOTAL FREE ENERGY PREDICTED BY IDOCK:   -3.23 KCAL/MOL
REMARK 923 INTER-LIGAND FREE ENERGY PREDICTED BY IDOCK:   -3.30 KCAL/MOL
REMARK 924 INTRA-LIGAND FREE ENERGY PREDICTED BY IDOCK:    0.07 KCAL/MOL
REMARK 927      BINDING AFFINITY PREDICTED BY RF-SCORE:    0.00 PKD
ROOT
HETATM    1  C   UNL     1      -8.750   9.988  64.514  1.00  0.00    -0.214 C  
HETATM    2  C   UNL     1      -8.648  10.413  65.969  1.00  0.00    -0.151 C  
HETATM    3  N   UNL     1      -9.924  10.736  66.534  1.00  0.00    -0.206 NA 
HETATM    4  C   UNL     1      -7.669  11.569  66.167  1.00  0.00     0.154 C  
HETATM    5  C   UNL     1     -10.128  10.110  67.745  1.00  0.00    -0.180 C  
HETATM    6  N   UNL     1      -9.134   9.175  67.943  1.00  0.00    -0.128 N  
HETATM    7  O   UNL     1     -11.074  10.421  68.451  1.00  0.00    -0.250 OA 
HETATM    8  C   UNL     1      -8.247   9.245  66.882  1.00  0.00    -0.119 C  
HETATM    9  O   UNL     1      -7.243   8.573  66.671  1.00  0.00    -0.072 OA 
ENDROOT
BRANCH   6  10
HETATM   10  C   UNL     1      -9.035   8.285  69.062  1.00  0.00    -0.147 A  
HETATM   11  C   UNL     1     -10.174   7.680  69.635  1.00  0.00    -0.204 A  
HETATM   12  C   UNL     1     -10.101   6.798  70.742  1.00  0.00    -0.208 A  
HETATM   13  C   UNL     1     -11.354   6.173  71.298  1.00  0.00    -0.272 C  
HETATM   14  C   UNL     1      -8.837   6.520  71.269  1.00  0.00    -0.137 A  
HETATM   15  F   UNL     1     -11.264   4.819  71.374  1.00  0.00     0.038 F  
HETATM   16  N   UNL     1      -8.671   5.615  72.397  1.00  0.00    -0.128 N  
HETATM   17  F   UNL     1     -12.460   6.423  70.542  1.00  0.00    -0.352 F  
HETATM   18  C   UNL     1      -7.687   7.092  70.730  1.00  0.00    -0.094 A  
HETATM   19  F   UNL     1     -11.663   6.616  72.544  1.00  0.00    -0.297 F  
HETATM   20  C   UNL     1      -7.794   7.968  69.642  1.00  0.00    -0.104 A  
HETATM   21  O   UNL     1      -9.244   5.914  73.448  1.00  0.00    -0.133 OA 
HETATM   22  O   UNL     1      -7.939   4.634  72.221  1.00  0.00    -0.097 OA 
ENDBRANCH   6  10
TORSDOF 1
ENDMDL
MODEL      213
REMARK 921   NORMALIZED FREE ENERGY PREDICTED BY IDOCK:   -2.87 KCAL/MOL
REMARK 922        TOTAL FREE ENERGY PREDICTED BY IDOCK:   -3.21 KCAL/MOL
REMARK 923 INTER-LIGAND FREE ENERGY PREDICTED BY IDOCK:   -2.77 KCAL/MOL
REMARK 924 INTRA-LIGAND FREE ENERGY PREDICTED BY IDOCK:   -0.44 KCAL/MOL
REMARK 927      BINDING AFFINITY PREDICTED BY RF-SCORE:    0.00 PKD
ROOT
HETATM    1  C   UNL     1      -8.323  17.540  66.051  1.00  0.00    -0.116 C  
HETATM    2  C   UNL     1      -8.514  16.260  66.848  1.00  0.00    -0.224 C  
HETATM    3  N   UNL     1      -7.536  16.112  67.884  1.00  0.00    -0.131 NA 
HETATM    4  C   UNL     1      -8.537  15.020  65.956  1.00  0.00     0.468 C  
HETATM    5  C   UNL     1      -8.110  15.801  69.098  1.00  0.00    -0.237 C  
HETATM    6  N   UNL     1      -9.478  15.951  69.002  1.00  0.00    -0.232 N  
HETATM    7  O   UNL     1      -7.417  15.454  70.040  1.00  0.00    -0.090 OA 
HETATM    8  C   UNL     1      -9.792  16.299  67.699  1.00  0.00    -0.238 C  
HETATM    9  O   UNL     1     -10.889  16.540  67.208  1.00  0.00    -0.280 OA 
ENDROOT
BRANCH   6  10
HETATM   10  C   UNL     1     -10.416  15.772  70.071  1.00  0.00    -0.306 A  
HETATM   11  C   UNL     1     -11.142  14.572  70.231  1.00  0.00    -0.082 A  
HETATM   12  C   UNL     1     -12.074  14.372  71.279  1.00  0.00    -0.405 A  
HETATM   13  C   UNL     1     -12.806  13.061  71.403  1.00  0.00    -0.292 C  
HETATM   14  C   UNL     1     -12.264  15.415  72.189  1.00  0.00    -0.385 A  
HETATM   15  F   UNL     1     -12.676  12.513  72.640  1.00  0.00    -0.150 F  
HETATM   16  N   UNL     1     -13.192  15.288  73.302  1.00  0.00    -0.488 N  
HETATM   17  F   UNL     1     -12.357  12.111  70.535  1.00  0.00    -0.390 F  
HETATM   18  C   UNL     1     -11.564  16.614  72.070  1.00  0.00    -0.070 A  
HETATM   19  F   UNL     1     -14.138  13.169  71.160  1.00  0.00     0.184 F  
HETATM   20  C   UNL     1     -10.655  16.784  71.017  1.00  0.00     1.230 A  
HETATM   21  O   UNL     1     -14.375  15.072  73.026  1.00  0.00    -0.058 OA 
HETATM   22  O   UNL     1     -12.727  15.442  74.437  1.00  0.00    -0.476 OA 
ENDBRANCH   6  10
TORSDOF 1
ENDMDL
MODEL      214
REMARK 921   NORMALIZED FREE ENERGY PREDICTED BY IDOCK:   -2.85 KCAL/MOL
REMARK 922        TOTAL FREE ENERGY PREDICTED BY IDOCK:   -3.18 KCAL/MOL
REMARK 923 INTER-LIGAND FREE ENERGY PREDICTED BY IDOCK:   -3.61 KCAL/MOL
REMARK 924 INTRA-LIGAND FREE ENERGY PREDICTED BY IDOCK:    0.43 KCAL/MOL
REMARK 927      BINDING AFFINITY PREDICTED BY RF-SCORE:    0.00 PKD
ROOT
HETATM    1  C   UNL     1      -9.633   2.481  64.348  1.00  0.00    -0.128 C  
HETATM    2  C   UNL     1      -8.508   3.295  64.969  1.00  0.00    -0.099 C  
HETATM    3  N   UNL     1      -8.137   4.417  64.160  1.00  0.00    -0.091 NA 
HETATM    4  C   UNL     1      -7.284   2.439  65.289  1.00  0.00    -0.058 C  
HETATM    5  C   UNL     1      -8.071   5.583  64.891  1.00  0.00    -0.124 C  
HETATM    6  N   UNL     1      -8.609   5.363  66.141  1.00  0.00    -0.122 N  
HETATM    7  O   UNL     1      -7.587   6.592  64.405  1.00  0.00    -0.089 OA 
HETATM    8  C   UNL     1      -8.964   4.028  66.239  1.00  0.00    -0.127 C  
HETATM    9  O   UNL     1      -9.489   3.436  67.175  1.00  0.00    -0.201 OA 
ENDROOT
BRANCH   6  10
HETATM   10  C   UNL     1      -8.769   6.350  67.168  1.00  0.00    -0.110 A  
HETATM   11  C   UNL     1      -9.593   6.128  68.293  1.00  0.00    -0.122 A  
HETATM   12  C   UNL     1      -9.766   7.088  69.321  1.00  0.00    -0.158 A  
HETATM   13  C   UNL     1     -10.649   6.783  70.503  1.00  0.00    -0.225 C  
HETATM   14  C   UNL     1      -9.078   8.298  69.203  1.00  0.00    -0.148 A  
HETATM   15  F   UNL     1     -10.007   6.971  71.686  1.00  0.00    -0.178 F  
HETATM   16  N   UNL     1      -9.189   9.334  70.219  1.00  0.00    -0.217 N  
HETATM   17  F   UNL     1     -11.087   5.492  70.527  1.00  0.00    -0.335 F  
HETATM   18  C   UNL     1      -8.251   8.556  68.111  1.00  0.00    -0.120 A  
HETATM   19  F   UNL     1     -11.772   7.545  70.541  1.00  0.00    -0.295 F  
HETATM   20  C   UNL     1      -8.107   7.589  67.107  1.00  0.00    -0.118 A  
HETATM   21  O   UNL     1     -10.316   9.787  70.439  1.00  0.00    -0.266 OA 
HETATM   22  O   UNL     1      -8.139   9.702  70.758  1.00  0.00    -0.279 OA 
ENDBRANCH   6  10
TORSDOF 1
ENDMDL
MODEL      215
REMARK 921   NORMALIZED FREE ENERGY PREDICTED BY IDOCK:   -2.83 KCAL/MOL
REMARK 922        TOTAL FREE ENERGY PREDICTED BY IDOCK:   -3.16 KCAL/MOL
REMARK 923 INTER-LIGAND FREE ENERGY PREDICTED BY IDOCK:   -2.74 KCAL/MOL
REMARK 924 INTRA-LIGAND FREE ENERGY PREDICTED BY IDOCK:   -0.42 KCAL/MOL
REMARK 927      BINDING AFFINITY PREDICTED BY RF-SCORE:    0.00 PKD
ROOT
HETATM    1  C   UNL     1      -9.184   8.733  71.199  1.00  0.00    -0.299 C  
HETATM    2  C   UNL     1      -9.451   7.338  70.658  1.00  0.00    -0.164 C  
HETATM    3  N   UNL     1     -10.655   7.275  69.884  1.00  0.00    -0.226 NA 
HETATM    4  C   UNL     1      -9.471   6.283  71.763  1.00  0.00    -0.158 C  
HETATM    5  C   UNL     1     -10.458   6.649  68.672  1.00  0.00    -0.211 C  
HETATM    6  N   UNL     1      -9.106   6.475  68.467  1.00  0.00    -0.128 N  
HETATM    7  O   UNL     1     -11.410   6.341  67.973  1.00  0.00    -0.260 OA 
HETATM    8  C   UNL     1      -8.429   6.933  69.586  1.00  0.00    -0.133 C  
HETATM    9  O   UNL     1      -7.222   6.973  69.794  1.00  0.00    -0.075 OA 
ENDROOT
BRANCH   6  10
HETATM   10  C   UNL     1      -8.503   5.910  67.296  1.00  0.00    -0.103 A  
HETATM   11  C   UNL     1      -8.402   6.634  66.088  1.00  0.00    -0.130 A  
HETATM   12  C   UNL     1      -7.812   6.097  64.917  1.00  0.00    -0.108 A  
HETATM   13  C   UNL     1      -7.722   6.927  63.663  1.00  0.00    -0.111 C  
HETATM   14  C   UNL     1      -7.305   4.797  64.983  1.00  0.00    -0.072 A  
HETATM   15  F   UNL     1      -6.455   6.989  63.177  1.00  0.00    -0.041 F  
HETATM   16  N   UNL     1      -6.671   4.173  63.830  1.00  0.00    -0.042 N  
HETATM   17  F   UNL     1      -8.105   8.222  63.848  1.00  0.00    -0.136 F  
HETATM   18  C   UNL     1      -7.380   4.049  66.157  1.00  0.00    -0.072 A  
HETATM   19  F   UNL     1      -8.506   6.461  62.658  1.00  0.00    -0.111 F  
HETATM   20  C   UNL     1      -7.978   4.606  67.294  1.00  0.00    -0.101 A  
HETATM   21  O   UNL     1      -7.355   4.050  62.810  1.00  0.00    -0.047 OA 
HETATM   22  O   UNL     1      -5.506   3.785  63.977  1.00  0.00    -0.012 OA 
ENDBRANCH   6  10
TORSDOF 1
ENDMDL
MODEL      216
REMARK 921   NORMALIZED FREE ENERGY PREDICTED BY IDOCK:   -2.82 KCAL/MOL
REMARK 922        TOTAL FREE ENERGY PREDICTED BY IDOCK:   -3.15 KCAL/MOL
REMARK 923 INTER-LIGAND FREE ENERGY PREDICTED BY IDOCK:   -2.94 KCAL/MOL
REMARK 924 INTRA-LIGAND FREE ENERGY PREDICTED BY IDOCK:   -0.21 KCAL/MOL
REMARK 927      BINDING AFFINITY PREDICTED BY RF-SCORE:    0.00 PKD
ROOT
HETATM    1  C   UNL     1      -7.178  10.484  69.987  1.00  0.00    -0.105 C  
HETATM    2  C   UNL     1      -6.877  11.298  68.739  1.00  0.00    -0.082 C  
HETATM    3  N   UNL     1      -8.059  11.617  67.997  1.00  0.00    -0.131 NA 
HETATM    4  C   UNL     1      -5.849  10.616  67.838  1.00  0.00    -0.043 C  
HETATM    5  C   UNL     1      -8.122  12.955  67.671  1.00  0.00    -0.167 C  
HETATM    6  N   UNL     1      -7.137  13.633  68.359  1.00  0.00    -0.096 N  
HETATM    7  O   UNL     1      -8.959  13.362  66.882  1.00  0.00    -0.229 OA 
HETATM    8  C   UNL     1      -6.393  12.715  69.081  1.00  0.00    -0.099 C  
HETATM    9  O   UNL     1      -5.445  12.912  69.833  1.00  0.00    -0.086 OA 
ENDROOT
BRANCH   6  10
HETATM   10  C   UNL     1      -6.918  15.049  68.325  1.00  0.00    -0.116 A  
HETATM   11  C   UNL     1      -7.942  15.968  68.643  1.00  0.00    -0.174 A  
HETATM   12  C   UNL     1      -7.749  17.372  68.616  1.00  0.00    -0.273 A  
HETATM   13  C   UNL     1      -8.880  18.299  68.980  1.00  0.00    -0.014 C  
HETATM   14  C   UNL     1      -6.483  17.848  68.266  1.00  0.00    -0.193 A  
HETATM   15  F   UNL     1      -8.527  19.185  69.948  1.00  0.00     0.246 F  
HETATM   16  N   UNL     1      -6.196  19.274  68.226  1.00  0.00    -0.221 N  
HETATM   17  F   UNL     1      -9.974  17.648  69.463  1.00  0.00    -0.191 F  
HETATM   18  C   UNL     1      -5.444  16.975  67.950  1.00  0.00    -0.129 A  
HETATM   19  F   UNL     1      -9.330  19.029  67.927  1.00  0.00    -0.305 F  
HETATM   20  C   UNL     1      -5.669  15.593  67.977  1.00  0.00    -0.140 A  
HETATM   21  O   UNL     1      -6.868  19.962  67.453  1.00  0.00    -0.210 OA 
HETATM   22  O   UNL     1      -5.276  19.679  68.948  1.00  0.00    -0.185 OA 
ENDBRANCH   6  10
TORSDOF 1
ENDMDL
MODEL      217
REMARK 921   NORMALIZED FREE ENERGY PREDICTED BY IDOCK:   -2.82 KCAL/MOL
REMARK 922        TOTAL FREE ENERGY PREDICTED BY IDOCK:   -3.15 KCAL/MOL
REMARK 923 INTER-LIGAND FREE ENERGY PREDICTED BY IDOCK:   -2.72 KCAL/MOL
REMARK 924 INTRA-LIGAND FREE ENERGY PREDICTED BY IDOCK:   -0.42 KCAL/MOL
REMARK 927      BINDING AFFINITY PREDICTED BY RF-SCORE:    0.00 PKD
ROOT
HETATM    1  C   UNL     1     -10.048  11.939  66.691  1.00  0.00    -0.225 C  
HETATM    2  C   UNL     1      -9.246  10.779  66.125  1.00  0.00    -0.180 C  
HETATM    3  N   UNL     1      -7.835  10.953  66.303  1.00  0.00    -0.159 NA 
HETATM    4  C   UNL     1      -9.570  10.514  64.656  1.00  0.00    -0.349 C  
HETATM    5  C   UNL     1      -7.238   9.833  66.839  1.00  0.00    -0.090 C  
HETATM    6  N   UNL     1      -8.217   8.957  67.259  1.00  0.00    -0.104 N  
HETATM    7  O   UNL     1      -6.022   9.738  66.878  1.00  0.00    -0.054 OA 
HETATM    8  C   UNL     1      -9.453   9.489  66.933  1.00  0.00    -0.158 C  
HETATM    9  O   UNL     1     -10.571   9.033  67.150  1.00  0.00    -0.272 OA 
ENDROOT
BRANCH   6  10
HETATM   10  C   UNL     1      -7.991   7.705  67.919  1.00  0.00    -0.118 A  
HETATM   11  C   UNL     1      -8.124   7.565  69.318  1.00  0.00    -0.126 A  
HETATM   12  C   UNL     1      -7.905   6.339  69.992  1.00  0.00    -0.106 A  
HETATM   13  C   UNL     1      -8.078   6.253  71.486  1.00  0.00    -0.110 C  
HETATM   14  C   UNL     1      -7.552   5.228  69.222  1.00  0.00    -0.073 A  
HETATM   15  F   UNL     1      -8.926   5.254  71.849  1.00  0.00    -0.130 F  
HETATM   16  N   UNL     1      -7.322   3.927  69.833  1.00  0.00    -0.045 N  
HETATM   17  F   UNL     1      -8.598   7.388  72.032  1.00  0.00    -0.105 F  
HETATM   18  C   UNL     1      -7.414   5.321  67.838  1.00  0.00    -0.076 A  
HETATM   19  F   UNL     1      -6.912   6.037  72.146  1.00  0.00    -0.070 F  
HETATM   20  C   UNL     1      -7.629   6.551  67.203  1.00  0.00    -0.096 A  
HETATM   21  O   UNL     1      -6.426   3.853  70.679  1.00  0.00    -0.029 OA 
HETATM   22  O   UNL     1      -8.020   2.990  69.429  1.00  0.00    -0.049 OA 
ENDBRANCH   6  10
TORSDOF 1
ENDMDL
MODEL      218
REMARK 921   NORMALIZED FREE ENERGY PREDICTED BY IDOCK:   -2.81 KCAL/MOL
REMARK 922        TOTAL FREE ENERGY PREDICTED BY IDOCK:   -3.14 KCAL/MOL
REMARK 923 INTER-LIGAND FREE ENERGY PREDICTED BY IDOCK:   -2.70 KCAL/MOL
REMARK 924 INTRA-LIGAND FREE ENERGY PREDICTED BY IDOCK:   -0.44 KCAL/MOL
REMARK 927      BINDING AFFINITY PREDICTED BY RF-SCORE:    0.00 PKD
ROOT
HETATM    1  C   UNL     1      -5.859   9.228  71.742  1.00  0.00    -0.060 C  
HETATM    2  C   UNL     1      -7.164   8.454  71.645  1.00  0.00    -0.091 C  
HETATM    3  N   UNL     1      -8.203   9.214  71.019  1.00  0.00    -0.259 NA 
HETATM    4  C   UNL     1      -7.629   7.929  73.002  1.00  0.00    -0.154 C  
HETATM    5  C   UNL     1      -8.838   8.503  70.023  1.00  0.00    -0.141 C  
HETATM    6  N   UNL     1      -8.127   7.349  69.770  1.00  0.00    -0.125 N  
HETATM    7  O   UNL     1      -9.866   8.926  69.520  1.00  0.00    -0.173 OA 
HETATM    8  C   UNL     1      -7.064   7.284  70.654  1.00  0.00    -0.065 C  
HETATM    9  O   UNL     1      -6.188   6.431  70.745  1.00  0.00    -0.037 OA 
ENDROOT
BRANCH   6  10
HETATM   10  C   UNL     1      -8.442   6.377  68.764  1.00  0.00    -0.121 A  
HETATM   11  C   UNL     1      -7.892   6.446  67.465  1.00  0.00    -0.105 A  
HETATM   12  C   UNL     1      -8.188   5.498  66.454  1.00  0.00    -0.106 A  
HETATM   13  C   UNL     1      -7.557   5.620  65.092  1.00  0.00    -0.078 C  
HETATM   14  C   UNL     1      -9.057   4.453  66.777  1.00  0.00    -0.128 A  
HETATM   15  F   UNL     1      -6.931   4.476  64.711  1.00  0.00    -0.049 F  
HETATM   16  N   UNL     1      -9.405   3.430  65.803  1.00  0.00    -0.158 N  
HETATM   17  F   UNL     1      -6.606   6.594  65.026  1.00  0.00    -0.041 F  
HETATM   18  C   UNL     1      -9.618   4.346  68.049  1.00  0.00    -0.204 A  
HETATM   19  F   UNL     1      -8.450   5.922  64.115  1.00  0.00    -0.128 F  
HETATM   20  C   UNL     1      -9.312   5.304  69.023  1.00  0.00    -0.171 A  
HETATM   21  O   UNL     1      -9.953   3.806  64.763  1.00  0.00    -0.184 OA 
HETATM   22  O   UNL     1      -9.153   2.259  66.110  1.00  0.00    -0.124 OA 
ENDBRANCH   6  10
TORSDOF 1
ENDMDL
MODEL      219
REMARK 921   NORMALIZED FREE ENERGY PREDICTED BY IDOCK:   -2.79 KCAL/MOL
REMARK 922        TOTAL FREE ENERGY PREDICTED BY IDOCK:   -3.12 KCAL/MOL
REMARK 923 INTER-LIGAND FREE ENERGY PREDICTED BY IDOCK:   -2.68 KCAL/MOL
REMARK 924 INTRA-LIGAND FREE ENERGY PREDICTED BY IDOCK:   -0.44 KCAL/MOL
REMARK 927      BINDING AFFINITY PREDICTED BY RF-SCORE:    0.00 PKD
ROOT
HETATM    1  C   UNL     1      -7.930   3.432  71.066  1.00  0.00    -0.058 C  
HETATM    2  C   UNL     1      -8.618   3.937  69.808  1.00  0.00    -0.065 C  
HETATM    3  N   UNL     1      -9.880   4.554  70.088  1.00  0.00    -0.217 NA 
HETATM    4  C   UNL     1      -8.783   2.839  68.758  1.00  0.00    -0.132 C  
HETATM    5  C   UNL     1     -10.003   5.783  69.474  1.00  0.00    -0.191 C  
HETATM    6  N   UNL     1      -8.778   6.154  68.959  1.00  0.00    -0.123 N  
HETATM    7  O   UNL     1     -11.078   6.357  69.448  1.00  0.00    -0.323 OA 
HETATM    8  C   UNL     1      -7.876   5.129  69.186  1.00  0.00    -0.081 C  
HETATM    9  O   UNL     1      -6.684   5.073  68.902  1.00  0.00    -0.047 OA 
ENDROOT
BRANCH   6  10
HETATM   10  C   UNL     1      -8.491   7.392  68.296  1.00  0.00    -0.125 A  
HETATM   11  C   UNL     1      -8.434   7.487  66.889  1.00  0.00    -0.122 A  
HETATM   12  C   UNL     1      -8.152   8.699  66.211  1.00  0.00    -0.103 A  
HETATM   13  C   UNL     1      -8.119   8.736  64.705  1.00  0.00    -0.151 C  
HETATM   14  C   UNL     1      -7.931   9.841  66.986  1.00  0.00    -0.105 A  
HETATM   15  F   UNL     1      -8.930   9.701  64.197  1.00  0.00    -0.209 F  
HETATM   16  N   UNL     1      -7.648  11.129  66.370  1.00  0.00    -0.136 N  
HETATM   17  F   UNL     1      -8.534   7.572  64.131  1.00  0.00    -0.072 F  
HETATM   18  C   UNL     1      -7.983   9.792  68.377  1.00  0.00    -0.089 A  
HETATM   19  F   UNL     1      -6.878   8.964  64.204  1.00  0.00    -0.081 F  
HETATM   20  C   UNL     1      -8.256   8.576  69.017  1.00  0.00    -0.116 A  
HETATM   21  O   UNL     1      -6.647  11.201  65.652  1.00  0.00     0.047 OA 
HETATM   22  O   UNL     1      -8.416  12.059  66.644  1.00  0.00    -0.180 OA 
ENDBRANCH   6  10
TORSDOF 1
ENDMDL
MODEL      220
REMARK 921   NORMALIZED FREE ENERGY PREDICTED BY IDOCK:   -2.76 KCAL/MOL
REMARK 922        TOTAL FREE ENERGY PREDICTED BY IDOCK:   -3.09 KCAL/MOL
REMARK 923 INTER-LIGAND FREE ENERGY PREDICTED BY IDOCK:   -2.70 KCAL/MOL
REMARK 924 INTRA-LIGAND FREE ENERGY PREDICTED BY IDOCK:   -0.38 KCAL/MOL
REMARK 927      BINDING AFFINITY PREDICTED BY RF-SCORE:    0.00 PKD
ROOT
HETATM    1  C   UNL     1     -13.968   7.688  72.512  1.00  0.00     0.226 C  
HETATM    2  C   UNL     1     -12.532   8.123  72.266  1.00  0.00    -0.301 C  
HETATM    3  N   UNL     1     -11.704   7.947  73.420  1.00  0.00     0.187 NA 
HETATM    4  C   UNL     1     -12.442   9.561  71.758  1.00  0.00    -0.484 C  
HETATM    5  C   UNL     1     -10.528   7.293  73.120  1.00  0.00    -0.339 C  
HETATM    6  N   UNL     1     -10.604   6.796  71.836  1.00  0.00    -0.208 N  
HETATM    7  O   UNL     1      -9.628   7.229  73.941  1.00  0.00    -0.251 OA 
HETATM    8  C   UNL     1     -11.810   7.190  71.282  1.00  0.00    -0.318 C  
HETATM    9  O   UNL     1     -12.267   6.941  70.172  1.00  0.00    -0.185 OA 
ENDROOT
BRANCH   6  10
HETATM   10  C   UNL     1      -9.599   6.010  71.183  1.00  0.00    -0.172 A  
HETATM   11  C   UNL     1      -9.323   4.681  71.575  1.00  0.00    -0.202 A  
HETATM   12  C   UNL     1      -8.334   3.885  70.946  1.00  0.00    -0.089 A  
HETATM   13  C   UNL     1      -8.098   2.468  71.402  1.00  0.00    -0.054 C  
HETATM   14  C   UNL     1      -7.617   4.452  69.889  1.00  0.00    -0.050 A  
HETATM   15  F   UNL     1      -8.168   1.579  70.376  1.00  0.00    -0.043 F  
HETATM   16  N   UNL     1      -6.594   3.699  69.179  1.00  0.00    -0.036 N  
HETATM   17  F   UNL     1      -9.012   2.040  72.317  1.00  0.00    -0.072 F  
HETATM   18  C   UNL     1      -7.862   5.758  69.468  1.00  0.00    -0.093 A  
HETATM   19  F   UNL     1      -6.888   2.292  71.991  1.00  0.00    -0.017 F  
HETATM   20  C   UNL     1      -8.840   6.523  70.117  1.00  0.00    -0.144 A  
HETATM   21  O   UNL     1      -5.640   3.284  69.843  1.00  0.00    -0.015 OA 
HETATM   22  O   UNL     1      -6.745   3.565  67.959  1.00  0.00    -0.044 OA 
ENDBRANCH   6  10
TORSDOF 1
ENDMDL
MODEL      221
REMARK 921   NORMALIZED FREE ENERGY PREDICTED BY IDOCK:   -2.72 KCAL/MOL
REMARK 922        TOTAL FREE ENERGY PREDICTED BY IDOCK:   -3.04 KCAL/MOL
REMARK 923 INTER-LIGAND FREE ENERGY PREDICTED BY IDOCK:   -2.62 KCAL/MOL
REMARK 924 INTRA-LIGAND FREE ENERGY PREDICTED BY IDOCK:   -0.42 KCAL/MOL
REMARK 927      BINDING AFFINITY PREDICTED BY RF-SCORE:    0.00 PKD
ROOT
HETATM    1  C   UNL     1      -7.099   9.855  64.027  1.00  0.00    -0.127 C  
HETATM    2  C   UNL     1      -7.555   9.594  65.453  1.00  0.00    -0.111 C  
HETATM    3  N   UNL     1      -8.980   9.642  65.587  1.00  0.00    -0.157 NA 
HETATM    4  C   UNL     1      -6.893  10.538  66.455  1.00  0.00    -0.119 C  
HETATM    5  C   UNL     1      -9.474   8.547  66.264  1.00  0.00    -0.231 C  
HETATM    6  N   UNL     1      -8.469   7.615  66.409  1.00  0.00    -0.130 N  
HETATM    7  O   UNL     1     -10.637   8.520  66.632  1.00  0.00    -0.255 OA 
HETATM    8  C   UNL     1      -7.302   8.140  65.880  1.00  0.00    -0.076 C  
HETATM    9  O   UNL     1      -6.193   7.625  65.796  1.00  0.00    -0.038 OA 
ENDROOT
BRANCH   6  10
HETATM   10  C   UNL     1      -8.608   6.322  67.012  1.00  0.00    -0.104 A  
HETATM   11  C   UNL     1      -8.689   6.158  68.412  1.00  0.00    -0.115 A  
HETATM   12  C   UNL     1      -8.826   4.891  69.031  1.00  0.00    -0.117 A  
HETATM   13  C   UNL     1      -8.922   4.785  70.531  1.00  0.00    -0.116 C  
HETATM   14  C   UNL     1      -8.891   3.767  68.203  1.00  0.00    -0.113 A  
HETATM   15  F   UNL     1     -10.016   4.085  70.928  1.00  0.00    -0.249 F  
HETATM   16  N   UNL     1      -9.045   2.429  68.755  1.00  0.00    -0.125 N  
HETATM   17  F   UNL     1      -9.020   5.996  71.149  1.00  0.00    -0.135 F  
HETATM   18  C   UNL     1      -8.820   3.885  66.816  1.00  0.00    -0.130 A  
HETATM   19  F   UNL     1      -7.844   4.181  71.092  1.00  0.00    -0.063 F  
HETATM   20  C   UNL     1      -8.675   5.152  66.236  1.00  0.00    -0.119 A  
HETATM   21  O   UNL     1      -8.167   2.035  69.527  1.00  0.00    -0.044 OA 
HETATM   22  O   UNL     1     -10.029   1.780  68.379  1.00  0.00     0.051 OA 
ENDBRANCH   6  10
TORSDOF 1
ENDMDL
MODEL      222
REMARK 921   NORMALIZED FREE ENERGY PREDICTED BY IDOCK:   -2.71 KCAL/MOL
REMARK 922        TOTAL FREE ENERGY PREDICTED BY IDOCK:   -3.03 KCAL/MOL
REMARK 923 INTER-LIGAND FREE ENERGY PREDICTED BY IDOCK:   -2.84 KCAL/MOL
REMARK 924 INTRA-LIGAND FREE ENERGY PREDICTED BY IDOCK:   -0.19 KCAL/MOL
REMARK 927      BINDING AFFINITY PREDICTED BY RF-SCORE:    0.00 PKD
ROOT
HETATM    1  C   UNL     1      -9.747  10.727  63.119  1.00  0.00    -0.394 C  
HETATM    2  C   UNL     1      -8.656  10.556  64.164  1.00  0.00    -0.150 C  
HETATM    3  N   UNL     1      -8.837  11.426  65.288  1.00  0.00    -0.020 NA 
HETATM    4  C   UNL     1      -7.258  10.730  63.575  1.00  0.00     0.320 C  
HETATM    5  C   UNL     1      -8.738  10.752  66.486  1.00  0.00    -0.151 C  
HETATM    6  N   UNL     1      -8.722   9.395  66.241  1.00  0.00    -0.137 N  
HETATM    7  O   UNL     1      -8.676  11.365  67.539  1.00  0.00    -0.135 OA 
HETATM    8  C   UNL     1      -8.746   9.195  64.870  1.00  0.00    -0.182 C  
HETATM    9  O   UNL     1      -8.762   8.141  64.245  1.00  0.00     0.079 OA 
ENDROOT
BRANCH   6  10
HETATM   10  C   UNL     1      -8.682   8.365  67.237  1.00  0.00    -0.127 A  
HETATM   11  C   UNL     1      -9.630   8.303  68.282  1.00  0.00    -0.158 A  
HETATM   12  C   UNL     1      -9.610   7.296  69.278  1.00  0.00    -0.156 A  
HETATM   13  C   UNL     1     -10.660   7.278  70.359  1.00  0.00    -0.226 C  
HETATM   14  C   UNL     1      -8.607   6.326  69.203  1.00  0.00    -0.120 A  
HETATM   15  F   UNL     1     -11.288   6.076  70.446  1.00  0.00    -0.374 F  
HETATM   16  N   UNL     1      -8.522   5.249  70.178  1.00  0.00    -0.107 N  
HETATM   17  F   UNL     1     -11.650   8.193  70.161  1.00  0.00    -0.214 F  
HETATM   18  C   UNL     1      -7.655   6.348  68.185  1.00  0.00    -0.103 A  
HETATM   19  F   UNL     1     -10.160   7.549  71.592  1.00  0.00    -0.183 F  
HETATM   20  C   UNL     1      -7.697   7.362  67.220  1.00  0.00    -0.116 A  
HETATM   21  O   UNL     1      -8.374   5.570  71.360  1.00  0.00    -0.122 OA 
HETATM   22  O   UNL     1      -8.571   4.094  69.738  1.00  0.00    -0.063 OA 
ENDBRANCH   6  10
TORSDOF 1
ENDMDL
MODEL      223
REMARK 921   NORMALIZED FREE ENERGY PREDICTED BY IDOCK:   -2.68 KCAL/MOL
REMARK 922        TOTAL FREE ENERGY PREDICTED BY IDOCK:   -3.01 KCAL/MOL
REMARK 923 INTER-LIGAND FREE ENERGY PREDICTED BY IDOCK:   -2.76 KCAL/MOL
REMARK 924 INTRA-LIGAND FREE ENERGY PREDICTED BY IDOCK:   -0.24 KCAL/MOL
REMARK 927      BINDING AFFINITY PREDICTED BY RF-SCORE:    0.00 PKD
ROOT
HETATM    1  C   UNL     1     -11.133  11.222  68.996  1.00  0.00    -0.301 C  
HETATM    2  C   UNL     1      -9.944  11.191  68.049  1.00  0.00    -0.176 C  
HETATM    3  N   UNL     1      -8.718  10.885  68.723  1.00  0.00    -0.160 NA 
HETATM    4  C   UNL     1      -9.805  12.485  67.251  1.00  0.00    -0.204 C  
HETATM    5  C   UNL     1      -8.011   9.888  68.086  1.00  0.00    -0.100 C  
HETATM    6  N   UNL     1      -8.807   9.320  67.114  1.00  0.00    -0.127 N  
HETATM    7  O   UNL     1      -6.863   9.637  68.413  1.00  0.00    -0.060 OA 
HETATM    8  C   UNL     1     -10.013  10.000  67.081  1.00  0.00    -0.201 C  
HETATM    9  O   UNL     1     -10.995   9.796  66.374  1.00  0.00     0.093 OA 
ENDROOT
BRANCH   6  10
HETATM   10  C   UNL     1      -8.444   8.216  66.275  1.00  0.00    -0.131 A  
HETATM   11  C   UNL     1      -9.194   7.019  66.254  1.00  0.00    -0.166 A  
HETATM   12  C   UNL     1      -8.854   5.915  65.435  1.00  0.00    -0.071 A  
HETATM   13  C   UNL     1      -9.705   4.671  65.448  1.00  0.00    -0.162 C  
HETATM   14  C   UNL     1      -7.732   6.036  64.612  1.00  0.00    -0.099 A  
HETATM   15  F   UNL     1     -10.107   4.309  64.201  1.00  0.00    -0.172 F  
HETATM   16  N   UNL     1      -7.320   4.954  63.730  1.00  0.00    -0.050 N  
HETATM   17  F   UNL     1     -10.850   4.811  66.174  1.00  0.00    -0.331 F  
HETATM   18  C   UNL     1      -6.967   7.201  64.599  1.00  0.00    -0.051 A  
HETATM   19  F   UNL     1      -9.069   3.596  65.981  1.00  0.00    -0.127 F  
HETATM   20  C   UNL     1      -7.324   8.272  65.428  1.00  0.00    -0.083 A  
HETATM   21  O   UNL     1      -7.043   3.873  64.257  1.00  0.00    -0.049 OA 
HETATM   22  O   UNL     1      -7.248   5.215  62.523  1.00  0.00    -0.036 OA 
ENDBRANCH   6  10
TORSDOF 1
ENDMDL
MODEL      224
REMARK 921   NORMALIZED FREE ENERGY PREDICTED BY IDOCK:   -2.52 KCAL/MOL
REMARK 922        TOTAL FREE ENERGY PREDICTED BY IDOCK:   -2.83 KCAL/MOL
REMARK 923 INTER-LIGAND FREE ENERGY PREDICTED BY IDOCK:   -3.18 KCAL/MOL
REMARK 924 INTRA-LIGAND FREE ENERGY PREDICTED BY IDOCK:    0.35 KCAL/MOL
REMARK 927      BINDING AFFINITY PREDICTED BY RF-SCORE:    0.00 PKD
ROOT
HETATM    1  C   UNL     1     -11.792  11.318  69.492  1.00  0.00    -0.427 C  
HETATM    2  C   UNL     1     -10.693  10.423  68.944  1.00  0.00    -0.224 C  
HETATM    3  N   UNL     1      -9.392  11.005  69.089  1.00  0.00    -0.089 NA 
HETATM    4  C   UNL     1     -10.940  10.026  67.490  1.00  0.00    -0.276 C  
HETATM    5  C   UNL     1      -8.489  10.125  69.646  1.00  0.00    -0.157 C  
HETATM    6  N   UNL     1      -9.167   9.018  70.111  1.00  0.00    -0.178 N  
HETATM    7  O   UNL     1      -7.299  10.389  69.665  1.00  0.00    -0.126 OA 
HETATM    8  C   UNL     1     -10.508   9.156  69.794  1.00  0.00    -0.223 C  
HETATM    9  O   UNL     1     -11.442   8.403  70.046  1.00  0.00    -0.090 OA 
ENDROOT
BRANCH   6  10
HETATM   10  C   UNL     1      -8.579   7.908  70.803  1.00  0.00    -0.132 A  
HETATM   11  C   UNL     1      -9.344   7.059  71.632  1.00  0.00    -0.158 A  
HETATM   12  C   UNL     1      -8.786   5.956  72.326  1.00  0.00    -0.128 A  
HETATM   13  C   UNL     1      -9.660   5.079  73.184  1.00  0.00    -0.140 C  
HETATM   14  C   UNL     1      -7.420   5.710  72.163  1.00  0.00    -0.099 A  
HETATM   15  F   UNL     1      -9.548   3.765  72.857  1.00  0.00    -0.132 F  
HETATM   16  N   UNL     1      -6.769   4.592  72.829  1.00  0.00    -0.050 N  
HETATM   17  F   UNL     1     -10.986   5.370  73.073  1.00  0.00    -0.245 F  
HETATM   18  C   UNL     1      -6.630   6.521  71.350  1.00  0.00    -0.054 A  
HETATM   19  F   UNL     1      -9.378   5.179  74.508  1.00  0.00    -0.117 F  
HETATM   20  C   UNL     1      -7.211   7.609  70.685  1.00  0.00    -0.062 A  
HETATM   21  O   UNL     1      -6.812   4.569  74.062  1.00  0.00    -0.061 OA 
HETATM   22  O   UNL     1      -6.194   3.769  72.106  1.00  0.00    -0.013 OA 
ENDBRANCH   6  10
TORSDOF 1
ENDMDL
MODEL      225
REMARK 921   NORMALIZED FREE ENERGY PREDICTED BY IDOCK:   -2.46 KCAL/MOL
REMARK 922        TOTAL FREE ENERGY PREDICTED BY IDOCK:   -2.77 KCAL/MOL
REMARK 923 INTER-LIGAND FREE ENERGY PREDICTED BY IDOCK:   -2.94 KCAL/MOL
REMARK 924 INTRA-LIGAND FREE ENERGY PREDICTED BY IDOCK:    0.17 KCAL/MOL
REMARK 927      BINDING AFFINITY PREDICTED BY RF-SCORE:    0.00 PKD
ROOT
HETATM    1  C   UNL     1      -9.951  11.294  68.384  1.00  0.00    -0.201 C  
HETATM    2  C   UNL     1      -9.792   9.806  68.117  1.00  0.00    -0.148 C  
HETATM    3  N   UNL     1      -8.422   9.427  67.942  1.00  0.00    -0.116 NA 
HETATM    4  C   UNL     1     -10.630   9.339  66.928  1.00  0.00    -0.239 C  
HETATM    5  C   UNL     1      -8.085   8.333  68.710  1.00  0.00    -0.115 C  
HETATM    6  N   UNL     1      -9.110   8.070  69.595  1.00  0.00    -0.152 N  
HETATM    7  O   UNL     1      -7.020   7.763  68.542  1.00  0.00    -0.067 OA 
HETATM    8  C   UNL     1     -10.142   8.961  69.350  1.00  0.00    -0.202 C  
HETATM    9  O   UNL     1     -11.218   9.072  69.928  1.00  0.00    -0.195 OA 
ENDROOT
BRANCH   6  10
HETATM   10  C   UNL     1      -9.108   7.043  70.595  1.00  0.00    -0.158 A  
HETATM   11  C   UNL     1      -7.923   6.645  71.251  1.00  0.00    -0.107 A  
HETATM   12  C   UNL     1      -7.896   5.633  72.241  1.00  0.00    -0.103 A  
HETATM   13  C   UNL     1      -6.599   5.264  72.914  1.00  0.00    -0.069 C  
HETATM   14  C   UNL     1      -9.106   5.019  72.577  1.00  0.00    -0.132 A  
HETATM   15  F   UNL     1      -6.689   5.319  74.269  1.00  0.00    -0.068 F  
HETATM   16  N   UNL     1      -9.170   3.979  73.593  1.00  0.00    -0.097 N  
HETATM   17  F   UNL     1      -5.569   6.092  72.584  1.00  0.00    -0.032 F  
HETATM   18  C   UNL     1     -10.299   5.386  71.957  1.00  0.00    -0.268 A  
HETATM   19  F   UNL     1      -6.172   4.014  72.600  1.00  0.00    -0.013 F  
HETATM   20  C   UNL     1     -10.290   6.384  70.975  1.00  0.00    -0.247 A  
HETATM   21  O   UNL     1      -8.498   2.962  73.400  1.00  0.00    -0.071 OA 
HETATM   22  O   UNL     1      -9.920   4.184  74.554  1.00  0.00    -0.141 OA 
ENDBRANCH   6  10
TORSDOF 1
ENDMDL
MODEL      226
REMARK 921   NORMALIZED FREE ENERGY PREDICTED BY IDOCK:   -2.39 KCAL/MOL
REMARK 922        TOTAL FREE ENERGY PREDICTED BY IDOCK:   -2.70 KCAL/MOL
REMARK 923 INTER-LIGAND FREE ENERGY PREDICTED BY IDOCK:   -2.26 KCAL/MOL
REMARK 924 INTRA-LIGAND FREE ENERGY PREDICTED BY IDOCK:   -0.44 KCAL/MOL
REMARK 927      BINDING AFFINITY PREDICTED BY RF-SCORE:    0.00 PKD
ROOT
HETATM    1  C   UNL     1      -9.707  11.065  68.462  1.00  0.00    -0.189 C  
HETATM    2  C   UNL     1      -9.507   9.666  67.901  1.00  0.00    -0.131 C  
HETATM    3  N   UNL     1      -8.158   9.437  67.476  1.00  0.00    -0.109 NA 
HETATM    4  C   UNL     1     -10.484   9.350  66.770  1.00  0.00    -0.265 C  
HETATM    5  C   UNL     1      -7.652   8.255  67.973  1.00  0.00    -0.102 C  
HETATM    6  N   UNL     1      -8.519   7.757  68.922  1.00  0.00    -0.128 N  
HETATM    7  O   UNL     1      -6.593   7.813  67.559  1.00  0.00    -0.059 OA 
HETATM    8  C   UNL     1      -9.623   8.589  68.990  1.00  0.00    -0.167 C  
HETATM    9  O   UNL     1     -10.607   8.508  69.718  1.00  0.00    -0.222 OA 
ENDROOT
BRANCH   6  10
HETATM   10  C   UNL     1      -8.313   6.572  69.703  1.00  0.00    -0.131 A  
HETATM   11  C   UNL     1      -8.923   5.344  69.367  1.00  0.00    -0.124 A  
HETATM   12  C   UNL     1      -8.735   4.160  70.123  1.00  0.00    -0.117 A  
HETATM   13  C   UNL     1      -9.404   2.878  69.702  1.00  0.00    -0.135 C  
HETATM   14  C   UNL     1      -7.900   4.229  71.240  1.00  0.00    -0.072 A  
HETATM   15  F   UNL     1      -8.520   1.853  69.578  1.00  0.00    -0.060 F  
HETATM   16  N   UNL     1      -7.642   3.057  72.064  1.00  0.00    -0.052 N  
HETATM   17  F   UNL     1     -10.029   2.969  68.495  1.00  0.00    -0.134 F  
HETATM   18  C   UNL     1      -7.274   5.420  71.604  1.00  0.00    -0.084 A  
HETATM   19  F   UNL     1     -10.361   2.465  70.573  1.00  0.00     0.188 F  
HETATM   20  C   UNL     1      -7.488   6.575  70.841  1.00  0.00    -0.084 A  
HETATM   21  O   UNL     1      -8.615   2.520  72.599  1.00  0.00    -0.066 OA 
HETATM   22  O   UNL     1      -6.460   2.713  72.191  1.00  0.00    -0.014 OA 
ENDBRANCH   6  10
TORSDOF 1
ENDMDL
MODEL      227
REMARK 921   NORMALIZED FREE ENERGY PREDICTED BY IDOCK:   -2.35 KCAL/MOL
REMARK 922        TOTAL FREE ENERGY PREDICTED BY IDOCK:   -2.65 KCAL/MOL
REMARK 923 INTER-LIGAND FREE ENERGY PREDICTED BY IDOCK:   -2.33 KCAL/MOL
REMARK 924 INTRA-LIGAND FREE ENERGY PREDICTED BY IDOCK:   -0.32 KCAL/MOL
REMARK 927      BINDING AFFINITY PREDICTED BY RF-SCORE:    0.00 PKD
ROOT
HETATM    1  C   UNL     1      -5.914   3.007  70.661  1.00  0.00    -0.018 C  
HETATM    2  C   UNL     1      -6.684   2.979  69.351  1.00  0.00    -0.034 C  
HETATM    3  N   UNL     1      -8.098   3.103  69.546  1.00  0.00    -0.048 NA 
HETATM    4  C   UNL     1      -6.367   1.737  68.519  1.00  0.00    -0.025 C  
HETATM    5  C   UNL     1      -8.653   4.061  68.726  1.00  0.00    -0.089 C  
HETATM    6  N   UNL     1      -7.641   4.779  68.122  1.00  0.00    -0.080 N  
HETATM    7  O   UNL     1      -9.864   4.163  68.624  1.00  0.00    -0.122 OA 
HETATM    8  C   UNL     1      -6.427   4.236  68.506  1.00  0.00    -0.037 C  
HETATM    9  O   UNL     1      -5.293   4.594  68.207  1.00  0.00    -0.010 OA 
ENDROOT
BRANCH   6  10
HETATM   10  C   UNL     1      -7.820   5.895  67.241  1.00  0.00    -0.102 A  
HETATM   11  C   UNL     1      -8.416   7.099  67.675  1.00  0.00    -0.120 A  
HETATM   12  C   UNL     1      -8.603   8.215  66.823  1.00  0.00    -0.136 A  
HETATM   13  C   UNL     1      -9.233   9.477  67.353  1.00  0.00    -0.133 C  
HETATM   14  C   UNL     1      -8.165   8.104  65.501  1.00  0.00    -0.144 A  
HETATM   15  F   UNL     1      -8.467  10.574  67.114  1.00  0.00    -0.124 F  
HETATM   16  N   UNL     1      -8.307   9.207  64.562  1.00  0.00    -0.159 N  
HETATM   17  F   UNL     1      -9.427   9.455  68.702  1.00  0.00    -0.142 F  
HETATM   18  C   UNL     1      -7.568   6.935  65.032  1.00  0.00    -0.104 A  
HETATM   19  F   UNL     1     -10.455   9.728  66.818  1.00  0.00    -0.284 F  
HETATM   20  C   UNL     1      -7.405   5.846  65.898  1.00  0.00    -0.076 A  
HETATM   21  O   UNL     1      -9.451   9.613  64.341  1.00  0.00    -0.234 OA 
HETATM   22  O   UNL     1      -7.271   9.628  64.034  1.00  0.00    -0.108 OA 
ENDBRANCH   6  10
TORSDOF 1
ENDMDL
MODEL      228
REMARK 921   NORMALIZED FREE ENERGY PREDICTED BY IDOCK:   -2.34 KCAL/MOL
REMARK 922        TOTAL FREE ENERGY PREDICTED BY IDOCK:   -2.64 KCAL/MOL
REMARK 923 INTER-LIGAND FREE ENERGY PREDICTED BY IDOCK:   -2.32 KCAL/MOL
REMARK 924 INTRA-LIGAND FREE ENERGY PREDICTED BY IDOCK:   -0.32 KCAL/MOL
REMARK 927      BINDING AFFINITY PREDICTED BY RF-SCORE:    0.00 PKD
ROOT
HETATM    1  C   UNL     1      -8.797  12.085  68.761  1.00  0.00     0.079 C  
HETATM    2  C   UNL     1      -8.649  11.617  67.322  1.00  0.00    -0.154 C  
HETATM    3  N   UNL     1      -7.284  11.605  66.890  1.00  0.00    -0.143 NA 
HETATM    4  C   UNL     1      -9.507  12.433  66.357  1.00  0.00    -0.240 C  
HETATM    5  C   UNL     1      -6.941  10.414  66.287  1.00  0.00    -0.118 C  
HETATM    6  N   UNL     1      -7.954   9.500  66.486  1.00  0.00    -0.111 N  
HETATM    7  O   UNL     1      -5.881  10.303  65.693  1.00  0.00    -0.075 OA 
HETATM    8  C   UNL     1      -8.985  10.126  67.166  1.00  0.00    -0.135 C  
HETATM    9  O   UNL     1     -10.052   9.659  67.549  1.00  0.00    -0.173 OA 
ENDROOT
BRANCH   6  10
HETATM   10  C   UNL     1      -7.943   8.133  66.055  1.00  0.00    -0.100 A  
HETATM   11  C   UNL     1      -7.951   7.062  66.976  1.00  0.00    -0.116 A  
HETATM   12  C   UNL     1      -7.940   5.704  66.575  1.00  0.00    -0.101 A  
HETATM   13  C   UNL     1      -7.964   4.607  67.608  1.00  0.00    -0.093 C  
HETATM   14  C   UNL     1      -7.928   5.430  65.205  1.00  0.00    -0.111 A  
HETATM   15  F   UNL     1      -8.968   3.718  67.391  1.00  0.00    -0.112 F  
HETATM   16  N   UNL     1      -7.929   4.063  64.706  1.00  0.00    -0.089 N  
HETATM   17  F   UNL     1      -8.154   5.069  68.876  1.00  0.00    -0.081 F  
HETATM   18  C   UNL     1      -7.925   6.457  64.262  1.00  0.00    -0.102 A  
HETATM   19  F   UNL     1      -6.810   3.893  67.655  1.00  0.00    -0.049 F  
HETATM   20  C   UNL     1      -7.927   7.791  64.692  1.00  0.00    -0.136 A  
HETATM   21  O   UNL     1      -6.986   3.341  65.043  1.00  0.00    -0.054 OA 
HETATM   22  O   UNL     1      -8.859   3.743  63.956  1.00  0.00    -0.101 OA 
ENDBRANCH   6  10
TORSDOF 1
ENDMDL
MODEL      229
REMARK 921   NORMALIZED FREE ENERGY PREDICTED BY IDOCK:   -2.32 KCAL/MOL
REMARK 922        TOTAL FREE ENERGY PREDICTED BY IDOCK:   -2.62 KCAL/MOL
REMARK 923 INTER-LIGAND FREE ENERGY PREDICTED BY IDOCK:   -3.03 KCAL/MOL
REMARK 924 INTRA-LIGAND FREE ENERGY PREDICTED BY IDOCK:    0.41 KCAL/MOL
REMARK 927      BINDING AFFINITY PREDICTED BY RF-SCORE:    0.00 PKD
ROOT
HETATM    1  C   UNL     1      -8.727   8.919  70.978  1.00  0.00    -0.276 C  
HETATM    2  C   UNL     1      -9.176   7.558  70.472  1.00  0.00    -0.157 C  
HETATM    3  N   UNL     1     -10.418   7.623  69.762  1.00  0.00    -0.227 NA 
HETATM    4  C   UNL     1      -9.255   6.522  71.592  1.00  0.00    -0.143 C  
HETATM    5  C   UNL     1     -10.357   6.969  68.550  1.00  0.00    -0.186 C  
HETATM    6  N   UNL     1      -9.044   6.643  68.279  1.00  0.00    -0.125 N  
HETATM    7  O   UNL     1     -11.372   6.762  67.906  1.00  0.00    -0.148 OA 
HETATM    8  C   UNL     1      -8.263   7.032  69.355  1.00  0.00    -0.132 C  
HETATM    9  O   UNL     1      -7.049   6.938  69.500  1.00  0.00    -0.070 OA 
ENDROOT
BRANCH   6  10
HETATM   10  C   UNL     1      -8.571   6.004  67.087  1.00  0.00    -0.106 A  
HETATM   11  C   UNL     1      -9.440   5.303  66.222  1.00  0.00    -0.166 A  
HETATM   12  C   UNL     1      -8.995   4.663  65.039  1.00  0.00    -0.152 A  
HETATM   13  C   UNL     1      -9.977   3.943  64.151  1.00  0.00    -0.191 C  
HETATM   14  C   UNL     1      -7.636   4.747  64.726  1.00  0.00    -0.077 A  
HETATM   15  F   UNL     1      -9.910   4.367  62.862  1.00  0.00    -0.152 F  
HETATM   16  N   UNL     1      -7.098   4.130  63.523  1.00  0.00    -0.045 N  
HETATM   17  F   UNL     1     -11.274   4.124  64.528  1.00  0.00    -0.352 F  
HETATM   18  C   UNL     1      -6.745   5.433  65.549  1.00  0.00    -0.041 A  
HETATM   19  F   UNL     1      -9.791   2.598  64.132  1.00  0.00    -0.142 F  
HETATM   20  C   UNL     1      -7.215   6.048  66.717  1.00  0.00    -0.071 A  
HETATM   21  O   UNL     1      -7.235   2.909  63.407  1.00  0.00    -0.046 OA 
HETATM   22  O   UNL     1      -6.515   4.875  62.726  1.00  0.00    -0.025 OA 
ENDBRANCH   6  10
TORSDOF 1
ENDMDL
MODEL      230
REMARK 921   NORMALIZED FREE ENERGY PREDICTED BY IDOCK:   -2.31 KCAL/MOL
REMARK 922        TOTAL FREE ENERGY PREDICTED BY IDOCK:   -2.61 KCAL/MOL
REMARK 923 INTER-LIGAND FREE ENERGY PREDICTED BY IDOCK:   -2.20 KCAL/MOL
REMARK 924 INTRA-LIGAND FREE ENERGY PREDICTED BY IDOCK:   -0.41 KCAL/MOL
REMARK 927      BINDING AFFINITY PREDICTED BY RF-SCORE:    0.00 PKD
ROOT
HETATM    1  C   UNL     1      -7.372  10.537  65.053  1.00  0.00    -0.003 C  
HETATM    2  C   UNL     1      -7.634  10.341  66.537  1.00  0.00    -0.113 C  
HETATM    3  N   UNL     1      -9.032  10.309  66.845  1.00  0.00    -0.136 NA 
HETATM    4  C   UNL     1      -6.923  11.387  67.394  1.00  0.00    -0.106 C  
HETATM    5  C   UNL     1      -9.364   9.231  67.638  1.00  0.00    -0.128 C  
HETATM    6  N   UNL     1      -8.286   8.375  67.709  1.00  0.00    -0.125 N  
HETATM    7  O   UNL     1     -10.469   9.156  68.149  1.00  0.00    -0.211 OA 
HETATM    8  C   UNL     1      -7.230   8.936  67.010  1.00  0.00    -0.079 C  
HETATM    9  O   UNL     1      -6.106   8.486  66.818  1.00  0.00    -0.052 OA 
ENDROOT
BRANCH   6  10
HETATM   10  C   UNL     1      -8.261   7.117  68.396  1.00  0.00    -0.125 A  
HETATM   11  C   UNL     1      -8.320   5.888  67.703  1.00  0.00    -0.104 A  
HETATM   12  C   UNL     1      -8.298   4.633  68.360  1.00  0.00    -0.091 A  
HETATM   13  C   UNL     1      -8.349   3.357  67.560  1.00  0.00    -0.086 C  
HETATM   14  C   UNL     1      -8.205   4.631  69.754  1.00  0.00    -0.067 A  
HETATM   15  F   UNL     1      -7.329   2.514  67.871  1.00  0.00    -0.050 F  
HETATM   16  N   UNL     1      -8.164   3.386  70.507  1.00  0.00    -0.052 N  
HETATM   17  F   UNL     1      -8.256   3.562  66.216  1.00  0.00    -0.096 F  
HETATM   18  C   UNL     1      -8.140   5.821  70.477  1.00  0.00    -0.110 A  
HETATM   19  F   UNL     1      -9.501   2.662  67.740  1.00  0.00    -0.217 F  
HETATM   20  C   UNL     1      -8.173   7.046  69.798  1.00  0.00    -0.131 A  
HETATM   21  O   UNL     1      -9.127   2.624  70.388  1.00  0.00    -0.087 OA 
HETATM   22  O   UNL     1      -7.179   3.206  71.234  1.00  0.00    -0.032 OA 
ENDBRANCH   6  10
TORSDOF 1
ENDMDL
MODEL      231
REMARK 921   NORMALIZED FREE ENERGY PREDICTED BY IDOCK:   -2.30 KCAL/MOL
REMARK 922        TOTAL FREE ENERGY PREDICTED BY IDOCK:   -2.60 KCAL/MOL
REMARK 923 INTER-LIGAND FREE ENERGY PREDICTED BY IDOCK:   -2.68 KCAL/MOL
REMARK 924 INTRA-LIGAND FREE ENERGY PREDICTED BY IDOCK:    0.08 KCAL/MOL
REMARK 927      BINDING AFFINITY PREDICTED BY RF-SCORE:    0.00 PKD
ROOT
HETATM    1  C   UNL     1      -7.543   6.738  72.748  1.00  0.00    -0.091 C  
HETATM    2  C   UNL     1      -8.500   7.509  71.854  1.00  0.00    -0.107 C  
HETATM    3  N   UNL     1      -8.108   8.876  71.686  1.00  0.00    -0.329 NA 
HETATM    4  C   UNL     1      -9.945   7.424  72.343  1.00  0.00    -0.221 C  
HETATM    5  C   UNL     1      -8.105   9.256  70.361  1.00  0.00    -0.160 C  
HETATM    6  N   UNL     1      -8.259   8.137  69.571  1.00  0.00    -0.119 N  
HETATM    7  O   UNL     1      -7.982  10.430  70.054  1.00  0.00    -0.103 OA 
HETATM    8  C   UNL     1      -8.428   7.036  70.394  1.00  0.00    -0.141 C  
HETATM    9  O   UNL     1      -8.576   5.858  70.087  1.00  0.00    -0.129 OA 
ENDROOT
BRANCH   6  10
HETATM   10  C   UNL     1      -8.252   8.118  68.138  1.00  0.00    -0.129 A  
HETATM   11  C   UNL     1      -7.383   8.941  67.387  1.00  0.00    -0.081 A  
HETATM   12  C   UNL     1      -7.358   8.940  65.970  1.00  0.00    -0.090 A  
HETATM   13  C   UNL     1      -6.397   9.832  65.228  1.00  0.00    -0.088 C  
HETATM   14  C   UNL     1      -8.231   8.076  65.305  1.00  0.00    -0.146 A  
HETATM   15  F   UNL     1      -5.640   9.142  64.335  1.00  0.00    -0.062 F  
HETATM   16  N   UNL     1      -8.261   8.003  63.852  1.00  0.00    -0.096 N  
HETATM   17  F   UNL     1      -5.510  10.464  66.048  1.00  0.00    -0.045 F  
HETATM   18  C   UNL     1      -9.101   7.244  66.007  1.00  0.00    -0.117 A  
HETATM   19  F   UNL     1      -7.015  10.823  64.536  1.00  0.00    -0.017 F  
HETATM   20  C   UNL     1      -9.108   7.275  67.408  1.00  0.00    -0.127 A  
HETATM   21  O   UNL     1      -8.534   9.040  63.242  1.00  0.00    -0.193 OA 
HETATM   22  O   UNL     1      -8.044   6.896  63.344  1.00  0.00    -0.096 OA 
ENDBRANCH   6  10
TORSDOF 1
ENDMDL
MODEL      232
REMARK 921   NORMALIZED FREE ENERGY PREDICTED BY IDOCK:   -2.07 KCAL/MOL
REMARK 922        TOTAL FREE ENERGY PREDICTED BY IDOCK:   -2.36 KCAL/MOL
REMARK 923 INTER-LIGAND FREE ENERGY PREDICTED BY IDOCK:   -1.95 KCAL/MOL
REMARK 924 INTRA-LIGAND FREE ENERGY PREDICTED BY IDOCK:   -0.41 KCAL/MOL
REMARK 927      BINDING AFFINITY PREDICTED BY RF-SCORE:    0.00 PKD
ROOT
HETATM    1  C   UNL     1      -5.910   3.003  70.662  1.00  0.00    -0.017 C  
HETATM    2  C   UNL     1      -6.677   2.963  69.350  1.00  0.00    -0.034 C  
HETATM    3  N   UNL     1      -8.091   3.088  69.541  1.00  0.00    -0.048 NA 
HETATM    4  C   UNL     1      -6.358   1.714  68.530  1.00  0.00    -0.025 C  
HETATM    5  C   UNL     1      -8.644   4.039  68.710  1.00  0.00    -0.089 C  
HETATM    6  N   UNL     1      -7.631   4.752  68.103  1.00  0.00    -0.080 N  
HETATM    7  O   UNL     1      -9.855   4.140  68.605  1.00  0.00    -0.122 OA 
HETATM    8  C   UNL     1      -6.417   4.213  68.496  1.00  0.00    -0.037 C  
HETATM    9  O   UNL     1      -5.283   4.569  68.196  1.00  0.00    -0.006 OA 
ENDROOT
BRANCH   6  10
HETATM   10  C   UNL     1      -7.807   5.860  67.212  1.00  0.00    -0.102 A  
HETATM   11  C   UNL     1      -7.552   5.750  65.827  1.00  0.00    -0.090 A  
HETATM   12  C   UNL     1      -7.718   6.831  64.927  1.00  0.00    -0.110 A  
HETATM   13  C   UNL     1      -7.443   6.644  63.458  1.00  0.00    -0.080 C  
HETATM   14  C   UNL     1      -8.162   8.049  65.448  1.00  0.00    -0.151 A  
HETATM   15  F   UNL     1      -8.493   7.027  62.684  1.00  0.00    -0.098 F  
HETATM   16  N   UNL     1      -8.372   9.207  64.592  1.00  0.00    -0.163 N  
HETATM   17  F   UNL     1      -7.195   5.347  63.119  1.00  0.00    -0.039 F  
HETATM   18  C   UNL     1      -8.430   8.200  66.808  1.00  0.00    -0.123 A  
HETATM   19  F   UNL     1      -6.362   7.342  63.024  1.00  0.00    -0.050 F  
HETATM   20  C   UNL     1      -8.247   7.113  67.673  1.00  0.00    -0.114 A  
HETATM   21  O   UNL     1      -7.396   9.625  63.962  1.00  0.00    -0.111 OA 
HETATM   22  O   UNL     1      -9.505   9.702  64.590  1.00  0.00    -0.263 OA 
ENDBRANCH   6  10
TORSDOF 1
ENDMDL
MODEL      233
REMARK 921   NORMALIZED FREE ENERGY PREDICTED BY IDOCK:   -1.21 KCAL/MOL
REMARK 922        TOTAL FREE ENERGY PREDICTED BY IDOCK:   -1.45 KCAL/MOL
REMARK 923 INTER-LIGAND FREE ENERGY PREDICTED BY IDOCK:   -1.86 KCAL/MOL
REMARK 924 INTRA-LIGAND FREE ENERGY PREDICTED BY IDOCK:    0.41 KCAL/MOL
REMARK 927      BINDING AFFINITY PREDICTED BY RF-SCORE:    0.00 PKD
ROOT
HETATM    1  C   UNL     1     -13.389  12.100  70.537  1.00  0.00     0.980 C  
HETATM    2  C   UNL     1     -11.928  12.248  70.146  1.00  0.00    -0.298 C  
HETATM    3  N   UNL     1     -11.142  11.117  70.538  1.00  0.00     0.193 NA 
HETATM    4  C   UNL     1     -11.313  13.538  70.685  1.00  0.00     0.584 C  
HETATM    5  C   UNL     1     -10.360  10.646  69.505  1.00  0.00    -0.182 C  
HETATM    6  N   UNL     1     -10.742  11.264  68.333  1.00  0.00    -0.191 N  
HETATM    7  O   UNL     1      -9.493   9.814  69.714  1.00  0.00    -0.201 OA 
HETATM    8  C   UNL     1     -11.732  12.187  68.624  1.00  0.00    -0.330 C  
HETATM    9  O   UNL     1     -12.347  12.925  67.862  1.00  0.00    -0.141 OA 
ENDROOT
BRANCH   6  10
HETATM   10  C   UNL     1     -10.200  10.998  67.033  1.00  0.00    -0.211 A  
HETATM   11  C   UNL     1      -8.966  10.334  66.863  1.00  0.00    -0.149 A  
HETATM   12  C   UNL     1      -8.410  10.060  65.588  1.00  0.00    -0.148 A  
HETATM   13  C   UNL     1      -7.094   9.335  65.475  1.00  0.00    -0.086 C  
HETATM   14  C   UNL     1      -9.132  10.465  64.463  1.00  0.00    -0.229 A  
HETATM   15  F   UNL     1      -7.175   8.247  64.665  1.00  0.00    -0.074 F  
HETATM   16  N   UNL     1      -8.640  10.212  63.117  1.00  0.00    -0.175 N  
HETATM   17  F   UNL     1      -6.634   8.867  66.669  1.00  0.00    -0.060 F  
HETATM   18  C   UNL     1     -10.357  11.118  64.587  1.00  0.00    -0.393 A  
HETATM   19  F   UNL     1      -6.096  10.114  64.985  1.00  0.00    -0.087 F  
HETATM   20  C   UNL     1     -10.875  11.382  65.861  1.00  0.00    -0.292 A  
HETATM   21  O   UNL     1      -7.548  10.701  62.816  1.00  0.00    -0.127 OA 
HETATM   22  O   UNL     1      -9.373   9.554  62.370  1.00  0.00    -0.245 OA 
ENDBRANCH   6  10
TORSDOF 1
ENDMDL
MODEL      234
REMARK 921   NORMALIZED FREE ENERGY PREDICTED BY IDOCK:   -1.21 KCAL/MOL
REMARK 922        TOTAL FREE ENERGY PREDICTED BY IDOCK:   -1.44 KCAL/MOL
REMARK 923 INTER-LIGAND FREE ENERGY PREDICTED BY IDOCK:   -1.00 KCAL/MOL
REMARK 924 INTRA-LIGAND FREE ENERGY PREDICTED BY IDOCK:   -0.44 KCAL/MOL
REMARK 927      BINDING AFFINITY PREDICTED BY RF-SCORE:    0.00 PKD
ROOT
HETATM    1  C   UNL     1     -10.709  12.231  63.853  1.00  0.00    -0.463 C  
HETATM    2  C   UNL     1      -9.532  11.675  64.638  1.00  0.00    -0.046 C  
HETATM    3  N   UNL     1      -9.336  12.356  65.882  1.00  0.00    -0.129 NA 
HETATM    4  C   UNL     1      -8.241  11.674  63.821  1.00  0.00     1.315 C  
HETATM    5  C   UNL     1      -9.199  11.479  66.937  1.00  0.00    -0.176 C  
HETATM    6  N   UNL     1      -9.523  10.208  66.512  1.00  0.00    -0.164 N  
HETATM    7  O   UNL     1      -8.837  11.879  68.031  1.00  0.00    -0.163 OA 
HETATM    8  C   UNL     1      -9.807  10.256  65.157  1.00  0.00    -0.321 C  
HETATM    9  O   UNL     1     -10.154   9.348  64.410  1.00  0.00     0.676 OA 
ENDROOT
BRANCH   6  10
HETATM   10  C   UNL     1      -9.554   9.034  67.334  1.00  0.00    -0.152 A  
HETATM   11  C   UNL     1      -8.456   8.150  67.410  1.00  0.00    -0.126 A  
HETATM   12  C   UNL     1      -8.463   6.983  68.215  1.00  0.00    -0.123 A  
HETATM   13  C   UNL     1      -7.253   6.088  68.263  1.00  0.00    -0.084 C  
HETATM   14  C   UNL     1      -9.612   6.718  68.964  1.00  0.00    -0.135 A  
HETATM   15  F   UNL     1      -6.832   5.861  69.536  1.00  0.00    -0.052 F  
HETATM   16  N   UNL     1      -9.699   5.549  69.827  1.00  0.00    -0.164 N  
HETATM   17  F   UNL     1      -6.175   6.606  67.610  1.00  0.00    -0.029 F  
HETATM   18  C   UNL     1     -10.716   7.567  68.921  1.00  0.00    -0.135 A  
HETATM   19  F   UNL     1      -7.466   4.872  67.699  1.00  0.00    -0.074 F  
HETATM   20  C   UNL     1     -10.680   8.708  68.109  1.00  0.00    -0.116 A  
HETATM   21  O   UNL     1      -9.573   4.444  69.292  1.00  0.00    -0.165 OA 
HETATM   22  O   UNL     1      -9.927   5.755  71.025  1.00  0.00    -0.178 OA 
ENDBRANCH   6  10
TORSDOF 1
ENDMDL
MODEL      235
REMARK 921   NORMALIZED FREE ENERGY PREDICTED BY IDOCK:   -1.02 KCAL/MOL
REMARK 922        TOTAL FREE ENERGY PREDICTED BY IDOCK:   -1.25 KCAL/MOL
REMARK 923 INTER-LIGAND FREE ENERGY PREDICTED BY IDOCK:   -1.14 KCAL/MOL
REMARK 924 INTRA-LIGAND FREE ENERGY PREDICTED BY IDOCK:   -0.11 KCAL/MOL
REMARK 927      BINDING AFFINITY PREDICTED BY RF-SCORE:    0.00 PKD
ROOT
HETATM    1  C   UNL     1      -6.257   7.521  62.803  1.00  0.00    -0.059 C  
HETATM    2  C   UNL     1      -7.194   6.790  63.751  1.00  0.00    -0.065 C  
HETATM    3  N   UNL     1      -6.729   5.472  64.068  1.00  0.00    -0.041 NA 
HETATM    4  C   UNL     1      -8.626   6.738  63.223  1.00  0.00     0.458 C  
HETATM    5  C   UNL     1      -6.743   5.231  65.425  1.00  0.00    -0.045 C  
HETATM    6  N   UNL     1      -6.983   6.414  66.091  1.00  0.00    -0.064 N  
HETATM    7  O   UNL     1      -6.563   4.103  65.854  1.00  0.00    -0.039 OA 
HETATM    8  C   UNL     1      -7.190   7.413  65.155  1.00  0.00    -0.066 C  
HETATM    9  O   UNL     1      -7.414   8.605  65.335  1.00  0.00    -0.083 OA 
ENDROOT
BRANCH   6  10
HETATM   10  C   UNL     1      -7.017   6.579  67.515  1.00  0.00    -0.078 A  
HETATM   11  C   UNL     1      -7.789   5.735  68.344  1.00  0.00    -0.101 A  
HETATM   12  C   UNL     1      -7.839   5.879  69.752  1.00  0.00    -0.100 A  
HETATM   13  C   UNL     1      -8.671   4.936  70.582  1.00  0.00    -0.116 C  
HETATM   14  C   UNL     1      -7.080   6.901  70.329  1.00  0.00    -0.067 A  
HETATM   15  F   UNL     1      -7.952   4.357  71.579  1.00  0.00    -0.074 F  
HETATM   16  N   UNL     1      -7.064   7.110  71.769  1.00  0.00    -0.068 N  
HETATM   17  F   UNL     1      -9.191   3.904  69.861  1.00  0.00    -0.143 F  
HETATM   18  C   UNL     1      -6.301   7.752  69.548  1.00  0.00    -0.034 A  
HETATM   19  F   UNL     1      -9.737   5.540  71.167  1.00  0.00    -0.181 F  
HETATM   20  C   UNL     1      -6.280   7.589  68.156  1.00  0.00    -0.040 A  
HETATM   21  O   UNL     1      -8.143   7.358  72.313  1.00  0.00    -0.098 OA 
HETATM   22  O   UNL     1      -5.962   7.057  72.328  1.00  0.00    -0.038 OA 
ENDBRANCH   6  10
TORSDOF 1
ENDMDL
MODEL      236
REMARK 921   NORMALIZED FREE ENERGY PREDICTED BY IDOCK:   -0.70 KCAL/MOL
REMARK 922        TOTAL FREE ENERGY PREDICTED BY IDOCK:   -0.91 KCAL/MOL
REMARK 923 INTER-LIGAND FREE ENERGY PREDICTED BY IDOCK:   -0.49 KCAL/MOL
REMARK 924 INTRA-LIGAND FREE ENERGY PREDICTED BY IDOCK:   -0.42 KCAL/MOL
REMARK 927      BINDING AFFINITY PREDICTED BY RF-SCORE:    0.00 PKD
ROOT
HETATM    1  C   UNL     1     -12.949  12.524  69.251  1.00  0.00     1.553 C  
HETATM    2  C   UNL     1     -12.424  11.685  70.405  1.00  0.00    -0.221 C  
HETATM    3  N   UNL     1     -13.213  10.511  70.629  1.00  0.00    -0.227 NA 
HETATM    4  C   UNL     1     -12.293  12.493  71.695  1.00  0.00     0.193 C  
HETATM    5  C   UNL     1     -12.437   9.376  70.730  1.00  0.00    -0.081 C  
HETATM    6  N   UNL     1     -11.145   9.679  70.355  1.00  0.00    -0.268 N  
HETATM    7  O   UNL     1     -12.924   8.324  71.108  1.00  0.00    -0.198 OA 
HETATM    8  C   UNL     1     -11.074  11.033  70.072  1.00  0.00    -0.161 C  
HETATM    9  O   UNL     1     -10.114  11.692  69.689  1.00  0.00     0.346 OA 
ENDROOT
BRANCH   6  10
HETATM   10  C   UNL     1     -10.057   8.749  70.276  1.00  0.00    -0.191 A  
HETATM   11  C   UNL     1      -9.390   8.283  71.430  1.00  0.00    -0.223 A  
HETATM   12  C   UNL     1      -8.313   7.365  71.378  1.00  0.00    -0.112 A  
HETATM   13  C   UNL     1      -7.653   6.896  72.648  1.00  0.00    -0.090 C  
HETATM   14  C   UNL     1      -7.913   6.903  70.121  1.00  0.00    -0.115 A  
HETATM   15  F   UNL     1      -7.612   5.541  72.737  1.00  0.00    -0.091 F  
HETATM   16  N   UNL     1      -6.824   5.949  69.978  1.00  0.00    -0.055 N  
HETATM   17  F   UNL     1      -8.296   7.316  73.774  1.00  0.00    -0.136 F  
HETATM   18  C   UNL     1      -8.547   7.333  68.957  1.00  0.00    -0.129 A  
HETATM   19  F   UNL     1      -6.375   7.336  72.779  1.00  0.00    -0.054 F  
HETATM   20  C   UNL     1      -9.603   8.250  69.042  1.00  0.00    -0.156 A  
HETATM   21  O   UNL     1      -5.718   6.288  70.406  1.00  0.00    -0.017 OA 
HETATM   22  O   UNL     1      -7.087   4.884  69.405  1.00  0.00    -0.053 OA 
ENDBRANCH   6  10
TORSDOF 1
ENDMDL
MODEL      237
REMARK 921   NORMALIZED FREE ENERGY PREDICTED BY IDOCK:   -0.62 KCAL/MOL
REMARK 922        TOTAL FREE ENERGY PREDICTED BY IDOCK:   -0.83 KCAL/MOL
REMARK 923 INTER-LIGAND FREE ENERGY PREDICTED BY IDOCK:   -1.25 KCAL/MOL
REMARK 924 INTRA-LIGAND FREE ENERGY PREDICTED BY IDOCK:    0.43 KCAL/MOL
REMARK 927      BINDING AFFINITY PREDICTED BY RF-SCORE:    0.00 PKD
ROOT
HETATM    1  C   UNL     1     -12.603  12.265  69.259  1.00  0.00     0.530 C  
HETATM    2  C   UNL     1     -12.328  11.376  70.461  1.00  0.00    -0.349 C  
HETATM    3  N   UNL     1     -13.314  10.350  70.617  1.00  0.00    -0.163 NA 
HETATM    4  C   UNL     1     -12.182  12.178  71.753  1.00  0.00     0.603 C  
HETATM    5  C   UNL     1     -12.745   9.107  70.796  1.00  0.00     0.091 C  
HETATM    6  N   UNL     1     -11.393   9.189  70.539  1.00  0.00    -0.264 N  
HETATM    7  O   UNL     1     -13.430   8.155  71.133  1.00  0.00    -0.160 OA 
HETATM    8  C   UNL     1     -11.077  10.508  70.258  1.00  0.00    -0.285 C  
HETATM    9  O   UNL     1      -9.992  10.994  69.960  1.00  0.00     0.386 OA 
ENDROOT
BRANCH   6  10
HETATM   10  C   UNL     1     -10.469   8.094  70.566  1.00  0.00    -0.214 A  
HETATM   11  C   UNL     1     -10.787   6.866  71.188  1.00  0.00    -0.270 A  
HETATM   12  C   UNL     1      -9.891   5.770  71.228  1.00  0.00    -0.223 A  
HETATM   13  C   UNL     1     -10.297   4.482  71.896  1.00  0.00    -0.128 C  
HETATM   14  C   UNL     1      -8.646   5.925  70.613  1.00  0.00    -0.133 A  
HETATM   15  F   UNL     1     -10.142   3.407  71.078  1.00  0.00    -0.236 F  
HETATM   16  N   UNL     1      -7.671   4.845  70.596  1.00  0.00    -0.065 N  
HETATM   17  F   UNL     1     -11.605   4.464  72.276  1.00  0.00     0.155 F  
HETATM   18  C   UNL     1      -8.294   7.118  69.983  1.00  0.00    -0.138 A  
HETATM   19  F   UNL     1      -9.590   4.220  73.025  1.00  0.00    -0.132 F  
HETATM   20  C   UNL     1      -9.199   8.186  69.969  1.00  0.00    -0.155 A  
HETATM   21  O   UNL     1      -7.282   4.421  71.687  1.00  0.00    -0.054 OA 
HETATM   22  O   UNL     1      -7.284   4.460  69.486  1.00  0.00    -0.049 OA 
ENDBRANCH   6  10
TORSDOF 1
ENDMDL
MODEL      238
REMARK 921   NORMALIZED FREE ENERGY PREDICTED BY IDOCK:   -0.54 KCAL/MOL
REMARK 922        TOTAL FREE ENERGY PREDICTED BY IDOCK:   -0.73 KCAL/MOL
REMARK 923 INTER-LIGAND FREE ENERGY PREDICTED BY IDOCK:   -1.21 KCAL/MOL
REMARK 924 INTRA-LIGAND FREE ENERGY PREDICTED BY IDOCK:    0.48 KCAL/MOL
REMARK 927      BINDING AFFINITY PREDICTED BY RF-SCORE:    0.00 PKD
ROOT
HETATM    1  C   UNL     1     -12.604  12.266  69.258  1.00  0.00     0.530 C  
HETATM    2  C   UNL     1     -12.341  11.353  70.444  1.00  0.00    -0.319 C  
HETATM    3  N   UNL     1     -13.341  10.336  70.582  1.00  0.00    -0.191 NA 
HETATM    4  C   UNL     1     -12.187  12.130  71.750  1.00  0.00     0.603 C  
HETATM    5  C   UNL     1     -12.788   9.084  70.739  1.00  0.00     0.187 C  
HETATM    6  N   UNL     1     -11.434   9.153  70.486  1.00  0.00    -0.255 N  
HETATM    7  O   UNL     1     -13.485   8.135  71.060  1.00  0.00    -0.060 OA 
HETATM    8  C   UNL     1     -11.102  10.472  70.227  1.00  0.00    -0.285 C  
HETATM    9  O   UNL     1     -10.010  10.950  69.939  1.00  0.00     0.113 OA 
ENDROOT
BRANCH   6  10
HETATM   10  C   UNL     1     -10.524   8.045  70.494  1.00  0.00    -0.214 A  
HETATM   11  C   UNL     1      -9.190   8.174  70.050  1.00  0.00    -0.155 A  
HETATM   12  C   UNL     1      -8.273   7.094  70.048  1.00  0.00    -0.136 A  
HETATM   13  C   UNL     1      -6.858   7.302  69.575  1.00  0.00    -0.050 C  
HETATM   14  C   UNL     1      -8.723   5.858  70.518  1.00  0.00    -0.140 A  
HETATM   15  F   UNL     1      -5.943   6.888  70.491  1.00  0.00    -0.025 F  
HETATM   16  N   UNL     1      -7.843   4.700  70.563  1.00  0.00    -0.054 N  
HETATM   17  F   UNL     1      -6.560   8.608  69.328  1.00  0.00    -0.046 F  
HETATM   18  C   UNL     1     -10.031   5.689  70.970  1.00  0.00    -0.248 A  
HETATM   19  F   UNL     1      -6.581   6.645  68.420  1.00  0.00    -0.048 F  
HETATM   20  C   UNL     1     -10.916   6.775  70.950  1.00  0.00    -0.303 A  
HETATM   21  O   UNL     1      -7.357   4.321  69.494  1.00  0.00    -0.050 OA 
HETATM   22  O   UNL     1      -7.680   4.166  71.667  1.00  0.00    -0.066 OA 
ENDBRANCH   6  10
TORSDOF 1
ENDMDL
MODEL      239
REMARK 921   NORMALIZED FREE ENERGY PREDICTED BY IDOCK:    0.96 KCAL/MOL
REMARK 922        TOTAL FREE ENERGY PREDICTED BY IDOCK:    0.85 KCAL/MOL
REMARK 923 INTER-LIGAND FREE ENERGY PREDICTED BY IDOCK:    1.25 KCAL/MOL
REMARK 924 INTRA-LIGAND FREE ENERGY PREDICTED BY IDOCK:   -0.39 KCAL/MOL
REMARK 927      BINDING AFFINITY PREDICTED BY RF-SCORE:    0.00 PKD
ROOT
HETATM    1  C   UNL     1     -10.866  11.532  62.714  1.00  0.00     0.336 C  
HETATM    2  C   UNL     1     -11.764  11.598  63.939  1.00  0.00    -0.273 C  
HETATM    3  N   UNL     1     -11.521  10.521  64.852  1.00  0.00     1.239 NA 
HETATM    4  C   UNL     1     -13.245  11.661  63.569  1.00  0.00     0.274 C  
HETATM    5  C   UNL     1     -11.365  10.965  66.147  1.00  0.00     0.357 C  
HETATM    6  N   UNL     1     -11.259  12.340  66.144  1.00  0.00    -0.312 N  
HETATM    7  O   UNL     1     -11.342  10.172  67.074  1.00  0.00    -0.122 OA 
HETATM    8  C   UNL     1     -11.414  12.790  64.843  1.00  0.00    -0.320 C  
HETATM    9  O   UNL     1     -11.369  13.937  64.414  1.00  0.00    -0.373 OA 
ENDROOT
BRANCH   6  10
HETATM   10  C   UNL     1     -11.033  13.164  67.294  1.00  0.00    -0.268 A  
HETATM   11  C   UNL     1     -12.034  13.376  68.267  1.00  0.00    -0.352 A  
HETATM   12  C   UNL     1     -11.834  14.186  69.412  1.00  0.00    -0.378 A  
HETATM   13  C   UNL     1     -12.939  14.360  70.421  1.00  0.00    -0.155 C  
HETATM   14  C   UNL     1     -10.582  14.786  69.573  1.00  0.00    -0.185 A  
HETATM   15  F   UNL     1     -12.535  14.061  71.683  1.00  0.00    -0.376 F  
HETATM   16  N   UNL     1     -10.288  15.623  70.727  1.00  0.00     0.083 N  
HETATM   17  F   UNL     1     -14.014  13.557  70.183  1.00  0.00     0.974 F  
HETATM   18  C   UNL     1      -9.565  14.599  68.639  1.00  0.00    -0.219 A  
HETATM   19  F   UNL     1     -13.435  15.623  70.456  1.00  0.00    -0.443 F  
HETATM   20  C   UNL     1      -9.798  13.799  67.513  1.00  0.00    -0.230 A  
HETATM   21  O   UNL     1     -10.991  16.624  70.890  1.00  0.00    -0.052 OA 
HETATM   22  O   UNL     1      -9.333  15.282  71.434  1.00  0.00     2.041 OA 
ENDBRANCH   6  10
TORSDOF 1
ENDMDL
MODEL      240
REMARK 921   NORMALIZED FREE ENERGY PREDICTED BY IDOCK:    1.49 KCAL/MOL
REMARK 922        TOTAL FREE ENERGY PREDICTED BY IDOCK:    1.41 KCAL/MOL
REMARK 923 INTER-LIGAND FREE ENERGY PREDICTED BY IDOCK:    1.27 KCAL/MOL
REMARK 924 INTRA-LIGAND FREE ENERGY PREDICTED BY IDOCK:    0.14 KCAL/MOL
REMARK 927      BINDING AFFINITY PREDICTED BY RF-SCORE:    0.00 PKD
ROOT
HETATM    1  C   UNL     1      -7.457  10.559  70.163  1.00  0.00     0.112 C  
HETATM    2  C   UNL     1      -6.745  11.658  69.393  1.00  0.00    -0.110 C  
HETATM    3  N   UNL     1      -7.187  11.746  68.034  1.00  0.00    -0.079 NA 
HETATM    4  C   UNL     1      -5.225  11.514  69.451  1.00  0.00    -0.048 C  
HETATM    5  C   UNL     1      -7.501  13.039  67.673  1.00  0.00    -0.156 C  
HETATM    6  N   UNL     1      -7.514  13.831  68.802  1.00  0.00    -0.115 N  
HETATM    7  O   UNL     1      -7.710  13.323  66.506  1.00  0.00     0.567 OA 
HETATM    8  C   UNL     1      -7.143  13.057  69.888  1.00  0.00     0.671 C  
HETATM    9  O   UNL     1      -7.050  13.377  71.068  1.00  0.00     1.495 OA 
ENDROOT
BRANCH   6  10
HETATM   10  C   UNL     1      -7.851  15.224  68.842  1.00  0.00    -0.165 A  
HETATM   11  C   UNL     1      -8.836  15.776  67.995  1.00  0.00    -0.176 A  
HETATM   12  C   UNL     1      -9.186  17.149  68.015  1.00  0.00    -0.250 A  
HETATM   13  C   UNL     1     -10.257  17.673  67.095  1.00  0.00    -0.342 C  
HETATM   14  C   UNL     1      -8.522  17.976  68.926  1.00  0.00    -0.115 A  
HETATM   15  F   UNL     1     -11.224  18.353  67.765  1.00  0.00    -0.330 F  
HETATM   16  N   UNL     1      -8.829  19.395  69.022  1.00  0.00    -0.303 N  
HETATM   17  F   UNL     1     -10.909  16.689  66.414  1.00  0.00    -0.277 F  
HETATM   18  C   UNL     1      -7.546  17.470  69.783  1.00  0.00     0.877 A  
HETATM   19  F   UNL     1      -9.778  18.513  66.142  1.00  0.00    -0.318 F  
HETATM   20  C   UNL     1      -7.217  16.109  69.731  1.00  0.00     0.109 A  
HETATM   21  O   UNL     1      -8.665  20.076  68.006  1.00  0.00    -0.297 OA 
HETATM   22  O   UNL     1      -9.198  19.812  70.126  1.00  0.00     0.521 OA 
ENDBRANCH   6  10
TORSDOF 1
ENDMDL
MODEL      241
REMARK 921   NORMALIZED FREE ENERGY PREDICTED BY IDOCK:    1.51 KCAL/MOL
REMARK 922        TOTAL FREE ENERGY PREDICTED BY IDOCK:    1.44 KCAL/MOL
REMARK 923 INTER-LIGAND FREE ENERGY PREDICTED BY IDOCK:    1.80 KCAL/MOL
REMARK 924 INTRA-LIGAND FREE ENERGY PREDICTED BY IDOCK:   -0.37 KCAL/MOL
REMARK 927      BINDING AFFINITY PREDICTED BY RF-SCORE:    0.00 PKD
ROOT
HETATM    1  C   UNL     1      -6.525  10.770  63.006  1.00  0.00     0.098 C  
HETATM    2  C   UNL     1      -7.219  10.526  64.337  1.00  0.00     0.101 C  
HETATM    3  N   UNL     1      -8.532   9.977  64.174  1.00  0.00    -0.163 NA 
HETATM    4  C   UNL     1      -7.269  11.783  65.202  1.00  0.00     2.202 C  
HETATM    5  C   UNL     1      -8.735   8.874  64.975  1.00  0.00    -0.166 C  
HETATM    6  N   UNL     1      -7.531   8.488  65.526  1.00  0.00    -0.083 N  
HETATM    7  O   UNL     1      -9.852   8.401  65.105  1.00  0.00     0.751 OA 
HETATM    8  C   UNL     1      -6.557   9.389  65.129  1.00  0.00    -0.079 C  
HETATM    9  O   UNL     1      -5.358   9.390  65.386  1.00  0.00    -0.039 OA 
ENDROOT
BRANCH   6  10
HETATM   10  C   UNL     1      -7.326   7.350  66.372  1.00  0.00    -0.083 A  
HETATM   11  C   UNL     1      -7.452   6.030  65.887  1.00  0.00    -0.082 A  
HETATM   12  C   UNL     1      -7.254   4.889  66.704  1.00  0.00    -0.080 A  
HETATM   13  C   UNL     1      -7.389   3.506  66.121  1.00  0.00    -0.072 C  
HETATM   14  C   UNL     1      -6.913   5.099  68.042  1.00  0.00    -0.061 A  
HETATM   15  F   UNL     1      -6.293   2.739  66.358  1.00  0.00    -0.025 F  
HETATM   16  N   UNL     1      -6.680   3.983  68.947  1.00  0.00    -0.045 N  
HETATM   17  F   UNL     1      -7.548   3.507  64.768  1.00  0.00    -0.071 F  
HETATM   18  C   UNL     1      -6.774   6.385  68.560  1.00  0.00    -0.068 A  
HETATM   19  F   UNL     1      -8.457   2.824  66.608  1.00  0.00    -0.086 F  
HETATM   20  C   UNL     1      -6.985   7.493  67.728  1.00  0.00    -0.080 A  
HETATM   21  O   UNL     1      -7.613   3.194  69.120  1.00  0.00    -0.048 OA 
HETATM   22  O   UNL     1      -5.574   3.934  69.498  1.00  0.00    -0.015 OA 
ENDBRANCH   6  10
TORSDOF 1
ENDMDL
MODEL      242
REMARK 921   NORMALIZED FREE ENERGY PREDICTED BY IDOCK:    1.51 KCAL/MOL
REMARK 922        TOTAL FREE ENERGY PREDICTED BY IDOCK:    1.44 KCAL/MOL
REMARK 923 INTER-LIGAND FREE ENERGY PREDICTED BY IDOCK:    1.06 KCAL/MOL
REMARK 924 INTRA-LIGAND FREE ENERGY PREDICTED BY IDOCK:    0.38 KCAL/MOL
REMARK 927      BINDING AFFINITY PREDICTED BY RF-SCORE:    0.00 PKD
ROOT
HETATM    1  C   UNL     1     -11.948  13.612  73.796  1.00  0.00     3.263 C  
HETATM    2  C   UNL     1     -12.666  14.400  72.713  1.00  0.00    -0.340 C  
HETATM    3  N   UNL     1     -12.445  15.810  72.827  1.00  0.00    -0.411 NA 
HETATM    4  C   UNL     1     -14.163  14.096  72.672  1.00  0.00    -0.140 C  
HETATM    5  C   UNL     1     -12.070  16.375  71.627  1.00  0.00    -0.117 C  
HETATM    6  N   UNL     1     -11.795  15.371  70.722  1.00  0.00    -0.318 N  
HETATM    7  O   UNL     1     -12.028  17.587  71.500  1.00  0.00     2.345 OA 
HETATM    8  C   UNL     1     -12.058  14.152  71.325  1.00  0.00    -0.284 C  
HETATM    9  O   UNL     1     -11.926  13.022  70.868  1.00  0.00    -0.209 OA 
ENDROOT
BRANCH   6  10
HETATM   10  C   UNL     1     -11.323  15.559  69.382  1.00  0.00    -0.316 A  
HETATM   11  C   UNL     1     -11.411  14.538  68.411  1.00  0.00    -0.328 A  
HETATM   12  C   UNL     1     -10.950  14.701  67.081  1.00  0.00    -0.316 A  
HETATM   13  C   UNL     1     -11.087  13.576  66.088  1.00  0.00    -0.291 C  
HETATM   14  C   UNL     1     -10.395  15.934  66.732  1.00  0.00    -0.298 A  
HETATM   15  F   UNL     1     -11.720  13.968  64.951  1.00  0.00    -0.327 F  
HETATM   16  N   UNL     1      -9.910  16.190  65.384  1.00  0.00    -0.142 N  
HETATM   17  F   UNL     1     -11.812  12.525  66.565  1.00  0.00    -0.401 F  
HETATM   18  C   UNL     1     -10.294  16.970  67.658  1.00  0.00    -0.332 A  
HETATM   19  F   UNL     1      -9.894  13.049  65.711  1.00  0.00    -0.268 F  
HETATM   20  C   UNL     1     -10.750  16.775  68.968  1.00  0.00    -0.331 A  
HETATM   21  O   UNL     1      -9.008  15.460  64.963  1.00  0.00     0.984 OA 
HETATM   22  O   UNL     1     -10.417  17.143  64.780  1.00  0.00    -0.366 OA 
ENDBRANCH   6  10
TORSDOF 1
ENDMDL
MODEL      243
REMARK 921   NORMALIZED FREE ENERGY PREDICTED BY IDOCK:    1.99 KCAL/MOL
REMARK 922        TOTAL FREE ENERGY PREDICTED BY IDOCK:    1.94 KCAL/MOL
REMARK 923 INTER-LIGAND FREE ENERGY PREDICTED BY IDOCK:    2.02 KCAL/MOL
REMARK 924 INTRA-LIGAND FREE ENERGY PREDICTED BY IDOCK:   -0.08 KCAL/MOL
REMARK 927      BINDING AFFINITY PREDICTED BY RF-SCORE:    0.00 PKD
ROOT
HETATM    1  C   UNL     1      -5.941  18.373  65.182  1.00  0.00    -0.231 C  
HETATM    2  C   UNL     1      -6.070  17.244  66.191  1.00  0.00    -0.070 C  
HETATM    3  N   UNL     1      -5.756  17.664  67.524  1.00  0.00    -0.136 NA 
HETATM    4  C   UNL     1      -5.234  16.025  65.806  1.00  0.00     3.733 C  
HETATM    5  C   UNL     1      -6.720  17.278  68.430  1.00  0.00    -0.181 C  
HETATM    6  N   UNL     1      -7.817  16.799  67.745  1.00  0.00    -0.173 N  
HETATM    7  O   UNL     1      -6.521  17.385  69.629  1.00  0.00    -0.242 OA 
HETATM    8  C   UNL     1      -7.532  16.816  66.390  1.00  0.00    -0.267 C  
HETATM    9  O   UNL     1      -8.246  16.491  65.448  1.00  0.00     0.416 OA 
ENDROOT
BRANCH   6  10
HETATM   10  C   UNL     1      -9.043  16.353  68.339  1.00  0.00    -0.214 A  
HETATM   11  C   UNL     1      -9.664  15.147  67.947  1.00  0.00    -0.208 A  
HETATM   12  C   UNL     1     -10.876  14.686  68.518  1.00  0.00    -0.256 A  
HETATM   13  C   UNL     1     -11.480  13.382  68.065  1.00  0.00    -0.304 C  
HETATM   14  C   UNL     1     -11.463  15.467  69.516  1.00  0.00    -0.333 A  
HETATM   15  F   UNL     1     -11.731  12.543  69.105  1.00  0.00    -0.289 F  
HETATM   16  N   UNL     1     -12.701  15.061  70.165  1.00  0.00    -0.270 N  
HETATM   17  F   UNL     1     -10.673  12.682  67.219  1.00  0.00    -0.228 F  
HETATM   18  C   UNL     1     -10.880  16.662  69.936  1.00  0.00    -0.206 A  
HETATM   19  F   UNL     1     -12.651  13.540  67.398  1.00  0.00    -0.279 F  
HETATM   20  C   UNL     1      -9.686  17.095  69.344  1.00  0.00     0.061 A  
HETATM   21  O   UNL     1     -13.692  14.914  69.444  1.00  0.00     1.991 OA 
HETATM   22  O   UNL     1     -12.669  14.928  71.394  1.00  0.00    -0.296 OA 
ENDBRANCH   6  10
TORSDOF 1
ENDMDL
MODEL      244
REMARK 921   NORMALIZED FREE ENERGY PREDICTED BY IDOCK:    5.04 KCAL/MOL
REMARK 922        TOTAL FREE ENERGY PREDICTED BY IDOCK:    5.17 KCAL/MOL
REMARK 923 INTER-LIGAND FREE ENERGY PREDICTED BY IDOCK:    4.94 KCAL/MOL
REMARK 924 INTRA-LIGAND FREE ENERGY PREDICTED BY IDOCK:    0.23 KCAL/MOL
REMARK 927      BINDING AFFINITY PREDICTED BY RF-SCORE:    0.00 PKD
ROOT
HETATM    1  C   UNL     1     -11.962  13.682  73.206  1.00  0.00     2.094 C  
HETATM    2  C   UNL     1     -12.928  14.234  72.170  1.00  0.00    -0.373 C  
HETATM    3  N   UNL     1     -12.825  15.656  72.031  1.00  0.00    -0.417 NA 
HETATM    4  C   UNL     1     -14.373  13.829  72.453  1.00  0.00    -0.381 C  
HETATM    5  C   UNL     1     -12.718  16.041  70.712  1.00  0.00     0.114 C  
HETATM    6  N   UNL     1     -12.510  14.923  69.931  1.00  0.00    -0.272 N  
HETATM    7  O   UNL     1     -12.813  17.217  70.401  1.00  0.00     4.442 OA 
HETATM    8  C   UNL     1     -12.548  13.804  70.745  1.00  0.00    -0.340 C  
HETATM    9  O   UNL     1     -12.391  12.626  70.445  1.00  0.00    -0.312 OA 
ENDROOT
BRANCH   6  10
HETATM   10  C   UNL     1     -12.296  14.922  68.514  1.00  0.00     0.094 A  
HETATM   11  C   UNL     1     -11.682  16.009  67.853  1.00  0.00     0.069 A  
HETATM   12  C   UNL     1     -11.461  16.030  66.453  1.00  0.00     0.454 A  
HETATM   13  C   UNL     1     -10.787  17.215  65.811  1.00  0.00    -0.039 C  
HETATM   14  C   UNL     1     -11.866  14.917  65.713  1.00  0.00    -0.118 A  
HETATM   15  F   UNL     1      -9.717  16.851  65.056  1.00  0.00     0.247 F  
HETATM   16  N   UNL     1     -11.664  14.851  64.274  1.00  0.00    -0.303 N  
HETATM   17  F   UNL     1     -10.307  18.115  66.714  1.00  0.00    -0.313 F  
HETATM   18  C   UNL     1     -12.470  13.821  66.327  1.00  0.00    -0.441 A  
HETATM   19  F   UNL     1     -11.615  17.924  65.001  1.00  0.00     0.459 F  
HETATM   20  C   UNL     1     -12.684  13.835  67.712  1.00  0.00     0.878 A  
HETATM   21  O   UNL     1     -12.200  15.727  63.590  1.00  0.00    -0.587 OA 
HETATM   22  O   UNL     1     -10.997  13.901  63.846  1.00  0.00    -0.018 OA 
ENDBRANCH   6  10
TORSDOF 1
ENDMDL
MODEL      245
REMARK 921   NORMALIZED FREE ENERGY PREDICTED BY IDOCK:    6.42 KCAL/MOL
REMARK 922        TOTAL FREE ENERGY PREDICTED BY IDOCK:    6.62 KCAL/MOL
REMARK 923 INTER-LIGAND FREE ENERGY PREDICTED BY IDOCK:    6.91 KCAL/MOL
REMARK 924 INTRA-LIGAND FREE ENERGY PREDICTED BY IDOCK:   -0.28 KCAL/MOL
REMARK 927      BINDING AFFINITY PREDICTED BY RF-SCORE:    0.00 PKD
ROOT
HETATM    1  C   UNL     1     -12.513  13.860  64.148  1.00  0.00    -0.286 C  
HETATM    2  C   UNL     1     -12.416  13.492  65.619  1.00  0.00    -0.479 C  
HETATM    3  N   UNL     1     -11.685  12.279  65.831  1.00  0.00    -0.463 NA 
HETATM    4  C   UNL     1     -13.788  13.412  66.287  1.00  0.00     4.943 C  
HETATM    5  C   UNL     1     -10.720  12.418  66.805  1.00  0.00    -0.234 C  
HETATM    6  N   UNL     1     -10.592  13.754  67.125  1.00  0.00    -0.275 N  
HETATM    7  O   UNL     1     -10.138  11.440  67.245  1.00  0.00    -0.188 OA 
HETATM    8  C   UNL     1     -11.527  14.472  66.399  1.00  0.00    -0.360 C  
HETATM    9  O   UNL     1     -11.726  15.682  66.381  1.00  0.00     0.169 OA 
ENDROOT
BRANCH   6  10
HETATM   10  C   UNL     1      -9.653  14.303  68.058  1.00  0.00    -0.223 A  
HETATM   11  C   UNL     1      -8.259  14.164  67.879  1.00  0.00    -0.155 A  
HETATM   12  C   UNL     1      -7.311  14.698  68.787  1.00  0.00    -0.131 A  
HETATM   13  C   UNL     1      -5.836  14.527  68.531  1.00  0.00    -0.095 C  
HETATM   14  C   UNL     1      -7.795  15.396  69.896  1.00  0.00     0.072 A  
HETATM   15  F   UNL     1      -5.169  15.711  68.554  1.00  0.00    -0.086 F  
HETATM   16  N   UNL     1      -6.890  15.988  70.871  1.00  0.00     1.458 N  
HETATM   17  F   UNL     1      -5.562  13.978  67.315  1.00  0.00     0.006 F  
HETATM   18  C   UNL     1      -9.162  15.561  70.107  1.00  0.00     0.430 A  
HETATM   19  F   UNL     1      -5.228  13.718  69.436  1.00  0.00    -0.082 F  
HETATM   20  C   UNL     1     -10.074  15.013  69.196  1.00  0.00    -0.245 A  
HETATM   21  O   UNL     1      -6.120  15.224  71.460  1.00  0.00     0.430 OA 
HETATM   22  O   UNL     1      -6.989  17.206  71.057  1.00  0.00     2.700 OA 
ENDBRANCH   6  10
TORSDOF 1
ENDMDL
MODEL      246
REMARK 921   NORMALIZED FREE ENERGY PREDICTED BY IDOCK:    8.09 KCAL/MOL
REMARK 922        TOTAL FREE ENERGY PREDICTED BY IDOCK:    8.40 KCAL/MOL
REMARK 923 INTER-LIGAND FREE ENERGY PREDICTED BY IDOCK:    7.91 KCAL/MOL
REMARK 924 INTRA-LIGAND FREE ENERGY PREDICTED BY IDOCK:    0.49 KCAL/MOL
REMARK 927      BINDING AFFINITY PREDICTED BY RF-SCORE:    0.00 PKD
ROOT
HETATM    1  C   UNL     1      -8.387  12.883  66.052  1.00  0.00     1.074 C  
HETATM    2  C   UNL     1      -7.868  13.337  67.408  1.00  0.00    -0.153 C  
HETATM    3  N   UNL     1      -7.319  14.659  67.367  1.00  0.00    -0.193 NA 
HETATM    4  C   UNL     1      -6.856  12.356  67.998  1.00  0.00    -0.089 C  
HETATM    5  C   UNL     1      -7.812  15.456  68.378  1.00  0.00    -0.129 C  
HETATM    6  N   UNL     1      -8.864  14.808  68.991  1.00  0.00    -0.169 N  
HETATM    7  O   UNL     1      -7.312  16.545  68.607  1.00  0.00    -0.172 OA 
HETATM    8  C   UNL     1      -9.008  13.558  68.413  1.00  0.00    -0.146 C  
HETATM    9  O   UNL     1      -9.835  12.686  68.658  1.00  0.00    -0.177 OA 
ENDROOT
BRANCH   6  10
HETATM   10  C   UNL     1      -9.669  15.340  70.051  1.00  0.00     0.009 A  
HETATM   11  C   UNL     1     -10.787  14.642  70.559  1.00  0.00     0.117 A  
HETATM   12  C   UNL     1     -11.598  15.147  71.605  1.00  0.00    -0.463 A  
HETATM   13  C   UNL     1     -12.768  14.345  72.112  1.00  0.00    -0.323 C  
HETATM   14  C   UNL     1     -11.256  16.386  72.152  1.00  0.00     0.501 A  
HETATM   15  F   UNL     1     -12.726  14.167  73.458  1.00  0.00    -0.514 F  
HETATM   16  N   UNL     1     -12.027  16.972  73.238  1.00  0.00    -0.062 N  
HETATM   17  F   UNL     1     -12.831  13.092  71.580  1.00  0.00    -0.422 F  
HETATM   18  C   UNL     1     -10.159  17.106  71.683  1.00  0.00     4.947 A  
HETATM   19  F   UNL     1     -13.967  14.916  71.830  1.00  0.00    -0.392 F  
HETATM   20  C   UNL     1      -9.382  16.583  70.641  1.00  0.00     2.808 A  
HETATM   21  O   UNL     1     -13.223  17.191  73.025  1.00  0.00     1.647 OA 
HETATM   22  O   UNL     1     -11.414  17.235  74.279  1.00  0.00     0.206 OA 
ENDBRANCH   6  10
TORSDOF 1
ENDMDL
MODEL      247
REMARK 921   NORMALIZED FREE ENERGY PREDICTED BY IDOCK:    9.12 KCAL/MOL
REMARK 922        TOTAL FREE ENERGY PREDICTED BY IDOCK:    9.49 KCAL/MOL
REMARK 923 INTER-LIGAND FREE ENERGY PREDICTED BY IDOCK:    9.52 KCAL/MOL
REMARK 924 INTRA-LIGAND FREE ENERGY PREDICTED BY IDOCK:   -0.03 KCAL/MOL
REMARK 927      BINDING AFFINITY PREDICTED BY RF-SCORE:    0.00 PKD
ROOT
HETATM    1  C   UNL     1     -12.408  12.926  73.510  1.00  0.00     5.231 C  
HETATM    2  C   UNL     1     -12.700  13.075  72.025  1.00  0.00    -0.062 C  
HETATM    3  N   UNL     1     -13.552  14.192  71.747  1.00  0.00    -0.374 NA 
HETATM    4  C   UNL     1     -13.278  11.799  71.418  1.00  0.00    -0.193 C  
HETATM    5  C   UNL     1     -13.054  14.984  70.735  1.00  0.00    -0.369 C  
HETATM    6  N   UNL     1     -11.764  14.591  70.447  1.00  0.00    -0.290 N  
HETATM    7  O   UNL     1     -13.741  15.864  70.242  1.00  0.00     0.186 OA 
HETATM    8  C   UNL     1     -11.452  13.495  71.235  1.00  0.00     1.455 C  
HETATM    9  O   UNL     1     -10.403  12.863  71.296  1.00  0.00     5.777 OA 
ENDROOT
BRANCH   6  10
HETATM   10  C   UNL     1     -10.896  15.209  69.489  1.00  0.00    -0.263 A  
HETATM   11  C   UNL     1     -10.107  14.448  68.599  1.00  0.00    -0.242 A  
HETATM   12  C   UNL     1      -9.241  15.037  67.644  1.00  0.00    -0.182 A  
HETATM   13  C   UNL     1      -8.436  14.168  66.713  1.00  0.00     0.000 C  
HETATM   14  C   UNL     1      -9.184  16.432  67.591  1.00  0.00    -0.199 A  
HETATM   15  F   UNL     1      -8.619  14.505  65.409  1.00  0.00     0.843 F  
HETATM   16  N   UNL     1      -8.331  17.117  66.632  1.00  0.00    -0.231 N  
HETATM   17  F   UNL     1      -8.761  12.847  66.797  1.00  0.00    -0.203 F  
HETATM   18  C   UNL     1      -9.950  17.220  68.448  1.00  0.00    -0.322 A  
HETATM   19  F   UNL     1      -7.101  14.226  66.949  1.00  0.00    -0.031 F  
HETATM   20  C   UNL     1     -10.789  16.607  69.387  1.00  0.00    -0.295 A  
HETATM   21  O   UNL     1      -7.120  16.889  66.693  1.00  0.00    -0.207 OA 
HETATM   22  O   UNL     1      -8.885  17.902  65.853  1.00  0.00    -0.506 OA 
ENDBRANCH   6  10
TORSDOF 1
ENDMDL
MODEL      248
REMARK 921   NORMALIZED FREE ENERGY PREDICTED BY IDOCK:    9.22 KCAL/MOL
REMARK 922        TOTAL FREE ENERGY PREDICTED BY IDOCK:    9.59 KCAL/MOL
REMARK 923 INTER-LIGAND FREE ENERGY PREDICTED BY IDOCK:    9.48 KCAL/MOL
REMARK 924 INTRA-LIGAND FREE ENERGY PREDICTED BY IDOCK:    0.10 KCAL/MOL
REMARK 927      BINDING AFFINITY PREDICTED BY RF-SCORE:    0.00 PKD
ROOT
HETATM    1  C   UNL     1      -6.420  20.292  68.838  1.00  0.00    -0.326 C  
HETATM    2  C   UNL     1      -7.887  20.007  68.558  1.00  0.00    -0.119 C  
HETATM    3  N   UNL     1      -8.114  19.604  67.203  1.00  0.00    -0.273 NA 
HETATM    4  C   UNL     1      -8.785  21.188  68.922  1.00  0.00     2.221 C  
HETATM    5  C   UNL     1      -8.884  18.464  67.124  1.00  0.00    -0.264 C  
HETATM    6  N   UNL     1      -9.014  17.918  68.384  1.00  0.00    -0.278 N  
HETATM    7  O   UNL     1      -9.332  18.092  66.051  1.00  0.00    -0.507 OA 
HETATM    8  C   UNL     1      -8.377  18.749  69.290  1.00  0.00     0.149 C  
HETATM    9  O   UNL     1      -8.247  18.613  70.502  1.00  0.00     2.481 OA 
ENDROOT
BRANCH   6  10
HETATM   10  C   UNL     1      -9.697  16.699  68.700  1.00  0.00    -0.248 A  
HETATM   11  C   UNL     1     -10.896  16.328  68.053  1.00  0.00    -0.339 A  
HETATM   12  C   UNL     1     -11.590  15.128  68.350  1.00  0.00    -0.356 A  
HETATM   13  C   UNL     1     -12.857  14.783  67.613  1.00  0.00     1.616 C  
HETATM   14  C   UNL     1     -11.044  14.285  69.321  1.00  0.00    -0.265 A  
HETATM   15  F   UNL     1     -12.807  13.545  67.055  1.00  0.00    -0.151 F  
HETATM   16  N   UNL     1     -11.685  13.028  69.677  1.00  0.00    -0.305 N  
HETATM   17  F   UNL     1     -13.129  15.636  66.585  1.00  0.00     1.725 F  
HETATM   18  C   UNL     1      -9.860  14.611  69.980  1.00  0.00     0.468 A  
HETATM   19  F   UNL     1     -13.959  14.812  68.405  1.00  0.00     4.449 F  
HETATM   20  C   UNL     1      -9.203  15.809  69.670  1.00  0.00    -0.144 A  
HETATM   21  O   UNL     1     -12.837  13.088  70.116  1.00  0.00     0.085 OA 
HETATM   22  O   UNL     1     -11.010  12.000  69.543  1.00  0.00    -0.135 OA 
ENDBRANCH   6  10
TORSDOF 1
ENDMDL
MODEL      249
REMARK 921   NORMALIZED FREE ENERGY PREDICTED BY IDOCK:   16.36 KCAL/MOL
REMARK 922        TOTAL FREE ENERGY PREDICTED BY IDOCK:   17.15 KCAL/MOL
REMARK 923 INTER-LIGAND FREE ENERGY PREDICTED BY IDOCK:   16.91 KCAL/MOL
REMARK 924 INTRA-LIGAND FREE ENERGY PREDICTED BY IDOCK:    0.23 KCAL/MOL
REMARK 927      BINDING AFFINITY PREDICTED BY RF-SCORE:    0.00 PKD
ROOT
HETATM    1  C   UNL     1     -10.482  13.998  63.340  1.00  0.00     3.142 C  
HETATM    2  C   UNL     1      -9.935  12.841  64.161  1.00  0.00    -0.125 C  
HETATM    3  N   UNL     1      -8.600  12.487  63.782  1.00  0.00     2.026 NA 
HETATM    4  C   UNL     1     -10.847  11.616  64.113  1.00  0.00    -0.433 C  
HETATM    5  C   UNL     1      -7.764  12.379  64.873  1.00  0.00     4.290 C  
HETATM    6  N   UNL     1      -8.410  12.872  65.987  1.00  0.00     0.859 N  
HETATM    7  O   UNL     1      -6.648  11.902  64.752  1.00  0.00     2.371 OA 
HETATM    8  C   UNL     1      -9.695  13.239  65.625  1.00  0.00    -0.083 C  
HETATM    9  O   UNL     1     -10.578  13.736  66.315  1.00  0.00    -0.283 OA 
ENDROOT
BRANCH   6  10
HETATM   10  C   UNL     1      -7.846  12.980  67.300  1.00  0.00    -0.127 A  
HETATM   11  C   UNL     1      -8.249  13.989  68.203  1.00  0.00    -0.155 A  
HETATM   12  C   UNL     1      -7.705  14.116  69.505  1.00  0.00     0.286 A  
HETATM   13  C   UNL     1      -8.189  15.206  70.426  1.00  0.00     1.050 C  
HETATM   14  C   UNL     1      -6.736  13.190  69.899  1.00  0.00     0.222 A  
HETATM   15  F   UNL     1      -8.595  14.722  71.629  1.00  0.00     2.261 F  
HETATM   16  N   UNL     1      -6.136  13.241  71.224  1.00  0.00     0.280 N  
HETATM   17  F   UNL     1      -9.258  15.892  69.930  1.00  0.00    -0.232 F  
HETATM   18  C   UNL     1      -6.314  12.176  69.041  1.00  0.00    -0.087 A  
HETATM   19  F   UNL     1      -7.244  16.147  70.681  1.00  0.00     0.739 F  
HETATM   20  C   UNL     1      -6.864  12.083  67.756  1.00  0.00    -0.100 A  
HETATM   21  O   UNL     1      -5.534  14.273  71.530  1.00  0.00    -0.171 OA 
HETATM   22  O   UNL     1      -6.248  12.229  71.926  1.00  0.00     1.181 OA 
ENDBRANCH   6  10
TORSDOF 1
ENDMDL
MODEL      250
REMARK 921   NORMALIZED FREE ENERGY PREDICTED BY IDOCK:   34.00 KCAL/MOL
REMARK 922        TOTAL FREE ENERGY PREDICTED BY IDOCK:   35.82 KCAL/MOL
REMARK 923 INTER-LIGAND FREE ENERGY PREDICTED BY IDOCK:   35.56 KCAL/MOL
REMARK 924 INTRA-LIGAND FREE ENERGY PREDICTED BY IDOCK:    0.26 KCAL/MOL
REMARK 927      BINDING AFFINITY PREDICTED BY RF-SCORE:    0.00 PKD
ROOT
HETATM    1  C   UNL     1      -7.110  11.195  72.423  1.00  0.00     7.184 C  
HETATM    2  C   UNL     1      -6.748  12.671  72.469  1.00  0.00     6.151 C  
HETATM    3  N   UNL     1      -5.690  13.001  71.561  1.00  0.00    -0.353 NA 
HETATM    4  C   UNL     1      -6.403  13.139  73.882  1.00  0.00     2.136 C  
HETATM    5  C   UNL     1      -5.995  14.100  70.787  1.00  0.00    -0.198 C  
HETATM    6  N   UNL     1      -7.327  14.416  70.958  1.00  0.00     1.441 N  
HETATM    7  O   UNL     1      -5.139  14.631  70.100  1.00  0.00    -0.090 OA 
HETATM    8  C   UNL     1      -7.867  13.555  71.899  1.00  0.00     9.102 C  
HETATM    9  O   UNL     1      -9.018  13.492  72.316  1.00  0.00    11.241 OA 
ENDROOT
BRANCH   6  10
HETATM   10  C   UNL     1      -8.031  15.465  70.280  1.00  0.00     0.749 A  
HETATM   11  C   UNL     1      -7.376  16.634  69.836  1.00  0.00     0.664 A  
HETATM   12  C   UNL     1      -8.051  17.684  69.164  1.00  0.00     0.057 A  
HETATM   13  C   UNL     1      -7.291  18.900  68.703  1.00  0.00    -0.310 C  
HETATM   14  C   UNL     1      -9.420  17.534  68.932  1.00  0.00    -0.189 A  
HETATM   15  F   UNL     1      -7.482  19.156  67.382  1.00  0.00    -0.234 F  
HETATM   16  N   UNL     1     -10.186  18.558  68.238  1.00  0.00    -0.376 N  
HETATM   17  F   UNL     1      -5.942  18.783  68.859  1.00  0.00    -0.197 F  
HETATM   18  C   UNL     1     -10.103  16.393  69.350  1.00  0.00    -0.243 A  
HETATM   19  F   UNL     1      -7.634  20.030  69.374  1.00  0.00    -0.292 F  
HETATM   20  C   UNL     1      -9.409  15.377  70.020  1.00  0.00     0.145 A  
HETATM   21  O   UNL     1     -10.211  19.683  68.745  1.00  0.00    -0.437 OA 
HETATM   22  O   UNL     1     -10.781  18.209  67.211  1.00  0.00    -0.390 OA 
ENDBRANCH   6  10
TORSDOF 1
ENDMDL
MODEL      251
REMARK 921   NORMALIZED FREE ENERGY PREDICTED BY IDOCK:   39.99 KCAL/MOL
REMARK 922        TOTAL FREE ENERGY PREDICTED BY IDOCK:   42.16 KCAL/MOL
REMARK 923 INTER-LIGAND FREE ENERGY PREDICTED BY IDOCK:   42.58 KCAL/MOL
REMARK 924 INTRA-LIGAND FREE ENERGY PREDICTED BY IDOCK:   -0.41 KCAL/MOL
REMARK 927      BINDING AFFINITY PREDICTED BY RF-SCORE:    0.00 PKD
ROOT
HETATM    1  C   UNL     1      -7.110  11.195  72.423  1.00  0.00     7.184 C  
HETATM    2  C   UNL     1      -6.762  12.674  72.481  1.00  0.00     6.151 C  
HETATM    3  N   UNL     1      -5.710  13.022  71.574  1.00  0.00    -0.353 NA 
HETATM    4  C   UNL     1      -6.420  13.133  73.897  1.00  0.00     2.559 C  
HETATM    5  C   UNL     1      -6.027  14.125  70.811  1.00  0.00    -0.198 C  
HETATM    6  N   UNL     1      -7.361  14.426  70.987  1.00  0.00     1.441 N  
HETATM    7  O   UNL     1      -5.177  14.670  70.127  1.00  0.00    -0.094 OA 
HETATM    8  C   UNL     1      -7.891  13.551  71.920  1.00  0.00     9.102 C  
HETATM    9  O   UNL     1      -9.041  13.474  72.339  1.00  0.00    11.358 OA 
ENDROOT
BRANCH   6  10
HETATM   10  C   UNL     1      -8.077  15.474  70.318  1.00  0.00     0.877 A  
HETATM   11  C   UNL     1      -8.970  15.206  69.258  1.00  0.00    -0.202 A  
HETATM   12  C   UNL     1      -9.687  16.224  68.582  1.00  0.00    -0.235 A  
HETATM   13  C   UNL     1     -10.637  15.870  67.467  1.00  0.00    -0.315 C  
HETATM   14  C   UNL     1      -9.497  17.542  69.003  1.00  0.00    -0.109 A  
HETATM   15  F   UNL     1     -11.877  16.388  67.664  1.00  0.00     0.037 F  
HETATM   16  N   UNL     1     -10.204  18.647  68.372  1.00  0.00    -0.382 N  
HETATM   17  F   UNL     1     -10.821  14.527  67.325  1.00  0.00    -0.277 F  
HETATM   18  C   UNL     1      -8.628  17.850  70.049  1.00  0.00     2.139 A  
HETATM   19  F   UNL     1     -10.218  16.307  66.252  1.00  0.00    -0.269 F  
HETATM   20  C   UNL     1      -7.927  16.821  70.690  1.00  0.00     3.880 A  
HETATM   21  O   UNL     1     -10.022  18.814  67.163  1.00  0.00    -0.310 OA 
HETATM   22  O   UNL     1     -10.906  19.352  69.106  1.00  0.00     0.592 OA 
ENDBRANCH   6  10
TORSDOF 1
ENDMDL
MODEL      252
REMARK 921   NORMALIZED FREE ENERGY PREDICTED BY IDOCK:   49.94 KCAL/MOL
REMARK 922        TOTAL FREE ENERGY PREDICTED BY IDOCK:   52.69 KCAL/MOL
REMARK 923 INTER-LIGAND FREE ENERGY PREDICTED BY IDOCK:   52.74 KCAL/MOL
REMARK 924 INTRA-LIGAND FREE ENERGY PREDICTED BY IDOCK:   -0.05 KCAL/MOL
REMARK 927      BINDING AFFINITY PREDICTED BY RF-SCORE:    0.00 PKD
ROOT
HETATM    1  C   UNL     1      -7.110  11.195  72.423  1.00  0.00     7.184 C  
HETATM    2  C   UNL     1      -6.748  12.671  72.469  1.00  0.00     6.151 C  
HETATM    3  N   UNL     1      -5.698  13.003  71.553  1.00  0.00    -0.353 NA 
HETATM    4  C   UNL     1      -6.392  13.136  73.879  1.00  0.00     2.136 C  
HETATM    5  C   UNL     1      -6.011  14.104  70.784  1.00  0.00    -0.198 C  
HETATM    6  N   UNL     1      -7.341  14.419  70.967  1.00  0.00     1.441 N  
HETATM    7  O   UNL     1      -5.160  14.636  70.091  1.00  0.00    -0.090 OA 
HETATM    8  C   UNL     1      -7.872  13.555  71.910  1.00  0.00     9.102 C  
HETATM    9  O   UNL     1      -9.020  13.491  72.337  1.00  0.00    11.371 OA 
ENDROOT
BRANCH   6  10
HETATM   10  C   UNL     1      -8.051  15.468  70.296  1.00  0.00     0.877 A  
HETATM   11  C   UNL     1      -8.918  16.341  70.990  1.00  0.00     4.261 A  
HETATM   12  C   UNL     1      -9.631  17.385  70.349  1.00  0.00     2.516 A  
HETATM   13  C   UNL     1     -10.530  18.291  71.149  1.00  0.00     2.903 C  
HETATM   14  C   UNL     1      -9.449  17.548  68.973  1.00  0.00    -0.109 A  
HETATM   15  F   UNL     1     -10.237  19.605  70.958  1.00  0.00     0.501 F  
HETATM   16  N   UNL     1     -10.132  18.602  68.240  1.00  0.00    -0.373 N  
HETATM   17  F   UNL     1     -10.437  18.089  72.493  1.00  0.00     2.230 F  
HETATM   18  C   UNL     1      -8.598  16.711  68.252  1.00  0.00    -0.212 A  
HETATM   19  F   UNL     1     -11.845  18.136  70.851  1.00  0.00     3.361 F  
HETATM   20  C   UNL     1      -7.915  15.683  68.914  1.00  0.00    -0.193 A  
HETATM   21  O   UNL     1     -11.366  18.593  68.259  1.00  0.00     0.532 OA 
HETATM   22  O   UNL     1      -9.420  19.406  67.626  1.00  0.00    -0.299 OA 
ENDBRANCH   6  10
TORSDOF 1
ENDMDL
MODEL      253
REMARK 921   NORMALIZED FREE ENERGY PREDICTED BY IDOCK:   55.57 KCAL/MOL
REMARK 922        TOTAL FREE ENERGY PREDICTED BY IDOCK:   58.66 KCAL/MOL
REMARK 923 INTER-LIGAND FREE ENERGY PREDICTED BY IDOCK:   59.07 KCAL/MOL
REMARK 924 INTRA-LIGAND FREE ENERGY PREDICTED BY IDOCK:   -0.41 KCAL/MOL
REMARK 927      BINDING AFFINITY PREDICTED BY RF-SCORE:    0.00 PKD
ROOT
HETATM    1  C   UNL     1      -9.456  12.836  72.963  1.00  0.00    21.781 C  
HETATM    2  C   UNL     1      -8.939  12.571  71.558  1.00  0.00    17.057 C  
HETATM    3  N   UNL     1      -7.509  12.494  71.509  1.00  0.00     6.838 NA 
HETATM    4  C   UNL     1      -9.453  13.597  70.549  1.00  0.00     4.317 C  
HETATM    5  C   UNL     1      -7.074  11.377  70.829  1.00  0.00     2.284 C  
HETATM    6  N   UNL     1      -8.148  10.543  70.596  1.00  0.00     1.276 N  
HETATM    7  O   UNL     1      -5.898  11.254  70.528  1.00  0.00    -0.142 OA 
HETATM    8  C   UNL     1      -9.294  11.158  71.073  1.00  0.00     5.949 C  
HETATM    9  O   UNL     1     -10.447  10.743  71.076  1.00  0.00     1.117 OA 
ENDROOT
BRANCH   6  10
HETATM   10  C   UNL     1      -8.087   9.259  69.963  1.00  0.00    -0.135 A  
HETATM   11  C   UNL     1      -8.173   8.059  70.704  1.00  0.00    -0.114 A  
HETATM   12  C   UNL     1      -8.115   6.778  70.100  1.00  0.00    -0.128 A  
HETATM   13  C   UNL     1      -8.227   5.536  70.946  1.00  0.00    -0.118 C  
HETATM   14  C   UNL     1      -7.975   6.719  68.712  1.00  0.00    -0.119 A  
HETATM   15  F   UNL     1      -9.200   4.698  70.502  1.00  0.00    -0.141 F  
HETATM   16  N   UNL     1      -7.920   5.445  68.011  1.00  0.00    -0.095 N  
HETATM   17  F   UNL     1      -8.538   5.798  72.246  1.00  0.00    -0.122 F  
HETATM   18  C   UNL     1      -7.891   7.879  67.943  1.00  0.00    -0.127 A  
HETATM   19  F   UNL     1      -7.078   4.815  70.988  1.00  0.00    -0.041 F  
HETATM   20  C   UNL     1      -7.942   9.130  68.571  1.00  0.00    -0.102 A  
HETATM   21  O   UNL     1      -7.007   4.673  68.318  1.00  0.00    -0.054 OA 
HETATM   22  O   UNL     1      -8.773   5.252  67.137  1.00  0.00    -0.109 OA 
ENDBRANCH   6  10
TORSDOF 1
ENDMDL
MODEL      254
REMARK 921   NORMALIZED FREE ENERGY PREDICTED BY IDOCK:   58.86 KCAL/MOL
REMARK 922        TOTAL FREE ENERGY PREDICTED BY IDOCK:   62.13 KCAL/MOL
REMARK 923 INTER-LIGAND FREE ENERGY PREDICTED BY IDOCK:   62.43 KCAL/MOL
REMARK 924 INTRA-LIGAND FREE ENERGY PREDICTED BY IDOCK:   -0.30 KCAL/MOL
REMARK 927      BINDING AFFINITY PREDICTED BY RF-SCORE:    0.00 PKD
ROOT
HETATM    1  C   UNL     1     -12.138  12.743  74.350  1.00  0.00    11.877 C  
HETATM    2  C   UNL     1     -12.155  11.667  73.277  1.00  0.00     8.441 C  
HETATM    3  N   UNL     1     -13.089  11.956  72.230  1.00  0.00    -0.247 NA 
HETATM    4  C   UNL     1     -12.414  10.277  73.854  1.00  0.00    10.921 C  
HETATM    5  C   UNL     1     -12.523  11.823  70.980  1.00  0.00    -0.309 C  
HETATM    6  N   UNL     1     -11.159  11.674  71.115  1.00  0.00     2.166 N  
HETATM    7  O   UNL     1     -13.221  11.844  69.979  1.00  0.00     0.681 OA 
HETATM    8  C   UNL     1     -10.851  11.646  72.465  1.00  0.00    11.331 C  
HETATM    9  O   UNL     1      -9.754  11.548  73.004  1.00  0.00    16.832 OA 
ENDROOT
BRANCH   6  10
HETATM   10  C   UNL     1     -10.219  11.562  70.039  1.00  0.00     1.251 A  
HETATM   11  C   UNL     1      -9.402  10.421  69.879  1.00  0.00     0.080 A  
HETATM   12  C   UNL     1      -8.466  10.288  68.824  1.00  0.00    -0.130 A  
HETATM   13  C   UNL     1      -7.635   9.038  68.701  1.00  0.00    -0.092 C  
HETATM   14  C   UNL     1      -8.367  11.338  67.907  1.00  0.00    -0.131 A  
HETATM   15  F   UNL     1      -7.732   8.475  67.468  1.00  0.00    -0.093 F  
HETATM   16  N   UNL     1      -7.440  11.277  66.786  1.00  0.00    -0.144 N  
HETATM   17  F   UNL     1      -8.001   8.061  69.578  1.00  0.00    -0.104 F  
HETATM   18  C   UNL     1      -9.157  12.479  68.025  1.00  0.00    -0.200 A  
HETATM   19  F   UNL     1      -6.314   9.251  68.931  1.00  0.00    -0.043 F  
HETATM   20  C   UNL     1     -10.067  12.584  69.085  1.00  0.00     0.293 A  
HETATM   21  O   UNL     1      -6.242  11.155  67.053  1.00  0.00    -0.071 OA 
HETATM   22  O   UNL     1      -7.926  11.386  65.654  1.00  0.00     0.119 OA 
ENDBRANCH   6  10
TORSDOF 1
ENDMDL
