MODEL        1
REMARK 921   NORMALIZED FREE ENERGY PREDICTED BY IDOCK:   -6.39 KCAL/MOL
REMARK 922        TOTAL FREE ENERGY PREDICTED BY IDOCK:  -10.05 KCAL/MOL
REMARK 923 INTER-LIGAND FREE ENERGY PREDICTED BY IDOCK:   -9.00 KCAL/MOL
REMARK 924 INTRA-LIGAND FREE ENERGY PREDICTED BY IDOCK:   -1.05 KCAL/MOL
REMARK 927      BINDING AFFINITY PREDICTED BY RF-SCORE:    0.00 PKD
ROOT
HETATM    1  C   UNL     1      -7.112   9.727  65.887  1.00  0.00    -0.102 C  
HETATM    2  O   UNL     1      -8.045  10.815  65.819  1.00  0.00    -0.162 OA 
ENDROOT
BRANCH   2   3
HETATM    3  C   UNL     1      -9.337  10.424  65.678  1.00  0.00    -0.198 C  
HETATM    4  O   UNL     1      -9.842   9.988  64.659  1.00  0.00    -0.318 OA 
BRANCH   3   5
HETATM    5  C   UNL     1     -10.040  10.568  66.981  1.00  0.00    -0.259 C  
HETATM    6  C   UNL     1     -10.405   9.472  67.695  1.00  0.00    -0.244 C  
HETATM    7  N   UNL     1     -11.049   9.598  68.901  1.00  0.00    -0.121 NA 
HETATM    8  C   UNL     1     -10.368  11.991  67.462  1.00  0.00    -0.217 C  
HETATM    9  C   UNL     1     -11.446  10.828  69.425  1.00  0.00    -0.295 C  
HETATM   10  C   UNL     1     -12.174  10.750  70.748  1.00  0.00    -0.480 C  
HETATM   11  C   UNL     1     -11.170  11.995  68.774  1.00  0.00    -0.316 C  
BRANCH   6  12
HETATM   12  C   UNL     1     -10.278   8.090  67.077  1.00  0.00    -0.303 C  
HETATM   13  N   UNL     1     -10.173   6.942  66.565  1.00  0.00    -0.449 NA 
HETATM   14  H2  UNL     1     -10.048   6.787  67.566  1.00  0.00     0.000 HD 
HETATM   15  H1  UNL     1     -10.088   6.014  66.150  1.00  0.00     0.000 HD 
ENDBRANCH   6  12
BRANCH  11  16
HETATM   16  C   UNL     1     -11.708  13.279  69.322  1.00  0.00    -0.326 C  
HETATM   17  O   UNL     1     -12.898  13.452  69.544  1.00  0.00     0.249 OA 
BRANCH  16  18
HETATM   18  O   UNL     1     -10.754  14.228  69.555  1.00  0.00    -0.183 OA 
BRANCH  18  19
HETATM   19  C   UNL     1     -11.290  15.571  69.711  1.00  0.00    -0.319 C  
HETATM   20  C   UNL     1     -11.315  15.942  71.192  1.00  0.00    -0.435 C  
HETATM   21  C   UNL     1     -10.449  16.577  68.932  1.00  0.00    -0.304 C  
ENDBRANCH  18  19
ENDBRANCH  16  18
ENDBRANCH  11  16
BRANCH   8  22
HETATM   22  C   UNL     1     -11.033  12.838  66.353  1.00  0.00    -0.305 A  
HETATM   23  C   UNL     1     -10.537  14.130  66.073  1.00  0.00    -0.297 A  
HETATM   24  C   UNL     1     -12.144  12.384  65.621  1.00  0.00    -0.396 A  
HETATM   25  C   UNL     1     -12.755  13.200  64.658  1.00  0.00    -0.326 A  
HETATM   26  C   UNL     1     -11.179  14.957  65.134  1.00  0.00    -0.386 A  
HETATM   27  O   UNL     1      -9.727  16.709  65.588  1.00  0.00    -0.530 OA 
HETATM   28  N   UNL     1     -10.715  16.339  64.938  1.00  0.00    -0.336 N  
HETATM   29  C   UNL     1     -12.285  14.492  64.419  1.00  0.00    -0.480 A  
HETATM   30  O   UNL     1     -11.348  17.056  64.146  1.00  0.00    -1.164 OA 
ENDBRANCH   8  22
ENDBRANCH   3   5
ENDBRANCH   2   3
TORSDOF 7
ENDMDL
MODEL        2
REMARK 921   NORMALIZED FREE ENERGY PREDICTED BY IDOCK:   -6.33 KCAL/MOL
REMARK 922        TOTAL FREE ENERGY PREDICTED BY IDOCK:   -9.98 KCAL/MOL
REMARK 923 INTER-LIGAND FREE ENERGY PREDICTED BY IDOCK:   -8.58 KCAL/MOL
REMARK 924 INTRA-LIGAND FREE ENERGY PREDICTED BY IDOCK:   -1.40 KCAL/MOL
REMARK 927      BINDING AFFINITY PREDICTED BY RF-SCORE:    0.00 PKD
ROOT
HETATM    1  C   UNL     1     -10.800  10.094  70.500  1.00  0.00    -0.273 C  
HETATM    2  O   UNL     1     -10.408  11.237  69.726  1.00  0.00     0.072 OA 
ENDROOT
BRANCH   2   3
HETATM    3  C   UNL     1     -11.413  11.772  68.987  1.00  0.00    -0.297 C  
HETATM    4  O   UNL     1     -12.385  11.170  68.567  1.00  0.00    -0.561 OA 
BRANCH   3   5
HETATM    5  C   UNL     1     -11.168  13.226  68.801  1.00  0.00    -0.317 C  
HETATM    6  C   UNL     1     -11.672  14.131  69.681  1.00  0.00    -0.316 C  
HETATM    7  N   UNL     1     -11.444  15.475  69.518  1.00  0.00    -0.307 NA 
HETATM    8  C   UNL     1     -10.363  13.664  67.566  1.00  0.00    -0.241 C  
HETATM    9  C   UNL     1     -10.772  16.004  68.418  1.00  0.00    -0.289 C  
HETATM   10  C   UNL     1     -10.657  17.511  68.407  1.00  0.00    -0.339 C  
HETATM   11  C   UNL     1     -10.258  15.193  67.448  1.00  0.00    -0.235 C  
BRANCH   6  12
HETATM   12  C   UNL     1     -12.656  13.681  70.747  1.00  0.00    -0.325 C  
HETATM   13  N   UNL     1     -13.473  13.308  71.632  1.00  0.00    -0.322 NA 
HETATM   14  H2  UNL     1     -12.560  13.236  72.081  1.00  0.00     0.000 HD 
HETATM   15  H1  UNL     1     -14.134  13.006  72.348  1.00  0.00     0.000 HD 
ENDBRANCH   6  12
BRANCH  11  16
HETATM   16  C   UNL     1      -9.638  15.813  66.235  1.00  0.00    -0.313 C  
HETATM   17  O   UNL     1     -10.291  16.428  65.404  1.00  0.00    -0.535 OA 
BRANCH  16  18
HETATM   18  O   UNL     1      -8.287  15.633  66.146  1.00  0.00    -0.196 OA 
BRANCH  18  19
HETATM   19  C   UNL     1      -7.519  16.539  66.985  1.00  0.00    -0.204 C  
HETATM   20  C   UNL     1      -6.394  15.769  67.671  1.00  0.00    -0.186 C  
HETATM   21  C   UNL     1      -6.941  17.679  66.152  1.00  0.00    -0.338 C  
ENDBRANCH  18  19
ENDBRANCH  16  18
ENDBRANCH  11  16
BRANCH   8  22
HETATM   22  C   UNL     1     -10.883  12.999  66.271  1.00  0.00    -0.295 A  
HETATM   23  C   UNL     1     -10.036  12.134  65.545  1.00  0.00    -0.275 A  
HETATM   24  C   UNL     1     -12.170  13.245  65.762  1.00  0.00    -0.510 A  
HETATM   25  C   UNL     1     -12.590  12.666  64.556  1.00  0.00    -0.491 A  
HETATM   26  C   UNL     1     -10.451  11.588  64.317  1.00  0.00    -0.338 A  
HETATM   27  O   UNL     1      -8.390  10.569  64.001  1.00  0.00    -0.161 OA 
HETATM   28  N   UNL     1      -9.513  10.779  63.522  1.00  0.00    -0.269 N  
HETATM   29  C   UNL     1     -11.731  11.847  63.823  1.00  0.00    -0.554 A  
HETATM   30  O   UNL     1      -9.897  10.369  62.415  1.00  0.00    -0.161 OA 
ENDBRANCH   8  22
ENDBRANCH   3   5
ENDBRANCH   2   3
TORSDOF 7
ENDMDL
MODEL        3
REMARK 921   NORMALIZED FREE ENERGY PREDICTED BY IDOCK:   -6.28 KCAL/MOL
REMARK 922        TOTAL FREE ENERGY PREDICTED BY IDOCK:   -9.90 KCAL/MOL
REMARK 923 INTER-LIGAND FREE ENERGY PREDICTED BY IDOCK:   -8.83 KCAL/MOL
REMARK 924 INTRA-LIGAND FREE ENERGY PREDICTED BY IDOCK:   -1.07 KCAL/MOL
REMARK 927      BINDING AFFINITY PREDICTED BY RF-SCORE:    0.00 PKD
ROOT
HETATM    1  C   UNL     1     -12.103  16.022  72.577  1.00  0.00    -0.537 C  
HETATM    2  O   UNL     1     -11.642  15.491  71.326  1.00  0.00    -0.330 OA 
ENDROOT
BRANCH   2   3
HETATM    3  C   UNL     1     -12.640  15.142  70.475  1.00  0.00    -0.380 C  
HETATM    4  O   UNL     1     -13.714  15.706  70.367  1.00  0.00    -0.170 OA 
BRANCH   3   5
HETATM    5  C   UNL     1     -12.204  13.981  69.655  1.00  0.00    -0.383 C  
HETATM    6  C   UNL     1     -12.410  12.710  70.090  1.00  0.00    -0.152 C  
HETATM    7  N   UNL     1     -12.014  11.633  69.335  1.00  0.00    -0.323 NA 
HETATM    8  C   UNL     1     -11.482  14.273  68.329  1.00  0.00    -0.334 C  
HETATM    9  C   UNL     1     -11.309  11.762  68.140  1.00  0.00    -0.284 C  
HETATM   10  C   UNL     1     -10.934  10.455  67.479  1.00  0.00    -0.358 C  
HETATM   11  C   UNL     1     -11.008  12.990  67.626  1.00  0.00    -0.277 C  
BRANCH   6  12
HETATM   12  C   UNL     1     -12.906  12.466  71.505  1.00  0.00    -0.274 C  
HETATM   13  N   UNL     1     -13.317  12.264  72.680  1.00  0.00    -0.424 NA 
HETATM   14  H2  UNL     1     -12.405  11.808  72.646  1.00  0.00     0.000 HD 
HETATM   15  H1  UNL     1     -13.650  12.100  73.630  1.00  0.00     0.000 HD 
ENDBRANCH   6  12
BRANCH  11  16
HETATM   16  C   UNL     1     -10.160  13.076  66.397  1.00  0.00    -0.279 C  
HETATM   17  O   UNL     1      -8.955  12.866  66.412  1.00  0.00    -0.142 OA 
BRANCH  16  18
HETATM   18  O   UNL     1     -10.850  13.404  65.264  1.00  0.00    -0.292 OA 
BRANCH  18  19
HETATM   19  C   UNL     1     -11.155  12.265  64.414  1.00  0.00    -0.330 C  
HETATM   20  C   UNL     1     -12.493  12.493  63.716  1.00  0.00    -0.552 C  
HETATM   21  C   UNL     1     -10.053  12.059  63.379  1.00  0.00    -0.437 C  
ENDBRANCH  18  19
ENDBRANCH  16  18
ENDBRANCH  11  16
BRANCH   8  22
HETATM   22  C   UNL     1     -10.351  15.312  68.502  1.00  0.00    -0.231 A  
HETATM   23  C   UNL     1     -10.534  16.626  68.021  1.00  0.00    -0.320 A  
HETATM   24  C   UNL     1      -9.120  14.993  69.100  1.00  0.00    -0.183 A  
HETATM   25  C   UNL     1      -8.096  15.947  69.193  1.00  0.00    -0.239 A  
HETATM   26  C   UNL     1      -9.489  17.565  68.083  1.00  0.00    -0.291 A  
HETATM   27  O   UNL     1     -10.762  19.152  66.965  1.00  0.00    -0.442 OA 
HETATM   28  N   UNL     1      -9.662  18.894  67.475  1.00  0.00    -0.306 N  
HETATM   29  C   UNL     1      -8.270  17.230  68.676  1.00  0.00    -0.262 A  
HETATM   30  O   UNL     1      -8.694  19.671  67.495  1.00  0.00    -0.295 OA 
ENDBRANCH   8  22
ENDBRANCH   3   5
ENDBRANCH   2   3
TORSDOF 7
ENDMDL
MODEL        4
REMARK 921   NORMALIZED FREE ENERGY PREDICTED BY IDOCK:   -6.23 KCAL/MOL
REMARK 922        TOTAL FREE ENERGY PREDICTED BY IDOCK:   -9.83 KCAL/MOL
REMARK 923 INTER-LIGAND FREE ENERGY PREDICTED BY IDOCK:   -9.81 KCAL/MOL
REMARK 924 INTRA-LIGAND FREE ENERGY PREDICTED BY IDOCK:   -0.02 KCAL/MOL
REMARK 927      BINDING AFFINITY PREDICTED BY RF-SCORE:    0.00 PKD
ROOT
HETATM    1  C   UNL     1      -9.415  10.271  64.318  1.00  0.00    -0.307 C  
HETATM    2  O   UNL     1      -9.848   9.982  65.656  1.00  0.00    -0.257 OA 
ENDROOT
BRANCH   2   3
HETATM    3  C   UNL     1      -9.136  10.625  66.616  1.00  0.00    -0.160 C  
HETATM    4  O   UNL     1      -7.984  11.007  66.513  1.00  0.00    -0.149 OA 
BRANCH   3   5
HETATM    5  C   UNL     1      -9.999  10.835  67.809  1.00  0.00    -0.195 C  
HETATM    6  C   UNL     1     -10.392   9.782  68.572  1.00  0.00    -0.202 C  
HETATM    7  N   UNL     1     -11.184   9.969  69.678  1.00  0.00    -0.249 NA 
HETATM    8  C   UNL     1     -10.455  12.271  68.118  1.00  0.00    -0.228 C  
HETATM    9  C   UNL     1     -11.703  11.211  70.038  1.00  0.00    -0.356 C  
HETATM   10  C   UNL     1     -12.582  11.200  71.269  1.00  0.00    -0.503 C  
HETATM   11  C   UNL     1     -11.410  12.335  69.321  1.00  0.00    -0.317 C  
BRANCH   6  12
HETATM   12  C   UNL     1     -10.121   8.364  68.100  1.00  0.00    -0.200 C  
HETATM   13  N   UNL     1      -9.896   7.186  67.708  1.00  0.00    -0.140 NA 
HETATM   14  H2  UNL     1      -9.401   7.777  67.039  1.00  0.00     0.000 HD 
HETATM   15  H1  UNL     1      -9.714   6.234  67.391  1.00  0.00     0.000 HD 
ENDBRANCH   6  12
BRANCH  11  16
HETATM   16  C   UNL     1     -12.074  13.625  69.686  1.00  0.00    -0.321 C  
HETATM   17  O   UNL     1     -12.658  14.319  68.865  1.00  0.00    -0.045 OA 
BRANCH  16  18
HETATM   18  O   UNL     1     -11.974  13.950  71.009  1.00  0.00    -0.314 OA 
BRANCH  18  19
HETATM   19  C   UNL     1     -12.895  14.994  71.427  1.00  0.00    -0.359 C  
HETATM   20  C   UNL     1     -14.009  14.382  72.273  1.00  0.00    -0.610 C  
HETATM   21  C   UNL     1     -12.162  16.068  72.223  1.00  0.00    -0.604 C  
ENDBRANCH  18  19
ENDBRANCH  16  18
ENDBRANCH  11  16
BRANCH   8  22
HETATM   22  C   UNL     1     -11.022  12.980  66.867  1.00  0.00    -0.289 A  
HETATM   23  C   UNL     1     -10.525  14.250  66.503  1.00  0.00    -0.287 A  
HETATM   24  C   UNL     1     -12.046  12.421  66.083  1.00  0.00    -0.295 A  
HETATM   25  C   UNL     1     -12.573  13.117  64.986  1.00  0.00    -0.499 A  
HETATM   26  C   UNL     1     -11.085  14.957  65.424  1.00  0.00    -0.364 A  
HETATM   27  O   UNL     1      -9.717  16.788  65.830  1.00  0.00    -0.504 OA 
HETATM   28  N   UNL     1     -10.629  16.325  65.129  1.00  0.00    -0.365 N  
HETATM   29  C   UNL     1     -12.106  14.390  64.658  1.00  0.00    -0.485 A  
HETATM   30  O   UNL     1     -11.194  16.938  64.210  1.00  0.00    -1.204 OA 
ENDBRANCH   8  22
ENDBRANCH   3   5
ENDBRANCH   2   3
TORSDOF 7
ENDMDL
MODEL        5
REMARK 921   NORMALIZED FREE ENERGY PREDICTED BY IDOCK:   -6.17 KCAL/MOL
REMARK 922        TOTAL FREE ENERGY PREDICTED BY IDOCK:   -9.75 KCAL/MOL
REMARK 923 INTER-LIGAND FREE ENERGY PREDICTED BY IDOCK:   -8.72 KCAL/MOL
REMARK 924 INTRA-LIGAND FREE ENERGY PREDICTED BY IDOCK:   -1.04 KCAL/MOL
REMARK 927      BINDING AFFINITY PREDICTED BY RF-SCORE:    0.00 PKD
ROOT
HETATM    1  C   UNL     1      -6.399  14.221  69.477  1.00  0.00    -0.127 C  
HETATM    2  O   UNL     1      -7.354  14.316  68.410  1.00  0.00    -0.102 OA 
ENDROOT
BRANCH   2   3
HETATM    3  C   UNL     1      -8.374  15.176  68.659  1.00  0.00    -0.160 C  
HETATM    4  O   UNL     1      -8.528  15.821  69.680  1.00  0.00    -0.206 OA 
BRANCH   3   5
HETATM    5  C   UNL     1      -9.261  15.244  67.468  1.00  0.00    -0.202 C  
HETATM    6  C   UNL     1      -9.166  16.278  66.593  1.00  0.00    -0.244 C  
HETATM    7  N   UNL     1      -9.979  16.345  65.488  1.00  0.00    -0.549 NA 
HETATM    8  C   UNL     1     -10.307  14.131  67.291  1.00  0.00    -0.267 C  
HETATM    9  C   UNL     1     -10.997  15.426  65.238  1.00  0.00    -0.387 C  
HETATM   10  C   UNL     1     -11.803  15.696  63.988  1.00  0.00     0.058 C  
HETATM   11  C   UNL     1     -11.214  14.368  66.072  1.00  0.00    -0.333 C  
BRANCH   6  12
HETATM   12  C   UNL     1      -8.291  17.474  66.928  1.00  0.00    -0.232 C  
HETATM   13  N   UNL     1      -7.566  18.467  67.207  1.00  0.00    -0.221 NA 
HETATM   14  H2  UNL     1      -8.221  18.403  67.986  1.00  0.00     0.000 HD 
HETATM   15  H1  UNL     1      -6.978  19.271  67.432  1.00  0.00     0.000 HD 
ENDBRANCH   6  12
BRANCH  11  16
HETATM   16  C   UNL     1     -12.384  13.471  65.820  1.00  0.00    -0.468 C  
HETATM   17  O   UNL     1     -13.514  13.900  65.635  1.00  0.00    -0.590 OA 
BRANCH  16  18
HETATM   18  O   UNL     1     -12.074  12.140  65.809  1.00  0.00    -0.572 OA 
BRANCH  18  19
HETATM   19  C   UNL     1     -10.946  11.809  64.954  1.00  0.00    -0.300 C  
HETATM   20  C   UNL     1     -10.353  10.471  65.388  1.00  0.00    -0.292 C  
HETATM   21  C   UNL     1     -11.381  11.740  63.494  1.00  0.00    -0.496 C  
ENDBRANCH  18  19
ENDBRANCH  16  18
ENDBRANCH  11  16
BRANCH   8  22
HETATM   22  C   UNL     1     -11.106  13.874  68.589  1.00  0.00    -0.290 A  
HETATM   23  C   UNL     1     -11.182  12.566  69.112  1.00  0.00    -0.297 A  
HETATM   24  C   UNL     1     -11.794  14.897  69.265  1.00  0.00    -0.350 A  
HETATM   25  C   UNL     1     -12.553  14.619  70.411  1.00  0.00    -0.399 A  
HETATM   26  C   UNL     1     -11.976  12.289  70.240  1.00  0.00    -0.290 A  
HETATM   27  O   UNL     1     -11.503  10.021  70.095  1.00  0.00    -0.257 OA 
HETATM   28  N   UNL     1     -12.131  10.900  70.702  1.00  0.00    -0.342 N  
HETATM   29  C   UNL     1     -12.658  13.315  70.896  1.00  0.00    -0.386 A  
HETATM   30  O   UNL     1     -12.891  10.690  71.661  1.00  0.00    -0.414 OA 
ENDBRANCH   8  22
ENDBRANCH   3   5
ENDBRANCH   2   3
TORSDOF 7
ENDMDL
MODEL        6
REMARK 921   NORMALIZED FREE ENERGY PREDICTED BY IDOCK:   -6.17 KCAL/MOL
REMARK 922        TOTAL FREE ENERGY PREDICTED BY IDOCK:   -9.75 KCAL/MOL
REMARK 923 INTER-LIGAND FREE ENERGY PREDICTED BY IDOCK:   -8.45 KCAL/MOL
REMARK 924 INTRA-LIGAND FREE ENERGY PREDICTED BY IDOCK:   -1.30 KCAL/MOL
REMARK 927      BINDING AFFINITY PREDICTED BY RF-SCORE:    0.00 PKD
ROOT
HETATM    1  C   UNL     1     -12.460  13.333  65.040  1.00  0.00    -0.443 C  
HETATM    2  O   UNL     1     -12.174  12.248  65.935  1.00  0.00    -0.634 OA 
ENDROOT
BRANCH   2   3
HETATM    3  C   UNL     1     -11.161  12.502  66.801  1.00  0.00    -0.279 C  
HETATM    4  O   UNL     1     -10.009  12.753  66.496  1.00  0.00    -0.241 OA 
BRANCH   3   5
HETATM    5  C   UNL     1     -11.684  12.470  68.193  1.00  0.00    -0.400 C  
HETATM    6  C   UNL     1     -11.920  13.623  68.870  1.00  0.00    -0.356 C  
HETATM    7  N   UNL     1     -12.408  13.601  70.154  1.00  0.00    -0.326 NA 
HETATM    8  C   UNL     1     -11.906  11.093  68.842  1.00  0.00    -0.406 C  
HETATM    9  C   UNL     1     -12.606  12.421  70.869  1.00  0.00    -0.246 C  
HETATM   10  C   UNL     1     -13.116  12.612  72.281  1.00  0.00    -0.367 C  
HETATM   11  C   UNL     1     -12.363  11.203  70.306  1.00  0.00    -0.397 C  
BRANCH   6  12
HETATM   12  C   UNL     1     -11.465  14.950  68.286  1.00  0.00    -0.324 C  
HETATM   13  N   UNL     1     -11.087  16.051  67.802  1.00  0.00    -0.308 NA 
HETATM   14  H2  UNL     1     -11.998  16.253  68.215  1.00  0.00     0.000 HD 
HETATM   15  H1  UNL     1     -10.781  16.943  67.410  1.00  0.00     0.000 HD 
ENDBRANCH   6  12
BRANCH  11  16
HETATM   16  C   UNL     1     -12.490   9.973  71.147  1.00  0.00    -0.379 C  
HETATM   17  O   UNL     1     -13.556   9.397  71.313  1.00  0.00    -0.355 OA 
BRANCH  16  18
HETATM   18  O   UNL     1     -11.316   9.554  71.705  1.00  0.00    -0.383 OA 
BRANCH  18  19
HETATM   19  C   UNL     1     -11.378   8.213  72.263  1.00  0.00    -0.364 C  
HETATM   20  C   UNL     1     -11.404   7.190  71.130  1.00  0.00    -0.306 C  
HETATM   21  C   UNL     1     -10.181   7.956  73.173  1.00  0.00    -0.358 C  
ENDBRANCH  18  19
ENDBRANCH  16  18
ENDBRANCH  11  16
BRANCH   8  22
HETATM   22  C   UNL     1     -10.682  10.166  68.666  1.00  0.00    -0.253 A  
HETATM   23  C   UNL     1     -10.828   8.944  67.974  1.00  0.00    -0.079 A  
HETATM   24  C   UNL     1      -9.418  10.477  69.197  1.00  0.00    -0.205 A  
HETATM   25  C   UNL     1      -8.342   9.588  69.064  1.00  0.00    -0.126 A  
HETATM   26  C   UNL     1      -9.755   8.041  67.878  1.00  0.00    -0.160 A  
HETATM   27  O   UNL     1     -11.080   6.483  66.781  1.00  0.00    -0.362 OA 
HETATM   28  N   UNL     1      -9.959   6.725  67.251  1.00  0.00    -0.145 N  
HETATM   29  C   UNL     1      -8.507   8.363  68.417  1.00  0.00    -0.135 A  
HETATM   30  O   UNL     1      -9.004   5.933  67.244  1.00  0.00    -0.111 OA 
ENDBRANCH   8  22
ENDBRANCH   3   5
ENDBRANCH   2   3
TORSDOF 7
ENDMDL
MODEL        7
REMARK 921   NORMALIZED FREE ENERGY PREDICTED BY IDOCK:   -5.97 KCAL/MOL
REMARK 922        TOTAL FREE ENERGY PREDICTED BY IDOCK:   -9.47 KCAL/MOL
REMARK 923 INTER-LIGAND FREE ENERGY PREDICTED BY IDOCK:   -8.21 KCAL/MOL
REMARK 924 INTRA-LIGAND FREE ENERGY PREDICTED BY IDOCK:   -1.25 KCAL/MOL
REMARK 927      BINDING AFFINITY PREDICTED BY RF-SCORE:    0.00 PKD
ROOT
HETATM    1  C   UNL     1     -10.139   8.351  70.871  1.00  0.00    -0.194 C  
HETATM    2  O   UNL     1      -9.719   9.512  70.140  1.00  0.00    -0.214 OA 
ENDROOT
BRANCH   2   3
HETATM    3  C   UNL     1     -10.609   9.924  69.202  1.00  0.00    -0.220 C  
HETATM    4  O   UNL     1     -11.078   9.236  68.314  1.00  0.00    -0.059 OA 
BRANCH   3   5
HETATM    5  C   UNL     1     -10.964  11.347  69.453  1.00  0.00    -0.260 C  
HETATM    6  C   UNL     1     -11.984  11.669  70.290  1.00  0.00    -0.358 C  
HETATM    7  N   UNL     1     -12.313  12.980  70.529  1.00  0.00    -0.324 NA 
HETATM    8  C   UNL     1     -10.164  12.425  68.703  1.00  0.00    -0.169 C  
HETATM    9  C   UNL     1     -11.698  14.048  69.878  1.00  0.00    -0.303 C  
HETATM   10  C   UNL     1     -12.228  15.413  70.255  1.00  0.00    -0.414 C  
HETATM   11  C   UNL     1     -10.688  13.843  68.983  1.00  0.00    -0.219 C  
BRANCH   6  12
HETATM   12  C   UNL     1     -12.899  10.578  70.821  1.00  0.00    -0.367 C  
HETATM   13  N   UNL     1     -13.658   9.673  71.262  1.00  0.00    -0.425 NA 
HETATM   14  H2  UNL     1     -12.910   9.738  71.953  1.00  0.00     0.000 HD 
HETATM   15  H1  UNL     1     -14.273   8.941  71.619  1.00  0.00     0.000 HD 
ENDBRANCH   6  12
BRANCH  11  16
HETATM   16  C   UNL     1     -10.132  15.012  68.233  1.00  0.00    -0.222 C  
HETATM   17  O   UNL     1      -9.035  15.491  68.482  1.00  0.00    -0.178 OA 
BRANCH  16  18
HETATM   18  O   UNL     1     -10.954  15.486  67.251  1.00  0.00    -0.317 OA 
BRANCH  18  19
HETATM   19  C   UNL     1     -10.244  16.065  66.122  1.00  0.00    -0.324 C  
HETATM   20  C   UNL     1     -10.861  15.562  64.819  1.00  0.00    -0.385 C  
HETATM   21  C   UNL     1     -10.302  17.588  66.176  1.00  0.00    -0.330 C  
ENDBRANCH  18  19
ENDBRANCH  16  18
ENDBRANCH  11  16
BRANCH   8  22
HETATM   22  C   UNL     1     -10.052  12.118  67.192  1.00  0.00    -0.220 A  
HETATM   23  C   UNL     1     -11.162  12.348  66.352  1.00  0.00    -0.365 A  
HETATM   24  C   UNL     1      -8.885  11.587  66.615  1.00  0.00    -0.187 A  
HETATM   25  C   UNL     1      -8.837  11.271  65.250  1.00  0.00    -0.015 A  
HETATM   26  C   UNL     1     -11.118  11.993  64.992  1.00  0.00    -0.316 A  
HETATM   27  O   UNL     1     -13.333  12.618  64.690  1.00  0.00    -0.767 OA 
HETATM   28  N   UNL     1     -12.323  12.136  64.159  1.00  0.00    -0.420 N  
HETATM   29  C   UNL     1      -9.953  11.460  64.436  1.00  0.00    -0.321 A  
HETATM   30  O   UNL     1     -12.261  11.751  62.980  1.00  0.00    -0.319 OA 
ENDBRANCH   8  22
ENDBRANCH   3   5
ENDBRANCH   2   3
TORSDOF 7
ENDMDL
MODEL        8
REMARK 921   NORMALIZED FREE ENERGY PREDICTED BY IDOCK:   -5.97 KCAL/MOL
REMARK 922        TOTAL FREE ENERGY PREDICTED BY IDOCK:   -9.46 KCAL/MOL
REMARK 923 INTER-LIGAND FREE ENERGY PREDICTED BY IDOCK:   -8.09 KCAL/MOL
REMARK 924 INTRA-LIGAND FREE ENERGY PREDICTED BY IDOCK:   -1.37 KCAL/MOL
REMARK 927      BINDING AFFINITY PREDICTED BY RF-SCORE:    0.00 PKD
ROOT
HETATM    1  C   UNL     1     -10.969  16.075  65.198  1.00  0.00    -0.348 C  
HETATM    2  O   UNL     1     -11.679  15.050  64.488  1.00  0.00    -0.416 OA 
ENDROOT
BRANCH   2   3
HETATM    3  C   UNL     1     -12.150  14.056  65.283  1.00  0.00    -0.408 C  
HETATM    4  O   UNL     1     -13.260  14.009  65.782  1.00  0.00    -0.528 OA 
BRANCH   3   5
HETATM    5  C   UNL     1     -11.111  13.001  65.419  1.00  0.00    -0.300 C  
HETATM    6  C   UNL     1     -11.060  11.963  64.544  1.00  0.00    -0.325 C  
HETATM    7  N   UNL     1     -10.100  10.988  64.662  1.00  0.00    -0.286 NA 
HETATM    8  C   UNL     1     -10.133  13.109  66.601  1.00  0.00    -0.264 C  
HETATM    9  C   UNL     1      -9.186  10.945  65.713  1.00  0.00    -0.201 C  
HETATM   10  C   UNL     1      -8.234   9.771  65.680  1.00  0.00    -0.130 C  
HETATM   11  C   UNL     1      -9.170  11.913  66.676  1.00  0.00    -0.206 C  
BRANCH   6  12
HETATM   12  C   UNL     1     -12.183  11.764  63.541  1.00  0.00    -0.380 C  
HETATM   13  N   UNL     1     -13.116  11.599  62.708  1.00  0.00    -0.592 NA 
HETATM   14  H2  UNL     1     -12.756  12.532  62.507  1.00  0.00     0.000 HD 
HETATM   15  H1  UNL     1     -13.870  11.465  62.034  1.00  0.00     0.000 HD 
ENDBRANCH   6  12
BRANCH  11  16
HETATM   16  C   UNL     1      -8.242  11.766  67.839  1.00  0.00    -0.147 C  
HETATM   17  O   UNL     1      -8.473  11.014  68.775  1.00  0.00    -0.148 OA 
BRANCH  16  18
HETATM   18  O   UNL     1      -7.119  12.540  67.757  1.00  0.00    -0.099 OA 
BRANCH  18  19
HETATM   19  C   UNL     1      -7.182  13.751  68.560  1.00  0.00    -0.108 C  
HETATM   20  C   UNL     1      -6.184  13.652  69.711  1.00  0.00    -0.120 C  
HETATM   21  C   UNL     1      -6.877  14.977  67.706  1.00  0.00    -0.190 C  
ENDBRANCH  18  19
ENDBRANCH  16  18
ENDBRANCH  11  16
BRANCH   8  22
HETATM   22  C   UNL     1     -10.865  13.371  67.937  1.00  0.00    -0.263 A  
HETATM   23  C   UNL     1     -10.798  14.651  68.527  1.00  0.00    -0.256 A  
HETATM   24  C   UNL     1     -11.581  12.368  68.613  1.00  0.00    -0.365 A  
HETATM   25  C   UNL     1     -12.189  12.626  69.850  1.00  0.00    -0.238 A  
HETATM   26  C   UNL     1     -11.378  14.892  69.786  1.00  0.00    -0.283 A  
HETATM   27  O   UNL     1     -10.575  17.070  69.811  1.00  0.00    -0.237 OA 
HETATM   28  N   UNL     1     -11.201  16.201  70.435  1.00  0.00    -0.385 N  
HETATM   29  C   UNL     1     -12.081  13.882  70.447  1.00  0.00    -0.421 A  
HETATM   30  O   UNL     1     -11.673  16.351  71.573  1.00  0.00    -0.448 OA 
ENDBRANCH   8  22
ENDBRANCH   3   5
ENDBRANCH   2   3
TORSDOF 7
ENDMDL
MODEL        9
REMARK 921   NORMALIZED FREE ENERGY PREDICTED BY IDOCK:   -5.97 KCAL/MOL
REMARK 922        TOTAL FREE ENERGY PREDICTED BY IDOCK:   -9.46 KCAL/MOL
REMARK 923 INTER-LIGAND FREE ENERGY PREDICTED BY IDOCK:   -8.62 KCAL/MOL
REMARK 924 INTRA-LIGAND FREE ENERGY PREDICTED BY IDOCK:   -0.84 KCAL/MOL
REMARK 927      BINDING AFFINITY PREDICTED BY RF-SCORE:    0.00 PKD
ROOT
HETATM    1  C   UNL     1      -6.277  14.379  69.461  1.00  0.00    -0.121 C  
HETATM    2  O   UNL     1      -7.337  14.285  68.499  1.00  0.00    -0.103 OA 
ENDROOT
BRANCH   2   3
HETATM    3  C   UNL     1      -8.488  14.889  68.888  1.00  0.00    -0.174 C  
HETATM    4  O   UNL     1      -8.761  15.240  70.021  1.00  0.00    -0.010 OA 
BRANCH   3   5
HETATM    5  C   UNL     1      -9.359  15.098  67.700  1.00  0.00    -0.189 C  
HETATM    6  C   UNL     1      -9.378  16.294  67.058  1.00  0.00    -0.221 C  
HETATM    7  N   UNL     1     -10.176  16.493  65.958  1.00  0.00    -0.342 NA 
HETATM    8  C   UNL     1     -10.258  13.930  67.259  1.00  0.00    -0.249 C  
HETATM    9  C   UNL     1     -11.069  15.533  65.486  1.00  0.00    -0.262 C  
HETATM   10  C   UNL     1     -11.883  15.959  64.285  1.00  0.00    -0.071 C  
HETATM   11  C   UNL     1     -11.168  14.307  66.078  1.00  0.00    -0.324 C  
BRANCH   6  12
HETATM   12  C   UNL     1      -8.662  17.489  67.665  1.00  0.00    -0.223 C  
HETATM   13  N   UNL     1      -8.067  18.481  68.168  1.00  0.00    -0.282 NA 
HETATM   14  H2  UNL     1      -7.353  18.011  67.610  1.00  0.00     0.000 HD 
HETATM   15  H1  UNL     1      -7.586  19.284  68.575  1.00  0.00     0.000 HD 
ENDBRANCH   6  12
BRANCH  11  16
HETATM   16  C   UNL     1     -12.215  13.351  65.601  1.00  0.00    -0.463 C  
HETATM   17  O   UNL     1     -13.349  13.707  65.314  1.00  0.00    -0.669 OA 
BRANCH  16  18
HETATM   18  O   UNL     1     -11.789  12.056  65.512  1.00  0.00    -0.386 OA 
BRANCH  18  19
HETATM   19  C   UNL     1     -10.587  11.889  64.712  1.00  0.00    -0.299 C  
HETATM   20  C   UNL     1      -9.992  10.506  64.968  1.00  0.00    -0.388 C  
HETATM   21  C   UNL     1     -10.902  12.058  63.230  1.00  0.00    -0.400 C  
ENDBRANCH  18  19
ENDBRANCH  16  18
ENDBRANCH  11  16
BRANCH   8  22
HETATM   22  C   UNL     1     -11.039  13.320  68.444  1.00  0.00    -0.299 A  
HETATM   23  C   UNL     1     -11.881  14.145  69.221  1.00  0.00    -0.381 A  
HETATM   24  C   UNL     1     -10.926  11.966  68.804  1.00  0.00    -0.280 A  
HETATM   25  C   UNL     1     -11.609  11.458  69.918  1.00  0.00    -0.402 A  
HETATM   26  C   UNL     1     -12.532  13.637  70.359  1.00  0.00    -0.294 A  
HETATM   27  O   UNL     1     -13.408  15.725  70.870  1.00  0.00    -0.576 OA 
HETATM   28  N   UNL     1     -13.315  14.539  71.219  1.00  0.00    -0.358 N  
HETATM   29  C   UNL     1     -12.404  12.290  70.707  1.00  0.00    -0.383 A  
HETATM   30  O   UNL     1     -13.821  14.064  72.248  1.00  0.00    -0.468 OA 
ENDBRANCH   8  22
ENDBRANCH   3   5
ENDBRANCH   2   3
TORSDOF 7
ENDMDL
MODEL       10
REMARK 921   NORMALIZED FREE ENERGY PREDICTED BY IDOCK:   -5.96 KCAL/MOL
REMARK 922        TOTAL FREE ENERGY PREDICTED BY IDOCK:   -9.45 KCAL/MOL
REMARK 923 INTER-LIGAND FREE ENERGY PREDICTED BY IDOCK:   -9.18 KCAL/MOL
REMARK 924 INTRA-LIGAND FREE ENERGY PREDICTED BY IDOCK:   -0.26 KCAL/MOL
REMARK 927      BINDING AFFINITY PREDICTED BY RF-SCORE:    0.00 PKD
ROOT
HETATM    1  C   UNL     1     -12.718   9.906  71.657  1.00  0.00    -0.429 C  
HETATM    2  O   UNL     1     -12.564  10.228  70.267  1.00  0.00    -0.247 OA 
ENDROOT
BRANCH   2   3
HETATM    3  C   UNL     1     -11.275  10.408  69.884  1.00  0.00    -0.306 C  
HETATM    4  O   UNL     1     -10.291  10.179  70.564  1.00  0.00    -0.232 OA 
BRANCH   3   5
HETATM    5  C   UNL     1     -11.243  10.890  68.477  1.00  0.00    -0.335 C  
HETATM    6  C   UNL     1     -10.562  10.202  67.525  1.00  0.00    -0.273 C  
HETATM    7  N   UNL     1     -10.532  10.640  66.223  1.00  0.00    -0.230 NA 
HETATM    8  C   UNL     1     -11.970  12.207  68.157  1.00  0.00    -0.242 C  
HETATM    9  C   UNL     1     -11.110  11.839  65.813  1.00  0.00    -0.297 C  
HETATM   10  C   UNL     1     -10.937  12.159  64.345  1.00  0.00    -0.375 C  
HETATM   11  C   UNL     1     -11.785  12.636  66.692  1.00  0.00    -0.464 C  
BRANCH   6  12
HETATM   12  C   UNL     1      -9.663   9.045  67.926  1.00  0.00    -0.155 C  
HETATM   13  N   UNL     1      -8.916   8.084  68.259  1.00  0.00    -0.133 NA 
HETATM   14  H2  UNL     1      -8.286   8.884  68.185  1.00  0.00     0.000 HD 
HETATM   15  H1  UNL     1      -8.312   7.307  68.528  1.00  0.00     0.000 HD 
ENDBRANCH   6  12
BRANCH  11  16
HETATM   16  C   UNL     1     -12.296  13.963  66.227  1.00  0.00    -0.449 C  
HETATM   17  O   UNL     1     -13.338  14.082  65.597  1.00  0.00    -0.636 OA 
BRANCH  16  18
HETATM   18  O   UNL     1     -11.502  15.019  66.572  1.00  0.00    -0.330 OA 
BRANCH  18  19
HETATM   19  C   UNL     1     -10.520  15.369  65.559  1.00  0.00    -0.380 C  
HETATM   20  C   UNL     1     -11.131  16.369  64.580  1.00  0.00    -0.202 C  
HETATM   21  C   UNL     1      -9.272  15.963  66.204  1.00  0.00    -0.384 C  
ENDBRANCH  18  19
ENDBRANCH  16  18
ENDBRANCH  11  16
BRANCH   8  22
HETATM   22  C   UNL     1     -11.607  13.328  69.157  1.00  0.00    -0.370 A  
HETATM   23  C   UNL     1     -12.486  13.620  70.223  1.00  0.00    -0.335 A  
HETATM   24  C   UNL     1     -10.438  14.098  69.035  1.00  0.00    -0.193 A  
HETATM   25  C   UNL     1     -10.167  15.143  69.930  1.00  0.00    -0.178 A  
HETATM   26  C   UNL     1     -12.226  14.693  71.093  1.00  0.00    -0.340 A  
HETATM   27  O   UNL     1     -14.225  14.347  72.221  1.00  0.00    -0.494 OA 
HETATM   28  N   UNL     1     -13.210  15.051  72.128  1.00  0.00    -0.339 N  
HETATM   29  C   UNL     1     -11.062  15.453  70.954  1.00  0.00    -0.374 A  
HETATM   30  O   UNL     1     -12.972  16.044  72.834  1.00  0.00    -0.461 OA 
ENDBRANCH   8  22
ENDBRANCH   3   5
ENDBRANCH   2   3
TORSDOF 7
ENDMDL
MODEL       11
REMARK 921   NORMALIZED FREE ENERGY PREDICTED BY IDOCK:   -5.91 KCAL/MOL
REMARK 922        TOTAL FREE ENERGY PREDICTED BY IDOCK:   -9.37 KCAL/MOL
REMARK 923 INTER-LIGAND FREE ENERGY PREDICTED BY IDOCK:   -8.50 KCAL/MOL
REMARK 924 INTRA-LIGAND FREE ENERGY PREDICTED BY IDOCK:   -0.87 KCAL/MOL
REMARK 927      BINDING AFFINITY PREDICTED BY RF-SCORE:    0.00 PKD
ROOT
HETATM    1  C   UNL     1     -10.945  15.458  64.765  1.00  0.00    -0.393 C  
HETATM    2  O   UNL     1     -11.386  14.891  66.008  1.00  0.00    -0.342 OA 
ENDROOT
BRANCH   2   3
HETATM    3  C   UNL     1     -12.105  13.748  65.867  1.00  0.00    -0.433 C  
HETATM    4  O   UNL     1     -13.307  13.682  65.684  1.00  0.00    -0.480 OA 
BRANCH   3   5
HETATM    5  C   UNL     1     -11.188  12.579  65.927  1.00  0.00    -0.356 C  
HETATM    6  C   UNL     1     -11.135  11.689  64.902  1.00  0.00    -0.253 C  
HETATM    7  N   UNL     1     -10.287  10.610  64.949  1.00  0.00    -0.313 NA 
HETATM    8  C   UNL     1     -10.342  12.399  67.198  1.00  0.00    -0.232 C  
HETATM    9  C   UNL     1      -9.503  10.308  66.061  1.00  0.00    -0.185 C  
HETATM   10  C   UNL     1      -8.664   9.057  65.926  1.00  0.00    -0.193 C  
HETATM   11  C   UNL     1      -9.506  11.108  67.166  1.00  0.00    -0.187 C  
BRANCH   6  12
HETATM   12  C   UNL     1     -12.153  11.768  63.778  1.00  0.00    -0.358 C  
HETATM   13  N   UNL     1     -12.999  11.834  62.844  1.00  0.00    -0.784 NA 
HETATM   14  H2  UNL     1     -13.372  11.126  63.477  1.00  0.00     0.000 HD 
HETATM   15  H1  UNL     1     -13.683  11.887  62.089  1.00  0.00     0.000 HD 
ENDBRANCH   6  12
BRANCH  11  16
HETATM   16  C   UNL     1      -8.730  10.685  68.373  1.00  0.00    -0.141 C  
HETATM   17  O   UNL     1      -7.789  11.333  68.810  1.00  0.00    -0.135 OA 
BRANCH  16  18
HETATM   18  O   UNL     1      -9.169   9.522  68.939  1.00  0.00    -0.140 OA 
BRANCH  18  19
HETATM   19  C   UNL     1      -8.791   9.372  70.335  1.00  0.00    -0.249 C  
HETATM   20  C   UNL     1     -10.046   9.206  71.188  1.00  0.00    -0.384 C  
HETATM   21  C   UNL     1      -7.872   8.168  70.515  1.00  0.00    -0.087 C  
ENDBRANCH  18  19
ENDBRANCH  16  18
ENDBRANCH  11  16
BRANCH   8  22
HETATM   22  C   UNL     1     -11.190  12.529  68.483  1.00  0.00    -0.322 A  
HETATM   23  C   UNL     1     -11.228  13.762  69.169  1.00  0.00    -0.307 A  
HETATM   24  C   UNL     1     -11.915  11.451  69.020  1.00  0.00    -0.387 A  
HETATM   25  C   UNL     1     -12.632  11.591  70.217  1.00  0.00    -0.193 A  
HETATM   26  C   UNL     1     -11.918  13.883  70.388  1.00  0.00    -0.323 A  
HETATM   27  O   UNL     1     -11.217  16.081  70.641  1.00  0.00    -0.354 OA 
HETATM   28  N   UNL     1     -11.852  15.144  71.145  1.00  0.00    -0.314 N  
HETATM   29  C   UNL     1     -12.628  12.800  70.912  1.00  0.00    -0.342 A  
HETATM   30  O   UNL     1     -12.422  15.189  72.246  1.00  0.00    -0.318 OA 
ENDBRANCH   8  22
ENDBRANCH   3   5
ENDBRANCH   2   3
TORSDOF 7
ENDMDL
MODEL       12
REMARK 921   NORMALIZED FREE ENERGY PREDICTED BY IDOCK:   -5.84 KCAL/MOL
REMARK 922        TOTAL FREE ENERGY PREDICTED BY IDOCK:   -9.29 KCAL/MOL
REMARK 923 INTER-LIGAND FREE ENERGY PREDICTED BY IDOCK:   -8.19 KCAL/MOL
REMARK 924 INTRA-LIGAND FREE ENERGY PREDICTED BY IDOCK:   -1.10 KCAL/MOL
REMARK 927      BINDING AFFINITY PREDICTED BY RF-SCORE:    0.00 PKD
ROOT
HETATM    1  C   UNL     1     -10.894  16.173  65.035  1.00  0.00    -0.363 C  
HETATM    2  O   UNL     1     -11.636  15.087  64.461  1.00  0.00    -0.391 OA 
ENDROOT
BRANCH   2   3
HETATM    3  C   UNL     1     -11.975  14.121  65.353  1.00  0.00    -0.381 C  
HETATM    4  O   UNL     1     -13.062  13.995  65.886  1.00  0.00    -0.411 OA 
BRANCH   3   5
HETATM    5  C   UNL     1     -10.819  13.206  65.549  1.00  0.00    -0.299 C  
HETATM    6  C   UNL     1     -10.624  12.150  64.717  1.00  0.00    -0.296 C  
HETATM    7  N   UNL     1      -9.556  11.304  64.890  1.00  0.00    -0.233 NA 
HETATM    8  C   UNL     1      -9.889  13.476  66.743  1.00  0.00    -0.267 C  
HETATM    9  C   UNL     1      -8.668  11.412  65.958  1.00  0.00    -0.131 C  
HETATM   10  C   UNL     1      -7.580  10.361  65.989  1.00  0.00    -0.137 C  
HETATM   11  C   UNL     1      -8.790  12.409  66.882  1.00  0.00    -0.205 C  
BRANCH   6  12
HETATM   12  C   UNL     1     -11.692  11.779  63.703  1.00  0.00    -0.415 C  
HETATM   13  N   UNL     1     -12.579  11.471  62.861  1.00  0.00    -0.874 NA 
HETATM   14  H2  UNL     1     -12.534  12.489  62.824  1.00  0.00     0.000 HD 
HETATM   15  H1  UNL     1     -13.296  11.221  62.179  1.00  0.00     0.000 HD 
ENDBRANCH   6  12
BRANCH  11  16
HETATM   16  C   UNL     1      -7.877  12.420  68.067  1.00  0.00    -0.141 C  
HETATM   17  O   UNL     1      -7.917  11.561  68.936  1.00  0.00    -0.131 OA 
BRANCH  16  18
HETATM   18  O   UNL     1      -7.000  13.467  68.085  1.00  0.00    -0.089 OA 
BRANCH  18  19
HETATM   19  C   UNL     1      -7.233  14.408  69.168  1.00  0.00    -0.118 C  
HETATM   20  C   UNL     1      -6.045  14.388  70.127  1.00  0.00    -0.160 C  
HETATM   21  C   UNL     1      -7.440  15.816  68.619  1.00  0.00    -0.151 C  
ENDBRANCH  18  19
ENDBRANCH  16  18
ENDBRANCH  11  16
BRANCH   8  22
HETATM   22  C   UNL     1     -10.676  13.697  68.054  1.00  0.00    -0.258 A  
HETATM   23  C   UNL     1     -11.092  12.580  68.811  1.00  0.00    -0.314 A  
HETATM   24  C   UNL     1     -11.026  14.977  68.518  1.00  0.00    -0.259 A  
HETATM   25  C   UNL     1     -11.787  15.137  69.684  1.00  0.00    -0.362 A  
HETATM   26  C   UNL     1     -11.888  12.748  69.959  1.00  0.00    -0.281 A  
HETATM   27  O   UNL     1     -12.071  10.452  70.246  1.00  0.00    -0.277 OA 
HETATM   28  N   UNL     1     -12.405  11.568  70.670  1.00  0.00    -0.373 N  
HETATM   29  C   UNL     1     -12.232  14.027  70.402  1.00  0.00    -0.433 A  
HETATM   30  O   UNL     1     -13.155  11.759  71.640  1.00  0.00    -0.441 OA 
ENDBRANCH   8  22
ENDBRANCH   3   5
ENDBRANCH   2   3
TORSDOF 7
ENDMDL
MODEL       13
REMARK 921   NORMALIZED FREE ENERGY PREDICTED BY IDOCK:   -5.79 KCAL/MOL
REMARK 922        TOTAL FREE ENERGY PREDICTED BY IDOCK:   -9.21 KCAL/MOL
REMARK 923 INTER-LIGAND FREE ENERGY PREDICTED BY IDOCK:   -8.16 KCAL/MOL
REMARK 924 INTRA-LIGAND FREE ENERGY PREDICTED BY IDOCK:   -1.05 KCAL/MOL
REMARK 927      BINDING AFFINITY PREDICTED BY RF-SCORE:    0.00 PKD
ROOT
HETATM    1  C   UNL     1      -9.455  10.856  68.135  1.00  0.00    -0.165 C  
HETATM    2  O   UNL     1      -8.650  11.903  68.697  1.00  0.00    -0.131 OA 
ENDROOT
BRANCH   2   3
HETATM    3  C   UNL     1      -7.611  12.281  67.910  1.00  0.00    -0.127 C  
HETATM    4  O   UNL     1      -6.993  11.557  67.150  1.00  0.00    -0.117 OA 
BRANCH   3   5
HETATM    5  C   UNL     1      -7.366  13.737  68.085  1.00  0.00    -0.124 C  
HETATM    6  C   UNL     1      -6.603  14.192  69.114  1.00  0.00    -0.115 C  
HETATM    7  N   UNL     1      -6.369  15.535  69.279  1.00  0.00    -0.124 NA 
HETATM    8  C   UNL     1      -8.037  14.700  67.091  1.00  0.00    -0.213 C  
HETATM    9  C   UNL     1      -6.955  16.511  68.476  1.00  0.00    -0.154 C  
HETATM   10  C   UNL     1      -6.598  17.934  68.843  1.00  0.00    -0.241 C  
HETATM   11  C   UNL     1      -7.774  16.175  67.437  1.00  0.00    -0.187 C  
BRANCH   6  12
HETATM   12  C   UNL     1      -6.160  13.235  70.207  1.00  0.00    -0.086 C  
HETATM   13  N   UNL     1      -5.792  12.439  71.114  1.00  0.00    -0.525 NA 
HETATM   14  H2  UNL     1      -6.102  11.834  70.354  1.00  0.00     0.000 HD 
HETATM   15  H1  UNL     1      -5.494  11.796  71.848  1.00  0.00     0.000 HD 
ENDBRANCH   6  12
BRANCH  11  16
HETATM   16  C   UNL     1      -8.462  17.261  66.671  1.00  0.00    -0.260 C  
HETATM   17  O   UNL     1      -8.038  17.683  65.605  1.00  0.00    -0.518 OA 
BRANCH  16  18
HETATM   18  O   UNL     1      -9.599  17.728  67.265  1.00  0.00    -0.263 OA 
BRANCH  18  19
HETATM   19  C   UNL     1      -9.689  19.179  67.298  1.00  0.00    -0.319 C  
HETATM   20  C   UNL     1     -10.719  19.649  66.274  1.00  0.00    -0.524 C  
HETATM   21  C   UNL     1     -10.079  19.660  68.692  1.00  0.00    -0.547 C  
ENDBRANCH  18  19
ENDBRANCH  16  18
ENDBRANCH  11  16
BRANCH   8  22
HETATM   22  C   UNL     1      -9.539  14.388  66.906  1.00  0.00    -0.263 A  
HETATM   23  C   UNL     1      -9.974  13.733  65.734  1.00  0.00    -0.293 A  
HETATM   24  C   UNL     1     -10.508  14.759  67.854  1.00  0.00    -0.246 A  
HETATM   25  C   UNL     1     -11.869  14.507  67.629  1.00  0.00    -0.395 A  
HETATM   26  C   UNL     1     -11.344  13.518  65.498  1.00  0.00    -0.296 A  
HETATM   27  O   UNL     1     -10.907  12.607  63.408  1.00  0.00    -0.410 OA 
HETATM   28  N   UNL     1     -11.784  12.935  64.221  1.00  0.00    -0.360 N  
HETATM   29  C   UNL     1     -12.294  13.898  66.448  1.00  0.00    -0.468 A  
HETATM   30  O   UNL     1     -13.005  12.822  64.026  1.00  0.00    -0.690 OA 
ENDBRANCH   8  22
ENDBRANCH   3   5
ENDBRANCH   2   3
TORSDOF 7
ENDMDL
MODEL       14
REMARK 921   NORMALIZED FREE ENERGY PREDICTED BY IDOCK:   -5.77 KCAL/MOL
REMARK 922        TOTAL FREE ENERGY PREDICTED BY IDOCK:   -9.18 KCAL/MOL
REMARK 923 INTER-LIGAND FREE ENERGY PREDICTED BY IDOCK:   -7.53 KCAL/MOL
REMARK 924 INTRA-LIGAND FREE ENERGY PREDICTED BY IDOCK:   -1.65 KCAL/MOL
REMARK 927      BINDING AFFINITY PREDICTED BY RF-SCORE:    0.00 PKD
ROOT
HETATM    1  C   UNL     1      -9.840   6.795  73.421  1.00  0.00    -0.205 C  
HETATM    2  O   UNL     1     -10.147   8.025  72.748  1.00  0.00    -0.266 OA 
ENDROOT
BRANCH   2   3
HETATM    3  C   UNL     1     -10.952   7.875  71.666  1.00  0.00    -0.238 C  
HETATM    4  O   UNL     1     -11.460   6.832  71.296  1.00  0.00    -0.271 OA 
BRANCH   3   5
HETATM    5  C   UNL     1     -11.156   9.198  71.018  1.00  0.00    -0.374 C  
HETATM    6  C   UNL     1     -12.193   9.995  71.384  1.00  0.00    -0.416 C  
HETATM    7  N   UNL     1     -12.384  11.220  70.793  1.00  0.00    -0.386 NA 
HETATM    8  C   UNL     1     -10.181   9.604  69.900  1.00  0.00    -0.279 C  
HETATM    9  C   UNL     1     -11.601  11.684  69.738  1.00  0.00    -0.315 C  
HETATM   10  C   UNL     1     -11.996  13.042  69.203  1.00  0.00    -0.320 C  
HETATM   11  C   UNL     1     -10.556  10.950  69.257  1.00  0.00    -0.251 C  
BRANCH   6  12
HETATM   12  C   UNL     1     -13.267   9.459  72.315  1.00  0.00    -0.446 C  
HETATM   13  N   UNL     1     -14.158   9.014  73.089  1.00  0.00    -1.223 NA 
HETATM   14  H2  UNL     1     -13.934   9.937  73.461  1.00  0.00     0.000 HD 
HETATM   15  H1  UNL     1     -14.880   8.654  73.714  1.00  0.00     0.000 HD 
ENDBRANCH   6  12
BRANCH  11  16
HETATM   16  C   UNL     1      -9.812  11.443  68.057  1.00  0.00    -0.184 C  
HETATM   17  O   UNL     1      -8.710  11.967  68.136  1.00  0.00    -0.166 OA 
BRANCH  16  18
HETATM   18  O   UNL     1     -10.469  11.249  66.875  1.00  0.00    -0.224 OA 
BRANCH  18  19
HETATM   19  C   UNL     1      -9.610  11.345  65.705  1.00  0.00    -0.233 C  
HETATM   20  C   UNL     1      -9.322   9.945  65.168  1.00  0.00    -0.317 C  
HETATM   21  C   UNL     1     -10.271  12.195  64.625  1.00  0.00    -0.312 C  
ENDBRANCH  18  19
ENDBRANCH  16  18
ENDBRANCH  11  16
BRANCH   8  22
HETATM   22  C   UNL     1      -9.990   8.478  68.859  1.00  0.00    -0.197 A  
HETATM   23  C   UNL     1      -8.719   7.884  68.703  1.00  0.00    -0.128 A  
HETATM   24  C   UNL     1     -11.034   8.033  68.030  1.00  0.00     0.113 A  
HETATM   25  C   UNL     1     -10.812   7.045  67.060  1.00  0.00    -0.413 A  
HETATM   26  C   UNL     1      -8.495   6.921  67.703  1.00  0.00    -0.122 A  
HETATM   27  O   UNL     1      -6.239   6.797  68.236  1.00  0.00    -0.028 OA 
HETATM   28  N   UNL     1      -7.138   6.396  67.482  1.00  0.00    -0.078 N  
HETATM   29  C   UNL     1      -9.542   6.494  66.883  1.00  0.00    -0.191 A  
HETATM   30  O   UNL     1      -6.971   5.596  66.548  1.00  0.00    -0.061 OA 
ENDBRANCH   8  22
ENDBRANCH   3   5
ENDBRANCH   2   3
TORSDOF 7
ENDMDL
MODEL       15
REMARK 921   NORMALIZED FREE ENERGY PREDICTED BY IDOCK:   -5.74 KCAL/MOL
REMARK 922        TOTAL FREE ENERGY PREDICTED BY IDOCK:   -9.14 KCAL/MOL
REMARK 923 INTER-LIGAND FREE ENERGY PREDICTED BY IDOCK:   -7.45 KCAL/MOL
REMARK 924 INTRA-LIGAND FREE ENERGY PREDICTED BY IDOCK:   -1.70 KCAL/MOL
REMARK 927      BINDING AFFINITY PREDICTED BY RF-SCORE:    0.00 PKD
ROOT
HETATM    1  C   UNL     1     -12.378  12.464  64.042  1.00  0.00    -0.488 C  
HETATM    2  O   UNL     1     -12.549  12.229  65.447  1.00  0.00    -0.572 OA 
ENDROOT
BRANCH   2   3
HETATM    3  C   UNL     1     -11.497  12.632  66.205  1.00  0.00    -0.365 C  
HETATM    4  O   UNL     1     -10.726  13.533  65.930  1.00  0.00    -0.273 OA 
BRANCH   3   5
HETATM    5  C   UNL     1     -11.454  11.826  67.454  1.00  0.00    -0.375 C  
HETATM    6  C   UNL     1     -11.783  12.383  68.648  1.00  0.00    -0.326 C  
HETATM    7  N   UNL     1     -11.750  11.644  69.805  1.00  0.00    -0.331 NA 
HETATM    8  C   UNL     1     -10.987  10.365  67.346  1.00  0.00    -0.335 C  
HETATM    9  C   UNL     1     -11.302  10.325  69.850  1.00  0.00    -0.290 C  
HETATM   10  C   UNL     1     -11.309   9.698  71.226  1.00  0.00    -0.458 C  
HETATM   11  C   UNL     1     -10.905   9.674  68.718  1.00  0.00    -0.199 C  
BRANCH   6  12
HETATM   12  C   UNL     1     -12.005  13.883  68.747  1.00  0.00    -0.358 C  
HETATM   13  N   UNL     1     -12.190  15.128  68.830  1.00  0.00    -0.600 NA 
HETATM   14  H2  UNL     1     -12.454  14.769  69.748  1.00  0.00     0.000 HD 
HETATM   15  H1  UNL     1     -12.339  16.135  68.897  1.00  0.00     0.000 HD 
ENDBRANCH   6  12
BRANCH  11  16
HETATM   16  C   UNL     1     -10.333   8.297  68.833  1.00  0.00    -0.215 C  
HETATM   17  O   UNL     1     -10.981   7.292  68.576  1.00  0.00    -0.108 OA 
BRANCH  16  18
HETATM   18  O   UNL     1      -9.030   8.266  69.244  1.00  0.00    -0.145 OA 
BRANCH  18  19
HETATM   19  C   UNL     1      -8.323   7.055  68.860  1.00  0.00    -0.125 C  
HETATM   20  C   UNL     1      -7.612   7.281  67.528  1.00  0.00    -0.109 C  
HETATM   21  C   UNL     1      -7.314   6.661  69.933  1.00  0.00    -0.086 C  
ENDBRANCH  18  19
ENDBRANCH  16  18
ENDBRANCH  11  16
BRANCH   8  22
HETATM   22  C   UNL     1      -9.681  10.232  66.532  1.00  0.00    -0.243 A  
HETATM   23  C   UNL     1      -8.506  10.862  66.995  1.00  0.00    -0.134 A  
HETATM   24  C   UNL     1      -9.617   9.525  65.319  1.00  0.00    -0.314 A  
HETATM   25  C   UNL     1      -8.428   9.469  64.579  1.00  0.00    -0.191 A  
HETATM   26  C   UNL     1      -7.327  10.833  66.228  1.00  0.00    -0.138 A  
HETATM   27  O   UNL     1      -6.226  12.194  67.753  1.00  0.00    -0.067 OA 
HETATM   28  N   UNL     1      -6.146  11.590  66.674  1.00  0.00    -0.146 N  
HETATM   29  C   UNL     1      -7.282  10.131  65.022  1.00  0.00    -0.139 A  
HETATM   30  O   UNL     1      -5.147  11.591  65.937  1.00  0.00    -0.318 OA 
ENDBRANCH   8  22
ENDBRANCH   3   5
ENDBRANCH   2   3
TORSDOF 7
ENDMDL
MODEL       16
REMARK 921   NORMALIZED FREE ENERGY PREDICTED BY IDOCK:   -5.71 KCAL/MOL
REMARK 922        TOTAL FREE ENERGY PREDICTED BY IDOCK:   -9.09 KCAL/MOL
REMARK 923 INTER-LIGAND FREE ENERGY PREDICTED BY IDOCK:   -8.19 KCAL/MOL
REMARK 924 INTRA-LIGAND FREE ENERGY PREDICTED BY IDOCK:   -0.91 KCAL/MOL
REMARK 927      BINDING AFFINITY PREDICTED BY RF-SCORE:    0.00 PKD
ROOT
HETATM    1  C   UNL     1     -12.002  16.039  72.475  1.00  0.00    -0.545 C  
HETATM    2  O   UNL     1     -11.628  15.639  71.148  1.00  0.00    -0.336 OA 
ENDROOT
BRANCH   2   3
HETATM    3  C   UNL     1     -12.670  15.224  70.384  1.00  0.00    -0.356 C  
HETATM    4  O   UNL     1     -13.772  15.740  70.342  1.00  0.00    -0.094 OA 
BRANCH   3   5
HETATM    5  C   UNL     1     -12.245  14.057  69.566  1.00  0.00    -0.355 C  
HETATM    6  C   UNL     1     -12.400  12.791  70.033  1.00  0.00    -0.112 C  
HETATM    7  N   UNL     1     -12.014  11.709  69.281  1.00  0.00    -0.327 NA 
HETATM    8  C   UNL     1     -11.594  14.340  68.201  1.00  0.00    -0.365 C  
HETATM    9  C   UNL     1     -11.371  11.831  68.051  1.00  0.00    -0.288 C  
HETATM   10  C   UNL     1     -10.996  10.520  67.397  1.00  0.00    -0.352 C  
HETATM   11  C   UNL     1     -11.124  13.055  67.500  1.00  0.00    -0.297 C  
BRANCH   6  12
HETATM   12  C   UNL     1     -12.822  12.564  71.475  1.00  0.00    -0.265 C  
HETATM   13  N   UNL     1     -13.173  12.376  72.671  1.00  0.00    -0.356 NA 
HETATM   14  H2  UNL     1     -13.959  12.872  72.250  1.00  0.00     0.000 HD 
HETATM   15  H1  UNL     1     -13.457  12.223  73.640  1.00  0.00     0.000 HD 
ENDBRANCH   6  12
BRANCH  11  16
HETATM   16  C   UNL     1     -10.337  13.137  66.230  1.00  0.00    -0.287 C  
HETATM   17  O   UNL     1      -9.119  13.035  66.203  1.00  0.00    -0.080 OA 
BRANCH  16  18
HETATM   18  O   UNL     1     -11.100  13.329  65.113  1.00  0.00    -0.288 OA 
BRANCH  18  19
HETATM   19  C   UNL     1     -11.274  12.130  64.310  1.00  0.00    -0.347 C  
HETATM   20  C   UNL     1     -12.609  12.200  63.572  1.00  0.00    -0.621 C  
HETATM   21  C   UNL     1     -10.131  11.982  63.312  1.00  0.00    -0.379 C  
ENDBRANCH  18  19
ENDBRANCH  16  18
ENDBRANCH  11  16
BRANCH   8  22
HETATM   22  C   UNL     1     -10.481  15.408  68.300  1.00  0.00    -0.241 A  
HETATM   23  C   UNL     1      -9.226  15.056  68.842  1.00  0.00    -0.206 A  
HETATM   24  C   UNL     1     -10.676  16.740  67.895  1.00  0.00    -0.347 A  
HETATM   25  C   UNL     1      -9.661  17.695  68.048  1.00  0.00    -0.301 A  
HETATM   26  C   UNL     1      -8.227  16.028  69.027  1.00  0.00    -0.235 A  
HETATM   27  O   UNL     1      -6.818  14.481  70.032  1.00  0.00    -0.150 OA 
HETATM   28  N   UNL     1      -6.968  15.665  69.696  1.00  0.00    -0.187 N  
HETATM   29  C   UNL     1      -8.439  17.349  68.625  1.00  0.00    -0.257 A  
HETATM   30  O   UNL     1      -6.138  16.566  69.898  1.00  0.00    -0.208 OA 
ENDBRANCH   8  22
ENDBRANCH   3   5
ENDBRANCH   2   3
TORSDOF 7
ENDMDL
MODEL       17
REMARK 921   NORMALIZED FREE ENERGY PREDICTED BY IDOCK:   -5.69 KCAL/MOL
REMARK 922        TOTAL FREE ENERGY PREDICTED BY IDOCK:   -9.07 KCAL/MOL
REMARK 923 INTER-LIGAND FREE ENERGY PREDICTED BY IDOCK:   -7.67 KCAL/MOL
REMARK 924 INTRA-LIGAND FREE ENERGY PREDICTED BY IDOCK:   -1.40 KCAL/MOL
REMARK 927      BINDING AFFINITY PREDICTED BY RF-SCORE:    0.00 PKD
ROOT
HETATM    1  C   UNL     1     -12.024  14.193  64.790  1.00  0.00    -0.431 C  
HETATM    2  O   UNL     1     -12.075  13.150  65.776  1.00  0.00    -0.402 OA 
ENDROOT
BRANCH   2   3
HETATM    3  C   UNL     1     -11.046  13.178  66.660  1.00  0.00    -0.292 C  
HETATM    4  O   UNL     1      -9.872  13.340  66.380  1.00  0.00    -0.269 OA 
BRANCH   3   5
HETATM    5  C   UNL     1     -11.578  13.023  68.039  1.00  0.00    -0.383 C  
HETATM    6  C   UNL     1     -11.833  14.112  68.810  1.00  0.00    -0.349 C  
HETATM    7  N   UNL     1     -12.329  13.976  70.083  1.00  0.00    -0.345 NA 
HETATM    8  C   UNL     1     -11.789  11.594  68.567  1.00  0.00    -0.357 C  
HETATM    9  C   UNL     1     -12.519  12.738  70.695  1.00  0.00    -0.246 C  
HETATM   10  C   UNL     1     -13.041  12.804  72.113  1.00  0.00    -0.454 C  
HETATM   11  C   UNL     1     -12.258  11.574  70.032  1.00  0.00    -0.354 C  
BRANCH   6  12
HETATM   12  C   UNL     1     -11.388  15.488  68.344  1.00  0.00    -0.354 C  
HETATM   13  N   UNL     1     -11.019  16.630  67.956  1.00  0.00    -0.343 NA 
HETATM   14  H2  UNL     1     -11.751  16.361  67.298  1.00  0.00     0.000 HD 
HETATM   15  H1  UNL     1     -10.721  17.555  67.643  1.00  0.00     0.000 HD 
ENDBRANCH   6  12
BRANCH  11  16
HETATM   16  C   UNL     1     -12.378  10.276  70.766  1.00  0.00    -0.350 C  
HETATM   17  O   UNL     1     -13.428   9.654  70.835  1.00  0.00    -0.272 OA 
BRANCH  16  18
HETATM   18  O   UNL     1     -11.214   9.852  71.342  1.00  0.00    -0.348 OA 
BRANCH  18  19
HETATM   19  C   UNL     1     -11.017   8.413  71.271  1.00  0.00    -0.252 C  
HETATM   20  C   UNL     1      -9.528   8.109  71.129  1.00  0.00    -0.192 C  
HETATM   21  C   UNL     1     -11.574   7.734  72.518  1.00  0.00    -0.422 C  
ENDBRANCH  18  19
ENDBRANCH  16  18
ENDBRANCH  11  16
BRANCH   8  22
HETATM   22  C   UNL     1     -10.554  10.698  68.324  1.00  0.00    -0.227 A  
HETATM   23  C   UNL     1      -9.326  11.025  68.939  1.00  0.00    -0.155 A  
HETATM   24  C   UNL     1     -10.593   9.572  67.484  1.00  0.00    -0.338 A  
HETATM   25  C   UNL     1      -9.439   8.812  67.244  1.00  0.00    -0.200 A  
HETATM   26  C   UNL     1      -8.165  10.280  68.663  1.00  0.00    -0.116 A  
HETATM   27  O   UNL     1      -6.870  11.694  69.972  1.00  0.00    -0.004 OA 
HETATM   28  N   UNL     1      -6.873  10.705  69.225  1.00  0.00    -0.074 N  
HETATM   29  C   UNL     1      -8.220   9.168  67.821  1.00  0.00    -0.109 A  
HETATM   30  O   UNL     1      -5.862  10.058  68.906  1.00  0.00    -0.035 OA 
ENDBRANCH   8  22
ENDBRANCH   3   5
ENDBRANCH   2   3
TORSDOF 7
ENDMDL
MODEL       18
REMARK 921   NORMALIZED FREE ENERGY PREDICTED BY IDOCK:   -5.66 KCAL/MOL
REMARK 922        TOTAL FREE ENERGY PREDICTED BY IDOCK:   -9.02 KCAL/MOL
REMARK 923 INTER-LIGAND FREE ENERGY PREDICTED BY IDOCK:   -8.23 KCAL/MOL
REMARK 924 INTRA-LIGAND FREE ENERGY PREDICTED BY IDOCK:   -0.79 KCAL/MOL
REMARK 927      BINDING AFFINITY PREDICTED BY RF-SCORE:    0.00 PKD
ROOT
HETATM    1  C   UNL     1      -6.424  10.052  67.084  1.00  0.00    -0.069 C  
HETATM    2  O   UNL     1      -7.540  10.879  67.443  1.00  0.00    -0.095 OA 
ENDROOT
BRANCH   2   3
HETATM    3  C   UNL     1      -8.729  10.440  66.956  1.00  0.00    -0.130 C  
HETATM    4  O   UNL     1      -8.907   9.934  65.863  1.00  0.00    -0.140 OA 
BRANCH   3   5
HETATM    5  C   UNL     1      -9.784  10.634  67.985  1.00  0.00    -0.170 C  
HETATM    6  C   UNL     1     -10.421   9.566  68.533  1.00  0.00    -0.217 C  
HETATM    7  N   UNL     1     -11.393   9.738  69.488  1.00  0.00    -0.143 NA 
HETATM    8  C   UNL     1     -10.149  12.077  68.372  1.00  0.00    -0.211 C  
HETATM    9  C   UNL     1     -11.848  10.992  69.890  1.00  0.00    -0.353 C  
HETATM   10  C   UNL     1     -12.949  10.966  70.927  1.00  0.00    -0.347 C  
HETATM   11  C   UNL     1     -11.311  12.137  69.377  1.00  0.00    -0.311 C  
BRANCH   6  12
HETATM   12  C   UNL     1     -10.203   8.178  67.955  1.00  0.00    -0.218 C  
HETATM   13  N   UNL     1     -10.022   7.026  67.476  1.00  0.00    -0.145 NA 
HETATM   14  H2  UNL     1      -9.580   6.992  68.395  1.00  0.00     0.000 HD 
HETATM   15  H1  UNL     1      -9.876   6.093  67.088  1.00  0.00     0.000 HD 
ENDBRANCH   6  12
BRANCH  11  16
HETATM   16  C   UNL     1     -11.905  13.455  69.762  1.00  0.00    -0.326 C  
HETATM   17  O   UNL     1     -12.535  14.147  68.976  1.00  0.00    -0.211 OA 
BRANCH  16  18
HETATM   18  O   UNL     1     -11.683  13.808  71.063  1.00  0.00    -0.127 OA 
BRANCH  18  19
HETATM   19  C   UNL     1     -12.631  14.784  71.575  1.00  0.00    -0.333 C  
HETATM   20  C   UNL     1     -13.249  14.264  72.871  1.00  0.00    -0.593 C  
HETATM   21  C   UNL     1     -11.942  16.122  71.823  1.00  0.00    -0.560 C  
ENDBRANCH  18  19
ENDBRANCH  16  18
ENDBRANCH  11  16
BRANCH   8  22
HETATM   22  C   UNL     1     -10.388  12.967  67.131  1.00  0.00    -0.239 A  
HETATM   23  C   UNL     1     -11.371  12.597  66.188  1.00  0.00    -0.375 A  
HETATM   24  C   UNL     1      -9.638  14.130  66.882  1.00  0.00    -0.275 A  
HETATM   25  C   UNL     1      -9.845  14.885  65.719  1.00  0.00    -0.380 A  
HETATM   26  C   UNL     1     -11.546  13.338  65.006  1.00  0.00    -0.316 A  
HETATM   27  O   UNL     1     -13.153  11.850  64.235  1.00  0.00    -0.578 OA 
HETATM   28  N   UNL     1     -12.497  12.872  63.984  1.00  0.00    -0.350 N  
HETATM   29  C   UNL     1     -10.789  14.487  64.771  1.00  0.00    -0.410 A  
HETATM   30  O   UNL     1     -12.575  13.519  62.928  1.00  0.00    -0.607 OA 
ENDBRANCH   8  22
ENDBRANCH   3   5
ENDBRANCH   2   3
TORSDOF 7
ENDMDL
MODEL       19
REMARK 921   NORMALIZED FREE ENERGY PREDICTED BY IDOCK:   -5.65 KCAL/MOL
REMARK 922        TOTAL FREE ENERGY PREDICTED BY IDOCK:   -9.01 KCAL/MOL
REMARK 923 INTER-LIGAND FREE ENERGY PREDICTED BY IDOCK:   -8.31 KCAL/MOL
REMARK 924 INTRA-LIGAND FREE ENERGY PREDICTED BY IDOCK:   -0.70 KCAL/MOL
REMARK 927      BINDING AFFINITY PREDICTED BY RF-SCORE:    0.00 PKD
ROOT
HETATM    1  C   UNL     1     -11.353  15.792  64.304  1.00  0.00    -0.179 C  
HETATM    2  O   UNL     1     -11.240  15.092  65.551  1.00  0.00    -0.345 OA 
ENDROOT
BRANCH   2   3
HETATM    3  C   UNL     1     -11.981  13.957  65.614  1.00  0.00    -0.392 C  
HETATM    4  O   UNL     1     -13.192  13.890  65.505  1.00  0.00    -0.698 OA 
BRANCH   3   5
HETATM    5  C   UNL     1     -11.078  12.790  65.795  1.00  0.00    -0.316 C  
HETATM    6  C   UNL     1     -11.060  11.781  64.885  1.00  0.00    -0.285 C  
HETATM    7  N   UNL     1     -10.224  10.703  65.043  1.00  0.00    -0.317 NA 
HETATM    8  C   UNL     1     -10.204  12.751  67.059  1.00  0.00    -0.245 C  
HETATM    9  C   UNL     1      -9.419  10.525  66.166  1.00  0.00    -0.180 C  
HETATM   10  C   UNL     1      -8.599   9.255  66.165  1.00  0.00    -0.146 C  
HETATM   11  C   UNL     1      -9.386  11.453  67.166  1.00  0.00    -0.180 C  
BRANCH   6  12
HETATM   12  C   UNL     1     -12.103  11.740  63.781  1.00  0.00    -0.358 C  
HETATM   13  N   UNL     1     -12.970  11.705  62.866  1.00  0.00    -0.792 NA 
HETATM   14  H2  UNL     1     -12.874  10.734  63.164  1.00  0.00     0.000 HD 
HETATM   15  H1  UNL     1     -13.671  11.677  62.125  1.00  0.00     0.000 HD 
ENDBRANCH   6  12
BRANCH  11  16
HETATM   16  C   UNL     1      -8.586  11.168  68.398  1.00  0.00    -0.152 C  
HETATM   17  O   UNL     1      -8.804  10.201  69.114  1.00  0.00    -0.152 OA 
BRANCH  16  18
HETATM   18  O   UNL     1      -7.596  12.076  68.643  1.00  0.00    -0.122 OA 
BRANCH  18  19
HETATM   19  C   UNL     1      -6.960  12.589  67.440  1.00  0.00    -0.147 C  
HETATM   20  C   UNL     1      -6.580  14.053  67.648  1.00  0.00    -0.175 C  
HETATM   21  C   UNL     1      -5.719  11.769  67.100  1.00  0.00    -0.131 C  
ENDBRANCH  18  19
ENDBRANCH  16  18
ENDBRANCH  11  16
BRANCH   8  22
HETATM   22  C   UNL     1     -11.020  13.049  68.337  1.00  0.00    -0.288 A  
HETATM   23  C   UNL     1     -11.050  14.362  68.853  1.00  0.00    -0.277 A  
HETATM   24  C   UNL     1     -11.721  12.049  69.034  1.00  0.00    -0.382 A  
HETATM   25  C   UNL     1     -12.409  12.344  70.220  1.00  0.00    -0.264 A  
HETATM   26  C   UNL     1     -11.710  14.642  70.063  1.00  0.00    -0.294 A  
HETATM   27  O   UNL     1     -11.020  16.858  70.001  1.00  0.00    -0.189 OA 
HETATM   28  N   UNL     1     -11.634  15.994  70.642  1.00  0.00    -0.388 N  
HETATM   29  C   UNL     1     -12.397  13.636  70.746  1.00  0.00    -0.446 A  
HETATM   30  O   UNL     1     -12.176  16.183  71.743  1.00  0.00    -0.469 OA 
ENDBRANCH   8  22
ENDBRANCH   3   5
ENDBRANCH   2   3
TORSDOF 7
ENDMDL
MODEL       20
REMARK 921   NORMALIZED FREE ENERGY PREDICTED BY IDOCK:   -5.60 KCAL/MOL
REMARK 922        TOTAL FREE ENERGY PREDICTED BY IDOCK:   -8.94 KCAL/MOL
REMARK 923 INTER-LIGAND FREE ENERGY PREDICTED BY IDOCK:   -7.70 KCAL/MOL
REMARK 924 INTRA-LIGAND FREE ENERGY PREDICTED BY IDOCK:   -1.24 KCAL/MOL
REMARK 927      BINDING AFFINITY PREDICTED BY RF-SCORE:    0.00 PKD
ROOT
HETATM    1  C   UNL     1      -6.042  10.010  63.312  1.00  0.00    -0.130 C  
HETATM    2  O   UNL     1      -6.985  10.591  64.226  1.00  0.00    -0.028 OA 
ENDROOT
BRANCH   2   3
HETATM    3  C   UNL     1      -8.273  10.236  63.987  1.00  0.00    -0.151 C  
HETATM    4  O   UNL     1      -8.794  10.144  62.890  1.00  0.00    -0.179 OA 
BRANCH   3   5
HETATM    5  C   UNL     1      -8.947   9.933  65.277  1.00  0.00    -0.228 C  
HETATM    6  C   UNL     1      -9.000   8.660  65.748  1.00  0.00    -0.197 C  
HETATM    7  N   UNL     1      -9.617   8.374  66.941  1.00  0.00    -0.184 NA 
HETATM    8  C   UNL     1      -9.610  11.100  66.029  1.00  0.00    -0.248 C  
HETATM    9  C   UNL     1     -10.294   9.332  67.694  1.00  0.00    -0.253 C  
HETATM   10  C   UNL     1     -10.936   8.808  68.959  1.00  0.00     0.046 C  
HETATM   11  C   UNL     1     -10.344  10.637  67.298  1.00  0.00    -0.265 C  
BRANCH   6  12
HETATM   12  C   UNL     1      -8.548   7.509  64.866  1.00  0.00     0.137 C  
HETATM   13  N   UNL     1      -8.172   6.553  64.134  1.00  0.00    -0.306 NA 
HETATM   14  H2  UNL     1      -7.333   7.118  64.267  1.00  0.00     0.000 HD 
HETATM   15  H1  UNL     1      -7.868   5.779  63.542  1.00  0.00     0.000 HD 
ENDBRANCH   6  12
BRANCH  11  16
HETATM   16  C   UNL     1     -11.171  11.605  68.084  1.00  0.00    -0.263 C  
HETATM   17  O   UNL     1     -12.393  11.612  68.041  1.00  0.00    -0.429 OA 
BRANCH  16  18
HETATM   18  O   UNL     1     -10.441  12.469  68.849  1.00  0.00    -0.185 OA 
BRANCH  18  19
HETATM   19  C   UNL     1     -10.946  13.832  68.838  1.00  0.00    -0.252 C  
HETATM   20  C   UNL     1     -11.594  14.147  70.184  1.00  0.00    -0.292 C  
HETATM   21  C   UNL     1      -9.819  14.819  68.555  1.00  0.00    -0.218 C  
ENDBRANCH  18  19
ENDBRANCH  16  18
ENDBRANCH  11  16
BRANCH   8  22
HETATM   22  C   UNL     1     -10.502  11.955  65.101  1.00  0.00    -0.330 A  
HETATM   23  C   UNL     1     -10.394  13.362  65.134  1.00  0.00    -0.349 A  
HETATM   24  C   UNL     1     -11.451  11.386  64.234  1.00  0.00    -0.172 A  
HETATM   25  C   UNL     1     -12.281  12.194  63.444  1.00  0.00    -0.635 A  
HETATM   26  C   UNL     1     -11.256  14.166  64.368  1.00  0.00    -0.278 A  
HETATM   27  O   UNL     1     -10.348  16.105  65.264  1.00  0.00    -0.513 OA 
HETATM   28  N   UNL     1     -11.202  15.631  64.502  1.00  0.00    -0.387 N  
HETATM   29  C   UNL     1     -12.197  13.585  63.516  1.00  0.00    -0.410 A  
HETATM   30  O   UNL     1     -12.023  16.302  63.856  1.00  0.00    -1.003 OA 
ENDBRANCH   8  22
ENDBRANCH   3   5
ENDBRANCH   2   3
TORSDOF 7
ENDMDL
MODEL       21
REMARK 921   NORMALIZED FREE ENERGY PREDICTED BY IDOCK:   -5.54 KCAL/MOL
REMARK 922        TOTAL FREE ENERGY PREDICTED BY IDOCK:   -8.86 KCAL/MOL
REMARK 923 INTER-LIGAND FREE ENERGY PREDICTED BY IDOCK:   -7.62 KCAL/MOL
REMARK 924 INTRA-LIGAND FREE ENERGY PREDICTED BY IDOCK:   -1.25 KCAL/MOL
REMARK 927      BINDING AFFINITY PREDICTED BY RF-SCORE:    0.00 PKD
ROOT
HETATM    1  C   UNL     1     -12.164  12.712  64.241  1.00  0.00    -0.445 C  
HETATM    2  O   UNL     1     -12.485  12.760  65.639  1.00  0.00    -0.586 OA 
ENDROOT
BRANCH   2   3
HETATM    3  C   UNL     1     -11.425  13.043  66.438  1.00  0.00    -0.341 C  
HETATM    4  O   UNL     1     -10.615  13.934  66.257  1.00  0.00    -0.283 OA 
BRANCH   3   5
HETATM    5  C   UNL     1     -11.426  12.119  67.603  1.00  0.00    -0.399 C  
HETATM    6  C   UNL     1     -11.859  12.540  68.820  1.00  0.00    -0.303 C  
HETATM    7  N   UNL     1     -11.867  11.690  69.898  1.00  0.00    -0.337 NA 
HETATM    8  C   UNL     1     -10.886  10.695  67.386  1.00  0.00    -0.353 C  
HETATM    9  C   UNL     1     -11.362  10.392  69.846  1.00  0.00    -0.302 C  
HETATM   10  C   UNL     1     -11.431   9.631  71.151  1.00  0.00    -0.456 C  
HETATM   11  C   UNL     1     -10.862   9.875  68.686  1.00  0.00    -0.244 C  
BRANCH   6  12
HETATM   12  C   UNL     1     -12.156  14.012  69.048  1.00  0.00    -0.323 C  
HETATM   13  N   UNL     1     -12.402  15.234  69.238  1.00  0.00    -0.595 NA 
HETATM   14  H2  UNL     1     -11.800  15.220  68.414  1.00  0.00     0.000 HD 
HETATM   15  H1  UNL     1     -12.602  16.223  69.391  1.00  0.00     0.000 HD 
ENDBRANCH   6  12
BRANCH  11  16
HETATM   16  C   UNL     1     -10.236   8.516  68.707  1.00  0.00    -0.200 C  
HETATM   17  O   UNL     1      -9.398   8.190  69.536  1.00  0.00    -0.155 OA 
BRANCH  16  18
HETATM   18  O   UNL     1     -10.686   7.680  67.725  1.00  0.00    -0.214 OA 
BRANCH  18  19
HETATM   19  C   UNL     1      -9.754   6.615  67.390  1.00  0.00    -0.128 C  
HETATM   20  C   UNL     1     -10.530   5.396  66.896  1.00  0.00    -0.337 C  
HETATM   21  C   UNL     1      -8.770   7.079  66.321  1.00  0.00    -0.154 C  
ENDBRANCH  18  19
ENDBRANCH  16  18
ENDBRANCH  11  16
BRANCH   8  22
HETATM   22  C   UNL     1      -9.525  10.696  66.656  1.00  0.00    -0.195 A  
HETATM   23  C   UNL     1      -9.471  10.363  65.285  1.00  0.00    -0.290 A  
HETATM   24  C   UNL     1      -8.317  10.992  67.312  1.00  0.00    -0.125 A  
HETATM   25  C   UNL     1      -7.094  10.932  66.630  1.00  0.00    -0.135 A  
HETATM   26  C   UNL     1      -8.236  10.268  64.618  1.00  0.00    -0.161 A  
HETATM   27  O   UNL     1      -9.273   9.568  62.663  1.00  0.00    -0.264 OA 
HETATM   28  N   UNL     1      -8.193   9.810  63.220  1.00  0.00    -0.143 N  
HETATM   29  C   UNL     1      -7.045  10.559  65.287  1.00  0.00    -0.047 A  
HETATM   30  O   UNL     1      -7.079   9.679  62.688  1.00  0.00    -0.102 OA 
ENDBRANCH   8  22
ENDBRANCH   3   5
ENDBRANCH   2   3
TORSDOF 7
ENDMDL
MODEL       22
REMARK 921   NORMALIZED FREE ENERGY PREDICTED BY IDOCK:   -5.50 KCAL/MOL
REMARK 922        TOTAL FREE ENERGY PREDICTED BY IDOCK:   -8.80 KCAL/MOL
REMARK 923 INTER-LIGAND FREE ENERGY PREDICTED BY IDOCK:   -7.38 KCAL/MOL
REMARK 924 INTRA-LIGAND FREE ENERGY PREDICTED BY IDOCK:   -1.43 KCAL/MOL
REMARK 927      BINDING AFFINITY PREDICTED BY RF-SCORE:    0.00 PKD
ROOT
HETATM    1  C   UNL     1     -12.115  10.463  71.047  1.00  0.00    -0.385 C  
HETATM    2  O   UNL     1     -11.893  10.080  69.682  1.00  0.00    -0.115 OA 
ENDROOT
BRANCH   2   3
HETATM    3  C   UNL     1     -10.621  10.277  69.254  1.00  0.00    -0.230 C  
HETATM    4  O   UNL     1      -9.620  10.215  69.945  1.00  0.00    -0.213 OA 
BRANCH   3   5
HETATM    5  C   UNL     1     -10.630  10.543  67.791  1.00  0.00    -0.285 C  
HETATM    6  C   UNL     1      -9.999   9.702  66.931  1.00  0.00    -0.212 C  
HETATM    7  N   UNL     1     -10.007   9.938  65.579  1.00  0.00    -0.312 NA 
HETATM    8  C   UNL     1     -11.340  11.816  67.300  1.00  0.00    -0.379 C  
HETATM    9  C   UNL     1     -10.573  11.078  65.011  1.00  0.00    -0.244 C  
HETATM   10  C   UNL     1     -10.447  11.169  63.507  1.00  0.00    -0.422 C  
HETATM   11  C   UNL     1     -11.199  12.015  65.782  1.00  0.00    -0.383 C  
BRANCH   6  12
HETATM   12  C   UNL     1      -9.111   8.594  67.473  1.00  0.00    -0.134 C  
HETATM   13  N   UNL     1      -8.374   7.674  67.921  1.00  0.00    -0.122 NA 
HETATM   14  H2  UNL     1      -8.999   7.204  67.266  1.00  0.00     0.000 HD 
HETATM   15  H1  UNL     1      -7.778   6.930  68.285  1.00  0.00     0.000 HD 
ENDBRANCH   6  12
BRANCH  11  16
HETATM   16  C   UNL     1     -11.698  13.270  65.139  1.00  0.00    -0.330 C  
HETATM   17  O   UNL     1     -12.884  13.469  64.918  1.00  0.00    -0.684 OA 
BRANCH  16  18
HETATM   18  O   UNL     1     -10.715  14.167  64.829  1.00  0.00    -0.398 OA 
BRANCH  18  19
HETATM   19  C   UNL     1     -10.916  15.482  65.416  1.00  0.00    -0.357 C  
HETATM   20  C   UNL     1      -9.574  16.044  65.877  1.00  0.00    -0.370 C  
HETATM   21  C   UNL     1     -11.561  16.426  64.406  1.00  0.00     0.069 C  
ENDBRANCH  18  19
ENDBRANCH  16  18
ENDBRANCH  11  16
BRANCH   8  22
HETATM   22  C   UNL     1     -10.917  13.064  68.107  1.00  0.00    -0.269 A  
HETATM   23  C   UNL     1      -9.550  13.406  68.193  1.00  0.00    -0.222 A  
HETATM   24  C   UNL     1     -11.844  13.867  68.793  1.00  0.00    -0.396 A  
HETATM   25  C   UNL     1     -11.420  14.962  69.560  1.00  0.00    -0.325 A  
HETATM   26  C   UNL     1      -9.130  14.483  68.994  1.00  0.00    -0.053 A  
HETATM   27  O   UNL     1      -6.898  14.038  68.533  1.00  0.00    -0.089 OA 
HETATM   28  N   UNL     1      -7.692  14.754  69.159  1.00  0.00    -0.149 N  
HETATM   29  C   UNL     1     -10.063  15.268  69.674  1.00  0.00    -0.246 A  
HETATM   30  O   UNL     1      -7.361  15.673  69.926  1.00  0.00    -0.123 OA 
ENDBRANCH   8  22
ENDBRANCH   3   5
ENDBRANCH   2   3
TORSDOF 7
ENDMDL
MODEL       23
REMARK 921   NORMALIZED FREE ENERGY PREDICTED BY IDOCK:   -5.46 KCAL/MOL
REMARK 922        TOTAL FREE ENERGY PREDICTED BY IDOCK:   -8.75 KCAL/MOL
REMARK 923 INTER-LIGAND FREE ENERGY PREDICTED BY IDOCK:   -7.39 KCAL/MOL
REMARK 924 INTRA-LIGAND FREE ENERGY PREDICTED BY IDOCK:   -1.36 KCAL/MOL
REMARK 927      BINDING AFFINITY PREDICTED BY RF-SCORE:    0.00 PKD
ROOT
HETATM    1  C   UNL     1      -6.721  15.998  69.701  1.00  0.00    -0.171 C  
HETATM    2  O   UNL     1      -7.560  15.259  68.801  1.00  0.00    -0.121 OA 
ENDROOT
BRANCH   2   3
HETATM    3  C   UNL     1      -8.885  15.363  69.073  1.00  0.00    -0.231 C  
HETATM    4  O   UNL     1      -9.375  15.515  70.178  1.00  0.00    -0.040 OA 
BRANCH   3   5
HETATM    5  C   UNL     1      -9.655  15.305  67.802  1.00  0.00    -0.206 C  
HETATM    6  C   UNL     1     -10.198  16.430  67.271  1.00  0.00    -0.278 C  
HETATM    7  N   UNL     1     -10.906  16.385  66.095  1.00  0.00    -0.151 NA 
HETATM    8  C   UNL     1      -9.842  13.929  67.142  1.00  0.00    -0.241 C  
HETATM    9  C   UNL     1     -11.187  15.196  65.424  1.00  0.00    -0.338 C  
HETATM   10  C   UNL     1     -12.010  15.356  64.166  1.00  0.00    -0.111 C  
HETATM   11  C   UNL     1     -10.728  13.997  65.887  1.00  0.00    -0.293 C  
BRANCH   6  12
HETATM   12  C   UNL     1     -10.196  17.722  68.071  1.00  0.00    -0.377 C  
HETATM   13  N   UNL     1     -10.195  18.794  68.736  1.00  0.00    -0.460 NA 
HETATM   14  H2  UNL     1     -10.871  18.198  69.214  1.00  0.00     0.000 HD 
HETATM   15  H1  UNL     1     -10.193  19.661  69.274  1.00  0.00     0.000 HD 
ENDBRANCH   6  12
BRANCH  11  16
HETATM   16  C   UNL     1     -11.144  12.741  65.191  1.00  0.00    -0.291 C  
HETATM   17  O   UNL     1     -12.213  12.190  65.411  1.00  0.00    -0.515 OA 
BRANCH  16  18
HETATM   18  O   UNL     1     -10.229  12.272  64.291  1.00  0.00    -0.314 OA 
BRANCH  18  19
HETATM   19  C   UNL     1     -10.328  10.843  64.045  1.00  0.00    -0.349 C  
HETATM   20  C   UNL     1      -9.530  10.484  62.794  1.00  0.00    -0.353 C  
HETATM   21  C   UNL     1      -9.806  10.056  65.243  1.00  0.00    -0.388 C  
ENDBRANCH  18  19
ENDBRANCH  16  18
ENDBRANCH  11  16
BRANCH   8  22
HETATM   22  C   UNL     1     -10.321  12.862  68.153  1.00  0.00    -0.243 A  
HETATM   23  C   UNL     1      -9.551  11.696  68.350  1.00  0.00    -0.195 A  
HETATM   24  C   UNL     1     -11.521  12.991  68.874  1.00  0.00    -0.345 A  
HETATM   25  C   UNL     1     -11.951  11.978  69.743  1.00  0.00    -0.370 A  
HETATM   26  C   UNL     1     -10.008  10.668  69.195  1.00  0.00    -0.211 A  
HETATM   27  O   UNL     1      -8.186   9.332  68.663  1.00  0.00    -0.110 OA 
HETATM   28  N   UNL     1      -9.246   9.413  69.300  1.00  0.00    -0.153 N  
HETATM   29  C   UNL     1     -11.206  10.810  69.899  1.00  0.00    -0.371 A  
HETATM   30  O   UNL     1      -9.717   8.507  70.006  1.00  0.00    -0.167 OA 
ENDBRANCH   8  22
ENDBRANCH   3   5
ENDBRANCH   2   3
TORSDOF 7
ENDMDL
MODEL       24
REMARK 921   NORMALIZED FREE ENERGY PREDICTED BY IDOCK:   -5.43 KCAL/MOL
REMARK 922        TOTAL FREE ENERGY PREDICTED BY IDOCK:   -8.70 KCAL/MOL
REMARK 923 INTER-LIGAND FREE ENERGY PREDICTED BY IDOCK:   -7.62 KCAL/MOL
REMARK 924 INTRA-LIGAND FREE ENERGY PREDICTED BY IDOCK:   -1.08 KCAL/MOL
REMARK 927      BINDING AFFINITY PREDICTED BY RF-SCORE:    0.00 PKD
ROOT
HETATM    1  C   UNL     1     -12.099  13.107  63.855  1.00  0.00    -0.470 C  
HETATM    2  O   UNL     1     -11.745  13.756  65.085  1.00  0.00    -0.323 OA 
ENDROOT
BRANCH   2   3
HETATM    3  C   UNL     1     -11.554  12.903  66.123  1.00  0.00    -0.372 C  
HETATM    4  O   UNL     1     -12.383  12.133  66.574  1.00  0.00    -0.474 OA 
BRANCH   3   5
HETATM    5  C   UNL     1     -10.152  13.019  66.604  1.00  0.00    -0.251 C  
HETATM    6  C   UNL     1      -9.226  12.083  66.270  1.00  0.00    -0.206 C  
HETATM    7  N   UNL     1      -7.928  12.187  66.707  1.00  0.00    -0.083 NA 
HETATM    8  C   UNL     1      -9.806  14.207  67.517  1.00  0.00    -0.235 C  
HETATM    9  C   UNL     1      -7.498  13.188  67.576  1.00  0.00    -0.160 C  
HETATM   10  C   UNL     1      -6.039  13.107  67.966  1.00  0.00    -0.118 C  
HETATM   11  C   UNL     1      -8.351  14.160  68.012  1.00  0.00    -0.160 C  
BRANCH   6  12
HETATM   12  C   UNL     1      -9.660  10.806  65.571  1.00  0.00    -0.222 C  
HETATM   13  N   UNL     1     -10.020   9.745  64.991  1.00  0.00    -0.403 NA 
HETATM   14  H2  UNL     1      -9.148   9.497  65.459  1.00  0.00     0.000 HD 
HETATM   15  H1  UNL     1     -10.311   8.887  64.522  1.00  0.00     0.000 HD 
ENDBRANCH   6  12
BRANCH  11  16
HETATM   16  C   UNL     1      -7.869  15.150  69.025  1.00  0.00    -0.181 C  
HETATM   17  O   UNL     1      -7.366  14.813  70.087  1.00  0.00    -0.031 OA 
BRANCH  16  18
HETATM   18  O   UNL     1      -8.037  16.454  68.654  1.00  0.00    -0.194 OA 
BRANCH  18  19
HETATM   19  C   UNL     1      -7.025  16.935  67.727  1.00  0.00    -0.141 C  
HETATM   20  C   UNL     1      -7.685  17.312  66.403  1.00  0.00    -0.347 C  
HETATM   21  C   UNL     1      -6.293  18.139  68.310  1.00  0.00    -0.193 C  
ENDBRANCH  18  19
ENDBRANCH  16  18
ENDBRANCH  11  16
BRANCH   8  22
HETATM   22  C   UNL     1     -10.823  14.369  68.668  1.00  0.00    -0.260 A  
HETATM   23  C   UNL     1     -11.179  13.245  69.445  1.00  0.00    -0.220 A  
HETATM   24  C   UNL     1     -11.439  15.598  68.963  1.00  0.00    -0.369 A  
HETATM   25  C   UNL     1     -12.398  15.696  69.982  1.00  0.00    -0.304 A  
HETATM   26  C   UNL     1     -12.169  13.344  70.439  1.00  0.00    -0.345 A  
HETATM   27  O   UNL     1     -12.037  11.071  70.888  1.00  0.00    -0.342 OA 
HETATM   28  N   UNL     1     -12.606  12.138  71.160  1.00  0.00    -0.330 N  
HETATM   29  C   UNL     1     -12.776  14.571  70.715  1.00  0.00    -0.425 A  
HETATM   30  O   UNL     1     -13.526  12.257  71.984  1.00  0.00    -0.467 OA 
ENDBRANCH   8  22
ENDBRANCH   3   5
ENDBRANCH   2   3
TORSDOF 7
ENDMDL
MODEL       25
REMARK 921   NORMALIZED FREE ENERGY PREDICTED BY IDOCK:   -5.43 KCAL/MOL
REMARK 922        TOTAL FREE ENERGY PREDICTED BY IDOCK:   -8.70 KCAL/MOL
REMARK 923 INTER-LIGAND FREE ENERGY PREDICTED BY IDOCK:   -7.49 KCAL/MOL
REMARK 924 INTRA-LIGAND FREE ENERGY PREDICTED BY IDOCK:   -1.20 KCAL/MOL
REMARK 927      BINDING AFFINITY PREDICTED BY RF-SCORE:    0.00 PKD
ROOT
HETATM    1  C   UNL     1     -12.422  11.990  63.567  1.00  0.00    -0.540 C  
HETATM    2  O   UNL     1     -11.801  13.148  64.146  1.00  0.00    -0.381 OA 
ENDROOT
BRANCH   2   3
HETATM    3  C   UNL     1     -11.840  13.172  65.502  1.00  0.00    -0.380 C  
HETATM    4  O   UNL     1     -12.762  12.780  66.195  1.00  0.00    -0.296 OA 
BRANCH   3   5
HETATM    5  C   UNL     1     -10.557  13.716  66.021  1.00  0.00    -0.290 C  
HETATM    6  C   UNL     1     -10.187  14.994  65.749  1.00  0.00    -0.338 C  
HETATM    7  N   UNL     1      -9.006  15.504  66.229  1.00  0.00    -0.319 NA 
HETATM    8  C   UNL     1      -9.658  12.771  66.836  1.00  0.00    -0.235 C  
HETATM    9  C   UNL     1      -8.082  14.740  66.939  1.00  0.00    -0.048 C  
HETATM   10  C   UNL     1      -6.828  15.478  67.349  1.00  0.00    -0.224 C  
HETATM   11  C   UNL     1      -8.327  13.430  67.236  1.00  0.00    -0.183 C  
BRANCH   6  12
HETATM   12  C   UNL     1     -10.982  15.814  64.747  1.00  0.00    -0.393 C  
HETATM   13  N   UNL     1     -11.643  16.495  63.916  1.00  0.00    -1.578 NA 
HETATM   14  H2  UNL     1     -12.063  16.717  64.819  1.00  0.00     0.000 HD 
HETATM   15  H1  UNL     1     -12.176  17.047  63.243  1.00  0.00     0.000 HD 
ENDBRANCH   6  12
BRANCH  11  16
HETATM   16  C   UNL     1      -7.261  12.624  67.907  1.00  0.00    -0.116 C  
HETATM   17  O   UNL     1      -6.154  12.457  67.414  1.00  0.00    -0.135 OA 
BRANCH  16  18
HETATM   18  O   UNL     1      -7.633  12.101  69.113  1.00  0.00     0.014 OA 
BRANCH  18  19
HETATM   19  C   UNL     1      -7.121  10.762  69.353  1.00  0.00    -0.122 C  
HETATM   20  C   UNL     1      -6.005  10.821  70.393  1.00  0.00    -0.128 C  
HETATM   21  C   UNL     1      -8.237   9.840  69.833  1.00  0.00    -0.196 C  
ENDBRANCH  18  19
ENDBRANCH  16  18
ENDBRANCH  11  16
BRANCH   8  22
HETATM   22  C   UNL     1      -9.462  11.409  66.134  1.00  0.00    -0.237 A  
HETATM   23  C   UNL     1      -9.886  10.227  66.778  1.00  0.00    -0.246 A  
HETATM   24  C   UNL     1      -8.846  11.291  64.876  1.00  0.00     0.094 A  
HETATM   25  C   UNL     1      -8.636  10.033  64.292  1.00  0.00    -0.197 A  
HETATM   26  C   UNL     1      -9.639   8.968  66.203  1.00  0.00    -0.272 A  
HETATM   27  O   UNL     1     -10.541   7.878  68.044  1.00  0.00    -0.200 OA 
HETATM   28  N   UNL     1      -9.988   7.744  66.943  1.00  0.00    -0.236 N  
HETATM   29  C   UNL     1      -9.019   8.868  64.956  1.00  0.00    -0.160 A  
HETATM   30  O   UNL     1      -9.694   6.653  66.428  1.00  0.00    -0.153 OA 
ENDBRANCH   8  22
ENDBRANCH   3   5
ENDBRANCH   2   3
TORSDOF 7
ENDMDL
MODEL       26
REMARK 921   NORMALIZED FREE ENERGY PREDICTED BY IDOCK:   -5.43 KCAL/MOL
REMARK 922        TOTAL FREE ENERGY PREDICTED BY IDOCK:   -8.70 KCAL/MOL
REMARK 923 INTER-LIGAND FREE ENERGY PREDICTED BY IDOCK:   -7.96 KCAL/MOL
REMARK 924 INTRA-LIGAND FREE ENERGY PREDICTED BY IDOCK:   -0.74 KCAL/MOL
REMARK 927      BINDING AFFINITY PREDICTED BY RF-SCORE:    0.00 PKD
ROOT
HETATM    1  C   UNL     1     -10.242   8.888  70.260  1.00  0.00    -0.201 C  
HETATM    2  O   UNL     1     -10.160  10.199  69.681  1.00  0.00    -0.218 OA 
ENDROOT
BRANCH   2   3
HETATM    3  C   UNL     1     -11.353  10.690  69.261  1.00  0.00    -0.282 C  
HETATM    4  O   UNL     1     -12.158  10.104  68.560  1.00  0.00     0.058 OA 
BRANCH   3   5
HETATM    5  C   UNL     1     -11.550  12.051  69.827  1.00  0.00    -0.348 C  
HETATM    6  C   UNL     1     -12.258  12.228  70.973  1.00  0.00    -0.108 C  
HETATM    7  N   UNL     1     -12.440  13.481  71.504  1.00  0.00    -0.258 NA 
HETATM    8  C   UNL     1     -10.963  13.241  69.050  1.00  0.00    -0.249 C  
HETATM    9  C   UNL     1     -11.999  14.643  70.874  1.00  0.00    -0.326 C  
HETATM   10  C   UNL     1     -12.330  15.926  71.604  1.00  0.00    -0.519 C  
HETATM   11  C   UNL     1     -11.313  14.592  69.696  1.00  0.00    -0.314 C  
BRANCH   6  12
HETATM   12  C   UNL     1     -13.021  11.062  71.578  1.00  0.00    -0.448 C  
HETATM   13  N   UNL     1     -13.655  10.093  72.080  1.00  0.00    -0.499 NA 
HETATM   14  H2  UNL     1     -12.831  10.195  72.673  1.00  0.00     0.000 HD 
HETATM   15  H1  UNL     1     -14.168   9.310  72.486  1.00  0.00     0.000 HD 
ENDBRANCH   6  12
BRANCH  11  16
HETATM   16  C   UNL     1     -10.954  15.870  69.006  1.00  0.00    -0.277 C  
HETATM   17  O   UNL     1     -11.771  16.756  68.796  1.00  0.00     0.008 OA 
BRANCH  16  18
HETATM   18  O   UNL     1      -9.641  15.957  68.641  1.00  0.00    -0.196 OA 
BRANCH  18  19
HETATM   19  C   UNL     1      -9.436  16.539  67.324  1.00  0.00    -0.235 C  
HETATM   20  C   UNL     1      -8.608  17.814  67.454  1.00  0.00    -0.233 C  
HETATM   21  C   UNL     1      -8.732  15.547  66.404  1.00  0.00    -0.333 C  
ENDBRANCH  18  19
ENDBRANCH  16  18
ENDBRANCH  11  16
BRANCH   8  22
HETATM   22  C   UNL     1     -11.322  13.186  67.548  1.00  0.00    -0.336 A  
HETATM   23  C   UNL     1     -10.564  12.370  66.681  1.00  0.00    -0.256 A  
HETATM   24  C   UNL     1     -12.367  13.946  66.994  1.00  0.00    -0.287 A  
HETATM   25  C   UNL     1     -12.631  13.912  65.618  1.00  0.00    -0.553 A  
HETATM   26  C   UNL     1     -10.811  12.370  65.297  1.00  0.00    -0.289 A  
HETATM   27  O   UNL     1      -9.032  10.929  64.914  1.00  0.00    -0.193 OA 
HETATM   28  N   UNL     1      -9.937  11.599  64.397  1.00  0.00    -0.258 N  
HETATM   29  C   UNL     1     -11.849  13.136  64.762  1.00  0.00    -0.413 A  
HETATM   30  O   UNL     1     -10.149  11.677  63.177  1.00  0.00    -0.397 OA 
ENDBRANCH   8  22
ENDBRANCH   3   5
ENDBRANCH   2   3
TORSDOF 7
ENDMDL
MODEL       27
REMARK 921   NORMALIZED FREE ENERGY PREDICTED BY IDOCK:   -5.42 KCAL/MOL
REMARK 922        TOTAL FREE ENERGY PREDICTED BY IDOCK:   -8.69 KCAL/MOL
REMARK 923 INTER-LIGAND FREE ENERGY PREDICTED BY IDOCK:   -9.11 KCAL/MOL
REMARK 924 INTRA-LIGAND FREE ENERGY PREDICTED BY IDOCK:    0.42 KCAL/MOL
REMARK 927      BINDING AFFINITY PREDICTED BY RF-SCORE:    0.00 PKD
ROOT
HETATM    1  C   UNL     1      -8.711   9.592  67.730  1.00  0.00    -0.115 C  
HETATM    2  O   UNL     1      -9.343  10.596  68.538  1.00  0.00    -0.155 OA 
ENDROOT
BRANCH   2   3
HETATM    3  C   UNL     1     -10.686  10.676  68.364  1.00  0.00    -0.222 C  
HETATM    4  O   UNL     1     -11.351   9.981  67.617  1.00  0.00    -0.220 OA 
BRANCH   3   5
HETATM    5  C   UNL     1     -11.236  11.723  69.266  1.00  0.00    -0.318 C  
HETATM    6  C   UNL     1     -11.937  11.381  70.377  1.00  0.00    -0.374 C  
HETATM    7  N   UNL     1     -12.444  12.342  71.217  1.00  0.00    -0.253 NA 
HETATM    8  C   UNL     1     -11.017  13.194  68.871  1.00  0.00    -0.270 C  
HETATM    9  C   UNL     1     -12.355  13.707  70.948  1.00  0.00    -0.371 C  
HETATM   10  C   UNL     1     -13.007  14.601  71.979  1.00  0.00    -0.411 C  
HETATM   11  C   UNL     1     -11.710  14.168  69.838  1.00  0.00    -0.372 C  
BRANCH   6  12
HETATM   12  C   UNL     1     -12.337   9.932  70.603  1.00  0.00    -0.214 C  
HETATM   13  N   UNL     1     -12.668   8.730  70.790  1.00  0.00    -0.473 NA 
HETATM   14  H2  UNL     1     -12.203   9.005  71.656  1.00  0.00     0.000 HD 
HETATM   15  H1  UNL     1     -12.936   7.757  70.942  1.00  0.00     0.000 HD 
ENDBRANCH   6  12
BRANCH  11  16
HETATM   16  C   UNL     1     -11.732  15.634  69.540  1.00  0.00    -0.370 C  
HETATM   17  O   UNL     1     -12.672  16.176  68.975  1.00  0.00     0.414 OA 
BRANCH  16  18
HETATM   18  O   UNL     1     -10.618  16.305  69.957  1.00  0.00    -0.297 OA 
BRANCH  18  19
HETATM   19  C   UNL     1      -9.736  16.708  68.873  1.00  0.00    -0.255 C  
HETATM   20  C   UNL     1      -9.704  18.231  68.781  1.00  0.00    -0.348 C  
HETATM   21  C   UNL     1      -8.328  16.167  69.099  1.00  0.00    -0.230 C  
ENDBRANCH  18  19
ENDBRANCH  16  18
ENDBRANCH  11  16
BRANCH   8  22
HETATM   22  C   UNL     1     -11.383  13.458  67.393  1.00  0.00    -0.338 A  
HETATM   23  C   UNL     1     -10.959  14.654  66.775  1.00  0.00    -0.323 A  
HETATM   24  C   UNL     1     -12.153  12.560  66.635  1.00  0.00    -0.212 A  
HETATM   25  C   UNL     1     -12.511  12.856  65.312  1.00  0.00    -0.552 A  
HETATM   26  C   UNL     1     -11.355  14.962  65.461  1.00  0.00    -0.339 A  
HETATM   27  O   UNL     1     -10.307  17.031  65.561  1.00  0.00    -0.585 OA 
HETATM   28  N   UNL     1     -10.997  16.263  64.875  1.00  0.00    -0.387 N  
HETATM   29  C   UNL     1     -12.126  14.061  64.723  1.00  0.00    -0.455 A  
HETATM   30  O   UNL     1     -11.419  16.521  63.736  1.00  0.00    -1.065 OA 
ENDBRANCH   8  22
ENDBRANCH   3   5
ENDBRANCH   2   3
TORSDOF 7
ENDMDL
MODEL       28
REMARK 921   NORMALIZED FREE ENERGY PREDICTED BY IDOCK:   -5.42 KCAL/MOL
REMARK 922        TOTAL FREE ENERGY PREDICTED BY IDOCK:   -8.68 KCAL/MOL
REMARK 923 INTER-LIGAND FREE ENERGY PREDICTED BY IDOCK:   -7.49 KCAL/MOL
REMARK 924 INTRA-LIGAND FREE ENERGY PREDICTED BY IDOCK:   -1.19 KCAL/MOL
REMARK 927      BINDING AFFINITY PREDICTED BY RF-SCORE:    0.00 PKD
ROOT
HETATM    1  C   UNL     1     -12.151  14.354  68.344  1.00  0.00    -0.243 C  
HETATM    2  O   UNL     1     -11.813  13.907  67.023  1.00  0.00    -0.369 OA 
ENDROOT
BRANCH   2   3
HETATM    3  C   UNL     1     -10.488  13.982  66.739  1.00  0.00    -0.277 C  
HETATM    4  O   UNL     1      -9.692  14.748  67.251  1.00  0.00    -0.225 OA 
BRANCH   3   5
HETATM    5  C   UNL     1     -10.143  12.947  65.729  1.00  0.00    -0.294 C  
HETATM    6  C   UNL     1     -10.641  13.018  64.467  1.00  0.00    -0.393 C  
HETATM    7  N   UNL     1     -10.323  12.068  63.528  1.00  0.00    -0.441 NA 
HETATM    8  C   UNL     1      -9.241  11.784  66.176  1.00  0.00    -0.218 C  
HETATM    9  C   UNL     1      -9.555  10.942  63.818  1.00  0.00    -0.292 C  
HETATM   10  C   UNL     1      -9.347   9.998  62.655  1.00  0.00    -0.296 C  
HETATM   11  C   UNL     1      -9.035  10.742  65.064  1.00  0.00    -0.211 C  
BRANCH   6  12
HETATM   12  C   UNL     1     -11.713  14.042  64.134  1.00  0.00    -0.315 C  
HETATM   13  N   UNL     1     -12.602  14.893  63.858  1.00  0.00    -0.977 NA 
HETATM   14  H2  UNL     1     -11.723  15.362  63.639  1.00  0.00     0.000 HD 
HETATM   15  H1  UNL     1     -13.322  15.581  63.634  1.00  0.00     0.000 HD 
ENDBRANCH   6  12
BRANCH  11  16
HETATM   16  C   UNL     1      -8.308   9.467  65.353  1.00  0.00    -0.139 C  
HETATM   17  O   UNL     1      -7.107   9.433  65.583  1.00  0.00    -0.087 OA 
BRANCH  16  18
HETATM   18  O   UNL     1      -9.103   8.357  65.342  1.00  0.00    -0.119 OA 
BRANCH  18  19
HETATM   19  C   UNL     1      -8.952   7.516  66.519  1.00  0.00    -0.162 C  
HETATM   20  C   UNL     1     -10.329   7.162  67.074  1.00  0.00    -0.368 C  
HETATM   21  C   UNL     1      -8.184   6.244  66.173  1.00  0.00    -0.121 C  
ENDBRANCH  18  19
ENDBRANCH  16  18
ENDBRANCH  11  16
BRANCH   8  22
HETATM   22  C   UNL     1      -9.724  11.154  67.502  1.00  0.00    -0.193 A  
HETATM   23  C   UNL     1      -8.786  10.872  68.520  1.00  0.00    -0.153 A  
HETATM   24  C   UNL     1     -11.069  10.818  67.732  1.00  0.00    -0.381 A  
HETATM   25  C   UNL     1     -11.463  10.199  68.927  1.00  0.00    -0.125 A  
HETATM   26  C   UNL     1      -9.183  10.217  69.699  1.00  0.00    -0.183 A  
HETATM   27  O   UNL     1      -6.996  10.152  70.475  1.00  0.00    -0.244 OA 
HETATM   28  N   UNL     1      -8.173   9.832  70.698  1.00  0.00    -0.015 N  
HETATM   29  C   UNL     1     -10.523   9.885  69.909  1.00  0.00    -0.309 A  
HETATM   30  O   UNL     1      -8.556   9.199  71.694  1.00  0.00    -0.342 OA 
ENDBRANCH   8  22
ENDBRANCH   3   5
ENDBRANCH   2   3
TORSDOF 7
ENDMDL
MODEL       29
REMARK 921   NORMALIZED FREE ENERGY PREDICTED BY IDOCK:   -5.38 KCAL/MOL
REMARK 922        TOTAL FREE ENERGY PREDICTED BY IDOCK:   -8.63 KCAL/MOL
REMARK 923 INTER-LIGAND FREE ENERGY PREDICTED BY IDOCK:   -7.20 KCAL/MOL
REMARK 924 INTRA-LIGAND FREE ENERGY PREDICTED BY IDOCK:   -1.43 KCAL/MOL
REMARK 927      BINDING AFFINITY PREDICTED BY RF-SCORE:    0.00 PKD
ROOT
HETATM    1  C   UNL     1      -7.216  10.846  69.541  1.00  0.00    -0.113 C  
HETATM    2  O   UNL     1      -7.401  12.227  69.193  1.00  0.00    -0.037 OA 
ENDROOT
BRANCH   2   3
HETATM    3  C   UNL     1      -6.983  12.539  67.940  1.00  0.00    -0.105 C  
HETATM    4  O   UNL     1      -6.052  12.022  67.351  1.00  0.00    -0.098 OA 
BRANCH   3   5
HETATM    5  C   UNL     1      -7.870  13.590  67.374  1.00  0.00    -0.157 C  
HETATM    6  C   UNL     1      -7.600  14.906  67.576  1.00  0.00    -0.195 C  
HETATM    7  N   UNL     1      -8.412  15.881  67.052  1.00  0.00    -0.197 NA 
HETATM    8  C   UNL     1      -9.113  13.132  66.594  1.00  0.00    -0.180 C  
HETATM    9  C   UNL     1      -9.592  15.599  66.367  1.00  0.00    -0.290 C  
HETATM   10  C   UNL     1     -10.362  16.814  65.900  1.00  0.00    -0.341 C  
HETATM   11  C   UNL     1      -9.988  14.313  66.140  1.00  0.00    -0.330 C  
BRANCH   6  12
HETATM   12  C   UNL     1      -6.504  15.313  68.547  1.00  0.00    -0.092 C  
HETATM   13  N   UNL     1      -5.596  15.651  69.354  1.00  0.00    -0.108 NA 
HETATM   14  H2  UNL     1      -6.440  16.092  69.720  1.00  0.00     0.000 HD 
HETATM   15  H1  UNL     1      -4.861  15.924  70.007  1.00  0.00     0.000 HD 
ENDBRANCH   6  12
BRANCH  11  16
HETATM   16  C   UNL     1     -11.313  14.062  65.494  1.00  0.00    -0.313 C  
HETATM   17  O   UNL     1     -12.373  14.236  66.079  1.00  0.00    -0.432 OA 
BRANCH  16  18
HETATM   18  O   UNL     1     -11.231  13.629  64.201  1.00  0.00    -0.367 OA 
BRANCH  18  19
HETATM   19  C   UNL     1     -11.483  12.206  64.042  1.00  0.00    -0.411 C  
HETATM   20  C   UNL     1     -12.769  12.002  63.247  1.00  0.00    -0.437 C  
HETATM   21  C   UNL     1     -10.314  11.531  63.332  1.00  0.00    -0.469 C  
ENDBRANCH  18  19
ENDBRANCH  16  18
ENDBRANCH  11  16
BRANCH   8  22
HETATM   22  C   UNL     1      -9.915  12.056  67.361  1.00  0.00    -0.200 A  
HETATM   23  C   UNL     1     -10.706  12.435  68.467  1.00  0.00    -0.262 A  
HETATM   24  C   UNL     1      -9.868  10.694  67.018  1.00  0.00    -0.222 A  
HETATM   25  C   UNL     1     -10.567   9.737  67.769  1.00  0.00    -0.320 A  
HETATM   26  C   UNL     1     -11.373  11.466  69.238  1.00  0.00    -0.289 A  
HETATM   27  O   UNL     1     -12.135  13.078  70.723  1.00  0.00    -0.332 OA 
HETATM   28  N   UNL     1     -12.100  11.870  70.452  1.00  0.00    -0.358 N  
HETATM   29  C   UNL     1     -11.311  10.115  68.887  1.00  0.00    -0.176 A  
HETATM   30  O   UNL     1     -12.621  10.976  71.139  1.00  0.00    -0.370 OA 
ENDBRANCH   8  22
ENDBRANCH   3   5
ENDBRANCH   2   3
TORSDOF 7
ENDMDL
MODEL       30
REMARK 921   NORMALIZED FREE ENERGY PREDICTED BY IDOCK:   -5.37 KCAL/MOL
REMARK 922        TOTAL FREE ENERGY PREDICTED BY IDOCK:   -8.62 KCAL/MOL
REMARK 923 INTER-LIGAND FREE ENERGY PREDICTED BY IDOCK:   -7.03 KCAL/MOL
REMARK 924 INTRA-LIGAND FREE ENERGY PREDICTED BY IDOCK:   -1.59 KCAL/MOL
REMARK 927      BINDING AFFINITY PREDICTED BY RF-SCORE:    0.00 PKD
ROOT
HETATM    1  C   UNL     1     -12.253  12.639  64.374  1.00  0.00    -0.443 C  
HETATM    2  O   UNL     1     -12.528  12.768  65.777  1.00  0.00    -0.579 OA 
ENDROOT
BRANCH   2   3
HETATM    3  C   UNL     1     -11.425  12.990  66.536  1.00  0.00    -0.340 C  
HETATM    4  O   UNL     1     -10.606  13.874  66.359  1.00  0.00    -0.276 OA 
BRANCH   3   5
HETATM    5  C   UNL     1     -11.389  12.008  67.652  1.00  0.00    -0.375 C  
HETATM    6  C   UNL     1     -11.818  12.356  68.893  1.00  0.00    -0.301 C  
HETATM    7  N   UNL     1     -11.793  11.452  69.927  1.00  0.00    -0.330 NA 
HETATM    8  C   UNL     1     -10.816  10.612  67.357  1.00  0.00    -0.353 C  
HETATM    9  C   UNL     1     -11.255  10.172  69.803  1.00  0.00    -0.272 C  
HETATM   10  C   UNL     1     -11.290   9.344  71.067  1.00  0.00    -0.407 C  
HETATM   11  C   UNL     1     -10.756   9.727  68.613  1.00  0.00    -0.247 C  
BRANCH   6  12
HETATM   12  C   UNL     1     -12.150  13.806  69.200  1.00  0.00    -0.333 C  
HETATM   13  N   UNL     1     -12.425  15.011  69.454  1.00  0.00    -0.589 NA 
HETATM   14  H2  UNL     1     -12.029  15.032  68.514  1.00  0.00     0.000 HD 
HETATM   15  H1  UNL     1     -12.648  15.985  69.660  1.00  0.00     0.000 HD 
ENDBRANCH   6  12
BRANCH  11  16
HETATM   16  C   UNL     1     -10.095   8.386  68.558  1.00  0.00    -0.197 C  
HETATM   17  O   UNL     1     -10.609   7.423  68.007  1.00  0.00    -0.208 OA 
BRANCH  16  18
HETATM   18  O   UNL     1      -8.875   8.340  69.169  1.00  0.00    -0.141 OA 
BRANCH  18  19
HETATM   19  C   UNL     1      -8.093   7.163  68.827  1.00  0.00    -0.121 C  
HETATM   20  C   UNL     1      -7.254   7.451  67.585  1.00  0.00    -0.094 C  
HETATM   21  C   UNL     1      -7.189   6.764  69.989  1.00  0.00    -0.076 C  
ENDBRANCH  18  19
ENDBRANCH  16  18
ENDBRANCH  11  16
BRANCH   8  22
HETATM   22  C   UNL     1      -9.463  10.685  66.614  1.00  0.00    -0.195 A  
HETATM   23  C   UNL     1      -9.392  10.292  65.260  1.00  0.00    -0.267 A  
HETATM   24  C   UNL     1      -8.279  11.107  67.243  1.00  0.00    -0.136 A  
HETATM   25  C   UNL     1      -7.059  11.111  66.552  1.00  0.00    -0.124 A  
HETATM   26  C   UNL     1      -8.158  10.263  64.586  1.00  0.00    -0.154 A  
HETATM   27  O   UNL     1      -9.148   9.390  62.676  1.00  0.00    -0.252 OA 
HETATM   28  N   UNL     1      -8.087   9.743  63.211  1.00  0.00    -0.139 N  
HETATM   29  C   UNL     1      -6.989  10.679  65.228  1.00  0.00     0.022 A  
HETATM   30  O   UNL     1      -6.970   9.674  62.674  1.00  0.00    -0.100 OA 
ENDBRANCH   8  22
ENDBRANCH   3   5
ENDBRANCH   2   3
TORSDOF 7
ENDMDL
MODEL       31
REMARK 921   NORMALIZED FREE ENERGY PREDICTED BY IDOCK:   -5.37 KCAL/MOL
REMARK 922        TOTAL FREE ENERGY PREDICTED BY IDOCK:   -8.61 KCAL/MOL
REMARK 923 INTER-LIGAND FREE ENERGY PREDICTED BY IDOCK:   -7.68 KCAL/MOL
REMARK 924 INTRA-LIGAND FREE ENERGY PREDICTED BY IDOCK:   -0.93 KCAL/MOL
REMARK 927      BINDING AFFINITY PREDICTED BY RF-SCORE:    0.00 PKD
ROOT
HETATM    1  C   UNL     1     -11.745  15.505  71.367  1.00  0.00    -0.408 C  
HETATM    2  O   UNL     1     -11.609  14.186  70.819  1.00  0.00    -0.215 OA 
ENDROOT
BRANCH   2   3
HETATM    3  C   UNL     1     -12.187  14.034  69.601  1.00  0.00    -0.332 C  
HETATM    4  O   UNL     1     -12.880  14.859  69.034  1.00  0.00     0.306 OA 
BRANCH   3   5
HETATM    5  C   UNL     1     -11.808  12.711  69.038  1.00  0.00    -0.341 C  
HETATM    6  C   UNL     1     -12.091  11.566  69.711  1.00  0.00    -0.306 C  
HETATM    7  N   UNL     1     -11.748  10.340  69.195  1.00  0.00    -0.106 NA 
HETATM    8  C   UNL     1     -11.055  12.694  67.697  1.00  0.00    -0.303 C  
HETATM    9  C   UNL     1     -11.023  10.190  68.014  1.00  0.00    -0.270 C  
HETATM   10  C   UNL     1     -10.715   8.759  67.635  1.00  0.00    -0.206 C  
HETATM   11  C   UNL     1     -10.647  11.273  67.273  1.00  0.00    -0.271 C  
BRANCH   6  12
HETATM   12  C   UNL     1     -12.616  11.636  71.135  1.00  0.00    -0.335 C  
HETATM   13  N   UNL     1     -13.053  11.694  72.317  1.00  0.00    -0.405 NA 
HETATM   14  H2  UNL     1     -13.635  10.989  71.864  1.00  0.00     0.000 HD 
HETATM   15  H1  UNL     1     -13.406  11.741  73.273  1.00  0.00     0.000 HD 
ENDBRANCH   6  12
BRANCH  11  16
HETATM   16  C   UNL     1      -9.781  11.067  66.071  1.00  0.00    -0.224 C  
HETATM   17  O   UNL     1      -8.560  11.080  66.130  1.00  0.00    -0.169 OA 
BRANCH  16  18
HETATM   18  O   UNL     1     -10.475  10.860  64.913  1.00  0.00    -0.311 OA 
BRANCH  18  19
HETATM   19  C   UNL     1     -10.240  11.876  63.900  1.00  0.00    -0.389 C  
HETATM   20  C   UNL     1      -9.506  11.255  62.715  1.00  0.00    -0.355 C  
HETATM   21  C   UNL     1     -11.560  12.487  63.437  1.00  0.00    -0.547 C  
ENDBRANCH  18  19
ENDBRANCH  16  18
ENDBRANCH  11  16
BRANCH   8  22
HETATM   22  C   UNL     1      -9.869  13.684  67.685  1.00  0.00    -0.228 A  
HETATM   23  C   UNL     1      -9.977  14.890  66.958  1.00  0.00    -0.240 A  
HETATM   24  C   UNL     1      -8.661  13.421  68.353  1.00  0.00    -0.134 A  
HETATM   25  C   UNL     1      -7.586  14.319  68.278  1.00  0.00    -0.130 A  
HETATM   26  C   UNL     1      -8.882  15.766  66.856  1.00  0.00    -0.245 A  
HETATM   27  O   UNL     1     -10.059  17.174  65.435  1.00  0.00    -0.571 OA 
HETATM   28  N   UNL     1      -8.978  16.961  66.002  1.00  0.00    -0.221 N  
HETATM   29  C   UNL     1      -7.686  15.487  67.521  1.00  0.00    -0.195 A  
HETATM   30  O   UNL     1      -7.968  17.674  65.889  1.00  0.00    -0.531 OA 
ENDBRANCH   8  22
ENDBRANCH   3   5
ENDBRANCH   2   3
TORSDOF 7
ENDMDL
MODEL       32
REMARK 921   NORMALIZED FREE ENERGY PREDICTED BY IDOCK:   -5.36 KCAL/MOL
REMARK 922        TOTAL FREE ENERGY PREDICTED BY IDOCK:   -8.60 KCAL/MOL
REMARK 923 INTER-LIGAND FREE ENERGY PREDICTED BY IDOCK:   -8.29 KCAL/MOL
REMARK 924 INTRA-LIGAND FREE ENERGY PREDICTED BY IDOCK:   -0.31 KCAL/MOL
REMARK 927      BINDING AFFINITY PREDICTED BY RF-SCORE:    0.00 PKD
ROOT
HETATM    1  C   UNL     1     -10.703  16.125  65.408  1.00  0.00    -0.358 C  
HETATM    2  O   UNL     1     -11.254  14.999  64.710  1.00  0.00    -0.390 OA 
ENDROOT
BRANCH   2   3
HETATM    3  C   UNL     1     -11.858  14.091  65.518  1.00  0.00    -0.365 C  
HETATM    4  O   UNL     1     -12.965  14.204  66.013  1.00  0.00    -0.357 OA 
BRANCH   3   5
HETATM    5  C   UNL     1     -10.972  12.907  65.676  1.00  0.00    -0.297 C  
HETATM    6  C   UNL     1     -11.017  11.885  64.783  1.00  0.00    -0.312 C  
HETATM    7  N   UNL     1     -10.198  10.791  64.920  1.00  0.00    -0.314 NA 
HETATM    8  C   UNL     1     -10.041  12.869  66.900  1.00  0.00    -0.241 C  
HETATM    9  C   UNL     1      -9.346  10.613  66.008  1.00  0.00    -0.186 C  
HETATM   10  C   UNL     1      -8.554   9.325  65.990  1.00  0.00    -0.158 C  
HETATM   11  C   UNL     1      -9.247  11.555  66.990  1.00  0.00    -0.180 C  
BRANCH   6  12
HETATM   12  C   UNL     1     -12.111  11.850  63.729  1.00  0.00    -0.443 C  
HETATM   13  N   UNL     1     -13.019  11.821  62.854  1.00  0.00    -0.784 NA 
HETATM   14  H2  UNL     1     -12.166  12.016  62.330  1.00  0.00     0.000 HD 
HETATM   15  H1  UNL     1     -13.754  11.797  62.147  1.00  0.00     0.000 HD 
ENDBRANCH   6  12
BRANCH  11  16
HETATM   16  C   UNL     1      -8.398  11.271  68.188  1.00  0.00    -0.143 C  
HETATM   17  O   UNL     1      -7.436  11.962  68.492  1.00  0.00    -0.106 OA 
BRANCH  16  18
HETATM   18  O   UNL     1      -8.796  10.180  68.908  1.00  0.00    -0.136 OA 
BRANCH  18  19
HETATM   19  C   UNL     1      -7.861   9.794  69.953  1.00  0.00    -0.161 C  
HETATM   20  C   UNL     1      -8.615   9.087  71.076  1.00  0.00    -0.264 C  
HETATM   21  C   UNL     1      -6.778   8.880  69.391  1.00  0.00    -0.048 C  
ENDBRANCH  18  19
ENDBRANCH  16  18
ENDBRANCH  11  16
BRANCH   8  22
HETATM   22  C   UNL     1     -10.792  13.204  68.209  1.00  0.00    -0.274 A  
HETATM   23  C   UNL     1     -11.290  12.155  69.012  1.00  0.00    -0.329 A  
HETATM   24  C   UNL     1     -11.027  14.525  68.627  1.00  0.00    -0.263 A  
HETATM   25  C   UNL     1     -11.757  14.793  69.793  1.00  0.00    -0.354 A  
HETATM   26  C   UNL     1     -12.054  12.432  70.160  1.00  0.00    -0.290 A  
HETATM   27  O   UNL     1     -12.425  10.172  70.537  1.00  0.00    -0.277 OA 
HETATM   28  N   UNL     1     -12.659  11.327  70.921  1.00  0.00    -0.375 N  
HETATM   29  C   UNL     1     -12.284  13.751  70.558  1.00  0.00    -0.440 A  
HETATM   30  O   UNL     1     -13.379  11.617  71.890  1.00  0.00    -0.445 OA 
ENDBRANCH   8  22
ENDBRANCH   3   5
ENDBRANCH   2   3
TORSDOF 7
ENDMDL
MODEL       33
REMARK 921   NORMALIZED FREE ENERGY PREDICTED BY IDOCK:   -5.34 KCAL/MOL
REMARK 922        TOTAL FREE ENERGY PREDICTED BY IDOCK:   -8.58 KCAL/MOL
REMARK 923 INTER-LIGAND FREE ENERGY PREDICTED BY IDOCK:   -9.04 KCAL/MOL
REMARK 924 INTRA-LIGAND FREE ENERGY PREDICTED BY IDOCK:    0.46 KCAL/MOL
REMARK 927      BINDING AFFINITY PREDICTED BY RF-SCORE:    0.00 PKD
ROOT
HETATM    1  C   UNL     1     -10.751  16.165  67.755  1.00  0.00    -0.325 C  
HETATM    2  O   UNL     1     -10.512  14.753  67.662  1.00  0.00    -0.250 OA 
ENDROOT
BRANCH   2   3
HETATM    3  C   UNL     1     -11.641  14.013  67.524  1.00  0.00    -0.367 C  
HETATM    4  O   UNL     1     -12.769  14.452  67.395  1.00  0.00     0.187 OA 
BRANCH   3   5
HETATM    5  C   UNL     1     -11.283  12.569  67.511  1.00  0.00    -0.342 C  
HETATM    6  C   UNL     1     -11.387  11.840  66.370  1.00  0.00    -0.297 C  
HETATM    7  N   UNL     1     -11.054  10.508  66.350  1.00  0.00     0.051 NA 
HETATM    8  C   UNL     1     -10.834  11.932  68.837  1.00  0.00    -0.261 C  
HETATM    9  C   UNL     1     -10.679   9.803  67.492  1.00  0.00    -0.264 C  
HETATM   10  C   UNL     1     -10.387   8.337  67.266  1.00  0.00    -0.372 C  
HETATM   11  C   UNL     1     -10.581  10.422  68.704  1.00  0.00    -0.234 C  
BRANCH   6  12
HETATM   12  C   UNL     1     -12.059  12.443  65.147  1.00  0.00    -0.405 C  
HETATM   13  N   UNL     1     -12.616  12.943  64.132  1.00  0.00    -0.665 NA 
HETATM   14  H2  UNL     1     -11.748  13.471  64.234  1.00  0.00     0.000 HD 
HETATM   15  H1  UNL     1     -13.066  13.347  63.311  1.00  0.00     0.000 HD 
ENDBRANCH   6  12
BRANCH  11  16
HETATM   16  C   UNL     1     -10.277   9.601  69.918  1.00  0.00    -0.245 C  
HETATM   17  O   UNL     1      -9.187   9.623  70.471  1.00  0.00    -0.249 OA 
BRANCH  16  18
HETATM   18  O   UNL     1     -11.323   8.835  70.349  1.00  0.00    -0.256 OA 
BRANCH  18  19
HETATM   19  C   UNL     1     -10.915   7.622  71.040  1.00  0.00    -0.248 C  
HETATM   20  C   UNL     1     -11.359   7.693  72.499  1.00  0.00    -0.409 C  
HETATM   21  C   UNL     1     -11.518   6.394  70.367  1.00  0.00    -0.458 C  
ENDBRANCH  18  19
ENDBRANCH  16  18
ENDBRANCH  11  16
BRANCH   8  22
HETATM   22  C   UNL     1     -11.793  12.276  69.999  1.00  0.00    -0.372 A  
HETATM   23  C   UNL     1     -11.879  13.608  70.459  1.00  0.00    -0.277 A  
HETATM   24  C   UNL     1     -12.574  11.303  70.646  1.00  0.00    -0.377 A  
HETATM   25  C   UNL     1     -13.394  11.642  71.732  1.00  0.00    -0.340 A  
HETATM   26  C   UNL     1     -12.674  13.933  71.573  1.00  0.00    -0.357 A  
HETATM   27  O   UNL     1     -11.975  16.146  71.508  1.00  0.00    -0.453 OA 
HETATM   28  N   UNL     1     -12.663  15.305  72.105  1.00  0.00    -0.327 N  
HETATM   29  C   UNL     1     -13.439  12.952  72.208  1.00  0.00    -0.631 A  
HETATM   30  O   UNL     1     -13.328  15.535  73.127  1.00  0.00    -0.494 OA 
ENDBRANCH   8  22
ENDBRANCH   3   5
ENDBRANCH   2   3
TORSDOF 7
ENDMDL
MODEL       34
REMARK 921   NORMALIZED FREE ENERGY PREDICTED BY IDOCK:   -5.33 KCAL/MOL
REMARK 922        TOTAL FREE ENERGY PREDICTED BY IDOCK:   -8.56 KCAL/MOL
REMARK 923 INTER-LIGAND FREE ENERGY PREDICTED BY IDOCK:   -7.40 KCAL/MOL
REMARK 924 INTRA-LIGAND FREE ENERGY PREDICTED BY IDOCK:   -1.16 KCAL/MOL
REMARK 927      BINDING AFFINITY PREDICTED BY RF-SCORE:    0.00 PKD
ROOT
HETATM    1  C   UNL     1     -12.276  12.075  62.959  1.00  0.00    -0.026 C  
HETATM    2  O   UNL     1     -12.313  12.137  64.392  1.00  0.00    -0.382 OA 
ENDROOT
BRANCH   2   3
HETATM    3  C   UNL     1     -11.133  12.498  64.958  1.00  0.00    -0.299 C  
HETATM    4  O   UNL     1     -10.066  12.594  64.379  1.00  0.00    -0.314 OA 
BRANCH   3   5
HETATM    5  C   UNL     1     -11.350  12.803  66.397  1.00  0.00    -0.369 C  
HETATM    6  C   UNL     1     -11.410  14.089  66.830  1.00  0.00    -0.329 C  
HETATM    7  N   UNL     1     -11.615  14.378  68.157  1.00  0.00    -0.312 NA 
HETATM    8  C   UNL     1     -11.464  11.618  67.370  1.00  0.00    -0.357 C  
HETATM    9  C   UNL     1     -11.687  13.398  69.144  1.00  0.00    -0.326 C  
HETATM   10  C   UNL     1     -11.881  13.924  70.549  1.00  0.00    -0.317 C  
HETATM   11  C   UNL     1     -11.598  12.072  68.832  1.00  0.00    -0.377 C  
BRANCH   6  12
HETATM   12  C   UNL     1     -11.056  15.224  65.883  1.00  0.00    -0.287 C  
HETATM   13  N   UNL     1     -10.761  16.165  65.097  1.00  0.00    -0.575 NA 
HETATM   14  H2  UNL     1      -9.906  15.612  65.165  1.00  0.00     0.000 HD 
HETATM   15  H1  UNL     1     -10.523  16.926  64.460  1.00  0.00     0.000 HD 
ENDBRANCH   6  12
BRANCH  11  16
HETATM   16  C   UNL     1     -11.574  11.064  69.938  1.00  0.00    -0.337 C  
HETATM   17  O   UNL     1     -10.533  10.639  70.418  1.00  0.00     0.013 OA 
BRANCH  16  18
HETATM   18  O   UNL     1     -12.812  10.671  70.360  1.00  0.00    -0.322 OA 
BRANCH  18  19
HETATM   19  C   UNL     1     -12.937  10.583  71.806  1.00  0.00    -0.476 C  
HETATM   20  C   UNL     1     -13.891  11.666  72.303  1.00  0.00     0.295 C  
HETATM   21  C   UNL     1     -13.449   9.206  72.216  1.00  0.00    -0.546 C  
ENDBRANCH  18  19
ENDBRANCH  16  18
ENDBRANCH  11  16
BRANCH   8  22
HETATM   22  C   UNL     1     -10.327  10.590  67.166  1.00  0.00    -0.285 A  
HETATM   23  C   UNL     1     -10.648   9.231  66.963  1.00  0.00    -0.263 A  
HETATM   24  C   UNL     1      -8.969  10.951  67.201  1.00  0.00    -0.141 A  
HETATM   25  C   UNL     1      -7.964   9.983  67.065  1.00  0.00    -0.106 A  
HETATM   26  C   UNL     1      -9.634   8.261  66.865  1.00  0.00    -0.207 A  
HETATM   27  O   UNL     1     -11.194   6.549  66.725  1.00  0.00    -0.334 OA 
HETATM   28  N   UNL     1      -9.990   6.837  66.766  1.00  0.00    -0.185 N  
HETATM   29  C   UNL     1      -8.289   8.636  66.909  1.00  0.00    -0.108 A  
HETATM   30  O   UNL     1      -9.065   6.009  66.747  1.00  0.00    -0.124 OA 
ENDBRANCH   8  22
ENDBRANCH   3   5
ENDBRANCH   2   3
TORSDOF 7
ENDMDL
MODEL       35
REMARK 921   NORMALIZED FREE ENERGY PREDICTED BY IDOCK:   -5.26 KCAL/MOL
REMARK 922        TOTAL FREE ENERGY PREDICTED BY IDOCK:   -8.46 KCAL/MOL
REMARK 923 INTER-LIGAND FREE ENERGY PREDICTED BY IDOCK:   -9.01 KCAL/MOL
REMARK 924 INTRA-LIGAND FREE ENERGY PREDICTED BY IDOCK:    0.55 KCAL/MOL
REMARK 927      BINDING AFFINITY PREDICTED BY RF-SCORE:    0.00 PKD
ROOT
HETATM    1  C   UNL     1      -9.808  19.371  69.192  1.00  0.00    -0.359 C  
HETATM    2  O   UNL     1     -10.458  18.334  68.443  1.00  0.00    -0.352 OA 
ENDROOT
BRANCH   2   3
HETATM    3  C   UNL     1      -9.681  17.243  68.223  1.00  0.00    -0.294 C  
HETATM    4  O   UNL     1      -8.704  16.921  68.876  1.00  0.00    -0.259 OA 
BRANCH   3   5
HETATM    5  C   UNL     1     -10.231  16.469  67.078  1.00  0.00    -0.288 C  
HETATM    6  C   UNL     1     -10.522  17.085  65.903  1.00  0.00    -0.274 C  
HETATM    7  N   UNL     1     -11.027  16.375  64.841  1.00  0.00    -0.629 NA 
HETATM    8  C   UNL     1     -10.493  14.969  67.290  1.00  0.00    -0.265 C  
HETATM    9  C   UNL     1     -11.353  15.023  64.918  1.00  0.00    -0.417 C  
HETATM   10  C   UNL     1     -11.928  14.434  63.650  1.00  0.00     0.202 C  
HETATM   11  C   UNL     1     -11.143  14.309  66.063  1.00  0.00    -0.319 C  
BRANCH   6  12
HETATM   12  C   UNL     1     -10.476  18.601  65.812  1.00  0.00    -0.256 C  
HETATM   13  N   UNL     1     -10.438  19.859  65.735  1.00  0.00    -0.483 NA 
HETATM   14  H2  UNL     1     -11.081  19.578  64.995  1.00  0.00     0.000 HD 
HETATM   15  H1  UNL     1     -10.408  20.877  65.674  1.00  0.00     0.000 HD 
ENDBRANCH   6  12
BRANCH  11  16
HETATM   16  C   UNL     1     -11.606  12.888  66.129  1.00  0.00    -0.372 C  
HETATM   17  O   UNL     1     -12.786  12.576  66.049  1.00  0.00    -0.296 OA 
BRANCH  16  18
HETATM   18  O   UNL     1     -10.597  11.980  66.283  1.00  0.00    -0.238 OA 
BRANCH  18  19
HETATM   19  C   UNL     1     -10.656  10.875  65.339  1.00  0.00    -0.173 C  
HETATM   20  C   UNL     1     -10.155  11.343  63.975  1.00  0.00    -0.369 C  
HETATM   21  C   UNL     1      -9.813   9.704  65.833  1.00  0.00    -0.358 C  
ENDBRANCH  18  19
ENDBRANCH  16  18
ENDBRANCH  11  16
BRANCH   8  22
HETATM   22  C   UNL     1     -11.272  14.695  68.597  1.00  0.00    -0.293 A  
HETATM   23  C   UNL     1     -11.308  13.387  69.124  1.00  0.00    -0.333 A  
HETATM   24  C   UNL     1     -11.979  15.702  69.278  1.00  0.00    -0.338 A  
HETATM   25  C   UNL     1     -12.719  15.407  70.432  1.00  0.00    -0.407 A  
HETATM   26  C   UNL     1     -12.083  13.092  70.260  1.00  0.00    -0.314 A  
HETATM   27  O   UNL     1     -11.552  10.836  70.116  1.00  0.00    -0.284 OA 
HETATM   28  N   UNL     1     -12.196  11.701  70.728  1.00  0.00    -0.375 N  
HETATM   29  C   UNL     1     -12.785  14.102  70.921  1.00  0.00    -0.432 A  
HETATM   30  O   UNL     1     -12.941  11.474  71.695  1.00  0.00    -0.437 OA 
ENDBRANCH   8  22
ENDBRANCH   3   5
ENDBRANCH   2   3
TORSDOF 7
ENDMDL
MODEL       36
REMARK 921   NORMALIZED FREE ENERGY PREDICTED BY IDOCK:   -5.25 KCAL/MOL
REMARK 922        TOTAL FREE ENERGY PREDICTED BY IDOCK:   -8.45 KCAL/MOL
REMARK 923 INTER-LIGAND FREE ENERGY PREDICTED BY IDOCK:   -7.07 KCAL/MOL
REMARK 924 INTRA-LIGAND FREE ENERGY PREDICTED BY IDOCK:   -1.38 KCAL/MOL
REMARK 927      BINDING AFFINITY PREDICTED BY RF-SCORE:    0.00 PKD
ROOT
HETATM    1  C   UNL     1     -10.106   6.572  67.428  1.00  0.00    -0.162 C  
HETATM    2  O   UNL     1     -10.661   7.601  66.596  1.00  0.00    -0.239 OA 
ENDROOT
BRANCH   2   3
HETATM    3  C   UNL     1      -9.774   8.568  66.251  1.00  0.00    -0.229 C  
HETATM    4  O   UNL     1      -8.648   8.383  65.828  1.00  0.00    -0.142 OA 
BRANCH   3   5
HETATM    5  C   UNL     1     -10.407   9.902  66.430  1.00  0.00    -0.246 C  
HETATM    6  C   UNL     1     -10.619  10.716  65.362  1.00  0.00    -0.115 C  
HETATM    7  N   UNL     1     -11.207  11.947  65.519  1.00  0.00    -0.317 NA 
HETATM    8  C   UNL     1     -10.771  10.336  67.860  1.00  0.00    -0.310 C  
HETATM    9  C   UNL     1     -11.540  12.475  66.765  1.00  0.00    -0.382 C  
HETATM   10  C   UNL     1     -12.146  13.860  66.726  1.00  0.00    -0.476 C  
HETATM   11  C   UNL     1     -11.334  11.765  67.912  1.00  0.00    -0.362 C  
BRANCH   6  12
HETATM   12  C   UNL     1     -10.031  10.355  64.009  1.00  0.00    -0.235 C  
HETATM   13  N   UNL     1      -9.542  10.056  62.885  1.00  0.00    -0.516 NA 
HETATM   14  H2  UNL     1      -8.739  10.082  63.514  1.00  0.00     0.000 HD 
HETATM   15  H1  UNL     1      -9.147   9.814  61.976  1.00  0.00     0.000 HD 
ENDBRANCH   6  12
BRANCH  11  16
HETATM   16  C   UNL     1     -11.610  12.416  69.230  1.00  0.00    -0.319 C  
HETATM   17  O   UNL     1     -10.918  13.321  69.675  1.00  0.00    -0.029 OA 
BRANCH  16  18
HETATM   18  O   UNL     1     -12.700  11.914  69.883  1.00  0.00     0.077 OA 
BRANCH  18  19
HETATM   19  C   UNL     1     -12.495  11.731  71.311  1.00  0.00    -0.246 C  
HETATM   20  C   UNL     1     -13.360  12.725  72.082  1.00  0.00    -0.593 C  
HETATM   21  C   UNL     1     -12.842  10.304  71.723  1.00  0.00    -0.565 C  
ENDBRANCH  18  19
ENDBRANCH  16  18
ENDBRANCH  11  16
BRANCH   8  22
HETATM   22  C   UNL     1      -9.602  10.118  68.846  1.00  0.00    -0.186 A  
HETATM   23  C   UNL     1      -9.815   9.368  70.023  1.00  0.00    -0.253 A  
HETATM   24  C   UNL     1      -8.325  10.666  68.634  1.00  0.00    -0.137 A  
HETATM   25  C   UNL     1      -7.301  10.493  69.577  1.00  0.00    -0.148 A  
HETATM   26  C   UNL     1      -8.795   9.231  70.981  1.00  0.00    -0.137 A  
HETATM   27  O   UNL     1     -10.202   8.057  72.405  1.00  0.00    -0.232 OA 
HETATM   28  N   UNL     1      -9.071   8.540  72.251  1.00  0.00    -0.245 N  
HETATM   29  C   UNL     1      -7.533   9.787  70.758  1.00  0.00     0.045 A  
HETATM   30  O   UNL     1      -8.163   8.497  73.096  1.00  0.00    -0.368 OA 
ENDBRANCH   8  22
ENDBRANCH   3   5
ENDBRANCH   2   3
TORSDOF 7
ENDMDL
MODEL       37
REMARK 921   NORMALIZED FREE ENERGY PREDICTED BY IDOCK:   -5.22 KCAL/MOL
REMARK 922        TOTAL FREE ENERGY PREDICTED BY IDOCK:   -8.40 KCAL/MOL
REMARK 923 INTER-LIGAND FREE ENERGY PREDICTED BY IDOCK:   -7.84 KCAL/MOL
REMARK 924 INTRA-LIGAND FREE ENERGY PREDICTED BY IDOCK:   -0.56 KCAL/MOL
REMARK 927      BINDING AFFINITY PREDICTED BY RF-SCORE:    0.00 PKD
ROOT
HETATM    1  C   UNL     1     -11.670  15.571  68.473  1.00  0.00    -0.337 C  
HETATM    2  O   UNL     1     -11.359  15.047  67.173  1.00  0.00    -0.338 OA 
ENDROOT
BRANCH   2   3
HETATM    3  C   UNL     1     -10.079  14.612  67.048  1.00  0.00    -0.249 C  
HETATM    4  O   UNL     1      -9.129  14.997  67.704  1.00  0.00    -0.177 OA 
BRANCH   3   5
HETATM    5  C   UNL     1     -10.020  13.553  66.005  1.00  0.00    -0.308 C  
HETATM    6  C   UNL     1     -10.406  13.816  64.729  1.00  0.00    -0.398 C  
HETATM    7  N   UNL     1     -10.349  12.844  63.761  1.00  0.00    -0.344 NA 
HETATM    8  C   UNL     1      -9.549  12.154  66.434  1.00  0.00    -0.243 C  
HETATM    9  C   UNL     1      -9.986  11.526  64.029  1.00  0.00    -0.303 C  
HETATM   10  C   UNL     1     -10.021  10.601  62.833  1.00  0.00    -0.185 C  
HETATM   11  C   UNL     1      -9.619  11.135  65.284  1.00  0.00    -0.268 C  
BRANCH   6  12
HETATM   12  C   UNL     1     -11.088  15.133  64.402  1.00  0.00    -0.107 C  
HETATM   13  N   UNL     1     -11.654  16.227  64.129  1.00  0.00    -1.351 NA 
HETATM   14  H2  UNL     1     -11.259  15.916  63.242  1.00  0.00     0.000 HD 
HETATM   15  H1  UNL     1     -12.112  17.112  63.909  1.00  0.00     0.000 HD 
ENDBRANCH   6  12
BRANCH  11  16
HETATM   16  C   UNL     1      -9.339   9.688  65.543  1.00  0.00    -0.248 C  
HETATM   17  O   UNL     1     -10.140   8.954  66.104  1.00  0.00    -0.291 OA 
BRANCH  16  18
HETATM   18  O   UNL     1      -8.120   9.267  65.095  1.00  0.00    -0.114 OA 
BRANCH  18  19
HETATM   19  C   UNL     1      -7.017  10.120  65.507  1.00  0.00    -0.131 C  
HETATM   20  C   UNL     1      -6.230   9.434  66.620  1.00  0.00    -0.065 C  
HETATM   21  C   UNL     1      -6.101  10.420  64.325  1.00  0.00    -0.081 C  
ENDBRANCH  18  19
ENDBRANCH  16  18
ENDBRANCH  11  16
BRANCH   8  22
HETATM   22  C   UNL     1     -10.271  11.664  67.710  1.00  0.00    -0.202 A  
HETATM   23  C   UNL     1      -9.545  10.955  68.691  1.00  0.00    -0.192 A  
HETATM   24  C   UNL     1     -11.644  11.873  67.926  1.00  0.00    -0.393 A  
HETATM   25  C   UNL     1     -12.278  11.369  69.070  1.00  0.00    -0.200 A  
HETATM   26  C   UNL     1     -10.196  10.420  69.817  1.00  0.00    -0.184 A  
HETATM   27  O   UNL     1      -8.232   9.432  70.562  1.00  0.00    -0.169 OA 
HETATM   28  N   UNL     1      -9.443   9.589  70.771  1.00  0.00    -0.228 N  
HETATM   29  C   UNL     1     -11.562  10.632  70.014  1.00  0.00    -0.406 A  
HETATM   30  O   UNL     1     -10.068   9.083  71.717  1.00  0.00    -0.326 OA 
ENDBRANCH   8  22
ENDBRANCH   3   5
ENDBRANCH   2   3
TORSDOF 7
ENDMDL
MODEL       38
REMARK 921   NORMALIZED FREE ENERGY PREDICTED BY IDOCK:   -5.20 KCAL/MOL
REMARK 922        TOTAL FREE ENERGY PREDICTED BY IDOCK:   -8.38 KCAL/MOL
REMARK 923 INTER-LIGAND FREE ENERGY PREDICTED BY IDOCK:   -7.39 KCAL/MOL
REMARK 924 INTRA-LIGAND FREE ENERGY PREDICTED BY IDOCK:   -1.00 KCAL/MOL
REMARK 927      BINDING AFFINITY PREDICTED BY RF-SCORE:    0.00 PKD
ROOT
HETATM    1  C   UNL     1      -5.156   9.876  65.274  1.00  0.00    -0.048 C  
HETATM    2  O   UNL     1      -6.318  10.644  65.617  1.00  0.00    -0.128 OA 
ENDROOT
BRANCH   2   3
HETATM    3  C   UNL     1      -7.418  10.337  64.883  1.00  0.00    -0.114 C  
HETATM    4  O   UNL     1      -7.572  10.573  63.698  1.00  0.00    -0.079 OA 
BRANCH   3   5
HETATM    5  C   UNL     1      -8.398   9.622  65.742  1.00  0.00    -0.132 C  
HETATM    6  C   UNL     1      -8.644   8.298  65.557  1.00  0.00    -0.159 C  
HETATM    7  N   UNL     1      -9.545   7.631  66.350  1.00  0.00    -0.185 NA 
HETATM    8  C   UNL     1      -9.144  10.440  66.809  1.00  0.00    -0.161 C  
HETATM    9  C   UNL     1     -10.319   8.266  67.320  1.00  0.00    -0.302 C  
HETATM   10  C   UNL     1     -11.277   7.360  68.061  1.00  0.00     0.250 C  
HETATM   11  C   UNL     1     -10.188   9.602  67.565  1.00  0.00    -0.274 C  
BRANCH   6  12
HETATM   12  C   UNL     1      -8.070   7.585  64.345  1.00  0.00    -0.074 C  
HETATM   13  N   UNL     1      -7.593   6.991  63.339  1.00  0.00    -0.099 NA 
HETATM   14  H2  UNL     1      -7.700   6.259  64.041  1.00  0.00     0.000 HD 
HETATM   15  H1  UNL     1      -7.208   6.512  62.525  1.00  0.00     0.000 HD 
ENDBRANCH   6  12
BRANCH  11  16
HETATM   16  C   UNL     1     -11.114  10.256  68.541  1.00  0.00    -0.242 C  
HETATM   17  O   UNL     1     -12.124  10.851  68.192  1.00  0.00    -0.563 OA 
BRANCH  16  18
HETATM   18  O   UNL     1     -10.733  10.125  69.846  1.00  0.00    -0.255 OA 
BRANCH  18  19
HETATM   19  C   UNL     1     -11.787   9.630  70.717  1.00  0.00    -0.300 C  
HETATM   20  C   UNL     1     -11.177   8.746  71.802  1.00  0.00    -0.410 C  
HETATM   21  C   UNL     1     -12.547  10.790  71.351  1.00  0.00    -0.516 C  
ENDBRANCH  18  19
ENDBRANCH  16  18
ENDBRANCH  11  16
BRANCH   8  22
HETATM   22  C   UNL     1      -9.733  11.747  66.231  1.00  0.00    -0.242 A  
HETATM   23  C   UNL     1     -10.727  11.679  65.232  1.00  0.00    -0.346 A  
HETATM   24  C   UNL     1      -9.295  13.017  66.642  1.00  0.00    -0.242 A  
HETATM   25  C   UNL     1      -9.813  14.182  66.058  1.00  0.00    -0.329 A  
HETATM   26  C   UNL     1     -11.215  12.850  64.624  1.00  0.00    -0.320 A  
HETATM   27  O   UNL     1     -12.547  11.620  63.174  1.00  0.00    -0.453 OA 
HETATM   28  N   UNL     1     -12.169  12.753  63.508  1.00  0.00    -0.525 N  
HETATM   29  C   UNL     1     -10.764  14.105  65.041  1.00  0.00    -0.429 A  
HETATM   30  O   UNL     1     -12.525  13.807  62.957  1.00  0.00    -0.712 OA 
ENDBRANCH   8  22
ENDBRANCH   3   5
ENDBRANCH   2   3
TORSDOF 7
ENDMDL
MODEL       39
REMARK 921   NORMALIZED FREE ENERGY PREDICTED BY IDOCK:   -5.19 KCAL/MOL
REMARK 922        TOTAL FREE ENERGY PREDICTED BY IDOCK:   -8.37 KCAL/MOL
REMARK 923 INTER-LIGAND FREE ENERGY PREDICTED BY IDOCK:   -6.83 KCAL/MOL
REMARK 924 INTRA-LIGAND FREE ENERGY PREDICTED BY IDOCK:   -1.54 KCAL/MOL
REMARK 927      BINDING AFFINITY PREDICTED BY RF-SCORE:    0.00 PKD
ROOT
HETATM    1  C   UNL     1      -5.716  11.400  67.108  1.00  0.00    -0.092 C  
HETATM    2  O   UNL     1      -5.824  12.810  67.349  1.00  0.00    -0.208 OA 
ENDROOT
BRANCH   2   3
HETATM    3  C   UNL     1      -6.814  13.146  68.214  1.00  0.00    -0.103 C  
HETATM    4  O   UNL     1      -6.892  12.795  69.378  1.00  0.00    -0.067 OA 
BRANCH   3   5
HETATM    5  C   UNL     1      -7.776  14.053  67.533  1.00  0.00    -0.197 C  
HETATM    6  C   UNL     1      -7.681  15.400  67.681  1.00  0.00    -0.160 C  
HETATM    7  N   UNL     1      -8.564  16.242  67.050  1.00  0.00    -0.186 NA 
HETATM    8  C   UNL     1      -8.895  13.409  66.697  1.00  0.00    -0.076 C  
HETATM    9  C   UNL     1      -9.648  15.785  66.304  1.00  0.00    -0.313 C  
HETATM   10  C   UNL     1     -10.521  16.873  65.721  1.00  0.00    -0.279 C  
HETATM   11  C   UNL     1      -9.868  14.451  66.121  1.00  0.00    -0.340 C  
BRANCH   6  12
HETATM   12  C   UNL     1      -6.718  15.982  68.701  1.00  0.00    -0.125 C  
HETATM   13  N   UNL     1      -5.918  16.466  69.547  1.00  0.00    -0.164 NA 
HETATM   14  H2  UNL     1      -5.318  16.123  68.796  1.00  0.00     0.000 HD 
HETATM   15  H1  UNL     1      -5.270  16.858  70.232  1.00  0.00     0.000 HD 
ENDBRANCH   6  12
BRANCH  11  16
HETATM   16  C   UNL     1     -11.103  14.009  65.401  1.00  0.00    -0.318 C  
HETATM   17  O   UNL     1     -12.222  14.131  65.879  1.00  0.00    -0.412 OA 
BRANCH  16  18
HETATM   18  O   UNL     1     -10.866  13.466  64.170  1.00  0.00    -0.390 OA 
BRANCH  18  19
HETATM   19  C   UNL     1     -11.206  12.055  64.077  1.00  0.00    -0.397 C  
HETATM   20  C   UNL     1     -12.572  11.902  63.415  1.00  0.00    -0.555 C  
HETATM   21  C   UNL     1     -10.148  11.301  63.278  1.00  0.00    -0.428 C  
ENDBRANCH  18  19
ENDBRANCH  16  18
ENDBRANCH  11  16
BRANCH   8  22
HETATM   22  C   UNL     1      -9.616  12.278  67.465  1.00  0.00    -0.184 A  
HETATM   23  C   UNL     1      -9.479  10.943  67.027  1.00  0.00    -0.184 A  
HETATM   24  C   UNL     1     -10.435  12.528  68.579  1.00  0.00    -0.246 A  
HETATM   25  C   UNL     1     -11.116  11.484  69.220  1.00  0.00    -0.305 A  
HETATM   26  C   UNL     1     -10.196   9.907  67.652  1.00  0.00    -0.208 A  
HETATM   27  O   UNL     1      -9.387   8.347  66.135  1.00  0.00    -0.200 OA 
HETATM   28  N   UNL     1     -10.127   8.540  67.110  1.00  0.00    -0.234 N  
HETATM   29  C   UNL     1     -11.011  10.173  68.754  1.00  0.00    -0.264 A  
HETATM   30  O   UNL     1     -10.824   7.667  67.652  1.00  0.00    -0.197 OA 
ENDBRANCH   8  22
ENDBRANCH   3   5
ENDBRANCH   2   3
TORSDOF 7
ENDMDL
MODEL       40
REMARK 921   NORMALIZED FREE ENERGY PREDICTED BY IDOCK:   -5.19 KCAL/MOL
REMARK 922        TOTAL FREE ENERGY PREDICTED BY IDOCK:   -8.36 KCAL/MOL
REMARK 923 INTER-LIGAND FREE ENERGY PREDICTED BY IDOCK:   -7.20 KCAL/MOL
REMARK 924 INTRA-LIGAND FREE ENERGY PREDICTED BY IDOCK:   -1.16 KCAL/MOL
REMARK 927      BINDING AFFINITY PREDICTED BY RF-SCORE:    0.00 PKD
ROOT
HETATM    1  C   UNL     1      -9.364   8.049  71.112  1.00  0.00    -0.149 C  
HETATM    2  O   UNL     1      -9.119   9.164  70.242  1.00  0.00    -0.180 OA 
ENDROOT
BRANCH   2   3
HETATM    3  C   UNL     1     -10.072   9.341  69.293  1.00  0.00    -0.200 C  
HETATM    4  O   UNL     1     -10.552   8.467  68.594  1.00  0.00    -0.196 OA 
BRANCH   3   5
HETATM    5  C   UNL     1     -10.477  10.772  69.263  1.00  0.00    -0.243 C  
HETATM    6  C   UNL     1     -11.562  11.198  69.961  1.00  0.00    -0.338 C  
HETATM    7  N   UNL     1     -11.938  12.519  69.942  1.00  0.00    -0.328 NA 
HETATM    8  C   UNL     1      -9.652  11.730  68.388  1.00  0.00    -0.191 C  
HETATM    9  C   UNL     1     -11.304  13.477  69.154  1.00  0.00    -0.282 C  
HETATM   10  C   UNL     1     -11.893  14.867  69.247  1.00  0.00    -0.350 C  
HETATM   11  C   UNL     1     -10.229  13.155  68.377  1.00  0.00    -0.247 C  
BRANCH   6  12
HETATM   12  C   UNL     1     -12.486  10.186  70.616  1.00  0.00    -0.284 C  
HETATM   13  N   UNL     1     -13.252   9.345  71.160  1.00  0.00    -0.528 NA 
HETATM   14  H2  UNL     1     -12.372   9.254  71.668  1.00  0.00     0.000 HD 
HETATM   15  H1  UNL     1     -13.873   8.665  71.600  1.00  0.00     0.000 HD 
ENDBRANCH   6  12
BRANCH  11  16
HETATM   16  C   UNL     1      -9.650  14.194  67.470  1.00  0.00    -0.223 C  
HETATM   17  O   UNL     1      -8.844  15.029  67.856  1.00  0.00    -0.165 OA 
BRANCH  16  18
HETATM   18  O   UNL     1     -10.096  14.121  66.181  1.00  0.00    -0.291 OA 
BRANCH  18  19
HETATM   19  C   UNL     1     -11.340  14.838  65.951  1.00  0.00    -0.331 C  
HETATM   20  C   UNL     1     -11.110  15.938  64.918  1.00  0.00    -0.400 C  
HETATM   21  C   UNL     1     -12.427  13.883  65.467  1.00  0.00    -0.541 C  
ENDBRANCH  18  19
ENDBRANCH  16  18
ENDBRANCH  11  16
BRANCH   8  22
HETATM   22  C   UNL     1      -9.427  11.167  66.966  1.00  0.00    -0.193 A  
HETATM   23  C   UNL     1      -8.116  10.865  66.538  1.00  0.00    -0.154 A  
HETATM   24  C   UNL     1     -10.481  10.968  66.058  1.00  0.00    -0.304 A  
HETATM   25  C   UNL     1     -10.233  10.505  64.758  1.00  0.00    -0.373 A  
HETATM   26  C   UNL     1      -7.872  10.438  65.221  1.00  0.00    -0.137 A  
HETATM   27  O   UNL     1      -5.580  10.407  65.586  1.00  0.00    -0.073 OA 
HETATM   28  N   UNL     1      -6.489  10.235  64.761  1.00  0.00    -0.125 N  
HETATM   29  C   UNL     1      -8.930  10.250  64.329  1.00  0.00    -0.261 A  
HETATM   30  O   UNL     1      -6.313   9.920  63.573  1.00  0.00    -0.111 OA 
ENDBRANCH   8  22
ENDBRANCH   3   5
ENDBRANCH   2   3
TORSDOF 7
ENDMDL
MODEL       41
REMARK 921   NORMALIZED FREE ENERGY PREDICTED BY IDOCK:   -5.17 KCAL/MOL
REMARK 922        TOTAL FREE ENERGY PREDICTED BY IDOCK:   -8.34 KCAL/MOL
REMARK 923 INTER-LIGAND FREE ENERGY PREDICTED BY IDOCK:   -7.10 KCAL/MOL
REMARK 924 INTRA-LIGAND FREE ENERGY PREDICTED BY IDOCK:   -1.23 KCAL/MOL
REMARK 927      BINDING AFFINITY PREDICTED BY RF-SCORE:    0.00 PKD
ROOT
HETATM    1  C   UNL     1     -12.710  14.026  65.420  1.00  0.00    -0.471 C  
HETATM    2  O   UNL     1     -12.216  12.920  66.190  1.00  0.00    -0.456 OA 
ENDROOT
BRANCH   2   3
HETATM    3  C   UNL     1     -11.374  13.280  67.192  1.00  0.00    -0.317 C  
HETATM    4  O   UNL     1     -10.669  14.273  67.208  1.00  0.00    -0.273 OA 
BRANCH   3   5
HETATM    5  C   UNL     1     -11.475  12.291  68.298  1.00  0.00    -0.367 C  
HETATM    6  C   UNL     1     -12.034  12.637  69.487  1.00  0.00    -0.270 C  
HETATM    7  N   UNL     1     -12.135  11.727  70.510  1.00  0.00    -0.374 NA 
HETATM    8  C   UNL     1     -10.891  10.888  68.058  1.00  0.00    -0.293 C  
HETATM    9  C   UNL     1     -11.604  10.440  70.437  1.00  0.00    -0.337 C  
HETATM   10  C   UNL     1     -11.789   9.605  71.684  1.00  0.00    -0.457 C  
HETATM   11  C   UNL     1     -10.982   9.996  69.307  1.00  0.00    -0.264 C  
BRANCH   6  12
HETATM   12  C   UNL     1     -12.378  14.090  69.766  1.00  0.00    -0.291 C  
HETATM   13  N   UNL     1     -12.665  15.296  69.997  1.00  0.00    -0.625 NA 
HETATM   14  H2  UNL     1     -12.847  15.177  69.000  1.00  0.00     0.000 HD 
HETATM   15  H1  UNL     1     -12.896  16.272  70.184  1.00  0.00     0.000 HD 
ENDBRANCH   6  12
BRANCH  11  16
HETATM   16  C   UNL     1     -10.337   8.646  69.314  1.00  0.00    -0.221 C  
HETATM   17  O   UNL     1     -10.861   7.664  68.808  1.00  0.00    -0.127 OA 
BRANCH  16  18
HETATM   18  O   UNL     1      -9.117   8.614  69.928  1.00  0.00    -0.145 OA 
BRANCH  18  19
HETATM   19  C   UNL     1      -8.956   7.504  70.854  1.00  0.00    -0.149 C  
HETATM   20  C   UNL     1      -7.835   6.591  70.365  1.00  0.00    -0.110 C  
HETATM   21  C   UNL     1      -8.641   8.017  72.255  1.00  0.00    -0.212 C  
ENDBRANCH  18  19
ENDBRANCH  16  18
ENDBRANCH  11  16
BRANCH   8  22
HETATM   22  C   UNL     1      -9.464  10.948  67.469  1.00  0.00    -0.168 A  
HETATM   23  C   UNL     1      -9.229  10.461  66.165  1.00  0.00    -0.199 A  
HETATM   24  C   UNL     1      -8.369  11.447  68.195  1.00  0.00    -0.149 A  
HETATM   25  C   UNL     1      -7.077  11.437  67.649  1.00  0.00    -0.092 A  
HETATM   26  C   UNL     1      -7.925  10.419  65.639  1.00  0.00    -0.153 A  
HETATM   27  O   UNL     1      -8.671   9.385  63.700  1.00  0.00    -0.213 OA 
HETATM   28  N   UNL     1      -7.686   9.805  64.323  1.00  0.00    -0.128 N  
HETATM   29  C   UNL     1      -6.847  10.913  66.377  1.00  0.00    -0.135 A  
HETATM   30  O   UNL     1      -6.513   9.731  63.923  1.00  0.00    -0.107 OA 
ENDBRANCH   8  22
ENDBRANCH   3   5
ENDBRANCH   2   3
TORSDOF 7
ENDMDL
MODEL       42
REMARK 921   NORMALIZED FREE ENERGY PREDICTED BY IDOCK:   -5.16 KCAL/MOL
REMARK 922        TOTAL FREE ENERGY PREDICTED BY IDOCK:   -8.32 KCAL/MOL
REMARK 923 INTER-LIGAND FREE ENERGY PREDICTED BY IDOCK:   -7.11 KCAL/MOL
REMARK 924 INTRA-LIGAND FREE ENERGY PREDICTED BY IDOCK:   -1.21 KCAL/MOL
REMARK 927      BINDING AFFINITY PREDICTED BY RF-SCORE:    0.00 PKD
ROOT
HETATM    1  C   UNL     1      -7.232   8.312  72.626  1.00  0.00    -0.103 C  
HETATM    2  O   UNL     1      -7.626   8.252  71.247  1.00  0.00    -0.068 OA 
ENDROOT
BRANCH   2   3
HETATM    3  C   UNL     1      -8.753   7.527  71.028  1.00  0.00    -0.134 C  
HETATM    4  O   UNL     1      -8.797   6.332  70.798  1.00  0.00    -0.141 OA 
BRANCH   3   5
HETATM    5  C   UNL     1      -9.940   8.414  71.153  1.00  0.00    -0.245 C  
HETATM    6  C   UNL     1     -10.900   8.158  72.079  1.00  0.00    -0.284 C  
HETATM    7  N   UNL     1     -11.997   8.975  72.203  1.00  0.00    -0.350 NA 
HETATM    8  C   UNL     1     -10.056   9.596  70.176  1.00  0.00    -0.311 C  
HETATM    9  C   UNL     1     -12.243  10.049  71.350  1.00  0.00    -0.416 C  
HETATM   10  C   UNL     1     -13.523  10.803  71.631  1.00  0.00    -0.246 C  
HETATM   11  C   UNL     1     -11.368  10.377  70.355  1.00  0.00    -0.417 C  
BRANCH   6  12
HETATM   12  C   UNL     1     -10.870   6.853  72.858  1.00  0.00    -0.285 C  
HETATM   13  N   UNL     1     -10.846   5.771  73.505  1.00  0.00    -0.372 NA 
HETATM   14  H2  UNL     1     -11.515   6.354  74.008  1.00  0.00     0.000 HD 
HETATM   15  H1  UNL     1     -10.826   4.895  74.028  1.00  0.00     0.000 HD 
ENDBRANCH   6  12
BRANCH  11  16
HETATM   16  C   UNL     1     -11.728  11.471  69.401  1.00  0.00    -0.346 C  
HETATM   17  O   UNL     1     -12.359  11.268  68.374  1.00  0.00    -0.545 OA 
BRANCH  16  18
HETATM   18  O   UNL     1     -11.295  12.709  69.784  1.00  0.00    -0.169 OA 
BRANCH  18  19
HETATM   19  C   UNL     1     -12.225  13.780  69.464  1.00  0.00    -0.293 C  
HETATM   20  C   UNL     1     -12.450  14.646  70.701  1.00  0.00    -0.408 C  
HETATM   21  C   UNL     1     -11.689  14.631  68.318  1.00  0.00    -0.359 C  
ENDBRANCH  18  19
ENDBRANCH  16  18
ENDBRANCH  11  16
BRANCH   8  22
HETATM   22  C   UNL     1      -9.813   9.164  68.712  1.00  0.00    -0.175 A  
HETATM   23  C   UNL     1      -8.814   9.811  67.953  1.00  0.00    -0.122 A  
HETATM   24  C   UNL     1     -10.573   8.161  68.086  1.00  0.00    -0.168 A  
HETATM   25  C   UNL     1     -10.361   7.831  66.740  1.00  0.00    -0.348 A  
HETATM   26  C   UNL     1      -8.633   9.500  66.593  1.00  0.00    -0.134 A  
HETATM   27  O   UNL     1      -6.999  11.134  66.372  1.00  0.00    -0.135 OA 
HETATM   28  N   UNL     1      -7.664  10.264  65.791  1.00  0.00    -0.137 N  
HETATM   29  C   UNL     1      -9.402   8.505  65.985  1.00  0.00    -0.266 A  
HETATM   30  O   UNL     1      -7.580  10.002  64.580  1.00  0.00    -0.136 OA 
ENDBRANCH   8  22
ENDBRANCH   3   5
ENDBRANCH   2   3
TORSDOF 7
ENDMDL
MODEL       43
REMARK 921   NORMALIZED FREE ENERGY PREDICTED BY IDOCK:   -5.09 KCAL/MOL
REMARK 922        TOTAL FREE ENERGY PREDICTED BY IDOCK:   -8.22 KCAL/MOL
REMARK 923 INTER-LIGAND FREE ENERGY PREDICTED BY IDOCK:   -7.02 KCAL/MOL
REMARK 924 INTRA-LIGAND FREE ENERGY PREDICTED BY IDOCK:   -1.20 KCAL/MOL
REMARK 927      BINDING AFFINITY PREDICTED BY RF-SCORE:    0.00 PKD
ROOT
HETATM    1  C   UNL     1      -9.269   9.565  64.910  1.00  0.00    -0.223 C  
HETATM    2  O   UNL     1      -9.950   8.634  65.764  1.00  0.00    -0.072 OA 
ENDROOT
BRANCH   2   3
HETATM    3  C   UNL     1      -9.123   7.914  66.563  1.00  0.00    -0.170 C  
HETATM    4  O   UNL     1      -7.975   7.603  66.303  1.00  0.00    -0.098 OA 
BRANCH   3   5
HETATM    5  C   UNL     1      -9.824   7.594  67.835  1.00  0.00    -0.190 C  
HETATM    6  C   UNL     1     -10.590   6.477  67.942  1.00  0.00    -0.252 C  
HETATM    7  N   UNL     1     -11.235   6.174  69.115  1.00  0.00    -0.392 NA 
HETATM    8  C   UNL     1      -9.681   8.589  68.999  1.00  0.00    -0.170 C  
HETATM    9  C   UNL     1     -11.225   7.015  70.226  1.00  0.00    -0.298 C  
HETATM   10  C   UNL     1     -12.027   6.517  71.408  1.00  0.00    -0.371 C  
HETATM   11  C   UNL     1     -10.523   8.186  70.220  1.00  0.00    -0.219 C  
BRANCH   6  12
HETATM   12  C   UNL     1     -10.898   5.651  66.705  1.00  0.00    -0.204 C  
HETATM   13  N   UNL     1     -11.154   4.965  65.678  1.00  0.00    -0.903 NA 
HETATM   14  H2  UNL     1     -10.270   4.590  66.022  1.00  0.00     0.000 HD 
HETATM   15  H1  UNL     1     -11.362   4.410  64.847  1.00  0.00     0.000 HD 
ENDBRANCH   6  12
BRANCH  11  16
HETATM   16  C   UNL     1     -10.628   9.103  71.397  1.00  0.00    -0.341 C  
HETATM   17  O   UNL     1     -11.661   9.694  71.680  1.00  0.00    -0.382 OA 
BRANCH  16  18
HETATM   18  O   UNL     1      -9.476   9.214  72.123  1.00  0.00    -0.291 OA 
BRANCH  18  19
HETATM   19  C   UNL     1      -8.832   7.940  72.397  1.00  0.00    -0.154 C  
HETATM   20  C   UNL     1      -7.317   8.128  72.414  1.00  0.00    -0.130 C  
HETATM   21  C   UNL     1      -9.305   7.376  73.732  1.00  0.00    -0.316 C  
ENDBRANCH  18  19
ENDBRANCH  16  18
ENDBRANCH  11  16
BRANCH   8  22
HETATM   22  C   UNL     1      -9.938  10.046  68.551  1.00  0.00    -0.177 A  
HETATM   23  C   UNL     1      -8.868  10.965  68.528  1.00  0.00    -0.153 A  
HETATM   24  C   UNL     1     -11.215  10.508  68.188  1.00  0.00    -0.357 A  
HETATM   25  C   UNL     1     -11.422  11.850  67.838  1.00  0.00    -0.385 A  
HETATM   26  C   UNL     1      -9.091  12.318  68.212  1.00  0.00    -0.187 A  
HETATM   27  O   UNL     1      -6.866  12.845  68.613  1.00  0.00    -0.087 OA 
HETATM   28  N   UNL     1      -7.983  13.282  68.302  1.00  0.00    -0.139 N  
HETATM   29  C   UNL     1     -10.367  12.762  67.859  1.00  0.00    -0.228 A  
HETATM   30  O   UNL     1      -8.236  14.477  68.078  1.00  0.00    -0.129 OA 
ENDBRANCH   8  22
ENDBRANCH   3   5
ENDBRANCH   2   3
TORSDOF 7
ENDMDL
MODEL       44
REMARK 921   NORMALIZED FREE ENERGY PREDICTED BY IDOCK:   -5.08 KCAL/MOL
REMARK 922        TOTAL FREE ENERGY PREDICTED BY IDOCK:   -8.20 KCAL/MOL
REMARK 923 INTER-LIGAND FREE ENERGY PREDICTED BY IDOCK:   -6.91 KCAL/MOL
REMARK 924 INTRA-LIGAND FREE ENERGY PREDICTED BY IDOCK:   -1.30 KCAL/MOL
REMARK 927      BINDING AFFINITY PREDICTED BY RF-SCORE:    0.00 PKD
ROOT
HETATM    1  C   UNL     1      -6.195   8.131  72.912  1.00  0.00    -0.078 C  
HETATM    2  O   UNL     1      -7.341   8.830  72.405  1.00  0.00    -0.314 OA 
ENDROOT
BRANCH   2   3
HETATM    3  C   UNL     1      -8.187   8.051  71.684  1.00  0.00    -0.119 C  
HETATM    4  O   UNL     1      -7.977   6.902  71.339  1.00  0.00    -0.106 OA 
BRANCH   3   5
HETATM    5  C   UNL     1      -9.440   8.805  71.413  1.00  0.00    -0.330 C  
HETATM    6  C   UNL     1     -10.532   8.640  72.203  1.00  0.00    -0.340 C  
HETATM    7  N   UNL     1     -11.690   9.337  71.961  1.00  0.00    -0.333 NA 
HETATM    8  C   UNL     1      -9.461   9.739  70.191  1.00  0.00    -0.277 C  
HETATM    9  C   UNL     1     -11.855  10.177  70.862  1.00  0.00    -0.374 C  
HETATM   10  C   UNL     1     -13.217  10.824  70.754  1.00  0.00    -0.104 C  
HETATM   11  C   UNL     1     -10.839  10.388  69.975  1.00  0.00    -0.348 C  
BRANCH   6  12
HETATM   12  C   UNL     1     -10.549   7.537  73.248  1.00  0.00    -0.384 C  
HETATM   13  N   UNL     1     -10.564   6.621  74.115  1.00  0.00    -0.452 NA 
HETATM   14  H2  UNL     1     -11.510   6.626  73.732  1.00  0.00     0.000 HD 
HETATM   15  H1  UNL     1     -10.575   5.880  74.817  1.00  0.00     0.000 HD 
ENDBRANCH   6  12
BRANCH  11  16
HETATM   16  C   UNL     1     -11.097  11.214  68.755  1.00  0.00    -0.236 C  
HETATM   17  O   UNL     1     -11.627  10.757  67.752  1.00  0.00    -0.521 OA 
BRANCH  16  18
HETATM   18  O   UNL     1     -10.695  12.514  68.867  1.00  0.00    -0.227 OA 
BRANCH  18  19
HETATM   19  C   UNL     1     -11.735  13.479  68.546  1.00  0.00    -0.357 C  
HETATM   20  C   UNL     1     -11.909  14.448  69.712  1.00  0.00    -0.375 C  
HETATM   21  C   UNL     1     -11.382  14.245  67.275  1.00  0.00    -0.350 C  
ENDBRANCH  18  19
ENDBRANCH  16  18
ENDBRANCH  11  16
BRANCH   8  22
HETATM   22  C   UNL     1      -8.923   9.044  68.920  1.00  0.00    -0.140 A  
HETATM   23  C   UNL     1      -9.705   8.057  68.283  1.00  0.00    -0.177 A  
HETATM   24  C   UNL     1      -7.658   9.336  68.380  1.00  0.00    -0.086 A  
HETATM   25  C   UNL     1      -7.179   8.647  67.256  1.00  0.00    -0.080 A  
HETATM   26  C   UNL     1      -9.202   7.345  67.180  1.00  0.00    -0.136 A  
HETATM   27  O   UNL     1     -11.103   6.016  67.089  1.00  0.00    -0.301 OA 
HETATM   28  N   UNL     1      -9.987   6.243  66.600  1.00  0.00    -0.167 N  
HETATM   29  C   UNL     1      -7.941   7.643  66.659  1.00  0.00    -0.107 A  
HETATM   30  O   UNL     1      -9.480   5.598  65.668  1.00  0.00    -0.089 OA 
ENDBRANCH   8  22
ENDBRANCH   3   5
ENDBRANCH   2   3
TORSDOF 7
ENDMDL
MODEL       45
REMARK 921   NORMALIZED FREE ENERGY PREDICTED BY IDOCK:   -5.07 KCAL/MOL
REMARK 922        TOTAL FREE ENERGY PREDICTED BY IDOCK:   -8.20 KCAL/MOL
REMARK 923 INTER-LIGAND FREE ENERGY PREDICTED BY IDOCK:   -7.78 KCAL/MOL
REMARK 924 INTRA-LIGAND FREE ENERGY PREDICTED BY IDOCK:   -0.42 KCAL/MOL
REMARK 927      BINDING AFFINITY PREDICTED BY RF-SCORE:    0.00 PKD
ROOT
HETATM    1  C   UNL     1     -11.786  13.297  70.099  1.00  0.00    -0.263 C  
HETATM    2  O   UNL     1     -11.047  12.485  69.175  1.00  0.00    -0.243 OA 
ENDROOT
BRANCH   2   3
HETATM    3  C   UNL     1     -11.726  11.395  68.735  1.00  0.00    -0.339 C  
HETATM    4  O   UNL     1     -12.905  11.164  68.931  1.00  0.00     0.003 OA 
BRANCH   3   5
HETATM    5  C   UNL     1     -10.813  10.538  67.932  1.00  0.00    -0.333 C  
HETATM    6  C   UNL     1     -10.160   9.495  68.506  1.00  0.00    -0.178 C  
HETATM    7  N   UNL     1      -9.319   8.697  67.770  1.00  0.00    -0.140 NA 
HETATM    8  C   UNL     1     -10.609  10.902  66.452  1.00  0.00    -0.289 C  
HETATM    9  C   UNL     1      -9.014   8.947  66.434  1.00  0.00    -0.158 C  
HETATM   10  C   UNL     1      -8.039   7.972  65.812  1.00  0.00    -0.121 C  
HETATM   11  C   UNL     1      -9.578   9.993  65.763  1.00  0.00    -0.291 C  
BRANCH   6  12
HETATM   12  C   UNL     1     -10.200   9.316  70.015  1.00  0.00    -0.215 C  
HETATM   13  N   UNL     1     -10.234   9.167  71.267  1.00  0.00    -0.312 NA 
HETATM   14  H2  UNL     1     -11.196   9.008  70.964  1.00  0.00     0.000 HD 
HETATM   15  H1  UNL     1     -10.261   9.046  72.279  1.00  0.00     0.000 HD 
ENDBRANCH   6  12
BRANCH  11  16
HETATM   16  C   UNL     1      -9.138  10.282  64.363  1.00  0.00    -0.239 C  
HETATM   17  O   UNL     1      -9.929  10.503  63.457  1.00  0.00    -0.317 OA 
BRANCH  16  18
HETATM   18  O   UNL     1      -7.783  10.282  64.192  1.00  0.00    -0.148 OA 
BRANCH  18  19
HETATM   19  C   UNL     1      -7.367  10.146  62.806  1.00  0.00    -0.139 C  
HETATM   20  C   UNL     1      -6.009  10.816  62.612  1.00  0.00    -0.104 C  
HETATM   21  C   UNL     1      -7.285   8.674  62.413  1.00  0.00    -0.097 C  
ENDBRANCH  18  19
ENDBRANCH  16  18
ENDBRANCH  11  16
BRANCH   8  22
HETATM   22  C   UNL     1     -10.303  12.405  66.261  1.00  0.00    -0.267 A  
HETATM   23  C   UNL     1     -11.182  13.202  65.497  1.00  0.00    -0.305 A  
HETATM   24  C   UNL     1      -9.157  13.014  66.799  1.00  0.00    -0.212 A  
HETATM   25  C   UNL     1      -8.883  14.369  66.561  1.00  0.00    -0.122 A  
HETATM   26  C   UNL     1     -10.881  14.550  65.231  1.00  0.00    -0.367 A  
HETATM   27  O   UNL     1     -12.762  14.773  63.890  1.00  0.00    -0.794 OA 
HETATM   28  N   UNL     1     -11.752  15.332  64.340  1.00  0.00    -0.353 N  
HETATM   29  C   UNL     1      -9.734  15.139  65.768  1.00  0.00    -0.379 A  
HETATM   30  O   UNL     1     -11.416  16.499  64.080  1.00  0.00    -1.059 OA 
ENDBRANCH   8  22
ENDBRANCH   3   5
ENDBRANCH   2   3
TORSDOF 7
ENDMDL
MODEL       46
REMARK 921   NORMALIZED FREE ENERGY PREDICTED BY IDOCK:   -5.07 KCAL/MOL
REMARK 922        TOTAL FREE ENERGY PREDICTED BY IDOCK:   -8.19 KCAL/MOL
REMARK 923 INTER-LIGAND FREE ENERGY PREDICTED BY IDOCK:   -6.55 KCAL/MOL
REMARK 924 INTRA-LIGAND FREE ENERGY PREDICTED BY IDOCK:   -1.64 KCAL/MOL
REMARK 927      BINDING AFFINITY PREDICTED BY RF-SCORE:    0.00 PKD
ROOT
HETATM    1  C   UNL     1     -13.671   9.157  72.096  1.00  0.00    -0.471 C  
HETATM    2  O   UNL     1     -13.062   7.904  71.749  1.00  0.00    -0.323 OA 
ENDROOT
BRANCH   2   3
HETATM    3  C   UNL     1     -11.719   7.873  71.940  1.00  0.00    -0.297 C  
HETATM    4  O   UNL     1     -11.091   8.590  72.698  1.00  0.00    -0.323 OA 
BRANCH   3   5
HETATM    5  C   UNL     1     -11.129   6.792  71.107  1.00  0.00    -0.313 C  
HETATM    6  C   UNL     1     -10.792   5.598  71.660  1.00  0.00    -0.237 C  
HETATM    7  N   UNL     1     -10.252   4.593  70.895  1.00  0.00    -0.186 NA 
HETATM    8  C   UNL     1     -10.880   7.091  69.619  1.00  0.00    -0.275 C  
HETATM    9  C   UNL     1      -9.934   4.753  69.548  1.00  0.00    -0.216 C  
HETATM   10  C   UNL     1      -9.313   3.539  68.893  1.00  0.00    -0.236 C  
HETATM   11  C   UNL     1     -10.188   5.924  68.895  1.00  0.00    -0.254 C  
BRANCH   6  12
HETATM   12  C   UNL     1     -10.830   5.426  73.169  1.00  0.00    -0.285 C  
HETATM   13  N   UNL     1     -10.862   5.283  74.421  1.00  0.00    -0.406 NA 
HETATM   14  H2  UNL     1     -11.825   5.131  74.123  1.00  0.00     0.000 HD 
HETATM   15  H1  UNL     1     -10.887   5.168  75.435  1.00  0.00     0.000 HD 
ENDBRANCH   6  12
BRANCH  11  16
HETATM   16  C   UNL     1      -9.733   6.082  67.479  1.00  0.00    -0.116 C  
HETATM   17  O   UNL     1     -10.475   5.897  66.525  1.00  0.00    -0.221 OA 
BRANCH  16  18
HETATM   18  O   UNL     1      -8.424   6.454  67.352  1.00  0.00    -0.109 OA 
BRANCH  18  19
HETATM   19  C   UNL     1      -8.125   7.125  66.097  1.00  0.00    -0.121 C  
HETATM   20  C   UNL     1      -7.422   8.449  66.382  1.00  0.00    -0.083 C  
HETATM   21  C   UNL     1      -7.247   6.244  65.214  1.00  0.00    -0.070 C  
ENDBRANCH  18  19
ENDBRANCH  16  18
ENDBRANCH  11  16
BRANCH   8  22
HETATM   22  C   UNL     1     -10.151   8.438  69.412  1.00  0.00    -0.198 A  
HETATM   23  C   UNL     1     -10.778   9.461  68.668  1.00  0.00    -0.196 A  
HETATM   24  C   UNL     1      -8.862   8.683  69.917  1.00  0.00    -0.144 A  
HETATM   25  C   UNL     1      -8.209   9.898  69.665  1.00  0.00    -0.178 A  
HETATM   26  C   UNL     1     -10.101  10.662  68.389  1.00  0.00    -0.166 A  
HETATM   27  O   UNL     1     -11.869  11.432  67.097  1.00  0.00    -0.566 OA 
HETATM   28  N   UNL     1     -10.728  11.669  67.517  1.00  0.00    -0.205 N  
HETATM   29  C   UNL     1      -8.818  10.887  68.892  1.00  0.00    -0.143 A  
HETATM   30  O   UNL     1     -10.071  12.687  67.243  1.00  0.00    -0.212 OA 
ENDBRANCH   8  22
ENDBRANCH   3   5
ENDBRANCH   2   3
TORSDOF 7
ENDMDL
MODEL       47
REMARK 921   NORMALIZED FREE ENERGY PREDICTED BY IDOCK:   -5.06 KCAL/MOL
REMARK 922        TOTAL FREE ENERGY PREDICTED BY IDOCK:   -8.19 KCAL/MOL
REMARK 923 INTER-LIGAND FREE ENERGY PREDICTED BY IDOCK:   -6.96 KCAL/MOL
REMARK 924 INTRA-LIGAND FREE ENERGY PREDICTED BY IDOCK:   -1.23 KCAL/MOL
REMARK 927      BINDING AFFINITY PREDICTED BY RF-SCORE:    0.00 PKD
ROOT
HETATM    1  C   UNL     1     -12.368  12.388  64.606  1.00  0.00    -0.441 C  
HETATM    2  O   UNL     1     -11.195  12.979  65.185  1.00  0.00    -0.287 OA 
ENDROOT
BRANCH   2   3
HETATM    3  C   UNL     1     -11.214  13.024  66.541  1.00  0.00    -0.302 C  
HETATM    4  O   UNL     1     -12.203  13.173  67.236  1.00  0.00    -0.317 OA 
BRANCH   3   5
HETATM    5  C   UNL     1      -9.835  12.819  67.058  1.00  0.00    -0.231 C  
HETATM    6  C   UNL     1      -9.450  11.610  67.543  1.00  0.00    -0.171 C  
HETATM    7  N   UNL     1      -8.176  11.412  68.018  1.00  0.00    -0.133 NA 
HETATM    8  C   UNL     1      -8.885  14.029  67.060  1.00  0.00    -0.234 C  
HETATM    9  C   UNL     1      -7.237  12.436  68.117  1.00  0.00    -0.100 C  
HETATM   10  C   UNL     1      -5.904  12.021  68.699  1.00  0.00    -0.053 C  
HETATM   11  C   UNL     1      -7.525  13.703  67.700  1.00  0.00    -0.191 C  
BRANCH   6  12
HETATM   12  C   UNL     1     -10.482  10.513  67.746  1.00  0.00    -0.224 C  
HETATM   13  N   UNL     1     -11.339   9.604  67.913  1.00  0.00    -0.451 NA 
HETATM   14  H2  UNL     1     -11.843  10.342  67.422  1.00  0.00     0.000 HD 
HETATM   15  H1  UNL     1     -12.032   8.867  68.049  1.00  0.00     0.000 HD 
ENDBRANCH   6  12
BRANCH  11  16
HETATM   16  C   UNL     1      -6.521  14.790  67.924  1.00  0.00    -0.162 C  
HETATM   17  O   UNL     1      -5.569  14.970  67.178  1.00  0.00    -0.242 OA 
BRANCH  16  18
HETATM   18  O   UNL     1      -6.766  15.557  69.027  1.00  0.00    -0.117 OA 
BRANCH  18  19
HETATM   19  C   UNL     1      -5.878  16.701  69.155  1.00  0.00    -0.152 C  
HETATM   20  C   UNL     1      -6.662  17.986  68.906  1.00  0.00    -0.245 C  
HETATM   21  C   UNL     1      -5.243  16.734  70.541  1.00  0.00    -0.223 C  
ENDBRANCH  18  19
ENDBRANCH  16  18
ENDBRANCH  11  16
BRANCH   8  22
HETATM   22  C   UNL     1      -9.547  15.285  67.671  1.00  0.00    -0.206 A  
HETATM   23  C   UNL     1      -9.862  16.379  66.838  1.00  0.00    -0.266 A  
HETATM   24  C   UNL     1      -9.826  15.397  69.044  1.00  0.00    -0.234 A  
HETATM   25  C   UNL     1     -10.379  16.572  69.572  1.00  0.00    -0.266 A  
HETATM   26  C   UNL     1     -10.381  17.568  67.381  1.00  0.00    -0.351 A  
HETATM   27  O   UNL     1     -10.355  18.604  65.304  1.00  0.00    -0.328 OA 
HETATM   28  N   UNL     1     -10.598  18.736  66.512  1.00  0.00    -0.405 N  
HETATM   29  C   UNL     1     -10.647  17.666  68.748  1.00  0.00    -0.191 A  
HETATM   30  O   UNL     1     -10.997  19.786  67.042  1.00  0.00    -0.435 OA 
ENDBRANCH   8  22
ENDBRANCH   3   5
ENDBRANCH   2   3
TORSDOF 7
ENDMDL
MODEL       48
REMARK 921   NORMALIZED FREE ENERGY PREDICTED BY IDOCK:   -5.06 KCAL/MOL
REMARK 922        TOTAL FREE ENERGY PREDICTED BY IDOCK:   -8.19 KCAL/MOL
REMARK 923 INTER-LIGAND FREE ENERGY PREDICTED BY IDOCK:   -7.02 KCAL/MOL
REMARK 924 INTRA-LIGAND FREE ENERGY PREDICTED BY IDOCK:   -1.17 KCAL/MOL
REMARK 927      BINDING AFFINITY PREDICTED BY RF-SCORE:    0.00 PKD
ROOT
HETATM    1  C   UNL     1     -13.024  12.694  64.760  1.00  0.00    -0.102 C  
HETATM    2  O   UNL     1     -11.794  13.382  65.030  1.00  0.00    -0.327 OA 
ENDROOT
BRANCH   2   3
HETATM    3  C   UNL     1     -11.635  13.733  66.332  1.00  0.00    -0.360 C  
HETATM    4  O   UNL     1     -12.391  13.449  67.243  1.00  0.00    -0.276 OA 
BRANCH   3   5
HETATM    5  C   UNL     1     -10.363  14.489  66.485  1.00  0.00    -0.283 C  
HETATM    6  C   UNL     1     -10.144  15.625  65.774  1.00  0.00    -0.366 C  
HETATM    7  N   UNL     1      -8.973  16.330  65.914  1.00  0.00    -0.437 NA 
HETATM    8  C   UNL     1      -9.302  13.916  67.440  1.00  0.00    -0.228 C  
HETATM    9  C   UNL     1      -7.916  15.894  66.709  1.00  0.00    -0.252 C  
HETATM   10  C   UNL     1      -6.701  16.795  66.702  1.00  0.00    -0.241 C  
HETATM   11  C   UNL     1      -8.006  14.743  67.438  1.00  0.00    -0.220 C  
BRANCH   6  12
HETATM   12  C   UNL     1     -11.108  16.025  64.670  1.00  0.00    -0.332 C  
HETATM   13  N   UNL     1     -11.908  16.356  63.753  1.00  0.00    -1.377 NA 
HETATM   14  H2  UNL     1     -11.218  15.767  63.288  1.00  0.00     0.000 HD 
HETATM   15  H1  UNL     1     -12.556  16.624  63.012  1.00  0.00     0.000 HD 
ENDBRANCH   6  12
BRANCH  11  16
HETATM   16  C   UNL     1      -6.807  14.264  68.193  1.00  0.00    -0.124 C  
HETATM   17  O   UNL     1      -5.874  13.689  67.649  1.00  0.00    -0.257 OA 
BRANCH  16  18
HETATM   18  O   UNL     1      -6.848  14.528  69.532  1.00  0.00    -0.141 OA 
BRANCH  18  19
HETATM   19  C   UNL     1      -5.565  14.922  70.091  1.00  0.00    -0.125 C  
HETATM   20  C   UNL     1      -5.495  16.445  70.182  1.00  0.00    -0.188 C  
HETATM   21  C   UNL     1      -5.370  14.305  71.472  1.00  0.00    -0.186 C  
ENDBRANCH  18  19
ENDBRANCH  16  18
ENDBRANCH  11  16
BRANCH   8  22
HETATM   22  C   UNL     1      -9.051  12.412  67.191  1.00  0.00    -0.199 A  
HETATM   23  C   UNL     1      -9.293  11.486  68.229  1.00  0.00    -0.190 A  
HETATM   24  C   UNL     1      -8.557  11.921  65.970  1.00  0.00     0.129 A  
HETATM   25  C   UNL     1      -8.290  10.556  65.797  1.00  0.00    -0.166 A  
HETATM   26  C   UNL     1      -8.987  10.123  68.060  1.00  0.00    -0.125 A  
HETATM   27  O   UNL     1      -9.590   9.650  70.251  1.00  0.00    -0.241 OA 
HETATM   28  N   UNL     1      -9.141   9.193  69.190  1.00  0.00    -0.142 N  
HETATM   29  C   UNL     1      -8.491   9.653  66.842  1.00  0.00    -0.121 A  
HETATM   30  O   UNL     1      -8.800   8.012  69.019  1.00  0.00    -0.143 OA 
ENDBRANCH   8  22
ENDBRANCH   3   5
ENDBRANCH   2   3
TORSDOF 7
ENDMDL
MODEL       49
REMARK 921   NORMALIZED FREE ENERGY PREDICTED BY IDOCK:   -5.03 KCAL/MOL
REMARK 922        TOTAL FREE ENERGY PREDICTED BY IDOCK:   -8.14 KCAL/MOL
REMARK 923 INTER-LIGAND FREE ENERGY PREDICTED BY IDOCK:   -7.33 KCAL/MOL
REMARK 924 INTRA-LIGAND FREE ENERGY PREDICTED BY IDOCK:   -0.81 KCAL/MOL
REMARK 927      BINDING AFFINITY PREDICTED BY RF-SCORE:    0.00 PKD
ROOT
HETATM    1  C   UNL     1      -7.610  10.468  69.034  1.00  0.00    -0.117 C  
HETATM    2  O   UNL     1      -8.127  11.462  68.138  1.00  0.00    -0.123 OA 
ENDROOT
BRANCH   2   3
HETATM    3  C   UNL     1      -9.412  11.248  67.759  1.00  0.00    -0.170 C  
HETATM    4  O   UNL     1      -9.773  10.563  66.819  1.00  0.00    -0.170 OA 
BRANCH   3   5
HETATM    5  C   UNL     1     -10.326  11.948  68.701  1.00  0.00    -0.218 C  
HETATM    6  C   UNL     1     -11.114  11.243  69.553  1.00  0.00    -0.238 C  
HETATM    7  N   UNL     1     -11.956  11.883  70.429  1.00  0.00    -0.347 NA 
HETATM    8  C   UNL     1     -10.370  13.484  68.644  1.00  0.00    -0.220 C  
HETATM    9  C   UNL     1     -12.125  13.266  70.445  1.00  0.00    -0.327 C  
HETATM   10  C   UNL     1     -13.125  13.772  71.460  1.00  0.00    -0.435 C  
HETATM   11  C   UNL     1     -11.416  14.075  69.605  1.00  0.00    -0.317 C  
BRANCH   6  12
HETATM   12  C   UNL     1     -11.218   9.733  69.413  1.00  0.00    -0.114 C  
HETATM   13  N   UNL     1     -11.303   8.480  69.297  1.00  0.00    -0.290 NA 
HETATM   14  H2  UNL     1     -10.339   8.645  69.587  1.00  0.00     0.000 HD 
HETATM   15  H1  UNL     1     -11.373   7.467  69.203  1.00  0.00     0.000 HD 
ENDBRANCH   6  12
BRANCH  11  16
HETATM   16  C   UNL     1     -11.708  15.542  69.588  1.00  0.00    -0.357 C  
HETATM   17  O   UNL     1     -12.768  15.997  69.181  1.00  0.00     0.246 OA 
BRANCH  16  18
HETATM   18  O   UNL     1     -10.693  16.318  70.069  1.00  0.00    -0.321 OA 
BRANCH  18  19
HETATM   19  C   UNL     1      -9.905  16.963  69.031  1.00  0.00    -0.247 C  
HETATM   20  C   UNL     1     -10.212  18.459  69.013  1.00  0.00    -0.199 C  
HETATM   21  C   UNL     1      -8.416  16.736  69.269  1.00  0.00     0.037 C  
ENDBRANCH  18  19
ENDBRANCH  16  18
ENDBRANCH  11  16
BRANCH   8  22
HETATM   22  C   UNL     1     -10.526  14.006  67.198  1.00  0.00    -0.270 A  
HETATM   23  C   UNL     1     -11.541  13.476  66.373  1.00  0.00    -0.381 A  
HETATM   24  C   UNL     1      -9.672  14.980  66.652  1.00  0.00    -0.273 A  
HETATM   25  C   UNL     1      -9.809  15.393  65.319  1.00  0.00    -0.239 A  
HETATM   26  C   UNL     1     -11.647  13.867  65.026  1.00  0.00    -0.345 A  
HETATM   27  O   UNL     1     -13.388  12.374  64.663  1.00  0.00    -0.778 OA 
HETATM   28  N   UNL     1     -12.640  13.220  64.153  1.00  0.00    -0.219 N  
HETATM   29  C   UNL     1     -10.786  14.831  64.498  1.00  0.00    -0.181 A  
HETATM   30  O   UNL     1     -12.658  13.548  62.955  1.00  0.00    -0.716 OA 
ENDBRANCH   8  22
ENDBRANCH   3   5
ENDBRANCH   2   3
TORSDOF 7
ENDMDL
MODEL       50
REMARK 921   NORMALIZED FREE ENERGY PREDICTED BY IDOCK:   -5.02 KCAL/MOL
REMARK 922        TOTAL FREE ENERGY PREDICTED BY IDOCK:   -8.13 KCAL/MOL
REMARK 923 INTER-LIGAND FREE ENERGY PREDICTED BY IDOCK:   -6.45 KCAL/MOL
REMARK 924 INTRA-LIGAND FREE ENERGY PREDICTED BY IDOCK:   -1.68 KCAL/MOL
REMARK 927      BINDING AFFINITY PREDICTED BY RF-SCORE:    0.00 PKD
ROOT
HETATM    1  C   UNL     1     -11.911  13.126  66.545  1.00  0.00    -0.398 C  
HETATM    2  O   UNL     1     -11.830  11.887  67.264  1.00  0.00    -0.576 OA 
ENDROOT
BRANCH   2   3
HETATM    3  C   UNL     1     -11.004  11.930  68.341  1.00  0.00    -0.232 C  
HETATM    4  O   UNL     1      -9.993  12.601  68.437  1.00  0.00    -0.226 OA 
BRANCH   3   5
HETATM    5  C   UNL     1     -11.551  11.057  69.414  1.00  0.00    -0.383 C  
HETATM    6  C   UNL     1     -12.269  11.586  70.438  1.00  0.00    -0.355 C  
HETATM    7  N   UNL     1     -12.780  10.785  71.429  1.00  0.00    -0.416 NA 
HETATM    8  C   UNL     1     -11.240   9.552  69.339  1.00  0.00    -0.066 C  
HETATM    9  C   UNL     1     -12.531   9.416  71.503  1.00  0.00    -0.366 C  
HETATM   10  C   UNL     1     -13.156   8.719  72.691  1.00  0.00    -0.315 C  
HETATM   11  C   UNL     1     -11.787   8.781  70.551  1.00  0.00    -0.049 C  
BRANCH   6  12
HETATM   12  C   UNL     1     -12.350  13.094  70.604  1.00  0.00    -0.326 C  
HETATM   13  N   UNL     1     -12.417  14.346  70.742  1.00  0.00    -0.329 NA 
HETATM   14  H2  UNL     1     -11.660  14.203  70.073  1.00  0.00     0.000 HD 
HETATM   15  H1  UNL     1     -12.471  15.359  70.853  1.00  0.00     0.000 HD 
ENDBRANCH   6  12
BRANCH  11  16
HETATM   16  C   UNL     1     -11.460   7.332  70.730  1.00  0.00    -0.299 C  
HETATM   17  O   UNL     1     -12.021   6.448  70.098  1.00  0.00    -0.354 OA 
BRANCH  16  18
HETATM   18  O   UNL     1     -10.482   7.091  71.653  1.00  0.00    -0.201 OA 
BRANCH  18  19
HETATM   19  C   UNL     1      -9.857   5.785  71.517  1.00  0.00    -0.169 C  
HETATM   20  C   UNL     1      -8.653   5.891  70.586  1.00  0.00    -0.133 C  
HETATM   21  C   UNL     1      -9.422   5.255  72.879  1.00  0.00    -0.157 C  
ENDBRANCH  18  19
ENDBRANCH  16  18
ENDBRANCH  11  16
BRANCH   8  22
HETATM   22  C   UNL     1      -9.739   9.283  69.088  1.00  0.00    -0.164 A  
HETATM   23  C   UNL     1      -9.335   8.672  67.881  1.00  0.00    -0.155 A  
HETATM   24  C   UNL     1      -8.748   9.598  70.033  1.00  0.00    -0.256 A  
HETATM   25  C   UNL     1      -7.401   9.291  69.794  1.00  0.00    -0.072 A  
HETATM   26  C   UNL     1      -7.987   8.333  67.665  1.00  0.00    -0.118 A  
HETATM   27  O   UNL     1      -8.495   7.342  65.629  1.00  0.00    -0.136 OA 
HETATM   28  N   UNL     1      -7.603   7.596  66.450  1.00  0.00    -0.087 N  
HETATM   29  C   UNL     1      -7.015   8.648  68.618  1.00  0.00    -0.064 A  
HETATM   30  O   UNL     1      -6.414   7.260  66.328  1.00  0.00    -0.046 OA 
ENDBRANCH   8  22
ENDBRANCH   3   5
ENDBRANCH   2   3
TORSDOF 7
ENDMDL
MODEL       51
REMARK 921   NORMALIZED FREE ENERGY PREDICTED BY IDOCK:   -5.01 KCAL/MOL
REMARK 922        TOTAL FREE ENERGY PREDICTED BY IDOCK:   -8.11 KCAL/MOL
REMARK 923 INTER-LIGAND FREE ENERGY PREDICTED BY IDOCK:   -6.63 KCAL/MOL
REMARK 924 INTRA-LIGAND FREE ENERGY PREDICTED BY IDOCK:   -1.48 KCAL/MOL
REMARK 927      BINDING AFFINITY PREDICTED BY RF-SCORE:    0.00 PKD
ROOT
HETATM    1  C   UNL     1     -11.848  12.180  69.686  1.00  0.00    -0.322 C  
HETATM    2  O   UNL     1     -11.926  12.404  68.270  1.00  0.00    -0.334 OA 
ENDROOT
BRANCH   2   3
HETATM    3  C   UNL     1     -10.847  13.045  67.754  1.00  0.00    -0.240 C  
HETATM    4  O   UNL     1     -10.251  13.969  68.276  1.00  0.00    -0.235 OA 
BRANCH   3   5
HETATM    5  C   UNL     1     -10.473  12.413  66.461  1.00  0.00    -0.254 C  
HETATM    6  C   UNL     1     -11.169  12.692  65.328  1.00  0.00    -0.300 C  
HETATM    7  N   UNL     1     -10.826  12.116  64.129  1.00  0.00    -0.327 NA 
HETATM    8  C   UNL     1      -9.305  11.413  66.465  1.00  0.00    -0.204 C  
HETATM    9  C   UNL     1      -9.820  11.159  64.008  1.00  0.00    -0.302 C  
HETATM   10  C   UNL     1      -9.620  10.621  62.608  1.00  0.00    -0.293 C  
HETATM   11  C   UNL     1      -9.081  10.769  65.087  1.00  0.00    -0.225 C  
BRANCH   6  12
HETATM   12  C   UNL     1     -12.457  13.493  65.409  1.00  0.00    -0.497 C  
HETATM   13  N   UNL     1     -13.526  14.158  65.478  1.00  0.00    -0.616 NA 
HETATM   14  H2  UNL     1     -13.725  13.301  65.994  1.00  0.00     0.000 HD 
HETATM   15  H1  UNL     1     -14.391  14.697  65.533  1.00  0.00     0.000 HD 
ENDBRANCH   6  12
BRANCH  11  16
HETATM   16  C   UNL     1      -8.085   9.665  64.926  1.00  0.00    -0.133 C  
HETATM   17  O   UNL     1      -6.890   9.874  64.771  1.00  0.00    -0.116 OA 
BRANCH  16  18
HETATM   18  O   UNL     1      -8.628   8.413  64.973  1.00  0.00    -0.169 OA 
BRANCH  18  19
HETATM   19  C   UNL     1      -7.662   7.365  65.265  1.00  0.00    -0.113 C  
HETATM   20  C   UNL     1      -7.467   7.259  66.775  1.00  0.00    -0.092 C  
HETATM   21  C   UNL     1      -8.135   6.029  64.702  1.00  0.00    -0.132 C  
ENDBRANCH  18  19
ENDBRANCH  16  18
ENDBRANCH  11  16
BRANCH   8  22
HETATM   22  C   UNL     1      -9.441  10.368  67.596  1.00  0.00    -0.165 A  
HETATM   23  C   UNL     1      -8.571  10.428  68.706  1.00  0.00    -0.141 A  
HETATM   24  C   UNL     1     -10.388   9.331  67.554  1.00  0.00    -0.323 A  
HETATM   25  C   UNL     1     -10.448   8.369  68.573  1.00  0.00    -0.201 A  
HETATM   26  C   UNL     1      -8.612   9.438  69.704  1.00  0.00    -0.168 A  
HETATM   27  O   UNL     1      -6.807  10.389  70.812  1.00  0.00    -0.337 OA 
HETATM   28  N   UNL     1      -7.623   9.456  70.793  1.00  0.00    -0.137 N  
HETATM   29  C   UNL     1      -9.555   8.410  69.644  1.00  0.00    -0.163 A  
HETATM   30  O   UNL     1      -7.653   8.528  71.618  1.00  0.00    -0.096 OA 
ENDBRANCH   8  22
ENDBRANCH   3   5
ENDBRANCH   2   3
TORSDOF 7
ENDMDL
MODEL       52
REMARK 921   NORMALIZED FREE ENERGY PREDICTED BY IDOCK:   -4.99 KCAL/MOL
REMARK 922        TOTAL FREE ENERGY PREDICTED BY IDOCK:   -8.09 KCAL/MOL
REMARK 923 INTER-LIGAND FREE ENERGY PREDICTED BY IDOCK:   -6.98 KCAL/MOL
REMARK 924 INTRA-LIGAND FREE ENERGY PREDICTED BY IDOCK:   -1.10 KCAL/MOL
REMARK 927      BINDING AFFINITY PREDICTED BY RF-SCORE:    0.00 PKD
ROOT
HETATM    1  C   UNL     1     -10.394  17.991  66.467  1.00  0.00    -0.373 C  
HETATM    2  O   UNL     1      -9.477  16.888  66.510  1.00  0.00    -0.252 OA 
ENDROOT
BRANCH   2   3
HETATM    3  C   UNL     1      -9.027  16.594  67.756  1.00  0.00    -0.211 C  
HETATM    4  O   UNL     1      -9.320  17.189  68.777  1.00  0.00    -0.266 OA 
BRANCH   3   5
HETATM    5  C   UNL     1      -8.146  15.398  67.691  1.00  0.00    -0.166 C  
HETATM    6  C   UNL     1      -6.840  15.519  67.338  1.00  0.00    -0.189 C  
HETATM    7  N   UNL     1      -6.020  14.419  67.281  1.00  0.00    -0.221 NA 
HETATM    8  C   UNL     1      -8.776  14.029  67.997  1.00  0.00    -0.180 C  
HETATM    9  C   UNL     1      -6.477  13.120  67.489  1.00  0.00    -0.147 C  
HETATM   10  C   UNL     1      -5.424  12.044  67.347  1.00  0.00    -0.116 C  
HETATM   11  C   UNL     1      -7.781  12.872  67.809  1.00  0.00    -0.151 C  
BRANCH   6  12
HETATM   12  C   UNL     1      -6.318  16.846  66.814  1.00  0.00    -0.204 C  
HETATM   13  N   UNL     1      -5.885  17.947  66.378  1.00  0.00    -0.163 NA 
HETATM   14  H2  UNL     1      -6.047  17.387  65.540  1.00  0.00     0.000 HD 
HETATM   15  H1  UNL     1      -5.535  18.839  66.025  1.00  0.00     0.000 HD 
ENDBRANCH   6  12
BRANCH  11  16
HETATM   16  C   UNL     1      -8.247  11.455  67.919  1.00  0.00    -0.132 C  
HETATM   17  O   UNL     1      -8.380  10.728  66.944  1.00  0.00    -0.126 OA 
BRANCH  16  18
HETATM   18  O   UNL     1      -8.502  11.049  69.198  1.00  0.00    -0.118 OA 
BRANCH  18  19
HETATM   19  C   UNL     1      -9.627  10.134  69.309  1.00  0.00    -0.225 C  
HETATM   20  C   UNL     1      -9.480   9.296  70.576  1.00  0.00    -0.317 C  
HETATM   21  C   UNL     1     -10.943  10.905  69.339  1.00  0.00    -0.304 C  
ENDBRANCH  18  19
ENDBRANCH  16  18
ENDBRANCH  11  16
BRANCH   8  22
HETATM   22  C   UNL     1     -10.096  13.813  67.223  1.00  0.00    -0.239 A  
HETATM   23  C   UNL     1     -10.055  13.318  65.902  1.00  0.00    -0.296 A  
HETATM   24  C   UNL     1     -11.352  14.118  67.776  1.00  0.00    -0.330 A  
HETATM   25  C   UNL     1     -12.527  13.959  67.026  1.00  0.00    -0.142 A  
HETATM   26  C   UNL     1     -11.233  13.197  65.144  1.00  0.00    -0.294 A  
HETATM   27  O   UNL     1     -10.038  12.512  63.276  1.00  0.00    -0.373 OA 
HETATM   28  N   UNL     1     -11.157  12.786  63.733  1.00  0.00    -0.432 N  
HETATM   29  C   UNL     1     -12.473  13.510  65.706  1.00  0.00    -0.514 A  
HETATM   30  O   UNL     1     -12.213  12.754  63.081  1.00  0.00    -0.505 OA 
ENDBRANCH   8  22
ENDBRANCH   3   5
ENDBRANCH   2   3
TORSDOF 7
ENDMDL
MODEL       53
REMARK 921   NORMALIZED FREE ENERGY PREDICTED BY IDOCK:   -4.99 KCAL/MOL
REMARK 922        TOTAL FREE ENERGY PREDICTED BY IDOCK:   -8.09 KCAL/MOL
REMARK 923 INTER-LIGAND FREE ENERGY PREDICTED BY IDOCK:   -6.77 KCAL/MOL
REMARK 924 INTRA-LIGAND FREE ENERGY PREDICTED BY IDOCK:   -1.32 KCAL/MOL
REMARK 927      BINDING AFFINITY PREDICTED BY RF-SCORE:    0.00 PKD
ROOT
HETATM    1  C   UNL     1     -11.884  10.845  69.718  1.00  0.00    -0.345 C  
HETATM    2  O   UNL     1     -12.226  11.341  68.416  1.00  0.00    -0.604 OA 
ENDROOT
BRANCH   2   3
HETATM    3  C   UNL     1     -11.263  11.145  67.481  1.00  0.00    -0.301 C  
HETATM    4  O   UNL     1     -11.020  10.093  66.918  1.00  0.00    -0.168 OA 
BRANCH   3   5
HETATM    5  C   UNL     1     -10.568  12.432  67.213  1.00  0.00    -0.246 C  
HETATM    6  C   UNL     1     -11.054  13.301  66.289  1.00  0.00    -0.290 C  
HETATM    7  N   UNL     1     -10.421  14.494  66.040  1.00  0.00    -0.296 NA 
HETATM    8  C   UNL     1      -9.270  12.719  67.986  1.00  0.00    -0.208 C  
HETATM    9  C   UNL     1      -9.214  14.851  66.638  1.00  0.00    -0.276 C  
HETATM   10  C   UNL     1      -8.661  16.190  66.203  1.00  0.00    -0.358 C  
HETATM   11  C   UNL     1      -8.609  14.038  67.552  1.00  0.00    -0.196 C  
BRANCH   6  12
HETATM   12  C   UNL     1     -12.196  12.878  65.380  1.00  0.00    -0.478 C  
HETATM   13  N   UNL     1     -13.144  12.527  64.627  1.00  0.00    -0.837 NA 
HETATM   14  H2  UNL     1     -13.337  12.060  65.513  1.00  0.00     0.000 HD 
HETATM   15  H1  UNL     1     -13.912  12.243  64.017  1.00  0.00     0.000 HD 
ENDBRANCH   6  12
BRANCH  11  16
HETATM   16  C   UNL     1      -7.264  14.416  68.086  1.00  0.00    -0.128 C  
HETATM   17  O   UNL     1      -6.251  14.377  67.403  1.00  0.00    -0.334 OA 
BRANCH  16  18
HETATM   18  O   UNL     1      -7.274  14.811  69.394  1.00  0.00    -0.154 OA 
BRANCH  18  19
HETATM   19  C   UNL     1      -5.948  14.960  69.971  1.00  0.00    -0.143 C  
HETATM   20  C   UNL     1      -5.659  16.440  70.208  1.00  0.00    -0.176 C  
HETATM   21  C   UNL     1      -5.845  14.189  71.283  1.00  0.00    -0.206 C  
ENDBRANCH  18  19
ENDBRANCH  16  18
ENDBRANCH  11  16
BRANCH   8  22
HETATM   22  C   UNL     1      -8.295  11.521  67.945  1.00  0.00    -0.136 A  
HETATM   23  C   UNL     1      -8.034  10.796  69.128  1.00  0.00    -0.135 A  
HETATM   24  C   UNL     1      -7.626  11.133  66.772  1.00  0.00    -0.146 A  
HETATM   25  C   UNL     1      -6.707  10.074  66.783  1.00  0.00    -0.076 A  
HETATM   26  C   UNL     1      -7.083   9.760  69.139  1.00  0.00    -0.067 A  
HETATM   27  O   UNL     1      -7.358   9.446  71.423  1.00  0.00    -0.325 OA 
HETATM   28  N   UNL     1      -6.744   9.092  70.406  1.00  0.00    -0.046 N  
HETATM   29  C   UNL     1      -6.422   9.391  67.966  1.00  0.00    -0.062 A  
HETATM   30  O   UNL     1      -5.853   8.227  70.384  1.00  0.00    -0.028 OA 
ENDBRANCH   8  22
ENDBRANCH   3   5
ENDBRANCH   2   3
TORSDOF 7
ENDMDL
MODEL       54
REMARK 921   NORMALIZED FREE ENERGY PREDICTED BY IDOCK:   -4.99 KCAL/MOL
REMARK 922        TOTAL FREE ENERGY PREDICTED BY IDOCK:   -8.08 KCAL/MOL
REMARK 923 INTER-LIGAND FREE ENERGY PREDICTED BY IDOCK:   -6.85 KCAL/MOL
REMARK 924 INTRA-LIGAND FREE ENERGY PREDICTED BY IDOCK:   -1.23 KCAL/MOL
REMARK 927      BINDING AFFINITY PREDICTED BY RF-SCORE:    0.00 PKD
ROOT
HETATM    1  C   UNL     1      -6.646   6.016  66.422  1.00  0.00    -0.055 C  
HETATM    2  O   UNL     1      -7.402   6.477  67.552  1.00  0.00    -0.090 OA 
ENDROOT
BRANCH   2   3
HETATM    3  C   UNL     1      -8.447   7.278  67.225  1.00  0.00    -0.118 C  
HETATM    4  O   UNL     1      -8.548   7.937  66.206  1.00  0.00    -0.133 OA 
BRANCH   3   5
HETATM    5  C   UNL     1      -9.481   7.196  68.291  1.00  0.00    -0.133 C  
HETATM    6  C   UNL     1     -10.536   6.350  68.168  1.00  0.00    -0.255 C  
HETATM    7  N   UNL     1     -11.492   6.266  69.150  1.00  0.00    -0.315 NA 
HETATM    8  C   UNL     1      -9.330   8.127  69.506  1.00  0.00    -0.155 C  
HETATM    9  C   UNL     1     -11.497   7.086  70.276  1.00  0.00    -0.287 C  
HETATM   10  C   UNL     1     -12.655   6.861  71.222  1.00  0.00    -0.394 C  
HETATM   11  C   UNL     1     -10.509   8.004  70.486  1.00  0.00    -0.217 C  
BRANCH   6  12
HETATM   12  C   UNL     1     -10.777   5.627  66.853  1.00  0.00    -0.272 C  
HETATM   13  N   UNL     1     -10.976   5.028  65.761  1.00  0.00    -0.773 NA 
HETATM   14  H2  UNL     1     -11.686   5.761  65.783  1.00  0.00     0.000 HD 
HETATM   15  H1  UNL     1     -11.138   4.543  64.878  1.00  0.00     0.000 HD 
ENDBRANCH   6  12
BRANCH  11  16
HETATM   16  C   UNL     1     -10.614   8.932  71.655  1.00  0.00    -0.352 C  
HETATM   17  O   UNL     1     -11.562   9.689  71.810  1.00  0.00    -0.378 OA 
BRANCH  16  18
HETATM   18  O   UNL     1      -9.565   8.853  72.526  1.00  0.00    -0.252 OA 
BRANCH  18  19
HETATM   19  C   UNL     1      -9.108   7.495  72.770  1.00  0.00    -0.152 C  
HETATM   20  C   UNL     1      -7.583   7.474  72.833  1.00  0.00    -0.105 C  
HETATM   21  C   UNL     1      -9.693   6.958  74.073  1.00  0.00    -0.326 C  
ENDBRANCH  18  19
ENDBRANCH  16  18
ENDBRANCH  11  16
BRANCH   8  22
HETATM   22  C   UNL     1      -9.053   9.588  69.086  1.00  0.00    -0.152 A  
HETATM   23  C   UNL     1     -10.076  10.341  68.472  1.00  0.00    -0.181 A  
HETATM   24  C   UNL     1      -7.800  10.199  69.266  1.00  0.00    -0.134 A  
HETATM   25  C   UNL     1      -7.568  11.509  68.825  1.00  0.00    -0.129 A  
HETATM   26  C   UNL     1      -9.824  11.641  67.999  1.00  0.00    -0.190 A  
HETATM   27  O   UNL     1     -11.970  11.809  67.129  1.00  0.00    -0.617 OA 
HETATM   28  N   UNL     1     -10.871  12.367  67.262  1.00  0.00    -0.236 N  
HETATM   29  C   UNL     1      -8.572  12.231  68.180  1.00  0.00    -0.181 A  
HETATM   30  O   UNL     1     -10.588  13.486  66.805  1.00  0.00    -0.269 OA 
ENDBRANCH   8  22
ENDBRANCH   3   5
ENDBRANCH   2   3
TORSDOF 7
ENDMDL
MODEL       55
REMARK 921   NORMALIZED FREE ENERGY PREDICTED BY IDOCK:   -4.97 KCAL/MOL
REMARK 922        TOTAL FREE ENERGY PREDICTED BY IDOCK:   -8.06 KCAL/MOL
REMARK 923 INTER-LIGAND FREE ENERGY PREDICTED BY IDOCK:   -7.15 KCAL/MOL
REMARK 924 INTRA-LIGAND FREE ENERGY PREDICTED BY IDOCK:   -0.91 KCAL/MOL
REMARK 927      BINDING AFFINITY PREDICTED BY RF-SCORE:    0.00 PKD
ROOT
HETATM    1  C   UNL     1     -12.729  12.228  64.200  1.00  0.00    -0.330 C  
HETATM    2  O   UNL     1     -11.911  13.322  64.638  1.00  0.00    -0.361 OA 
ENDROOT
BRANCH   2   3
HETATM    3  C   UNL     1     -11.756  13.388  65.985  1.00  0.00    -0.362 C  
HETATM    4  O   UNL     1     -12.535  12.954  66.814  1.00  0.00    -0.336 OA 
BRANCH   3   5
HETATM    5  C   UNL     1     -10.456  14.038  66.298  1.00  0.00    -0.286 C  
HETATM    6  C   UNL     1     -10.170  15.278  65.822  1.00  0.00    -0.349 C  
HETATM    7  N   UNL     1      -8.973  15.886  66.111  1.00  0.00    -0.341 NA 
HETATM    8  C   UNL     1      -9.444  13.244  67.141  1.00  0.00    -0.240 C  
HETATM    9  C   UNL     1      -7.954  15.257  66.824  1.00  0.00    -0.068 C  
HETATM   10  C   UNL     1      -6.702  16.084  67.006  1.00  0.00    -0.138 C  
HETATM   11  C   UNL     1      -8.113  13.994  67.317  1.00  0.00    -0.174 C  
BRANCH   6  12
HETATM   12  C   UNL     1     -11.090  15.926  64.801  1.00  0.00    -0.384 C  
HETATM   13  N   UNL     1     -11.853  16.465  63.954  1.00  0.00    -1.402 NA 
HETATM   14  H2  UNL     1     -10.915  16.746  63.668  1.00  0.00     0.000 HD 
HETATM   15  H1  UNL     1     -12.470  16.900  63.268  1.00  0.00     0.000 HD 
ENDBRANCH   6  12
BRANCH  11  16
HETATM   16  C   UNL     1      -6.954  13.322  67.983  1.00  0.00    -0.120 C  
HETATM   17  O   UNL     1      -6.056  12.781  67.353  1.00  0.00    -0.158 OA 
BRANCH  16  18
HETATM   18  O   UNL     1      -6.989  13.372  69.347  1.00  0.00    -0.052 OA 
BRANCH  18  19
HETATM   19  C   UNL     1      -5.706  13.689  69.955  1.00  0.00    -0.117 C  
HETATM   20  C   UNL     1      -5.681  15.162  70.354  1.00  0.00    -0.139 C  
HETATM   21  C   UNL     1      -5.461  12.810  71.177  1.00  0.00    -0.132 C  
ENDBRANCH  18  19
ENDBRANCH  16  18
ENDBRANCH  11  16
BRANCH   8  22
HETATM   22  C   UNL     1      -9.253  11.804  66.613  1.00  0.00    -0.201 A  
HETATM   23  C   UNL     1      -9.075  11.590  65.229  1.00  0.00    -0.027 A  
HETATM   24  C   UNL     1      -9.277  10.682  67.458  1.00  0.00    -0.151 A  
HETATM   25  C   UNL     1      -9.153   9.386  66.937  1.00  0.00    -0.160 A  
HETATM   26  C   UNL     1      -8.990  10.285  64.711  1.00  0.00    -0.203 A  
HETATM   27  O   UNL     1      -8.886  11.087  62.535  1.00  0.00    -0.285 OA 
HETATM   28  N   UNL     1      -8.918  10.079  63.255  1.00  0.00    -0.237 N  
HETATM   29  C   UNL     1      -9.022   9.180  65.564  1.00  0.00    -0.252 A  
HETATM   30  O   UNL     1      -8.909   8.911  62.836  1.00  0.00    -0.149 OA 
ENDBRANCH   8  22
ENDBRANCH   3   5
ENDBRANCH   2   3
TORSDOF 7
ENDMDL
MODEL       56
REMARK 921   NORMALIZED FREE ENERGY PREDICTED BY IDOCK:   -4.97 KCAL/MOL
REMARK 922        TOTAL FREE ENERGY PREDICTED BY IDOCK:   -8.05 KCAL/MOL
REMARK 923 INTER-LIGAND FREE ENERGY PREDICTED BY IDOCK:   -7.84 KCAL/MOL
REMARK 924 INTRA-LIGAND FREE ENERGY PREDICTED BY IDOCK:   -0.22 KCAL/MOL
REMARK 927      BINDING AFFINITY PREDICTED BY RF-SCORE:    0.00 PKD
ROOT
HETATM    1  C   UNL     1     -10.755  10.862  69.365  1.00  0.00    -0.225 C  
HETATM    2  O   UNL     1     -10.336  12.233  69.423  1.00  0.00     0.165 OA 
ENDROOT
BRANCH   2   3
HETATM    3  C   UNL     1     -11.337  13.124  69.210  1.00  0.00    -0.253 C  
HETATM    4  O   UNL     1     -12.529  12.881  69.261  1.00  0.00    -0.003 OA 
BRANCH   3   5
HETATM    5  C   UNL     1     -10.753  14.466  68.947  1.00  0.00    -0.260 C  
HETATM    6  C   UNL     1     -11.276  15.576  69.530  1.00  0.00    -0.299 C  
HETATM    7  N   UNL     1     -10.739  16.817  69.294  1.00  0.00    -0.340 NA 
HETATM    8  C   UNL     1      -9.571  14.551  67.966  1.00  0.00    -0.217 C  
HETATM    9  C   UNL     1      -9.699  17.035  68.393  1.00  0.00    -0.279 C  
HETATM   10  C   UNL     1      -9.274  18.479  68.250  1.00  0.00    -0.342 C  
HETATM   11  C   UNL     1      -9.122  16.000  67.716  1.00  0.00    -0.196 C  
BRANCH   6  12
HETATM   12  C   UNL     1     -12.584  15.481  70.298  1.00  0.00    -0.323 C  
HETATM   13  N   UNL     1     -13.669  15.401  70.935  1.00  0.00    -0.814 NA 
HETATM   14  H2  UNL     1     -13.847  14.901  70.063  1.00  0.00     0.000 HD 
HETATM   15  H1  UNL     1     -14.548  15.337  71.450  1.00  0.00     0.000 HD 
ENDBRANCH   6  12
BRANCH  11  16
HETATM   16  C   UNL     1      -8.082  16.297  66.682  1.00  0.00    -0.288 C  
HETATM   17  O   UNL     1      -8.294  17.032  65.728  1.00  0.00    -0.500 OA 
BRANCH  16  18
HETATM   18  O   UNL     1      -6.884  15.680  66.903  1.00  0.00    -0.245 OA 
BRANCH  18  19
HETATM   19  C   UNL     1      -5.892  16.534  67.535  1.00  0.00    -0.150 C  
HETATM   20  C   UNL     1      -5.928  17.919  66.894  1.00  0.00    -0.176 C  
HETATM   21  C   UNL     1      -6.157  16.643  69.033  1.00  0.00    -0.162 C  
ENDBRANCH  18  19
ENDBRANCH  16  18
ENDBRANCH  11  16
BRANCH   8  22
HETATM   22  C   UNL     1      -9.848  13.777  66.657  1.00  0.00    -0.286 A  
HETATM   23  C   UNL     1     -10.820  14.261  65.756  1.00  0.00    -0.303 A  
HETATM   24  C   UNL     1      -9.183  12.582  66.333  1.00  0.00    -0.177 A  
HETATM   25  C   UNL     1      -9.497  11.878  65.162  1.00  0.00    -0.059 A  
HETATM   26  C   UNL     1     -11.156  13.529  64.602  1.00  0.00    -0.374 A  
HETATM   27  O   UNL     1     -12.810  15.056  64.037  1.00  0.00    -0.676 OA 
HETATM   28  N   UNL     1     -12.251  13.993  63.734  1.00  0.00    -0.343 N  
HETATM   29  C   UNL     1     -10.490  12.340  64.299  1.00  0.00    -0.375 A  
HETATM   30  O   UNL     1     -12.558  13.285  62.762  1.00  0.00    -0.335 OA 
ENDBRANCH   8  22
ENDBRANCH   3   5
ENDBRANCH   2   3
TORSDOF 7
ENDMDL
MODEL       57
REMARK 921   NORMALIZED FREE ENERGY PREDICTED BY IDOCK:   -4.93 KCAL/MOL
REMARK 922        TOTAL FREE ENERGY PREDICTED BY IDOCK:   -7.99 KCAL/MOL
REMARK 923 INTER-LIGAND FREE ENERGY PREDICTED BY IDOCK:   -7.63 KCAL/MOL
REMARK 924 INTRA-LIGAND FREE ENERGY PREDICTED BY IDOCK:   -0.36 KCAL/MOL
REMARK 927      BINDING AFFINITY PREDICTED BY RF-SCORE:    0.00 PKD
ROOT
HETATM    1  C   UNL     1     -11.237  14.921  67.258  1.00  0.00    -0.345 C  
HETATM    2  O   UNL     1     -10.539  13.788  66.720  1.00  0.00    -0.271 OA 
ENDROOT
BRANCH   2   3
HETATM    3  C   UNL     1     -11.184  12.608  66.903  1.00  0.00    -0.300 C  
HETATM    4  O   UNL     1     -12.388  12.437  66.840  1.00  0.00    -0.425 OA 
BRANCH   3   5
HETATM    5  C   UNL     1     -10.184  11.535  67.151  1.00  0.00    -0.233 C  
HETATM    6  C   UNL     1      -9.696  10.793  66.122  1.00  0.00    -0.207 C  
HETATM    7  N   UNL     1      -8.769   9.804  66.344  1.00  0.00    -0.130 NA 
HETATM    8  C   UNL     1      -9.760  11.275  68.606  1.00  0.00    -0.200 C  
HETATM    9  C   UNL     1      -8.339   9.439  67.618  1.00  0.00    -0.119 C  
HETATM   10  C   UNL     1      -7.341   8.303  67.650  1.00  0.00    -0.093 C  
HETATM   11  C   UNL     1      -8.793  10.086  68.730  1.00  0.00    -0.137 C  
BRANCH   6  12
HETATM   12  C   UNL     1     -10.314  10.918  64.740  1.00  0.00    -0.323 C  
HETATM   13  N   UNL     1     -10.827  11.022  63.593  1.00  0.00    -0.558 NA 
HETATM   14  H2  UNL     1     -10.463  11.953  63.795  1.00  0.00     0.000 HD 
HETATM   15  H1  UNL     1     -11.242  11.105  62.664  1.00  0.00     0.000 HD 
ENDBRANCH   6  12
BRANCH  11  16
HETATM   16  C   UNL     1      -8.383   9.589  70.080  1.00  0.00    -0.179 C  
HETATM   17  O   UNL     1      -7.468  10.092  70.716  1.00  0.00    -0.242 OA 
BRANCH  16  18
HETATM   18  O   UNL     1      -9.121   8.533  70.533  1.00  0.00    -0.143 OA 
BRANCH  18  19
HETATM   19  C   UNL     1      -8.567   7.896  71.717  1.00  0.00    -0.119 C  
HETATM   20  C   UNL     1      -9.643   7.799  72.795  1.00  0.00    -0.281 C  
HETATM   21  C   UNL     1      -8.037   6.506  71.379  1.00  0.00    -0.112 C  
ENDBRANCH  18  19
ENDBRANCH  16  18
ENDBRANCH  11  16
BRANCH   8  22
HETATM   22  C   UNL     1     -10.977  11.156  69.551  1.00  0.00    -0.276 A  
HETATM   23  C   UNL     1     -11.567  12.326  70.075  1.00  0.00    -0.236 A  
HETATM   24  C   UNL     1     -11.511   9.915  69.940  1.00  0.00    -0.234 A  
HETATM   25  C   UNL     1     -12.582   9.843  70.842  1.00  0.00    -0.392 A  
HETATM   26  C   UNL     1     -12.616  12.244  71.008  1.00  0.00    -0.257 A  
HETATM   27  O   UNL     1     -12.662  14.552  71.256  1.00  0.00    -0.303 OA 
HETATM   28  N   UNL     1     -13.143  13.471  71.627  1.00  0.00    -0.372 N  
HETATM   29  C   UNL     1     -13.132  11.003  71.388  1.00  0.00    -0.441 A  
HETATM   30  O   UNL     1     -14.025  13.351  72.492  1.00  0.00    -0.707 OA 
ENDBRANCH   8  22
ENDBRANCH   3   5
ENDBRANCH   2   3
TORSDOF 7
ENDMDL
MODEL       58
REMARK 921   NORMALIZED FREE ENERGY PREDICTED BY IDOCK:   -4.92 KCAL/MOL
REMARK 922        TOTAL FREE ENERGY PREDICTED BY IDOCK:   -7.99 KCAL/MOL
REMARK 923 INTER-LIGAND FREE ENERGY PREDICTED BY IDOCK:   -7.04 KCAL/MOL
REMARK 924 INTRA-LIGAND FREE ENERGY PREDICTED BY IDOCK:   -0.95 KCAL/MOL
REMARK 927      BINDING AFFINITY PREDICTED BY RF-SCORE:    0.00 PKD
ROOT
HETATM    1  C   UNL     1      -6.572   7.997  66.299  1.00  0.00    -0.047 C  
HETATM    2  O   UNL     1      -7.664   7.109  66.580  1.00  0.00    -0.096 OA 
ENDROOT
BRANCH   2   3
HETATM    3  C   UNL     1      -8.887   7.685  66.459  1.00  0.00    -0.147 C  
HETATM    4  O   UNL     1      -9.299   8.283  65.482  1.00  0.00    -0.037 OA 
BRANCH   3   5
HETATM    5  C   UNL     1      -9.672   7.436  67.697  1.00  0.00    -0.178 C  
HETATM    6  C   UNL     1     -10.440   6.322  67.817  1.00  0.00    -0.232 C  
HETATM    7  N   UNL     1     -11.163   6.083  68.960  1.00  0.00    -0.329 NA 
HETATM    8  C   UNL     1      -9.612   8.498  68.808  1.00  0.00    -0.150 C  
HETATM    9  C   UNL     1     -11.231   6.987  70.018  1.00  0.00    -0.269 C  
HETATM   10  C   UNL     1     -12.110   6.554  71.169  1.00  0.00    -0.318 C  
HETATM   11  C   UNL     1     -10.534   8.161  69.991  1.00  0.00    -0.231 C  
BRANCH   6  12
HETATM   12  C   UNL     1     -10.661   5.422  66.613  1.00  0.00    -0.294 C  
HETATM   13  N   UNL     1     -10.844   4.676  65.613  1.00  0.00    -0.795 NA 
HETATM   14  H2  UNL     1      -9.923   4.411  65.965  1.00  0.00     0.000 HD 
HETATM   15  H1  UNL     1     -10.992   4.071  64.804  1.00  0.00     0.000 HD 
ENDBRANCH   6  12
BRANCH  11  16
HETATM   16  C   UNL     1     -10.722   9.145  71.102  1.00  0.00    -0.310 C  
HETATM   17  O   UNL     1     -10.114   9.066  72.160  1.00  0.00    -0.296 OA 
BRANCH  16  18
HETATM   18  O   UNL     1     -11.624  10.132  70.825  1.00  0.00    -0.304 OA 
BRANCH  18  19
HETATM   19  C   UNL     1     -12.635  10.308  71.856  1.00  0.00    -0.318 C  
HETATM   20  C   UNL     1     -13.184  11.731  71.795  1.00  0.00    -0.434 C  
HETATM   21  C   UNL     1     -13.766   9.301  71.673  1.00  0.00    -0.421 C  
ENDBRANCH  18  19
ENDBRANCH  16  18
ENDBRANCH  11  16
BRANCH   8  22
HETATM   22  C   UNL     1      -9.843   9.924  68.259  1.00  0.00    -0.165 A  
HETATM   23  C   UNL     1      -8.857  10.914  68.459  1.00  0.00    -0.153 A  
HETATM   24  C   UNL     1     -11.020  10.291  67.583  1.00  0.00    -0.356 A  
HETATM   25  C   UNL     1     -11.218  11.608  67.145  1.00  0.00    -0.371 A  
HETATM   26  C   UNL     1      -9.080  12.241  68.050  1.00  0.00    -0.191 A  
HETATM   27  O   UNL     1      -7.054  12.928  68.953  1.00  0.00    -0.097 OA 
HETATM   28  N   UNL     1      -8.088  13.281  68.368  1.00  0.00    -0.146 N  
HETATM   29  C   UNL     1     -10.257  12.590  67.386  1.00  0.00    -0.217 A  
HETATM   30  O   UNL     1      -8.352  14.451  68.046  1.00  0.00    -0.139 OA 
ENDBRANCH   8  22
ENDBRANCH   3   5
ENDBRANCH   2   3
TORSDOF 7
ENDMDL
MODEL       59
REMARK 921   NORMALIZED FREE ENERGY PREDICTED BY IDOCK:   -4.91 KCAL/MOL
REMARK 922        TOTAL FREE ENERGY PREDICTED BY IDOCK:   -7.97 KCAL/MOL
REMARK 923 INTER-LIGAND FREE ENERGY PREDICTED BY IDOCK:   -6.56 KCAL/MOL
REMARK 924 INTRA-LIGAND FREE ENERGY PREDICTED BY IDOCK:   -1.41 KCAL/MOL
REMARK 927      BINDING AFFINITY PREDICTED BY RF-SCORE:    0.00 PKD
ROOT
HETATM    1  C   UNL     1     -11.863  10.918  69.781  1.00  0.00    -0.345 C  
HETATM    2  O   UNL     1     -12.206  11.441  68.490  1.00  0.00    -0.557 OA 
ENDROOT
BRANCH   2   3
HETATM    3  C   UNL     1     -11.260  11.226  67.540  1.00  0.00    -0.291 C  
HETATM    4  O   UNL     1     -11.027  10.161  66.996  1.00  0.00    -0.209 OA 
BRANCH   3   5
HETATM    5  C   UNL     1     -10.575  12.508  67.229  1.00  0.00    -0.246 C  
HETATM    6  C   UNL     1     -11.067  13.343  66.277  1.00  0.00    -0.293 C  
HETATM    7  N   UNL     1     -10.441  14.531  65.988  1.00  0.00    -0.296 NA 
HETATM    8  C   UNL     1      -9.278  12.829  67.991  1.00  0.00    -0.208 C  
HETATM    9  C   UNL     1      -9.237  14.916  66.573  1.00  0.00    -0.285 C  
HETATM   10  C   UNL     1      -8.693  16.243  66.095  1.00  0.00    -0.353 C  
HETATM   11  C   UNL     1      -8.626  14.137  67.513  1.00  0.00    -0.196 C  
BRANCH   6  12
HETATM   12  C   UNL     1     -12.206  12.882  65.384  1.00  0.00    -0.478 C  
HETATM   13  N   UNL     1     -13.153  12.500  64.643  1.00  0.00    -0.837 NA 
HETATM   14  H2  UNL     1     -13.341  12.061  65.544  1.00  0.00     0.000 HD 
HETATM   15  H1  UNL     1     -13.918  12.191  64.043  1.00  0.00     0.000 HD 
ENDBRANCH   6  12
BRANCH  11  16
HETATM   16  C   UNL     1      -7.284  14.541  68.034  1.00  0.00    -0.142 C  
HETATM   17  O   UNL     1      -6.263  14.445  67.367  1.00  0.00    -0.334 OA 
BRANCH  16  18
HETATM   18  O   UNL     1      -7.304  15.029  69.310  1.00  0.00    -0.156 OA 
BRANCH  18  19
HETATM   19  C   UNL     1      -5.990  15.113  69.926  1.00  0.00    -0.136 C  
HETATM   20  C   UNL     1      -5.715  16.553  70.349  1.00  0.00    -0.107 C  
HETATM   21  C   UNL     1      -5.905  14.186  71.134  1.00  0.00    -0.214 C  
ENDBRANCH  18  19
ENDBRANCH  16  18
ENDBRANCH  11  16
BRANCH   8  22
HETATM   22  C   UNL     1      -8.295  11.636  67.989  1.00  0.00    -0.148 A  
HETATM   23  C   UNL     1      -7.754  11.183  66.767  1.00  0.00    -0.153 A  
HETATM   24  C   UNL     1      -7.932  10.956  69.165  1.00  0.00    -0.114 A  
HETATM   25  C   UNL     1      -7.079   9.845  69.120  1.00  0.00    -0.069 A  
HETATM   26  C   UNL     1      -6.929  10.045  66.726  1.00  0.00    -0.089 A  
HETATM   27  O   UNL     1      -6.791  10.149  64.411  1.00  0.00    -0.127 OA 
HETATM   28  N   UNL     1      -6.466   9.523  65.430  1.00  0.00    -0.070 N  
HETATM   29  C   UNL     1      -6.583   9.377  67.903  1.00  0.00    -0.063 A  
HETATM   30  O   UNL     1      -5.793   8.479  65.433  1.00  0.00    -0.044 OA 
ENDBRANCH   8  22
ENDBRANCH   3   5
ENDBRANCH   2   3
TORSDOF 7
ENDMDL
MODEL       60
REMARK 921   NORMALIZED FREE ENERGY PREDICTED BY IDOCK:   -4.90 KCAL/MOL
REMARK 922        TOTAL FREE ENERGY PREDICTED BY IDOCK:   -7.96 KCAL/MOL
REMARK 923 INTER-LIGAND FREE ENERGY PREDICTED BY IDOCK:   -6.92 KCAL/MOL
REMARK 924 INTRA-LIGAND FREE ENERGY PREDICTED BY IDOCK:   -1.04 KCAL/MOL
REMARK 927      BINDING AFFINITY PREDICTED BY RF-SCORE:    0.00 PKD
ROOT
HETATM    1  C   UNL     1     -11.592  14.473  66.108  1.00  0.00    -0.365 C  
HETATM    2  O   UNL     1     -10.659  13.496  66.594  1.00  0.00    -0.276 OA 
ENDROOT
BRANCH   2   3
HETATM    3  C   UNL     1     -11.089  12.215  66.469  1.00  0.00    -0.307 C  
HETATM    4  O   UNL     1     -12.106  11.754  66.955  1.00  0.00    -0.566 OA 
BRANCH   3   5
HETATM    5  C   UNL     1     -10.142  11.461  65.604  1.00  0.00    -0.293 C  
HETATM    6  C   UNL     1     -10.385  11.316  64.275  1.00  0.00    -0.340 C  
HETATM    7  N   UNL     1      -9.513  10.625  63.470  1.00  0.00    -0.279 NA 
HETATM    8  C   UNL     1      -8.912  10.826  66.274  1.00  0.00    -0.184 C  
HETATM    9  C   UNL     1      -8.389   9.964  63.960  1.00  0.00    -0.168 C  
HETATM   10  C   UNL     1      -7.576   9.232  62.916  1.00  0.00    -0.106 C  
HETATM   11  C   UNL     1      -8.067  10.005  65.286  1.00  0.00    -0.145 C  
BRANCH   6  12
HETATM   12  C   UNL     1     -11.723  11.748  63.699  1.00  0.00    -0.415 C  
HETATM   13  N   UNL     1     -12.834  12.108  63.222  1.00  0.00    -0.820 NA 
HETATM   14  H2  UNL     1     -12.589  12.845  63.884  1.00  0.00     0.000 HD 
HETATM   15  H1  UNL     1     -13.732  12.399  62.835  1.00  0.00     0.000 HD 
ENDBRANCH   6  12
BRANCH  11  16
HETATM   16  C   UNL     1      -6.911   9.194  65.780  1.00  0.00    -0.085 C  
HETATM   17  O   UNL     1      -5.760   9.607  65.758  1.00  0.00    -0.048 OA 
BRANCH  16  18
HETATM   18  O   UNL     1      -7.258   7.962  66.258  1.00  0.00    -0.072 OA 
BRANCH  18  19
HETATM   19  C   UNL     1      -6.920   6.869  65.360  1.00  0.00    -0.059 C  
HETATM   20  C   UNL     1      -5.853   5.990  66.006  1.00  0.00    -0.024 C  
HETATM   21  C   UNL     1      -8.159   6.039  65.038  1.00  0.00    -0.133 C  
ENDBRANCH  18  19
ENDBRANCH  16  18
ENDBRANCH  11  16
BRANCH   8  22
HETATM   22  C   UNL     1      -9.290  10.029  67.542  1.00  0.00    -0.162 A  
HETATM   23  C   UNL     1      -9.907   8.766  67.412  1.00  0.00    -0.250 A  
HETATM   24  C   UNL     1      -9.069  10.526  68.839  1.00  0.00    -0.180 A  
HETATM   25  C   UNL     1      -9.473   9.798  69.967  1.00  0.00    -0.278 A  
HETATM   26  C   UNL     1     -10.343   8.060  68.547  1.00  0.00    -0.199 A  
HETATM   27  O   UNL     1     -11.254   6.379  67.232  1.00  0.00    -0.364 OA 
HETATM   28  N   UNL     1     -11.084   6.799  68.385  1.00  0.00    -0.181 N  
HETATM   29  C   UNL     1     -10.121   8.571  69.828  1.00  0.00    -0.197 A  
HETATM   30  O   UNL     1     -11.507   6.240  69.410  1.00  0.00    -0.427 OA 
ENDBRANCH   8  22
ENDBRANCH   3   5
ENDBRANCH   2   3
TORSDOF 7
ENDMDL
MODEL       61
REMARK 921   NORMALIZED FREE ENERGY PREDICTED BY IDOCK:   -4.89 KCAL/MOL
REMARK 922        TOTAL FREE ENERGY PREDICTED BY IDOCK:   -7.94 KCAL/MOL
REMARK 923 INTER-LIGAND FREE ENERGY PREDICTED BY IDOCK:   -7.02 KCAL/MOL
REMARK 924 INTRA-LIGAND FREE ENERGY PREDICTED BY IDOCK:   -0.92 KCAL/MOL
REMARK 927      BINDING AFFINITY PREDICTED BY RF-SCORE:    0.00 PKD
ROOT
HETATM    1  C   UNL     1      -9.455   6.990  66.497  1.00  0.00    -0.150 C  
HETATM    2  O   UNL     1     -10.200   8.205  66.334  1.00  0.00    -0.239 OA 
ENDROOT
BRANCH   2   3
HETATM    3  C   UNL     1      -9.462   9.245  65.869  1.00  0.00    -0.259 C  
HETATM    4  O   UNL     1      -8.378   9.161  65.322  1.00  0.00    -0.129 OA 
BRANCH   3   5
HETATM    5  C   UNL     1     -10.206  10.514  66.091  1.00  0.00    -0.299 C  
HETATM    6  C   UNL     1     -10.679  11.232  65.040  1.00  0.00    -0.256 C  
HETATM    7  N   UNL     1     -11.371  12.402  65.238  1.00  0.00    -0.321 NA 
HETATM    8  C   UNL     1     -10.381  10.995  67.541  1.00  0.00    -0.233 C  
HETATM    9  C   UNL     1     -11.556  12.969  66.497  1.00  0.00    -0.356 C  
HETATM   10  C   UNL     1     -12.314  14.278  66.499  1.00  0.00    -0.345 C  
HETATM   11  C   UNL     1     -11.087  12.358  67.624  1.00  0.00    -0.306 C  
BRANCH   6  12
HETATM   12  C   UNL     1     -10.281  10.852  63.624  1.00  0.00    -0.332 C  
HETATM   13  N   UNL     1      -9.950  10.535  62.449  1.00  0.00    -0.757 NA 
HETATM   14  H2  UNL     1      -9.895   9.662  62.973  1.00  0.00     0.000 HD 
HETATM   15  H1  UNL     1      -9.683  10.279  61.498  1.00  0.00     0.000 HD 
ENDBRANCH   6  12
BRANCH  11  16
HETATM   16  C   UNL     1     -11.219  13.058  68.940  1.00  0.00    -0.278 C  
HETATM   17  O   UNL     1     -12.044  12.729  69.780  1.00  0.00    -0.296 OA 
BRANCH  16  18
HETATM   18  O   UNL     1     -10.336  14.085  69.116  1.00  0.00    -0.171 OA 
BRANCH  18  19
HETATM   19  C   UNL     1     -10.965  15.338  69.502  1.00  0.00    -0.277 C  
HETATM   20  C   UNL     1     -11.079  15.405  71.022  1.00  0.00    -0.377 C  
HETATM   21  C   UNL     1     -10.157  16.524  68.985  1.00  0.00    -0.279 C  
ENDBRANCH  18  19
ENDBRANCH  16  18
ENDBRANCH  11  16
BRANCH   8  22
HETATM   22  C   UNL     1      -9.050  10.964  68.327  1.00  0.00    -0.158 A  
HETATM   23  C   UNL     1      -8.886  10.040  69.381  1.00  0.00    -0.200 A  
HETATM   24  C   UNL     1      -7.992  11.847  68.052  1.00  0.00    -0.147 A  
HETATM   25  C   UNL     1      -6.818  11.826  68.819  1.00  0.00    -0.095 A  
HETATM   26  C   UNL     1      -7.722  10.051  70.170  1.00  0.00    -0.143 A  
HETATM   27  O   UNL     1      -8.561   8.379  71.545  1.00  0.00    -0.136 OA 
HETATM   28  N   UNL     1      -7.619   9.155  71.333  1.00  0.00    -0.039 N  
HETATM   29  C   UNL     1      -6.682  10.939  69.887  1.00  0.00    -0.147 A  
HETATM   30  O   UNL     1      -6.602   9.241  72.041  1.00  0.00    -0.290 OA 
ENDBRANCH   8  22
ENDBRANCH   3   5
ENDBRANCH   2   3
TORSDOF 7
ENDMDL
MODEL       62
REMARK 921   NORMALIZED FREE ENERGY PREDICTED BY IDOCK:   -4.85 KCAL/MOL
REMARK 922        TOTAL FREE ENERGY PREDICTED BY IDOCK:   -7.89 KCAL/MOL
REMARK 923 INTER-LIGAND FREE ENERGY PREDICTED BY IDOCK:   -6.24 KCAL/MOL
REMARK 924 INTRA-LIGAND FREE ENERGY PREDICTED BY IDOCK:   -1.65 KCAL/MOL
REMARK 927      BINDING AFFINITY PREDICTED BY RF-SCORE:    0.00 PKD
ROOT
HETATM    1  C   UNL     1      -5.667  10.167  64.922  1.00  0.00    -0.114 C  
HETATM    2  O   UNL     1      -6.666  10.640  65.838  1.00  0.00    -0.125 OA 
ENDROOT
BRANCH   2   3
HETATM    3  C   UNL     1      -7.935  10.321  65.481  1.00  0.00    -0.151 C  
HETATM    4  O   UNL     1      -8.509  10.701  64.477  1.00  0.00    -0.161 OA 
BRANCH   3   5
HETATM    5  C   UNL     1      -8.511   9.392  66.489  1.00  0.00    -0.137 C  
HETATM    6  C   UNL     1      -8.674   8.074  66.203  1.00  0.00    -0.154 C  
HETATM    7  N   UNL     1      -9.201   7.210  67.132  1.00  0.00    -0.130 NA 
HETATM    8  C   UNL     1      -8.948   9.985  67.840  1.00  0.00    -0.131 C  
HETATM    9  C   UNL     1      -9.678   7.628  68.372  1.00  0.00    -0.158 C  
HETATM   10  C   UNL     1     -10.252   6.528  69.236  1.00  0.00    -0.216 C  
HETATM   11  C   UNL     1      -9.605   8.937  68.753  1.00  0.00    -0.159 C  
BRANCH   6  12
HETATM   12  C   UNL     1      -8.456   7.576  64.784  1.00  0.00     0.080 C  
HETATM   13  N   UNL     1      -8.276   7.163  63.607  1.00  0.00    -0.344 NA 
HETATM   14  H2  UNL     1      -9.278   7.347  63.662  1.00  0.00     0.000 HD 
HETATM   15  H1  UNL     1      -8.129   6.828  62.654  1.00  0.00     0.000 HD 
ENDBRANCH   6  12
BRANCH  11  16
HETATM   16  C   UNL     1     -10.225   9.353  70.050  1.00  0.00    -0.229 C  
HETATM   17  O   UNL     1      -9.579   9.460  71.083  1.00  0.00    -0.253 OA 
BRANCH  16  18
HETATM   18  O   UNL     1     -11.565   9.604  69.972  1.00  0.00    -0.198 OA 
BRANCH  18  19
HETATM   19  C   UNL     1     -12.109  10.256  71.153  1.00  0.00    -0.395 C  
HETATM   20  C   UNL     1     -12.455  11.705  70.822  1.00  0.00    -0.425 C  
HETATM   21  C   UNL     1     -13.350   9.520  71.647  1.00  0.00    -0.485 C  
ENDBRANCH  18  19
ENDBRANCH  16  18
ENDBRANCH  11  16
BRANCH   8  22
HETATM   22  C   UNL     1      -9.816  11.251  67.664  1.00  0.00    -0.190 A  
HETATM   23  C   UNL     1      -9.359  12.484  68.177  1.00  0.00    -0.210 A  
HETATM   24  C   UNL     1     -11.070  11.223  67.030  1.00  0.00    -0.356 A  
HETATM   25  C   UNL     1     -11.854  12.382  66.935  1.00  0.00    -0.377 A  
HETATM   26  C   UNL     1     -10.168  13.632  68.111  1.00  0.00    -0.247 A  
HETATM   27  O   UNL     1      -8.606  14.879  69.292  1.00  0.00    -0.175 OA 
HETATM   28  N   UNL     1      -9.721  14.880  68.751  1.00  0.00    -0.220 N  
HETATM   29  C   UNL     1     -11.414  13.586  67.484  1.00  0.00    -0.361 A  
HETATM   30  O   UNL     1     -10.492  15.853  68.726  1.00  0.00    -0.220 OA 
ENDBRANCH   8  22
ENDBRANCH   3   5
ENDBRANCH   2   3
TORSDOF 7
ENDMDL
MODEL       63
REMARK 921   NORMALIZED FREE ENERGY PREDICTED BY IDOCK:   -4.80 KCAL/MOL
REMARK 922        TOTAL FREE ENERGY PREDICTED BY IDOCK:   -7.82 KCAL/MOL
REMARK 923 INTER-LIGAND FREE ENERGY PREDICTED BY IDOCK:   -6.95 KCAL/MOL
REMARK 924 INTRA-LIGAND FREE ENERGY PREDICTED BY IDOCK:   -0.87 KCAL/MOL
REMARK 927      BINDING AFFINITY PREDICTED BY RF-SCORE:    0.00 PKD
ROOT
HETATM    1  C   UNL     1     -10.043   5.113  67.231  1.00  0.00    -0.194 C  
HETATM    2  O   UNL     1     -10.102   6.275  66.390  1.00  0.00    -0.134 OA 
ENDROOT
BRANCH   2   3
HETATM    3  C   UNL     1      -9.092   7.158  66.600  1.00  0.00    -0.149 C  
HETATM    4  O   UNL     1      -7.943   6.871  66.880  1.00  0.00    -0.105 OA 
BRANCH   3   5
HETATM    5  C   UNL     1      -9.598   8.541  66.392  1.00  0.00    -0.314 C  
HETATM    6  C   UNL     1      -9.253   9.244  65.282  1.00  0.00    -0.212 C  
HETATM    7  N   UNL     1      -9.720  10.520  65.081  1.00  0.00    -0.257 NA 
HETATM    8  C   UNL     1     -10.483   9.151  67.491  1.00  0.00    -0.335 C  
HETATM    9  C   UNL     1     -10.490  11.202  66.021  1.00  0.00    -0.256 C  
HETATM   10  C   UNL     1     -10.874  12.610  65.625  1.00  0.00    -0.305 C  
HETATM   11  C   UNL     1     -10.863  10.611  67.193  1.00  0.00    -0.328 C  
BRANCH   6  12
HETATM   12  C   UNL     1      -8.190   8.700  64.342  1.00  0.00    -0.162 C  
HETATM   13  N   UNL     1      -7.307   8.248  63.563  1.00  0.00    -0.103 NA 
HETATM   14  H2  UNL     1      -6.781   8.671  64.327  1.00  0.00     0.000 HD 
HETATM   15  H1  UNL     1      -6.593   7.883  62.932  1.00  0.00     0.000 HD 
ENDBRANCH   6  12
BRANCH  11  16
HETATM   16  C   UNL     1     -11.599  11.420  68.214  1.00  0.00    -0.306 C  
HETATM   17  O   UNL     1     -12.654  11.051  68.709  1.00  0.00    -0.350 OA 
BRANCH  16  18
HETATM   18  O   UNL     1     -10.986  12.596  68.542  1.00  0.00    -0.238 OA 
BRANCH  18  19
HETATM   19  C   UNL     1     -11.912  13.663  68.884  1.00  0.00    -0.356 C  
HETATM   20  C   UNL     1     -11.999  13.796  70.402  1.00  0.00    -0.385 C  
HETATM   21  C   UNL     1     -11.460  14.983  68.267  1.00  0.00    -0.349 C  
ENDBRANCH  18  19
ENDBRANCH  16  18
ENDBRANCH  11  16
BRANCH   8  22
HETATM   22  C   UNL     1      -9.869   8.970  68.898  1.00  0.00    -0.181 A  
HETATM   23  C   UNL     1     -10.573   8.232  69.874  1.00  0.00    -0.232 A  
HETATM   24  C   UNL     1      -8.636   9.538  69.261  1.00  0.00    -0.149 A  
HETATM   25  C   UNL     1      -8.134   9.397  70.563  1.00  0.00    -0.212 A  
HETATM   26  C   UNL     1     -10.081   8.128  71.187  1.00  0.00    -0.184 A  
HETATM   27  O   UNL     1     -11.961   6.948  71.867  1.00  0.00    -0.299 OA 
HETATM   28  N   UNL     1     -10.884   7.450  72.218  1.00  0.00    -0.233 N  
HETATM   29  C   UNL     1      -8.857   8.704  71.533  1.00  0.00    -0.285 A  
HETATM   30  O   UNL     1     -10.443   7.436  73.378  1.00  0.00    -0.335 OA 
ENDBRANCH   8  22
ENDBRANCH   3   5
ENDBRANCH   2   3
TORSDOF 7
ENDMDL
MODEL       64
REMARK 921   NORMALIZED FREE ENERGY PREDICTED BY IDOCK:   -4.80 KCAL/MOL
REMARK 922        TOTAL FREE ENERGY PREDICTED BY IDOCK:   -7.82 KCAL/MOL
REMARK 923 INTER-LIGAND FREE ENERGY PREDICTED BY IDOCK:   -6.64 KCAL/MOL
REMARK 924 INTRA-LIGAND FREE ENERGY PREDICTED BY IDOCK:   -1.18 KCAL/MOL
REMARK 927      BINDING AFFINITY PREDICTED BY RF-SCORE:    0.00 PKD
ROOT
HETATM    1  C   UNL     1     -11.829  13.782  69.720  1.00  0.00    -0.331 C  
HETATM    2  O   UNL     1     -11.553  12.471  70.235  1.00  0.00    -0.173 OA 
ENDROOT
BRANCH   2   3
HETATM    3  C   UNL     1     -11.943  11.463  69.413  1.00  0.00    -0.339 C  
HETATM    4  O   UNL     1     -12.245  11.579  68.239  1.00  0.00    -0.561 OA 
BRANCH   3   5
HETATM    5  C   UNL     1     -11.905  10.178  70.160  1.00  0.00    -0.299 C  
HETATM    6  C   UNL     1     -12.555  10.046  71.345  1.00  0.00    -0.415 C  
HETATM    7  N   UNL     1     -12.528   8.860  72.037  1.00  0.00    -0.367 NA 
HETATM    8  C   UNL     1     -11.076   9.029  69.562  1.00  0.00    -0.039 C  
HETATM    9  C   UNL     1     -11.777   7.760  71.628  1.00  0.00    -0.280 C  
HETATM   10  C   UNL     1     -11.853   6.562  72.547  1.00  0.00    -0.159 C  
HETATM   11  C   UNL     1     -11.049   7.791  70.474  1.00  0.00    -0.265 C  
BRANCH   6  12
HETATM   12  C   UNL     1     -13.159  11.269  72.016  1.00  0.00    -0.326 C  
HETATM   13  N   UNL     1     -13.661  12.283  72.573  1.00  0.00    -0.537 NA 
HETATM   14  H2  UNL     1     -14.321  11.530  72.770  1.00  0.00     0.000 HD 
HETATM   15  H1  UNL     1     -14.066  13.103  73.023  1.00  0.00     0.000 HD 
ENDBRANCH   6  12
BRANCH  11  16
HETATM   16  C   UNL     1     -10.177   6.624  70.132  1.00  0.00    -0.187 C  
HETATM   17  O   UNL     1      -9.064   6.471  70.616  1.00  0.00    -0.147 OA 
BRANCH  16  18
HETATM   18  O   UNL     1     -10.736   5.752  69.242  1.00  0.00    -0.286 OA 
BRANCH  18  19
HETATM   19  C   UNL     1     -10.106   5.768  67.932  1.00  0.00    -0.162 C  
HETATM   20  C   UNL     1      -9.722   4.345  67.533  1.00  0.00    -0.211 C  
HETATM   21  C   UNL     1     -11.047   6.368  66.892  1.00  0.00    -0.346 C  
ENDBRANCH  18  19
ENDBRANCH  16  18
ENDBRANCH  11  16
BRANCH   8  22
HETATM   22  C   UNL     1      -9.662   9.491  69.142  1.00  0.00    -0.178 A  
HETATM   23  C   UNL     1      -9.330   9.556  67.772  1.00  0.00    -0.143 A  
HETATM   24  C   UNL     1      -8.670   9.828  70.079  1.00  0.00    -0.237 A  
HETATM   25  C   UNL     1      -7.382  10.193  69.663  1.00  0.00    -0.138 A  
HETATM   26  C   UNL     1      -8.025   9.886  67.365  1.00  0.00    -0.106 A  
HETATM   27  O   UNL     1      -8.567   9.549  65.133  1.00  0.00    -0.142 OA 
HETATM   28  N   UNL     1      -7.670   9.838  65.937  1.00  0.00    -0.103 N  
HETATM   29  C   UNL     1      -7.049  10.212  68.309  1.00  0.00    -0.075 A  
HETATM   30  O   UNL     1      -6.491  10.074  65.626  1.00  0.00    -0.085 OA 
ENDBRANCH   8  22
ENDBRANCH   3   5
ENDBRANCH   2   3
TORSDOF 7
ENDMDL
MODEL       65
REMARK 921   NORMALIZED FREE ENERGY PREDICTED BY IDOCK:   -4.78 KCAL/MOL
REMARK 922        TOTAL FREE ENERGY PREDICTED BY IDOCK:   -7.79 KCAL/MOL
REMARK 923 INTER-LIGAND FREE ENERGY PREDICTED BY IDOCK:   -7.00 KCAL/MOL
REMARK 924 INTRA-LIGAND FREE ENERGY PREDICTED BY IDOCK:   -0.79 KCAL/MOL
REMARK 927      BINDING AFFINITY PREDICTED BY RF-SCORE:    0.00 PKD
ROOT
HETATM    1  C   UNL     1      -7.060   5.434  66.013  1.00  0.00    -0.068 C  
HETATM    2  O   UNL     1      -7.391   6.415  67.008  1.00  0.00    -0.079 OA 
ENDROOT
BRANCH   2   3
HETATM    3  C   UNL     1      -8.523   7.111  66.738  1.00  0.00    -0.121 C  
HETATM    4  O   UNL     1      -8.773   7.689  65.695  1.00  0.00    -0.151 OA 
BRANCH   3   5
HETATM    5  C   UNL     1      -9.443   7.027  67.904  1.00  0.00    -0.128 C  
HETATM    6  C   UNL     1     -10.504   6.179  67.888  1.00  0.00    -0.229 C  
HETATM    7  N   UNL     1     -11.354   6.092  68.963  1.00  0.00    -0.325 NA 
HETATM    8  C   UNL     1      -9.170   7.956  69.098  1.00  0.00    -0.144 C  
HETATM    9  C   UNL     1     -11.244   6.911  70.085  1.00  0.00    -0.313 C  
HETATM   10  C   UNL     1     -12.299   6.683  71.144  1.00  0.00    -0.310 C  
HETATM   11  C   UNL     1     -10.241   7.831  70.194  1.00  0.00    -0.205 C  
BRANCH   6  12
HETATM   12  C   UNL     1     -10.876   5.457  66.604  1.00  0.00    -0.141 C  
HETATM   13  N   UNL     1     -11.185   4.859  65.537  1.00  0.00    -0.932 NA 
HETATM   14  H2  UNL     1     -10.221   5.160  65.391  1.00  0.00     0.000 HD 
HETATM   15  H1  UNL     1     -11.435   4.374  64.675  1.00  0.00     0.000 HD 
ENDBRANCH   6  12
BRANCH  11  16
HETATM   16  C   UNL     1     -10.227   8.757  71.368  1.00  0.00    -0.280 C  
HETATM   17  O   UNL     1      -9.933   8.386  72.495  1.00  0.00    -0.284 OA 
BRANCH  16  18
HETATM   18  O   UNL     1     -10.567  10.046  71.066  1.00  0.00    -0.224 OA 
BRANCH  18  19
HETATM   19  C   UNL     1     -11.977  10.223  70.758  1.00  0.00    -0.360 C  
HETATM   20  C   UNL     1     -12.812   9.920  71.999  1.00  0.00    -0.488 C  
HETATM   21  C   UNL     1     -12.245  11.646  70.280  1.00  0.00    -0.401 C  
ENDBRANCH  18  19
ENDBRANCH  16  18
ENDBRANCH  11  16
BRANCH   8  22
HETATM   22  C   UNL     1      -8.939   9.418  68.654  1.00  0.00    -0.132 A  
HETATM   23  C   UNL     1      -9.970  10.113  67.986  1.00  0.00    -0.173 A  
HETATM   24  C   UNL     1      -7.720  10.086  68.863  1.00  0.00    -0.089 A  
HETATM   25  C   UNL     1      -7.527  11.395  68.400  1.00  0.00    -0.111 A  
HETATM   26  C   UNL     1      -9.756  11.412  67.491  1.00  0.00    -0.178 A  
HETATM   27  O   UNL     1     -11.874  11.469  66.542  1.00  0.00    -0.434 OA 
HETATM   28  N   UNL     1     -10.805  12.076  66.701  1.00  0.00    -0.260 N  
HETATM   29  C   UNL     1      -8.537  12.059  67.702  1.00  0.00    -0.163 A  
HETATM   30  O   UNL     1     -10.553  13.196  66.228  1.00  0.00    -0.278 OA 
ENDBRANCH   8  22
ENDBRANCH   3   5
ENDBRANCH   2   3
TORSDOF 7
ENDMDL
MODEL       66
REMARK 921   NORMALIZED FREE ENERGY PREDICTED BY IDOCK:   -4.74 KCAL/MOL
REMARK 922        TOTAL FREE ENERGY PREDICTED BY IDOCK:   -7.74 KCAL/MOL
REMARK 923 INTER-LIGAND FREE ENERGY PREDICTED BY IDOCK:   -6.62 KCAL/MOL
REMARK 924 INTRA-LIGAND FREE ENERGY PREDICTED BY IDOCK:   -1.12 KCAL/MOL
REMARK 927      BINDING AFFINITY PREDICTED BY RF-SCORE:    0.00 PKD
ROOT
HETATM    1  C   UNL     1      -8.326   7.399  73.166  1.00  0.00    -0.123 C  
HETATM    2  O   UNL     1      -9.124   8.535  72.801  1.00  0.00    -0.267 OA 
ENDROOT
BRANCH   2   3
HETATM    3  C   UNL     1     -10.279   8.213  72.164  1.00  0.00    -0.262 C  
HETATM    4  O   UNL     1     -10.923   7.194  72.331  1.00  0.00    -0.229 OA 
BRANCH   3   5
HETATM    5  C   UNL     1     -10.665   9.325  71.256  1.00  0.00    -0.422 C  
HETATM    6  C   UNL     1     -11.894   9.897  71.346  1.00  0.00    -0.394 C  
HETATM    7  N   UNL     1     -12.256  10.927  70.513  1.00  0.00    -0.336 NA 
HETATM    8  C   UNL     1      -9.644   9.770  70.196  1.00  0.00    -0.287 C  
HETATM    9  C   UNL     1     -11.442  11.391  69.482  1.00  0.00    -0.312 C  
HETATM   10  C   UNL     1     -12.037  12.509  68.656  1.00  0.00    -0.139 C  
HETATM   11  C   UNL     1     -10.201  10.864  69.269  1.00  0.00    -0.190 C  
BRANCH   6  12
HETATM   12  C   UNL     1     -12.955   9.273  72.238  1.00  0.00    -0.412 C  
HETATM   13  N   UNL     1     -13.835   8.757  72.979  1.00  0.00    -1.065 NA 
HETATM   14  H2  UNL     1     -13.742   9.714  73.321  1.00  0.00     0.000 HD 
HETATM   15  H1  UNL     1     -14.547   8.338  73.578  1.00  0.00     0.000 HD 
ENDBRANCH   6  12
BRANCH  11  16
HETATM   16  C   UNL     1      -9.408  11.322  68.086  1.00  0.00    -0.181 C  
HETATM   17  O   UNL     1      -9.638  10.932  66.950  1.00  0.00    -0.174 OA 
BRANCH  16  18
HETATM   18  O   UNL     1      -8.417  12.212  68.390  1.00  0.00    -0.169 OA 
BRANCH  18  19
HETATM   19  C   UNL     1      -7.823  12.847  67.224  1.00  0.00    -0.131 C  
HETATM   20  C   UNL     1      -8.291  14.297  67.139  1.00  0.00    -0.202 C  
HETATM   21  C   UNL     1      -6.301  12.791  67.301  1.00  0.00    -0.062 C  
ENDBRANCH  18  19
ENDBRANCH  16  18
ENDBRANCH  11  16
BRANCH   8  22
HETATM   22  C   UNL     1      -9.056   8.571  69.418  1.00  0.00    -0.150 A  
HETATM   23  C   UNL     1      -9.878   7.852  68.524  1.00  0.00    -0.186 A  
HETATM   24  C   UNL     1      -7.728   8.142  69.586  1.00  0.00    -0.101 A  
HETATM   25  C   UNL     1      -7.243   7.017  68.903  1.00  0.00    -0.091 A  
HETATM   26  C   UNL     1      -9.395   6.703  67.872  1.00  0.00    -0.109 A  
HETATM   27  O   UNL     1     -11.463   6.313  66.891  1.00  0.00    -0.134 OA 
HETATM   28  N   UNL     1     -10.301   5.904  67.031  1.00  0.00    -0.213 N  
HETATM   29  C   UNL     1      -8.075   6.287  68.055  1.00  0.00    -0.115 A  
HETATM   30  O   UNL     1      -9.853   4.862  66.526  1.00  0.00    -0.163 OA 
ENDBRANCH   8  22
ENDBRANCH   3   5
ENDBRANCH   2   3
TORSDOF 7
ENDMDL
MODEL       67
REMARK 921   NORMALIZED FREE ENERGY PREDICTED BY IDOCK:   -4.74 KCAL/MOL
REMARK 922        TOTAL FREE ENERGY PREDICTED BY IDOCK:   -7.73 KCAL/MOL
REMARK 923 INTER-LIGAND FREE ENERGY PREDICTED BY IDOCK:   -6.44 KCAL/MOL
REMARK 924 INTRA-LIGAND FREE ENERGY PREDICTED BY IDOCK:   -1.29 KCAL/MOL
REMARK 927      BINDING AFFINITY PREDICTED BY RF-SCORE:    0.00 PKD
ROOT
HETATM    1  C   UNL     1     -12.305  15.325  71.080  1.00  0.00    -0.367 C  
HETATM    2  O   UNL     1     -11.714  14.183  70.443  1.00  0.00    -0.285 OA 
ENDROOT
BRANCH   2   3
HETATM    3  C   UNL     1     -12.191  13.940  69.196  1.00  0.00    -0.267 C  
HETATM    4  O   UNL     1     -12.853  14.710  68.524  1.00  0.00     0.517 OA 
BRANCH   3   5
HETATM    5  C   UNL     1     -11.741  12.594  68.752  1.00  0.00    -0.364 C  
HETATM    6  C   UNL     1     -12.006  11.493  69.503  1.00  0.00    -0.335 C  
HETATM    7  N   UNL     1     -11.599  10.247  69.096  1.00  0.00    -0.154 NA 
HETATM    8  C   UNL     1     -10.939  12.504  67.443  1.00  0.00    -0.297 C  
HETATM    9  C   UNL     1     -10.825  10.036  67.956  1.00  0.00    -0.260 C  
HETATM   10  C   UNL     1     -10.450   8.593  67.701  1.00  0.00    -0.311 C  
HETATM   11  C   UNL     1     -10.462  11.072  67.146  1.00  0.00    -0.274 C  
BRANCH   6  12
HETATM   12  C   UNL     1     -12.587  11.652  70.898  1.00  0.00    -0.313 C  
HETATM   13  N   UNL     1     -13.069  11.784  72.055  1.00  0.00    -0.432 NA 
HETATM   14  H2  UNL     1     -12.636  12.686  71.855  1.00  0.00     0.000 HD 
HETATM   15  H1  UNL     1     -13.460  11.890  72.992  1.00  0.00     0.000 HD 
ENDBRANCH   6  12
BRANCH  11  16
HETATM   16  C   UNL     1      -9.545  10.809  65.994  1.00  0.00    -0.201 C  
HETATM   17  O   UNL     1      -8.329  10.772  66.117  1.00  0.00    -0.156 OA 
BRANCH  16  18
HETATM   18  O   UNL     1     -10.186  10.612  64.805  1.00  0.00    -0.325 OA 
BRANCH  18  19
HETATM   19  C   UNL     1     -10.078  11.734  63.887  1.00  0.00    -0.368 C  
HETATM   20  C   UNL     1      -9.385  11.281  62.605  1.00  0.00    -0.313 C  
HETATM   21  C   UNL     1     -11.459  12.298  63.566  1.00  0.00    -0.558 C  
ENDBRANCH  18  19
ENDBRANCH  16  18
ENDBRANCH  11  16
BRANCH   8  22
HETATM   22  C   UNL     1      -9.791  13.537  67.395  1.00  0.00    -0.227 A  
HETATM   23  C   UNL     1      -8.759  13.476  68.357  1.00  0.00    -0.140 A  
HETATM   24  C   UNL     1      -9.743  14.567  66.439  1.00  0.00    -0.314 A  
HETATM   25  C   UNL     1      -8.714  15.519  66.458  1.00  0.00    -0.340 A  
HETATM   26  C   UNL     1      -7.752  14.457  68.392  1.00  0.00    -0.132 A  
HETATM   27  O   UNL     1      -6.810  13.513  70.292  1.00  0.00     0.248 OA 
HETATM   28  N   UNL     1      -6.751  14.439  69.471  1.00  0.00    -0.137 N  
HETATM   29  C   UNL     1      -7.723  15.477  67.439  1.00  0.00    -0.222 A  
HETATM   30  O   UNL     1      -5.918  15.359  69.502  1.00  0.00    -0.114 OA 
ENDBRANCH   8  22
ENDBRANCH   3   5
ENDBRANCH   2   3
TORSDOF 7
ENDMDL
MODEL       68
REMARK 921   NORMALIZED FREE ENERGY PREDICTED BY IDOCK:   -4.72 KCAL/MOL
REMARK 922        TOTAL FREE ENERGY PREDICTED BY IDOCK:   -7.70 KCAL/MOL
REMARK 923 INTER-LIGAND FREE ENERGY PREDICTED BY IDOCK:   -6.25 KCAL/MOL
REMARK 924 INTRA-LIGAND FREE ENERGY PREDICTED BY IDOCK:   -1.45 KCAL/MOL
REMARK 927      BINDING AFFINITY PREDICTED BY RF-SCORE:    0.00 PKD
ROOT
HETATM    1  C   UNL     1     -12.542   8.464  71.097  1.00  0.00    -0.143 C  
HETATM    2  O   UNL     1     -11.621   9.367  70.467  1.00  0.00    -0.266 OA 
ENDROOT
BRANCH   2   3
HETATM    3  C   UNL     1     -10.757   8.764  69.612  1.00  0.00    -0.208 C  
HETATM    4  O   UNL     1     -11.015   7.823  68.884  1.00  0.00    -0.059 OA 
BRANCH   3   5
HETATM    5  C   UNL     1      -9.444   9.461  69.668  1.00  0.00    -0.200 C  
HETATM    6  C   UNL     1      -8.607   9.276  70.722  1.00  0.00    -0.203 C  
HETATM    7  N   UNL     1      -7.391   9.913  70.778  1.00  0.00    -0.314 NA 
HETATM    8  C   UNL     1      -9.093  10.419  68.517  1.00  0.00    -0.145 C  
HETATM    9  C   UNL     1      -6.976  10.840  69.824  1.00  0.00    -0.141 C  
HETATM   10  C   UNL     1      -5.620  11.455  70.085  1.00  0.00    -0.118 C  
HETATM   11  C   UNL     1      -7.752  11.137  68.742  1.00  0.00    -0.136 C  
BRANCH   6  12
HETATM   12  C   UNL     1      -9.089   8.516  71.946  1.00  0.00    -0.244 C  
HETATM   13  N   UNL     1      -9.489   7.885  72.962  1.00  0.00    -0.244 NA 
HETATM   14  H2  UNL     1      -9.962   8.787  73.019  1.00  0.00     0.000 HD 
HETATM   15  H1  UNL     1      -9.813   7.374  73.784  1.00  0.00     0.000 HD 
ENDBRANCH   6  12
BRANCH  11  16
HETATM   16  C   UNL     1      -7.311  12.215  67.803  1.00  0.00    -0.114 C  
HETATM   17  O   UNL     1      -6.755  11.974  66.741  1.00  0.00    -0.089 OA 
BRANCH  16  18
HETATM   18  O   UNL     1      -7.588  13.480  68.237  1.00  0.00    -0.115 OA 
BRANCH  18  19
HETATM   19  C   UNL     1      -7.628  14.469  67.171  1.00  0.00    -0.012 C  
HETATM   20  C   UNL     1      -9.059  14.971  66.995  1.00  0.00    -0.249 C  
HETATM   21  C   UNL     1      -6.698  15.635  67.487  1.00  0.00    -0.221 C  
ENDBRANCH  18  19
ENDBRANCH  16  18
ENDBRANCH  11  16
BRANCH   8  22
HETATM   22  C   UNL     1     -10.249  11.396  68.204  1.00  0.00    -0.200 A  
HETATM   23  C   UNL     1     -10.792  11.435  66.901  1.00  0.00    -0.335 A  
HETATM   24  C   UNL     1     -10.771  12.278  69.165  1.00  0.00    -0.089 A  
HETATM   25  C   UNL     1     -11.785  13.188  68.831  1.00  0.00    -0.368 A  
HETATM   26  C   UNL     1     -11.781  12.377  66.565  1.00  0.00    -0.379 A  
HETATM   27  O   UNL     1     -11.784  11.678  64.351  1.00  0.00    -0.257 OA 
HETATM   28  N   UNL     1     -12.253  12.477  65.175  1.00  0.00    -0.465 N  
HETATM   29  C   UNL     1     -12.285  13.251  67.530  1.00  0.00    -0.213 A  
HETATM   30  O   UNL     1     -13.080  13.363  64.906  1.00  0.00    -0.723 OA 
ENDBRANCH   8  22
ENDBRANCH   3   5
ENDBRANCH   2   3
TORSDOF 7
ENDMDL
MODEL       69
REMARK 921   NORMALIZED FREE ENERGY PREDICTED BY IDOCK:   -4.69 KCAL/MOL
REMARK 922        TOTAL FREE ENERGY PREDICTED BY IDOCK:   -7.66 KCAL/MOL
REMARK 923 INTER-LIGAND FREE ENERGY PREDICTED BY IDOCK:   -6.89 KCAL/MOL
REMARK 924 INTRA-LIGAND FREE ENERGY PREDICTED BY IDOCK:   -0.77 KCAL/MOL
REMARK 927      BINDING AFFINITY PREDICTED BY RF-SCORE:    0.00 PKD
ROOT
HETATM    1  C   UNL     1      -9.611  16.479  68.607  1.00  0.00    -0.241 C  
HETATM    2  O   UNL     1      -9.883  15.109  68.274  1.00  0.00    -0.216 OA 
ENDROOT
BRANCH   2   3
HETATM    3  C   UNL     1      -8.960  14.550  67.450  1.00  0.00    -0.200 C  
HETATM    4  O   UNL     1      -8.605  14.995  66.374  1.00  0.00    -0.222 OA 
BRANCH   3   5
HETATM    5  C   UNL     1      -8.413  13.322  68.086  1.00  0.00    -0.173 C  
HETATM    6  C   UNL     1      -7.213  13.349  68.722  1.00  0.00    -0.092 C  
HETATM    7  N   UNL     1      -6.704  12.220  69.315  1.00  0.00    -0.099 NA 
HETATM    8  C   UNL     1      -9.232  12.027  67.961  1.00  0.00    -0.192 C  
HETATM    9  C   UNL     1      -7.324  10.975  69.234  1.00  0.00    -0.113 C  
HETATM   10  C   UNL     1      -6.585   9.850  69.925  1.00  0.00    -0.080 C  
HETATM   11  C   UNL     1      -8.514  10.818  68.584  1.00  0.00    -0.143 C  
BRANCH   6  12
HETATM   12  C   UNL     1      -6.328  14.579  68.616  1.00  0.00    -0.086 C  
HETATM   13  N   UNL     1      -5.594  15.601  68.529  1.00  0.00    -0.099 NA 
HETATM   14  H2  UNL     1      -5.477  15.284  69.492  1.00  0.00     0.000 HD 
HETATM   15  H1  UNL     1      -4.999  16.427  68.458  1.00  0.00     0.000 HD 
ENDBRANCH   6  12
BRANCH  11  16
HETATM   16  C   UNL     1      -9.086   9.444  68.434  1.00  0.00    -0.128 C  
HETATM   17  O   UNL     1      -8.476   8.533  67.893  1.00  0.00    -0.128 OA 
BRANCH  16  18
HETATM   18  O   UNL     1     -10.340   9.302  68.957  1.00  0.00    -0.203 OA 
BRANCH  18  19
HETATM   19  C   UNL     1     -10.362   8.661  70.262  1.00  0.00    -0.198 C  
HETATM   20  C   UNL     1     -11.179   9.508  71.233  1.00  0.00    -0.452 C  
HETATM   21  C   UNL     1     -10.955   7.259  70.160  1.00  0.00    -0.280 C  
ENDBRANCH  18  19
ENDBRANCH  16  18
ENDBRANCH  11  16
BRANCH   8  22
HETATM   22  C   UNL     1      -9.688  11.766  66.508  1.00  0.00    -0.224 A  
HETATM   23  C   UNL     1     -10.903  12.319  66.050  1.00  0.00    -0.310 A  
HETATM   24  C   UNL     1      -8.948  10.969  65.617  1.00  0.00    -0.212 A  
HETATM   25  C   UNL     1      -9.418  10.711  64.322  1.00  0.00    -0.321 A  
HETATM   26  C   UNL     1     -11.386  12.024  64.763  1.00  0.00    -0.313 A  
HETATM   27  O   UNL     1     -13.333  13.229  65.146  1.00  0.00    -0.593 OA 
HETATM   28  N   UNL     1     -12.708  12.519  64.346  1.00  0.00    -0.421 N  
HETATM   29  C   UNL     1     -10.641  11.225  63.893  1.00  0.00    -0.455 A  
HETATM   30  O   UNL     1     -13.125  12.183  63.226  1.00  0.00    -0.693 OA 
ENDBRANCH   8  22
ENDBRANCH   3   5
ENDBRANCH   2   3
TORSDOF 7
ENDMDL
MODEL       70
REMARK 921   NORMALIZED FREE ENERGY PREDICTED BY IDOCK:   -4.69 KCAL/MOL
REMARK 922        TOTAL FREE ENERGY PREDICTED BY IDOCK:   -7.66 KCAL/MOL
REMARK 923 INTER-LIGAND FREE ENERGY PREDICTED BY IDOCK:   -6.21 KCAL/MOL
REMARK 924 INTRA-LIGAND FREE ENERGY PREDICTED BY IDOCK:   -1.45 KCAL/MOL
REMARK 927      BINDING AFFINITY PREDICTED BY RF-SCORE:    0.00 PKD
ROOT
HETATM    1  C   UNL     1     -13.675   9.073  72.054  1.00  0.00    -0.461 C  
HETATM    2  O   UNL     1     -13.020   8.008  71.349  1.00  0.00    -0.311 OA 
ENDROOT
BRANCH   2   3
HETATM    3  C   UNL     1     -11.685   7.933  71.584  1.00  0.00    -0.281 C  
HETATM    4  O   UNL     1     -11.046   8.676  72.306  1.00  0.00    -0.354 OA 
BRANCH   3   5
HETATM    5  C   UNL     1     -11.123   6.766  70.852  1.00  0.00    -0.322 C  
HETATM    6  C   UNL     1     -10.793   5.627  71.515  1.00  0.00    -0.230 C  
HETATM    7  N   UNL     1     -10.278   4.545  70.845  1.00  0.00    -0.155 NA 
HETATM    8  C   UNL     1     -10.894   6.915  69.339  1.00  0.00    -0.283 C  
HETATM    9  C   UNL     1      -9.980   4.567  69.484  1.00  0.00    -0.165 C  
HETATM   10  C   UNL     1      -9.386   3.286  68.943  1.00  0.00    -0.232 C  
HETATM   11  C   UNL     1     -10.229   5.672  68.723  1.00  0.00    -0.269 C  
BRANCH   6  12
HETATM   12  C   UNL     1     -10.809   5.605  73.034  1.00  0.00    -0.271 C  
HETATM   13  N   UNL     1     -10.822   5.586  74.295  1.00  0.00    -0.414 NA 
HETATM   14  H2  UNL     1     -10.823   4.602  74.025  1.00  0.00     0.000 HD 
HETATM   15  H1  UNL     1     -10.832   5.570  75.315  1.00  0.00     0.000 HD 
ENDBRANCH   6  12
BRANCH  11  16
HETATM   16  C   UNL     1      -9.795   5.684  67.292  1.00  0.00    -0.146 C  
HETATM   17  O   UNL     1     -10.556   5.422  66.371  1.00  0.00    -0.280 OA 
BRANCH  16  18
HETATM   18  O   UNL     1      -8.482   6.016  67.110  1.00  0.00    -0.106 OA 
BRANCH  18  19
HETATM   19  C   UNL     1      -8.251   6.887  65.968  1.00  0.00    -0.125 C  
HETATM   20  C   UNL     1      -7.237   7.964  66.346  1.00  0.00    -0.082 C  
HETATM   21  C   UNL     1      -7.743   6.083  64.776  1.00  0.00    -0.101 C  
ENDBRANCH  18  19
ENDBRANCH  16  18
ENDBRANCH  11  16
BRANCH   8  22
HETATM   22  C   UNL     1     -10.151   8.224  68.990  1.00  0.00    -0.208 A  
HETATM   23  C   UNL     1      -8.988   8.575  69.709  1.00  0.00    -0.145 A  
HETATM   24  C   UNL     1     -10.604   9.106  67.994  1.00  0.00    -0.253 A  
HETATM   25  C   UNL     1      -9.935  10.312  67.741  1.00  0.00    -0.203 A  
HETATM   26  C   UNL     1      -8.344   9.804  69.474  1.00  0.00    -0.161 A  
HETATM   27  O   UNL     1      -6.814   9.399  71.173  1.00  0.00    -0.194 OA 
HETATM   28  N   UNL     1      -7.200  10.202  70.311  1.00  0.00    -0.154 N  
HETATM   29  C   UNL     1      -8.811  10.672  68.485  1.00  0.00    -0.148 A  
HETATM   30  O   UNL     1      -6.700  11.321  70.114  1.00  0.00    -0.155 OA 
ENDBRANCH   8  22
ENDBRANCH   3   5
ENDBRANCH   2   3
TORSDOF 7
ENDMDL
MODEL       71
REMARK 921   NORMALIZED FREE ENERGY PREDICTED BY IDOCK:   -4.68 KCAL/MOL
REMARK 922        TOTAL FREE ENERGY PREDICTED BY IDOCK:   -7.64 KCAL/MOL
REMARK 923 INTER-LIGAND FREE ENERGY PREDICTED BY IDOCK:   -6.23 KCAL/MOL
REMARK 924 INTRA-LIGAND FREE ENERGY PREDICTED BY IDOCK:   -1.42 KCAL/MOL
REMARK 927      BINDING AFFINITY PREDICTED BY RF-SCORE:    0.00 PKD
ROOT
HETATM    1  C   UNL     1     -11.970  13.122  69.289  1.00  0.00    -0.292 C  
HETATM    2  O   UNL     1     -11.845  11.697  69.398  1.00  0.00    -0.299 OA 
ENDROOT
BRANCH   2   3
HETATM    3  C   UNL     1     -11.132  11.128  68.393  1.00  0.00    -0.247 C  
HETATM    4  O   UNL     1     -11.568  10.813  67.301  1.00  0.00    -0.439 OA 
BRANCH   3   5
HETATM    5  C   UNL     1      -9.713  10.987  68.816  1.00  0.00    -0.199 C  
HETATM    6  C   UNL     1      -8.747  11.771  68.271  1.00  0.00    -0.167 C  
HETATM    7  N   UNL     1      -7.436  11.649  68.661  1.00  0.00    -0.112 NA 
HETATM    8  C   UNL     1      -9.382   9.901  69.854  1.00  0.00    -0.250 C  
HETATM    9  C   UNL     1      -6.998  10.675  69.556  1.00  0.00    -0.121 C  
HETATM   10  C   UNL     1      -5.511  10.684  69.828  1.00  0.00    -0.040 C  
HETATM   11  C   UNL     1      -7.873   9.803  70.136  1.00  0.00    -0.196 C  
BRANCH   6  12
HETATM   12  C   UNL     1      -9.076  12.659  67.083  1.00  0.00    -0.210 C  
HETATM   13  N   UNL     1      -9.349  13.397  66.098  1.00  0.00    -0.470 NA 
HETATM   14  H2  UNL     1     -10.175  13.452  66.694  1.00  0.00     0.000 HD 
HETATM   15  H1  UNL     1      -9.569  13.994  65.300  1.00  0.00     0.000 HD 
ENDBRANCH   6  12
BRANCH  11  16
HETATM   16  C   UNL     1      -7.342   8.710  71.008  1.00  0.00    -0.083 C  
HETATM   17  O   UNL     1      -6.867   7.678  70.554  1.00  0.00    -0.046 OA 
BRANCH  16  18
HETATM   18  O   UNL     1      -7.430   8.971  72.346  1.00  0.00    -0.340 OA 
BRANCH  18  19
HETATM   19  C   UNL     1      -8.025   7.891  73.116  1.00  0.00    -0.150 C  
HETATM   20  C   UNL     1      -7.400   7.850  74.507  1.00  0.00    -0.205 C  
HETATM   21  C   UNL     1      -9.535   8.080  73.225  1.00  0.00    -0.336 C  
ENDBRANCH  18  19
ENDBRANCH  16  18
ENDBRANCH  11  16
BRANCH   8  22
HETATM   22  C   UNL     1     -10.011   8.538  69.488  1.00  0.00    -0.193 A  
HETATM   23  C   UNL     1      -9.623   7.891  68.296  1.00  0.00    -0.164 A  
HETATM   24  C   UNL     1     -10.987   7.919  70.288  1.00  0.00    -0.249 A  
HETATM   25  C   UNL     1     -11.575   6.707  69.899  1.00  0.00    -0.393 A  
HETATM   26  C   UNL     1     -10.244   6.695  67.893  1.00  0.00    -0.171 A  
HETATM   27  O   UNL     1      -9.033   6.656  65.913  1.00  0.00    -0.147 OA 
HETATM   28  N   UNL     1      -9.905   6.096  66.592  1.00  0.00    -0.162 N  
HETATM   29  C   UNL     1     -11.217   6.096  68.697  1.00  0.00    -0.275 A  
HETATM   30  O   UNL     1     -10.523   5.076  66.246  1.00  0.00    -0.276 OA 
ENDBRANCH   8  22
ENDBRANCH   3   5
ENDBRANCH   2   3
TORSDOF 7
ENDMDL
MODEL       72
REMARK 921   NORMALIZED FREE ENERGY PREDICTED BY IDOCK:   -4.67 KCAL/MOL
REMARK 922        TOTAL FREE ENERGY PREDICTED BY IDOCK:   -7.64 KCAL/MOL
REMARK 923 INTER-LIGAND FREE ENERGY PREDICTED BY IDOCK:   -7.27 KCAL/MOL
REMARK 924 INTRA-LIGAND FREE ENERGY PREDICTED BY IDOCK:   -0.36 KCAL/MOL
REMARK 927      BINDING AFFINITY PREDICTED BY RF-SCORE:    0.00 PKD
ROOT
HETATM    1  C   UNL     1     -10.520   8.420  70.142  1.00  0.00    -0.228 C  
HETATM    2  O   UNL     1     -10.571   8.806  68.761  1.00  0.00    -0.211 OA 
ENDROOT
BRANCH   2   3
HETATM    3  C   UNL     1      -9.544   9.605  68.375  1.00  0.00    -0.144 C  
HETATM    4  O   UNL     1      -8.662  10.030  69.099  1.00  0.00    -0.144 OA 
BRANCH   3   5
HETATM    5  C   UNL     1      -9.637   9.852  66.911  1.00  0.00    -0.225 C  
HETATM    6  C   UNL     1      -8.992   9.042  66.031  1.00  0.00    -0.185 C  
HETATM    7  N   UNL     1      -9.077   9.261  64.678  1.00  0.00    -0.178 NA 
HETATM    8  C   UNL     1     -10.448  11.071  66.442  1.00  0.00    -0.312 C  
HETATM    9  C   UNL     1      -9.741  10.355  64.127  1.00  0.00    -0.324 C  
HETATM   10  C   UNL     1      -9.689  10.436  62.618  1.00  0.00    -0.191 C  
HETATM   11  C   UNL     1     -10.389  11.260  64.917  1.00  0.00    -0.362 C  
BRANCH   6  12
HETATM   12  C   UNL     1      -8.012   8.000  66.541  1.00  0.00    -0.102 C  
HETATM   13  N   UNL     1      -7.198   7.134  66.964  1.00  0.00    -0.089 NA 
HETATM   14  H2  UNL     1      -7.304   6.921  65.972  1.00  0.00     0.000 HD 
HETATM   15  H1  UNL     1      -6.539   6.434  67.306  1.00  0.00     0.000 HD 
ENDBRANCH   6  12
BRANCH  11  16
HETATM   16  C   UNL     1     -10.997  12.473  64.286  1.00  0.00    -0.360 C  
HETATM   17  O   UNL     1     -11.957  12.411  63.532  1.00  0.00    -0.475 OA 
BRANCH  16  18
HETATM   18  O   UNL     1     -10.387  13.646  64.632  1.00  0.00    -0.418 OA 
BRANCH  18  19
HETATM   19  C   UNL     1     -11.288  14.786  64.666  1.00  0.00    -0.366 C  
HETATM   20  C   UNL     1     -12.572  14.400  65.396  1.00  0.00    -0.339 C  
HETATM   21  C   UNL     1     -10.626  15.971  65.362  1.00  0.00    -0.428 C  
ENDBRANCH  18  19
ENDBRANCH  16  18
ENDBRANCH  11  16
BRANCH   8  22
HETATM   22  C   UNL     1     -10.070  12.353  67.217  1.00  0.00    -0.214 A  
HETATM   23  C   UNL     1     -10.969  12.879  68.170  1.00  0.00    -0.273 A  
HETATM   24  C   UNL     1      -8.866  13.042  66.993  1.00  0.00    -0.213 A  
HETATM   25  C   UNL     1      -8.579  14.232  67.677  1.00  0.00    -0.186 A  
HETATM   26  C   UNL     1     -10.691  14.093  68.824  1.00  0.00    -0.256 A  
HETATM   27  O   UNL     1     -12.738  14.047  69.917  1.00  0.00    -0.241 OA 
HETATM   28  N   UNL     1     -11.691  14.682  69.729  1.00  0.00    -0.295 N  
HETATM   29  C   UNL     1      -9.493  14.769  68.585  1.00  0.00    -0.213 A  
HETATM   30  O   UNL     1     -11.434  15.786  70.236  1.00  0.00    -0.300 OA 
ENDBRANCH   8  22
ENDBRANCH   3   5
ENDBRANCH   2   3
TORSDOF 7
ENDMDL
MODEL       73
REMARK 921   NORMALIZED FREE ENERGY PREDICTED BY IDOCK:   -4.66 KCAL/MOL
REMARK 922        TOTAL FREE ENERGY PREDICTED BY IDOCK:   -7.62 KCAL/MOL
REMARK 923 INTER-LIGAND FREE ENERGY PREDICTED BY IDOCK:   -7.01 KCAL/MOL
REMARK 924 INTRA-LIGAND FREE ENERGY PREDICTED BY IDOCK:   -0.60 KCAL/MOL
REMARK 927      BINDING AFFINITY PREDICTED BY RF-SCORE:    0.00 PKD
ROOT
HETATM    1  C   UNL     1     -12.834  14.057  65.102  1.00  0.00    -0.334 C  
HETATM    2  O   UNL     1     -12.044  13.226  65.965  1.00  0.00    -0.403 OA 
ENDROOT
BRANCH   2   3
HETATM    3  C   UNL     1     -10.705  13.380  65.803  1.00  0.00    -0.274 C  
HETATM    4  O   UNL     1     -10.145  14.396  65.436  1.00  0.00    -0.346 OA 
BRANCH   3   5
HETATM    5  C   UNL     1     -10.015  12.119  66.188  1.00  0.00    -0.253 C  
HETATM    6  C   UNL     1      -9.880  11.104  65.295  1.00  0.00    -0.249 C  
HETATM    7  N   UNL     1      -9.240   9.940  65.641  1.00  0.00    -0.179 NA 
HETATM    8  C   UNL     1      -9.502  11.997  67.632  1.00  0.00    -0.185 C  
HETATM    9  C   UNL     1      -8.772   9.686  66.929  1.00  0.00    -0.131 C  
HETATM   10  C   UNL     1      -8.129   8.330  67.115  1.00  0.00    -0.108 C  
HETATM   11  C   UNL     1      -8.890  10.616  67.921  1.00  0.00    -0.131 C  
BRANCH   6  12
HETATM   12  C   UNL     1     -10.607  11.169  63.962  1.00  0.00    -0.368 C  
HETATM   13  N   UNL     1     -11.211  11.221  62.856  1.00  0.00    -0.734 NA 
HETATM   14  H2  UNL     1     -11.789  10.611  63.434  1.00  0.00     0.000 HD 
HETATM   15  H1  UNL     1     -11.699  11.264  61.961  1.00  0.00     0.000 HD 
ENDBRANCH   6  12
BRANCH  11  16
HETATM   16  C   UNL     1      -8.468  10.257  69.310  1.00  0.00    -0.166 C  
HETATM   17  O   UNL     1      -9.052   9.415  69.978  1.00  0.00    -0.183 OA 
BRANCH  16  18
HETATM   18  O   UNL     1      -7.376  10.945  69.757  1.00  0.00    -0.119 OA 
BRANCH  18  19
HETATM   19  C   UNL     1      -6.409  11.250  68.716  1.00  0.00    -0.051 C  
HETATM   20  C   UNL     1      -5.969  12.707  68.838  1.00  0.00    -0.074 C  
HETATM   21  C   UNL     1      -5.199  10.327  68.821  1.00  0.00    -0.038 C  
ENDBRANCH  18  19
ENDBRANCH  16  18
ENDBRANCH  11  16
BRANCH   8  22
HETATM   22  C   UNL     1     -10.577  12.401  68.666  1.00  0.00    -0.243 A  
HETATM   23  C   UNL     1     -10.672  13.747  69.081  1.00  0.00    -0.154 A  
HETATM   24  C   UNL     1     -11.460  11.469  69.239  1.00  0.00    -0.370 A  
HETATM   25  C   UNL     1     -12.389  11.862  70.213  1.00  0.00    -0.287 A  
HETATM   26  C   UNL     1     -11.580  14.125  70.086  1.00  0.00    -0.224 A  
HETATM   27  O   UNL     1     -10.805  16.313  70.052  1.00  0.00    -0.335 OA 
HETATM   28  N   UNL     1     -11.585  15.510  70.584  1.00  0.00    -0.314 N  
HETATM   29  C   UNL     1     -12.446  13.186  70.650  1.00  0.00    -0.363 A  
HETATM   30  O   UNL     1     -12.357  15.788  71.516  1.00  0.00    -0.394 OA 
ENDBRANCH   8  22
ENDBRANCH   3   5
ENDBRANCH   2   3
TORSDOF 7
ENDMDL
MODEL       74
REMARK 921   NORMALIZED FREE ENERGY PREDICTED BY IDOCK:   -4.59 KCAL/MOL
REMARK 922        TOTAL FREE ENERGY PREDICTED BY IDOCK:   -7.52 KCAL/MOL
REMARK 923 INTER-LIGAND FREE ENERGY PREDICTED BY IDOCK:   -7.42 KCAL/MOL
REMARK 924 INTRA-LIGAND FREE ENERGY PREDICTED BY IDOCK:   -0.10 KCAL/MOL
REMARK 927      BINDING AFFINITY PREDICTED BY RF-SCORE:    0.00 PKD
ROOT
HETATM    1  C   UNL     1     -10.263  17.857  68.455  1.00  0.00    -0.394 C  
HETATM    2  O   UNL     1     -10.011  16.533  67.962  1.00  0.00    -0.235 OA 
ENDROOT
BRANCH   2   3
HETATM    3  C   UNL     1      -9.813  15.611  68.938  1.00  0.00    -0.219 C  
HETATM    4  O   UNL     1     -10.400  15.565  70.004  1.00  0.00    -0.299 OA 
BRANCH   3   5
HETATM    5  C   UNL     1      -8.790  14.630  68.488  1.00  0.00    -0.182 C  
HETATM    6  C   UNL     1      -7.470  14.950  68.505  1.00  0.00    -0.118 C  
HETATM    7  N   UNL     1      -6.520  14.047  68.095  1.00  0.00    -0.110 NA 
HETATM    8  C   UNL     1      -9.284  13.269  67.969  1.00  0.00    -0.217 C  
HETATM    9  C   UNL     1      -6.839  12.800  67.561  1.00  0.00    -0.153 C  
HETATM   10  C   UNL     1      -5.649  11.968  67.136  1.00  0.00    -0.132 C  
HETATM   11  C   UNL     1      -8.135  12.387  67.455  1.00  0.00    -0.177 C  
BRANCH   6  12
HETATM   12  C   UNL     1      -7.041  16.378  68.795  1.00  0.00    -0.180 C  
HETATM   13  N   UNL     1      -6.685  17.564  69.036  1.00  0.00    -0.238 NA 
HETATM   14  H2  UNL     1      -5.852  17.005  69.219  1.00  0.00     0.000 HD 
HETATM   15  H1  UNL     1      -6.397  18.523  69.230  1.00  0.00     0.000 HD 
ENDBRANCH   6  12
BRANCH  11  16
HETATM   16  C   UNL     1      -8.431  11.086  66.779  1.00  0.00    -0.148 C  
HETATM   17  O   UNL     1      -8.494  10.976  65.562  1.00  0.00    -0.159 OA 
BRANCH  16  18
HETATM   18  O   UNL     1      -8.618  10.040  67.638  1.00  0.00    -0.118 OA 
BRANCH  18  19
HETATM   19  C   UNL     1     -10.016   9.759  67.923  1.00  0.00    -0.163 C  
HETATM   20  C   UNL     1     -10.411   8.432  67.279  1.00  0.00    -0.369 C  
HETATM   21  C   UNL     1     -10.254   9.703  69.428  1.00  0.00    -0.220 C  
ENDBRANCH  18  19
ENDBRANCH  16  18
ENDBRANCH  11  16
BRANCH   8  22
HETATM   22  C   UNL     1     -10.427  13.421  66.940  1.00  0.00    -0.273 A  
HETATM   23  C   UNL     1     -10.469  14.564  66.112  1.00  0.00    -0.303 A  
HETATM   24  C   UNL     1     -11.455  12.472  66.809  1.00  0.00    -0.422 A  
HETATM   25  C   UNL     1     -12.505  12.668  65.900  1.00  0.00    -0.064 A  
HETATM   26  C   UNL     1     -11.546  14.772  65.231  1.00  0.00    -0.338 A  
HETATM   27  O   UNL     1     -10.703  16.836  64.586  1.00  0.00    -0.778 OA 
HETATM   28  N   UNL     1     -11.629  16.023  64.460  1.00  0.00    -0.307 N  
HETATM   29  C   UNL     1     -12.563  13.822  65.118  1.00  0.00    -0.471 A  
HETATM   30  O   UNL     1     -12.627  16.195  63.742  1.00  0.00    -0.635 OA 
ENDBRANCH   8  22
ENDBRANCH   3   5
ENDBRANCH   2   3
TORSDOF 7
ENDMDL
MODEL       75
REMARK 921   NORMALIZED FREE ENERGY PREDICTED BY IDOCK:   -4.59 KCAL/MOL
REMARK 922        TOTAL FREE ENERGY PREDICTED BY IDOCK:   -7.52 KCAL/MOL
REMARK 923 INTER-LIGAND FREE ENERGY PREDICTED BY IDOCK:   -6.32 KCAL/MOL
REMARK 924 INTRA-LIGAND FREE ENERGY PREDICTED BY IDOCK:   -1.20 KCAL/MOL
REMARK 927      BINDING AFFINITY PREDICTED BY RF-SCORE:    0.00 PKD
ROOT
HETATM    1  C   UNL     1     -12.041  14.016  69.309  1.00  0.00    -0.338 C  
HETATM    2  O   UNL     1     -12.126  12.670  68.818  1.00  0.00    -0.269 OA 
ENDROOT
BRANCH   2   3
HETATM    3  C   UNL     1     -11.580  12.498  67.588  1.00  0.00    -0.355 C  
HETATM    4  O   UNL     1     -12.197  12.332  66.551  1.00  0.00    -0.588 OA 
BRANCH   3   5
HETATM    5  C   UNL     1     -10.099  12.586  67.691  1.00  0.00    -0.217 C  
HETATM    6  C   UNL     1      -9.413  13.538  67.007  1.00  0.00    -0.251 C  
HETATM    7  N   UNL     1      -8.046  13.628  67.101  1.00  0.00    -0.128 NA 
HETATM    8  C   UNL     1      -9.380  11.542  68.562  1.00  0.00    -0.171 C  
HETATM    9  C   UNL     1      -7.273  12.716  67.818  1.00  0.00    -0.127 C  
HETATM   10  C   UNL     1      -5.783  12.969  67.769  1.00  0.00    -0.134 C  
HETATM   11  C   UNL     1      -7.850  11.692  68.511  1.00  0.00    -0.140 C  
BRANCH   6  12
HETATM   12  C   UNL     1     -10.131  14.393  65.976  1.00  0.00    -0.322 C  
HETATM   13  N   UNL     1     -10.726  15.102  65.120  1.00  0.00    -0.392 NA 
HETATM   14  H2  UNL     1     -10.718  14.165  64.715  1.00  0.00     0.000 HD 
HETATM   15  H1  UNL     1     -11.209  15.676  64.427  1.00  0.00     0.000 HD 
ENDBRANCH   6  12
BRANCH  11  16
HETATM   16  C   UNL     1      -6.973  10.680  69.178  1.00  0.00    -0.085 C  
HETATM   17  O   UNL     1      -7.028  10.450  70.378  1.00  0.00    -0.253 OA 
BRANCH  16  18
HETATM   18  O   UNL     1      -6.118  10.038  68.328  1.00  0.00    -0.045 OA 
BRANCH  18  19
HETATM   19  C   UNL     1      -6.683   8.845  67.719  1.00  0.00    -0.066 C  
HETATM   20  C   UNL     1      -6.168   8.711  66.288  1.00  0.00    -0.060 C  
HETATM   21  C   UNL     1      -6.314   7.605  68.526  1.00  0.00    -0.044 C  
ENDBRANCH  18  19
ENDBRANCH  16  18
ENDBRANCH  11  16
BRANCH   8  22
HETATM   22  C   UNL     1      -9.849  10.103  68.248  1.00  0.00    -0.162 A  
HETATM   23  C   UNL     1     -10.288   9.271  69.300  1.00  0.00    -0.222 A  
HETATM   24  C   UNL     1      -9.831   9.571  66.948  1.00  0.00    -0.262 A  
HETATM   25  C   UNL     1     -10.214   8.244  66.708  1.00  0.00    -0.375 A  
HETATM   26  C   UNL     1     -10.635   7.930  69.057  1.00  0.00    -0.162 A  
HETATM   27  O   UNL     1     -11.002   7.547  71.316  1.00  0.00    -0.238 OA 
HETATM   28  N   UNL     1     -10.982   7.048  70.182  1.00  0.00    -0.262 N  
HETATM   29  C   UNL     1     -10.605   7.414  67.759  1.00  0.00    -0.278 A  
HETATM   30  O   UNL     1     -11.219   5.855  69.932  1.00  0.00    -0.378 OA 
ENDBRANCH   8  22
ENDBRANCH   3   5
ENDBRANCH   2   3
TORSDOF 7
ENDMDL
MODEL       76
REMARK 921   NORMALIZED FREE ENERGY PREDICTED BY IDOCK:   -4.57 KCAL/MOL
REMARK 922        TOTAL FREE ENERGY PREDICTED BY IDOCK:   -7.50 KCAL/MOL
REMARK 923 INTER-LIGAND FREE ENERGY PREDICTED BY IDOCK:   -7.08 KCAL/MOL
REMARK 924 INTRA-LIGAND FREE ENERGY PREDICTED BY IDOCK:   -0.41 KCAL/MOL
REMARK 927      BINDING AFFINITY PREDICTED BY RF-SCORE:    0.00 PKD
ROOT
HETATM    1  C   UNL     1      -8.316  15.517  66.582  1.00  0.00    -0.251 C  
HETATM    2  O   UNL     1      -9.148  16.679  66.452  1.00  0.00    -0.252 OA 
ENDROOT
BRANCH   2   3
HETATM    3  C   UNL     1     -10.477  16.414  66.513  1.00  0.00    -0.282 C  
HETATM    4  O   UNL     1     -11.221  16.280  65.558  1.00  0.00    -0.079 OA 
BRANCH   3   5
HETATM    5  C   UNL     1     -10.885  16.268  67.936  1.00  0.00    -0.330 C  
HETATM    6  C   UNL     1     -10.494  17.180  68.864  1.00  0.00    -0.346 C  
HETATM    7  N   UNL     1     -10.871  17.053  70.179  1.00  0.00     0.091 NA 
HETATM    8  C   UNL     1     -11.723  15.036  68.316  1.00  0.00    -0.338 C  
HETATM    9  C   UNL     1     -11.589  15.961  70.661  1.00  0.00    -0.400 C  
HETATM   10  C   UNL     1     -11.875  15.993  72.145  1.00  0.00    -0.623 C  
HETATM   11  C   UNL     1     -12.000  14.961  69.827  1.00  0.00    -0.366 C  
BRANCH   6  12
HETATM   12  C   UNL     1      -9.475  18.244  68.497  1.00  0.00    -0.331 C  
HETATM   13  N   UNL     1      -8.627  19.127  68.191  1.00  0.00    -0.312 NA 
HETATM   14  H2  UNL     1      -8.132  18.244  68.067  1.00  0.00     0.000 HD 
HETATM   15  H1  UNL     1      -7.942  19.842  67.944  1.00  0.00     0.000 HD 
ENDBRANCH   6  12
BRANCH  11  16
HETATM   16  C   UNL     1     -12.676  13.760  70.409  1.00  0.00    -0.178 C  
HETATM   17  O   UNL     1     -13.882  13.713  70.603  1.00  0.00     0.423 OA 
BRANCH  16  18
HETATM   18  O   UNL     1     -11.828  12.728  70.695  1.00  0.00    -0.209 OA 
BRANCH  18  19
HETATM   19  C   UNL     1     -12.416  11.414  70.492  1.00  0.00    -0.293 C  
HETATM   20  C   UNL     1     -11.365  10.468  69.917  1.00  0.00    -0.380 C  
HETATM   21  C   UNL     1     -12.956  10.859  71.806  1.00  0.00    -0.557 C  
ENDBRANCH  18  19
ENDBRANCH  16  18
ENDBRANCH  11  16
BRANCH   8  22
HETATM   22  C   UNL     1     -11.120  13.729  67.754  1.00  0.00    -0.288 A  
HETATM   23  C   UNL     1      -9.823  13.335  68.150  1.00  0.00    -0.231 A  
HETATM   24  C   UNL     1     -11.804  12.918  66.833  1.00  0.00    -0.444 A  
HETATM   25  C   UNL     1     -11.206  11.766  66.303  1.00  0.00    -0.370 A  
HETATM   26  C   UNL     1      -9.215  12.200  67.586  1.00  0.00    -0.181 A  
HETATM   27  O   UNL     1      -7.247  12.595  68.751  1.00  0.00    -0.102 OA 
HETATM   28  N   UNL     1      -7.822  11.870  67.927  1.00  0.00    -0.128 N  
HETATM   29  C   UNL     1      -9.907  11.408  66.666  1.00  0.00    -0.233 A  
HETATM   30  O   UNL     1      -7.302  10.897  67.358  1.00  0.00    -0.092 OA 
ENDBRANCH   8  22
ENDBRANCH   3   5
ENDBRANCH   2   3
TORSDOF 7
ENDMDL
MODEL       77
REMARK 921   NORMALIZED FREE ENERGY PREDICTED BY IDOCK:   -4.57 KCAL/MOL
REMARK 922        TOTAL FREE ENERGY PREDICTED BY IDOCK:   -7.49 KCAL/MOL
REMARK 923 INTER-LIGAND FREE ENERGY PREDICTED BY IDOCK:   -6.52 KCAL/MOL
REMARK 924 INTRA-LIGAND FREE ENERGY PREDICTED BY IDOCK:   -0.97 KCAL/MOL
REMARK 927      BINDING AFFINITY PREDICTED BY RF-SCORE:    0.00 PKD
ROOT
HETATM    1  C   UNL     1     -12.193  15.436  71.370  1.00  0.00    -0.371 C  
HETATM    2  O   UNL     1     -11.590  14.322  70.696  1.00  0.00    -0.252 OA 
ENDROOT
BRANCH   2   3
HETATM    3  C   UNL     1     -12.161  14.028  69.500  1.00  0.00    -0.347 C  
HETATM    4  O   UNL     1     -12.869  14.773  68.847  1.00  0.00     0.347 OA 
BRANCH   3   5
HETATM    5  C   UNL     1     -11.752  12.660  69.083  1.00  0.00    -0.375 C  
HETATM    6  C   UNL     1     -12.073  11.581  69.843  1.00  0.00    -0.316 C  
HETATM    7  N   UNL     1     -11.703  10.314  69.462  1.00  0.00    -0.171 NA 
HETATM    8  C   UNL     1     -10.927  12.523  67.793  1.00  0.00    -0.270 C  
HETATM    9  C   UNL     1     -10.914  10.059  68.341  1.00  0.00    -0.217 C  
HETATM   10  C   UNL     1     -10.587   8.601  68.113  1.00  0.00    -0.189 C  
HETATM   11  C   UNL     1     -10.497  11.071  67.525  1.00  0.00    -0.244 C  
BRANCH   6  12
HETATM   12  C   UNL     1     -12.675  11.780  71.224  1.00  0.00    -0.316 C  
HETATM   13  N   UNL     1     -13.175  11.945  72.370  1.00  0.00    -0.466 NA 
HETATM   14  H2  UNL     1     -12.466  11.223  72.502  1.00  0.00     0.000 HD 
HETATM   15  H1  UNL     1     -13.580  12.078  73.297  1.00  0.00     0.000 HD 
ENDBRANCH   6  12
BRANCH  11  16
HETATM   16  C   UNL     1      -9.567  10.758  66.396  1.00  0.00    -0.189 C  
HETATM   17  O   UNL     1      -9.913  10.810  65.225  1.00  0.00    -0.246 OA 
BRANCH  16  18
HETATM   18  O   UNL     1      -8.305  10.417  66.792  1.00  0.00    -0.123 OA 
BRANCH  18  19
HETATM   19  C   UNL     1      -7.282  10.707  65.800  1.00  0.00    -0.104 C  
HETATM   20  C   UNL     1      -6.058  11.306  66.489  1.00  0.00    -0.139 C  
HETATM   21  C   UNL     1      -6.891   9.439  65.047  1.00  0.00    -0.089 C  
ENDBRANCH  18  19
ENDBRANCH  16  18
ENDBRANCH  11  16
BRANCH   8  22
HETATM   22  C   UNL     1      -9.741  13.513  67.755  1.00  0.00    -0.226 A  
HETATM   23  C   UNL     1      -9.840  14.686  66.977  1.00  0.00    -0.244 A  
HETATM   24  C   UNL     1      -8.542  13.279  68.449  1.00  0.00    -0.130 A  
HETATM   25  C   UNL     1      -7.466  14.174  68.350  1.00  0.00    -0.124 A  
HETATM   26  C   UNL     1      -8.744  15.558  66.852  1.00  0.00    -0.250 A  
HETATM   27  O   UNL     1      -9.903  16.905  65.358  1.00  0.00    -0.537 OA 
HETATM   28  N   UNL     1      -8.829  16.716  65.947  1.00  0.00    -0.192 N  
HETATM   29  C   UNL     1      -7.556  15.309  67.544  1.00  0.00    -0.212 A  
HETATM   30  O   UNL     1      -7.818  17.425  65.817  1.00  0.00    -0.526 OA 
ENDBRANCH   8  22
ENDBRANCH   3   5
ENDBRANCH   2   3
TORSDOF 7
ENDMDL
MODEL       78
REMARK 921   NORMALIZED FREE ENERGY PREDICTED BY IDOCK:   -4.55 KCAL/MOL
REMARK 922        TOTAL FREE ENERGY PREDICTED BY IDOCK:   -7.46 KCAL/MOL
REMARK 923 INTER-LIGAND FREE ENERGY PREDICTED BY IDOCK:   -6.48 KCAL/MOL
REMARK 924 INTRA-LIGAND FREE ENERGY PREDICTED BY IDOCK:   -0.98 KCAL/MOL
REMARK 927      BINDING AFFINITY PREDICTED BY RF-SCORE:    0.00 PKD
ROOT
HETATM    1  C   UNL     1     -10.641  15.650  66.736  1.00  0.00    -0.307 C  
HETATM    2  O   UNL     1     -10.510  14.421  67.466  1.00  0.00    -0.250 OA 
ENDROOT
BRANCH   2   3
HETATM    3  C   UNL     1     -11.334  13.433  67.033  1.00  0.00    -0.317 C  
HETATM    4  O   UNL     1     -11.856  13.372  65.935  1.00  0.00    -0.341 OA 
BRANCH   3   5
HETATM    5  C   UNL     1     -11.471  12.405  68.099  1.00  0.00    -0.370 C  
HETATM    6  C   UNL     1     -12.019  12.723  69.300  1.00  0.00    -0.246 C  
HETATM    7  N   UNL     1     -12.153  11.777  70.287  1.00  0.00    -0.351 NA 
HETATM    8  C   UNL     1     -10.936  10.994  67.803  1.00  0.00    -0.323 C  
HETATM    9  C   UNL     1     -11.667  10.477  70.162  1.00  0.00    -0.326 C  
HETATM   10  C   UNL     1     -11.883   9.599  71.375  1.00  0.00    -0.484 C  
HETATM   11  C   UNL     1     -11.060  10.056  69.015  1.00  0.00    -0.221 C  
BRANCH   6  12
HETATM   12  C   UNL     1     -12.313  14.175  69.637  1.00  0.00    -0.256 C  
HETATM   13  N   UNL     1     -12.557  15.380  69.916  1.00  0.00    -0.615 NA 
HETATM   14  H2  UNL     1     -12.202  15.406  68.960  1.00  0.00     0.000 HD 
HETATM   15  H1  UNL     1     -12.755  16.356  70.142  1.00  0.00     0.000 HD 
ENDBRANCH   6  12
BRANCH  11  16
HETATM   16  C   UNL     1     -10.462   8.685  68.969  1.00  0.00    -0.199 C  
HETATM   17  O   UNL     1     -10.855   7.822  68.198  1.00  0.00    -0.092 OA 
BRANCH  16  18
HETATM   18  O   UNL     1      -9.442   8.491  69.857  1.00  0.00    -0.161 OA 
BRANCH  18  19
HETATM   19  C   UNL     1      -8.121   8.692  69.284  1.00  0.00    -0.112 C  
HETATM   20  C   UNL     1      -7.196   9.299  70.336  1.00  0.00    -0.097 C  
HETATM   21  C   UNL     1      -7.548   7.371  68.782  1.00  0.00    -0.107 C  
ENDBRANCH  18  19
ENDBRANCH  16  18
ENDBRANCH  11  16
BRANCH   8  22
HETATM   22  C   UNL     1      -9.506  11.027  67.217  1.00  0.00    -0.179 A  
HETATM   23  C   UNL     1      -8.540  11.881  67.790  1.00  0.00    -0.154 A  
HETATM   24  C   UNL     1      -9.129  10.254  66.105  1.00  0.00    -0.181 A  
HETATM   25  C   UNL     1      -7.838  10.348  65.567  1.00  0.00    -0.152 A  
HETATM   26  C   UNL     1      -7.259  11.998  67.221  1.00  0.00    -0.150 A  
HETATM   27  O   UNL     1      -6.658  13.635  68.753  1.00  0.00    -0.088 OA 
HETATM   28  N   UNL     1      -6.303  12.976  67.765  1.00  0.00    -0.134 N  
HETATM   29  C   UNL     1      -6.902  11.227  66.113  1.00  0.00     0.066 A  
HETATM   30  O   UNL     1      -5.207  13.093  67.195  1.00  0.00    -0.335 OA 
ENDBRANCH   8  22
ENDBRANCH   3   5
ENDBRANCH   2   3
TORSDOF 7
ENDMDL
MODEL       79
REMARK 921   NORMALIZED FREE ENERGY PREDICTED BY IDOCK:   -4.55 KCAL/MOL
REMARK 922        TOTAL FREE ENERGY PREDICTED BY IDOCK:   -7.46 KCAL/MOL
REMARK 923 INTER-LIGAND FREE ENERGY PREDICTED BY IDOCK:   -5.90 KCAL/MOL
REMARK 924 INTRA-LIGAND FREE ENERGY PREDICTED BY IDOCK:   -1.56 KCAL/MOL
REMARK 927      BINDING AFFINITY PREDICTED BY RF-SCORE:    0.00 PKD
ROOT
HETATM    1  C   UNL     1      -6.446   6.646  72.655  1.00  0.00    -0.059 C  
HETATM    2  O   UNL     1      -6.364   7.489  71.497  1.00  0.00    -0.036 OA 
ENDROOT
BRANCH   2   3
HETATM    3  C   UNL     1      -7.380   8.383  71.393  1.00  0.00    -0.091 C  
HETATM    4  O   UNL     1      -7.925   8.952  72.321  1.00  0.00    -0.371 OA 
BRANCH   3   5
HETATM    5  C   UNL     1      -7.703   8.595  69.957  1.00  0.00    -0.080 C  
HETATM    6  C   UNL     1      -7.243   9.692  69.300  1.00  0.00    -0.069 C  
HETATM    7  N   UNL     1      -7.533   9.892  67.973  1.00  0.00    -0.085 NA 
HETATM    8  C   UNL     1      -8.601   7.557  69.265  1.00  0.00    -0.136 C  
HETATM    9  C   UNL     1      -8.374   9.052  67.245  1.00  0.00    -0.111 C  
HETATM   10  C   UNL     1      -8.595   9.465  65.807  1.00  0.00    -0.161 C  
HETATM   11  C   UNL     1      -8.928   7.941  67.813  1.00  0.00    -0.128 C  
BRANCH   6  12
HETATM   12  C   UNL     1      -6.565  10.809  70.075  1.00  0.00    -0.159 C  
HETATM   13  N   UNL     1      -6.001  11.735  70.718  1.00  0.00    -0.471 NA 
HETATM   14  H2  UNL     1      -5.852  10.902  71.288  1.00  0.00     0.000 HD 
HETATM   15  H1  UNL     1      -5.545  12.485  71.239  1.00  0.00     0.000 HD 
ENDBRANCH   6  12
BRANCH  11  16
HETATM   16  C   UNL     1      -9.905   7.131  67.022  1.00  0.00    -0.198 C  
HETATM   17  O   UNL     1     -11.100   7.388  66.991  1.00  0.00    -0.268 OA 
BRANCH  16  18
HETATM   18  O   UNL     1      -9.343   6.089  66.340  1.00  0.00    -0.151 OA 
BRANCH  18  19
HETATM   19  C   UNL     1     -10.147   4.877  66.355  1.00  0.00    -0.258 C  
HETATM   20  C   UNL     1      -9.963   4.127  65.039  1.00  0.00    -0.216 C  
HETATM   21  C   UNL     1      -9.750   3.986  67.527  1.00  0.00    -0.177 C  
ENDBRANCH  18  19
ENDBRANCH  16  18
ENDBRANCH  11  16
BRANCH   8  22
HETATM   22  C   UNL     1      -9.864   7.237  70.096  1.00  0.00    -0.179 A  
HETATM   23  C   UNL     1     -10.819   8.250  70.328  1.00  0.00    -0.241 A  
HETATM   24  C   UNL     1     -10.093   5.971  70.663  1.00  0.00    -0.246 A  
HETATM   25  C   UNL     1     -11.224   5.731  71.456  1.00  0.00    -0.243 A  
HETATM   26  C   UNL     1     -11.931   8.013  71.156  1.00  0.00    -0.277 A  
HETATM   27  O   UNL     1     -12.635  10.215  70.952  1.00  0.00    -0.326 OA 
HETATM   28  N   UNL     1     -12.854   9.113  71.475  1.00  0.00    -0.334 N  
HETATM   29  C   UNL     1     -12.140   6.751  71.716  1.00  0.00    -0.393 A  
HETATM   30  O   UNL     1     -13.787   8.878  72.260  1.00  0.00    -0.434 OA 
ENDBRANCH   8  22
ENDBRANCH   3   5
ENDBRANCH   2   3
TORSDOF 7
ENDMDL
MODEL       80
REMARK 921   NORMALIZED FREE ENERGY PREDICTED BY IDOCK:   -4.50 KCAL/MOL
REMARK 922        TOTAL FREE ENERGY PREDICTED BY IDOCK:   -7.39 KCAL/MOL
REMARK 923 INTER-LIGAND FREE ENERGY PREDICTED BY IDOCK:   -6.08 KCAL/MOL
REMARK 924 INTRA-LIGAND FREE ENERGY PREDICTED BY IDOCK:   -1.31 KCAL/MOL
REMARK 927      BINDING AFFINITY PREDICTED BY RF-SCORE:    0.00 PKD
ROOT
HETATM    1  C   UNL     1     -14.190   8.056  71.829  1.00  0.00    -0.456 C  
HETATM    2  O   UNL     1     -13.234   7.442  70.953  1.00  0.00    -0.173 OA 
ENDROOT
BRANCH   2   3
HETATM    3  C   UNL     1     -11.944   7.744  71.248  1.00  0.00    -0.302 C  
HETATM    4  O   UNL     1     -11.573   8.644  71.979  1.00  0.00    -0.323 OA 
BRANCH   3   5
HETATM    5  C   UNL     1     -11.045   6.773  70.570  1.00  0.00    -0.346 C  
HETATM    6  C   UNL     1     -10.668   5.627  71.195  1.00  0.00    -0.241 C  
HETATM    7  N   UNL     1      -9.842   4.723  70.573  1.00  0.00    -0.213 NA 
HETATM    8  C   UNL     1     -10.531   7.133  69.167  1.00  0.00    -0.219 C  
HETATM    9  C   UNL     1      -9.271   4.952  69.323  1.00  0.00    -0.110 C  
HETATM   10  C   UNL     1      -8.361   3.850  68.828  1.00  0.00    -0.087 C  
HETATM   11  C   UNL     1      -9.543   6.089  68.619  1.00  0.00    -0.141 C  
BRANCH   6  12
HETATM   12  C   UNL     1     -11.000   5.421  72.663  1.00  0.00    -0.268 C  
HETATM   13  N   UNL     1     -11.276   5.250  73.882  1.00  0.00    -0.425 NA 
HETATM   14  H2  UNL     1     -10.875   4.361  73.583  1.00  0.00     0.000 HD 
HETATM   15  H1  UNL     1     -11.499   5.112  74.868  1.00  0.00     0.000 HD 
ENDBRANCH   6  12
BRANCH  11  16
HETATM   16  C   UNL     1      -8.825   6.337  67.330  1.00  0.00    -0.107 C  
HETATM   17  O   UNL     1      -7.658   6.699  67.287  1.00  0.00    -0.096 OA 
BRANCH  16  18
HETATM   18  O   UNL     1      -9.586   6.120  66.217  1.00  0.00    -0.152 OA 
BRANCH  18  19
HETATM   19  C   UNL     1      -9.186   4.949  65.453  1.00  0.00    -0.154 C  
HETATM   20  C   UNL     1     -10.425   4.154  65.051  1.00  0.00    -0.187 C  
HETATM   21  C   UNL     1      -8.402   5.361  64.212  1.00  0.00    -0.124 C  
ENDBRANCH  18  19
ENDBRANCH  16  18
ENDBRANCH  11  16
BRANCH   8  22
HETATM   22  C   UNL     1      -9.972   8.573  69.106  1.00  0.00    -0.194 A  
HETATM   23  C   UNL     1     -10.686   9.567  68.404  1.00  0.00    -0.230 A  
HETATM   24  C   UNL     1      -8.752   8.934  69.704  1.00  0.00    -0.140 A  
HETATM   25  C   UNL     1      -8.249  10.237  69.585  1.00  0.00    -0.146 A  
HETATM   26  C   UNL     1     -10.156  10.862  68.256  1.00  0.00    -0.174 A  
HETATM   27  O   UNL     1     -11.941  11.509  66.921  1.00  0.00    -0.516 OA 
HETATM   28  N   UNL     1     -10.862  11.851  67.426  1.00  0.00    -0.231 N  
HETATM   29  C   UNL     1      -8.940  11.202  68.852  1.00  0.00    -0.089 A  
HETATM   30  O   UNL     1     -10.329  12.961  67.269  1.00  0.00    -0.232 OA 
ENDBRANCH   8  22
ENDBRANCH   3   5
ENDBRANCH   2   3
TORSDOF 7
ENDMDL
MODEL       81
REMARK 921   NORMALIZED FREE ENERGY PREDICTED BY IDOCK:   -4.50 KCAL/MOL
REMARK 922        TOTAL FREE ENERGY PREDICTED BY IDOCK:   -7.39 KCAL/MOL
REMARK 923 INTER-LIGAND FREE ENERGY PREDICTED BY IDOCK:   -6.19 KCAL/MOL
REMARK 924 INTRA-LIGAND FREE ENERGY PREDICTED BY IDOCK:   -1.20 KCAL/MOL
REMARK 927      BINDING AFFINITY PREDICTED BY RF-SCORE:    0.00 PKD
ROOT
HETATM    1  C   UNL     1      -5.683  10.684  65.840  1.00  0.00    -0.132 C  
HETATM    2  O   UNL     1      -6.121  11.929  66.403  1.00  0.00    -0.134 OA 
ENDROOT
BRANCH   2   3
HETATM    3  C   UNL     1      -6.455  11.852  67.716  1.00  0.00    -0.084 C  
HETATM    4  O   UNL     1      -5.779  11.347  68.594  1.00  0.00    -0.043 OA 
BRANCH   3   5
HETATM    5  C   UNL     1      -7.764  12.523  67.930  1.00  0.00    -0.138 C  
HETATM    6  C   UNL     1      -7.839  13.690  68.622  1.00  0.00    -0.096 C  
HETATM    7  N   UNL     1      -9.045  14.317  68.819  1.00  0.00    -0.150 NA 
HETATM    8  C   UNL     1      -9.022  11.830  67.378  1.00  0.00    -0.173 C  
HETATM    9  C   UNL     1     -10.260  13.771  68.412  1.00  0.00    -0.248 C  
HETATM   10  C   UNL     1     -11.477  14.601  68.754  1.00  0.00    -0.322 C  
HETATM   11  C   UNL     1     -10.312  12.582  67.744  1.00  0.00    -0.224 C  
BRANCH   6  12
HETATM   12  C   UNL     1      -6.615  14.215  69.353  1.00  0.00    -0.121 C  
HETATM   13  N   UNL     1      -5.599  14.652  69.960  1.00  0.00    -0.106 NA 
HETATM   14  H2  UNL     1      -6.081  15.490  69.632  1.00  0.00     0.000 HD 
HETATM   15  H1  UNL     1      -4.778  15.005  70.451  1.00  0.00     0.000 HD 
ENDBRANCH   6  12
BRANCH  11  16
HETATM   16  C   UNL     1     -11.646  11.987  67.421  1.00  0.00    -0.318 C  
HETATM   17  O   UNL     1     -12.190  11.162  68.141  1.00  0.00    -0.612 OA 
BRANCH  16  18
HETATM   18  O   UNL     1     -12.196  12.449  66.259  1.00  0.00    -0.620 OA 
BRANCH  18  19
HETATM   19  C   UNL     1     -11.221  12.722  65.217  1.00  0.00    -0.293 C  
HETATM   20  C   UNL     1     -11.406  11.730  64.072  1.00  0.00    -0.461 C  
HETATM   21  C   UNL     1     -11.372  14.150  64.702  1.00  0.00    -0.374 C  
ENDBRANCH  18  19
ENDBRANCH  16  18
ENDBRANCH  11  16
BRANCH   8  22
HETATM   22  C   UNL     1      -9.073  10.334  67.761  1.00  0.00    -0.138 A  
HETATM   23  C   UNL     1      -9.102   9.965  69.123  1.00  0.00    -0.175 A  
HETATM   24  C   UNL     1      -9.065   9.309  66.799  1.00  0.00    -0.170 A  
HETATM   25  C   UNL     1      -9.060   7.961  67.183  1.00  0.00    -0.158 A  
HETATM   26  C   UNL     1      -9.058   8.611  69.500  1.00  0.00    -0.146 A  
HETATM   27  O   UNL     1      -8.996   9.174  71.751  1.00  0.00    -0.345 OA 
HETATM   28  N   UNL     1      -8.975   8.250  70.925  1.00  0.00    -0.144 N  
HETATM   29  C   UNL     1      -9.044   7.605  68.532  1.00  0.00    -0.131 A  
HETATM   30  O   UNL     1      -8.873   7.047  71.213  1.00  0.00    -0.133 OA 
ENDBRANCH   8  22
ENDBRANCH   3   5
ENDBRANCH   2   3
TORSDOF 7
ENDMDL
MODEL       82
REMARK 921   NORMALIZED FREE ENERGY PREDICTED BY IDOCK:   -4.49 KCAL/MOL
REMARK 922        TOTAL FREE ENERGY PREDICTED BY IDOCK:   -7.38 KCAL/MOL
REMARK 923 INTER-LIGAND FREE ENERGY PREDICTED BY IDOCK:   -6.07 KCAL/MOL
REMARK 924 INTRA-LIGAND FREE ENERGY PREDICTED BY IDOCK:   -1.31 KCAL/MOL
REMARK 927      BINDING AFFINITY PREDICTED BY RF-SCORE:    0.00 PKD
ROOT
HETATM    1  C   UNL     1     -12.127  13.103  66.834  1.00  0.00    -0.316 C  
HETATM    2  O   UNL     1     -12.133  11.878  67.582  1.00  0.00    -0.568 OA 
ENDROOT
BRANCH   2   3
HETATM    3  C   UNL     1     -11.604  11.991  68.827  1.00  0.00    -0.311 C  
HETATM    4  O   UNL     1     -11.147  13.008  69.317  1.00  0.00    -0.220 OA 
BRANCH   3   5
HETATM    5  C   UNL     1     -11.708  10.683  69.526  1.00  0.00    -0.356 C  
HETATM    6  C   UNL     1     -12.362  10.581  70.712  1.00  0.00    -0.378 C  
HETATM    7  N   UNL     1     -12.466   9.375  71.360  1.00  0.00    -0.333 NA 
HETATM    8  C   UNL     1     -11.017   9.470  68.879  1.00  0.00    -0.116 C  
HETATM    9  C   UNL     1     -11.846   8.213  70.904  1.00  0.00    -0.218 C  
HETATM   10  C   UNL     1     -12.052   6.998  71.780  1.00  0.00    -0.371 C  
HETATM   11  C   UNL     1     -11.126   8.204  69.745  1.00  0.00    -0.058 C  
BRANCH   6  12
HETATM   12  C   UNL     1     -12.820  11.838  71.432  1.00  0.00    -0.335 C  
HETATM   13  N   UNL     1     -13.201  12.881  72.031  1.00  0.00    -0.460 NA 
HETATM   14  H2  UNL     1     -13.597  12.115  72.576  1.00  0.00     0.000 HD 
HETATM   15  H1  UNL     1     -13.509  13.725  72.515  1.00  0.00     0.000 HD 
ENDBRANCH   6  12
BRANCH  11  16
HETATM   16  C   UNL     1     -10.393   6.960  69.353  1.00  0.00    -0.204 C  
HETATM   17  O   UNL     1     -10.810   6.194  68.497  1.00  0.00    -0.266 OA 
BRANCH  16  18
HETATM   18  O   UNL     1      -9.223   6.765  70.031  1.00  0.00    -0.157 OA 
BRANCH  18  19
HETATM   19  C   UNL     1      -8.323   5.822  69.386  1.00  0.00    -0.112 C  
HETATM   20  C   UNL     1      -7.383   6.574  68.449  1.00  0.00    -0.087 C  
HETATM   21  C   UNL     1      -7.519   5.051  70.428  1.00  0.00    -0.062 C  
ENDBRANCH  18  19
ENDBRANCH  16  18
ENDBRANCH  11  16
BRANCH   8  22
HETATM   22  C   UNL     1      -9.563   9.786  68.463  1.00  0.00    -0.155 A  
HETATM   23  C   UNL     1      -8.566   9.905  69.455  1.00  0.00    -0.180 A  
HETATM   24  C   UNL     1      -9.189   9.989  67.123  1.00  0.00    -0.161 A  
HETATM   25  C   UNL     1      -7.871  10.326  66.786  1.00  0.00    -0.114 A  
HETATM   26  C   UNL     1      -7.254  10.280  69.113  1.00  0.00    -0.083 A  
HETATM   27  O   UNL     1      -6.612  10.310  71.343  1.00  0.00    -0.232 OA 
HETATM   28  N   UNL     1      -6.258  10.509  70.172  1.00  0.00    -0.101 N  
HETATM   29  C   UNL     1      -6.901  10.485  67.777  1.00  0.00    -0.073 A  
HETATM   30  O   UNL     1      -5.131  10.901  69.832  1.00  0.00    -0.041 OA 
ENDBRANCH   8  22
ENDBRANCH   3   5
ENDBRANCH   2   3
TORSDOF 7
ENDMDL
MODEL       83
REMARK 921   NORMALIZED FREE ENERGY PREDICTED BY IDOCK:   -4.47 KCAL/MOL
REMARK 922        TOTAL FREE ENERGY PREDICTED BY IDOCK:   -7.35 KCAL/MOL
REMARK 923 INTER-LIGAND FREE ENERGY PREDICTED BY IDOCK:   -6.23 KCAL/MOL
REMARK 924 INTRA-LIGAND FREE ENERGY PREDICTED BY IDOCK:   -1.12 KCAL/MOL
REMARK 927      BINDING AFFINITY PREDICTED BY RF-SCORE:    0.00 PKD
ROOT
HETATM    1  C   UNL     1     -12.257  13.278  66.360  1.00  0.00    -0.356 C  
HETATM    2  O   UNL     1     -12.009  11.998  66.960  1.00  0.00    -0.609 OA 
ENDROOT
BRANCH   2   3
HETATM    3  C   UNL     1     -11.068  12.021  67.937  1.00  0.00    -0.236 C  
HETATM    4  O   UNL     1      -9.972  12.545  67.857  1.00  0.00    -0.200 OA 
BRANCH   3   5
HETATM    5  C   UNL     1     -11.599  11.341  69.148  1.00  0.00    -0.387 C  
HETATM    6  C   UNL     1     -12.125  12.061  70.172  1.00  0.00    -0.298 C  
HETATM    7  N   UNL     1     -12.622  11.439  71.291  1.00  0.00    -0.394 NA 
HETATM    8  C   UNL     1     -11.493   9.808  69.211  1.00  0.00     0.023 C  
HETATM    9  C   UNL     1     -12.543  10.062  71.491  1.00  0.00    -0.425 C  
HETATM   10  C   UNL     1     -13.116   9.578  72.804  1.00  0.00     0.012 C  
HETATM   11  C   UNL     1     -11.996   9.241  70.548  1.00  0.00    -0.115 C  
BRANCH   6  12
HETATM   12  C   UNL     1     -11.994  13.575  70.177  1.00  0.00    -0.329 C  
HETATM   13  N   UNL     1     -11.886  14.832  70.181  1.00  0.00    -0.288 NA 
HETATM   14  H2  UNL     1     -12.823  14.655  70.545  1.00  0.00     0.000 HD 
HETATM   15  H1  UNL     1     -11.798  15.848  70.185  1.00  0.00     0.000 HD 
ENDBRANCH   6  12
BRANCH  11  16
HETATM   16  C   UNL     1     -11.839   7.785  70.855  1.00  0.00    -0.239 C  
HETATM   17  O   UNL     1     -12.121   6.909  70.049  1.00  0.00    -0.176 OA 
BRANCH  16  18
HETATM   18  O   UNL     1     -11.351   7.527  72.104  1.00  0.00    -0.258 OA 
BRANCH  18  19
HETATM   19  C   UNL     1      -9.973   7.065  72.111  1.00  0.00    -0.165 C  
HETATM   20  C   UNL     1      -9.125   8.001  72.967  1.00  0.00    -0.331 C  
HETATM   21  C   UNL     1      -9.889   5.641  72.651  1.00  0.00    -0.182 C  
ENDBRANCH  18  19
ENDBRANCH  16  18
ENDBRANCH  11  16
BRANCH   8  22
HETATM   22  C   UNL     1     -10.076   9.310  68.847  1.00  0.00    -0.207 A  
HETATM   23  C   UNL     1      -8.967   9.763  69.593  1.00  0.00    -0.229 A  
HETATM   24  C   UNL     1      -9.837   8.435  67.773  1.00  0.00    -0.218 A  
HETATM   25  C   UNL     1      -8.532   8.045  67.438  1.00  0.00    -0.126 A  
HETATM   26  C   UNL     1      -7.659   9.397  69.227  1.00  0.00    -0.081 A  
HETATM   27  O   UNL     1      -6.751  10.729  70.898  1.00  0.00    -0.218 OA 
HETATM   28  N   UNL     1      -6.510   9.970  69.948  1.00  0.00    -0.065 N  
HETATM   29  C   UNL     1      -7.438   8.532  68.154  1.00  0.00    -0.097 A  
HETATM   30  O   UNL     1      -5.372   9.672  69.553  1.00  0.00    -0.035 OA 
ENDBRANCH   8  22
ENDBRANCH   3   5
ENDBRANCH   2   3
TORSDOF 7
ENDMDL
MODEL       84
REMARK 921   NORMALIZED FREE ENERGY PREDICTED BY IDOCK:   -4.46 KCAL/MOL
REMARK 922        TOTAL FREE ENERGY PREDICTED BY IDOCK:   -7.34 KCAL/MOL
REMARK 923 INTER-LIGAND FREE ENERGY PREDICTED BY IDOCK:   -6.88 KCAL/MOL
REMARK 924 INTRA-LIGAND FREE ENERGY PREDICTED BY IDOCK:   -0.46 KCAL/MOL
REMARK 927      BINDING AFFINITY PREDICTED BY RF-SCORE:    0.00 PKD
ROOT
HETATM    1  C   UNL     1      -7.872  15.689  67.187  1.00  0.00    -0.217 C  
HETATM    2  O   UNL     1      -9.180  16.239  66.969  1.00  0.00    -0.205 OA 
ENDROOT
BRANCH   2   3
HETATM    3  C   UNL     1     -10.098  15.327  66.559  1.00  0.00    -0.270 C  
HETATM    4  O   UNL     1     -10.338  15.028  65.404  1.00  0.00    -0.327 OA 
BRANCH   3   5
HETATM    5  C   UNL     1     -10.744  14.712  67.749  1.00  0.00    -0.265 C  
HETATM    6  C   UNL     1     -11.098  15.475  68.816  1.00  0.00    -0.291 C  
HETATM    7  N   UNL     1     -11.699  14.914  69.916  1.00  0.00    -0.286 NA 
HETATM    8  C   UNL     1     -10.958  13.189  67.739  1.00  0.00    -0.272 C  
HETATM    9  C   UNL     1     -11.905  13.543  70.051  1.00  0.00    -0.301 C  
HETATM   10  C   UNL     1     -12.551  13.122  71.353  1.00  0.00    -0.352 C  
HETATM   11  C   UNL     1     -11.552  12.673  69.060  1.00  0.00    -0.367 C  
BRANCH   6  12
HETATM   12  C   UNL     1     -10.655  16.927  68.888  1.00  0.00    -0.353 C  
HETATM   13  N   UNL     1     -10.288  18.132  68.946  1.00  0.00    -0.436 NA 
HETATM   14  H2  UNL     1     -10.827  18.071  68.082  1.00  0.00     0.000 HD 
HETATM   15  H1  UNL     1      -9.992  19.107  68.994  1.00  0.00     0.000 HD 
ENDBRANCH   6  12
BRANCH  11  16
HETATM   16  C   UNL     1     -11.697  11.203  69.296  1.00  0.00    -0.331 C  
HETATM   17  O   UNL     1     -12.723  10.593  69.034  1.00  0.00    -0.116 OA 
BRANCH  16  18
HETATM   18  O   UNL     1     -10.584  10.610  69.822  1.00  0.00    -0.238 OA 
BRANCH  18  19
HETATM   19  C   UNL     1     -10.643   9.158  69.830  1.00  0.00    -0.230 C  
HETATM   20  C   UNL     1      -9.253   8.589  69.557  1.00  0.00    -0.150 C  
HETATM   21  C   UNL     1     -11.162   8.650  71.171  1.00  0.00    -0.329 C  
ENDBRANCH  18  19
ENDBRANCH  16  18
ENDBRANCH  11  16
BRANCH   8  22
HETATM   22  C   UNL     1      -9.679  12.428  67.322  1.00  0.00    -0.201 A  
HETATM   23  C   UNL     1      -9.696  11.625  66.161  1.00  0.00    -0.253 A  
HETATM   24  C   UNL     1      -8.493  12.478  68.074  1.00  0.00    -0.173 A  
HETATM   25  C   UNL     1      -7.368  11.732  67.694  1.00  0.00    -0.119 A  
HETATM   26  C   UNL     1      -8.576  10.851  65.809  1.00  0.00    -0.173 A  
HETATM   27  O   UNL     1      -9.706   9.920  64.007  1.00  0.00    -0.206 OA 
HETATM   28  N   UNL     1      -8.652   9.935  64.659  1.00  0.00    -0.167 N  
HETATM   29  C   UNL     1      -7.407  10.907  66.570  1.00  0.00    -0.142 A  
HETATM   30  O   UNL     1      -7.665   9.222  64.420  1.00  0.00    -0.110 OA 
ENDBRANCH   8  22
ENDBRANCH   3   5
ENDBRANCH   2   3
TORSDOF 7
ENDMDL
MODEL       85
REMARK 921   NORMALIZED FREE ENERGY PREDICTED BY IDOCK:   -4.45 KCAL/MOL
REMARK 922        TOTAL FREE ENERGY PREDICTED BY IDOCK:   -7.32 KCAL/MOL
REMARK 923 INTER-LIGAND FREE ENERGY PREDICTED BY IDOCK:   -6.21 KCAL/MOL
REMARK 924 INTRA-LIGAND FREE ENERGY PREDICTED BY IDOCK:   -1.11 KCAL/MOL
REMARK 927      BINDING AFFINITY PREDICTED BY RF-SCORE:    0.00 PKD
ROOT
HETATM    1  C   UNL     1      -9.530  15.952  65.816  1.00  0.00    -0.281 C  
HETATM    2  O   UNL     1      -8.610  15.027  66.415  1.00  0.00    -0.222 OA 
ENDROOT
BRANCH   2   3
HETATM    3  C   UNL     1      -8.799  14.848  67.747  1.00  0.00    -0.173 C  
HETATM    4  O   UNL     1      -9.124  15.711  68.543  1.00  0.00    -0.184 OA 
BRANCH   3   5
HETATM    5  C   UNL     1      -8.589  13.415  68.085  1.00  0.00    -0.174 C  
HETATM    6  C   UNL     1      -7.334  12.902  68.172  1.00  0.00    -0.119 C  
HETATM    7  N   UNL     1      -7.133  11.581  68.489  1.00  0.00    -0.081 NA 
HETATM    8  C   UNL     1      -9.836  12.539  68.290  1.00  0.00    -0.227 C  
HETATM    9  C   UNL     1      -8.177  10.672  68.652  1.00  0.00    -0.135 C  
HETATM   10  C   UNL     1      -7.744   9.257  68.963  1.00  0.00    -0.075 C  
HETATM   11  C   UNL     1      -9.479  11.065  68.546  1.00  0.00    -0.188 C  
BRANCH   6  12
HETATM   12  C   UNL     1      -6.144  13.736  67.730  1.00  0.00    -0.132 C  
HETATM   13  N   UNL     1      -5.155  14.428  67.364  1.00  0.00    -0.296 NA 
HETATM   14  H2  UNL     1      -5.323  14.714  68.329  1.00  0.00     0.000 HD 
HETATM   15  H1  UNL     1      -4.356  14.988  67.067  1.00  0.00     0.000 HD 
ENDBRANCH   6  12
BRANCH  11  16
HETATM   16  C   UNL     1     -10.559  10.033  68.625  1.00  0.00    -0.212 C  
HETATM   17  O   UNL     1     -10.766   9.228  67.729  1.00  0.00    -0.259 OA 
BRANCH  16  18
HETATM   18  O   UNL     1     -11.283  10.071  69.783  1.00  0.00    -0.247 OA 
BRANCH  18  19
HETATM   19  C   UNL     1     -11.127   8.886  70.611  1.00  0.00    -0.262 C  
HETATM   20  C   UNL     1     -10.091   9.158  71.699  1.00  0.00    -0.346 C  
HETATM   21  C   UNL     1     -12.459   8.493  71.241  1.00  0.00    -0.275 C  
ENDBRANCH  18  19
ENDBRANCH  16  18
ENDBRANCH  11  16
BRANCH   8  22
HETATM   22  C   UNL     1     -10.862  12.715  67.148  1.00  0.00    -0.282 A  
HETATM   23  C   UNL     1     -10.678  12.018  65.935  1.00  0.00    -0.314 A  
HETATM   24  C   UNL     1     -11.970  13.572  67.256  1.00  0.00    -0.408 A  
HETATM   25  C   UNL     1     -12.853  13.749  66.181  1.00  0.00    -0.188 A  
HETATM   26  C   UNL     1     -11.546  12.229  64.848  1.00  0.00    -0.342 A  
HETATM   27  O   UNL     1     -10.295  10.819  63.493  1.00  0.00    -0.312 OA 
HETATM   28  N   UNL     1     -11.272  11.579  63.556  1.00  0.00    -0.387 N  
HETATM   29  C   UNL     1     -12.639  13.089  64.970  1.00  0.00    -0.515 A  
HETATM   30  O   UNL     1     -12.025  11.841  62.605  1.00  0.00     0.426 OA 
ENDBRANCH   8  22
ENDBRANCH   3   5
ENDBRANCH   2   3
TORSDOF 7
ENDMDL
MODEL       86
REMARK 921   NORMALIZED FREE ENERGY PREDICTED BY IDOCK:   -4.43 KCAL/MOL
REMARK 922        TOTAL FREE ENERGY PREDICTED BY IDOCK:   -7.29 KCAL/MOL
REMARK 923 INTER-LIGAND FREE ENERGY PREDICTED BY IDOCK:   -6.07 KCAL/MOL
REMARK 924 INTRA-LIGAND FREE ENERGY PREDICTED BY IDOCK:   -1.22 KCAL/MOL
REMARK 927      BINDING AFFINITY PREDICTED BY RF-SCORE:    0.00 PKD
ROOT
HETATM    1  C   UNL     1     -10.072  10.154  65.173  1.00  0.00    -0.259 C  
HETATM    2  O   UNL     1     -10.097   9.320  66.341  1.00  0.00    -0.271 OA 
ENDROOT
BRANCH   2   3
HETATM    3  C   UNL     1      -9.425   9.837  67.401  1.00  0.00    -0.152 C  
HETATM    4  O   UNL     1      -8.274  10.233  67.390  1.00  0.00    -0.114 OA 
BRANCH   3   5
HETATM    5  C   UNL     1     -10.331   9.888  68.579  1.00  0.00    -0.221 C  
HETATM    6  C   UNL     1     -10.830  11.073  69.018  1.00  0.00    -0.229 C  
HETATM    7  N   UNL     1     -11.671  11.126  70.102  1.00  0.00    -0.331 NA 
HETATM    8  C   UNL     1     -10.643   8.565  69.299  1.00  0.00    -0.193 C  
HETATM    9  C   UNL     1     -11.994  10.007  70.868  1.00  0.00    -0.361 C  
HETATM   10  C   UNL     1     -12.906  10.283  72.042  1.00  0.00    -0.457 C  
HETATM   11  C   UNL     1     -11.516   8.770  70.548  1.00  0.00    -0.222 C  
BRANCH   6  12
HETATM   12  C   UNL     1     -10.311  12.375  68.432  1.00  0.00    -0.229 C  
HETATM   13  N   UNL     1      -9.880  13.456  67.946  1.00  0.00    -0.229 NA 
HETATM   14  H2  UNL     1     -10.870  13.441  67.699  1.00  0.00     0.000 HD 
HETATM   15  H1  UNL     1      -9.532  14.331  67.553  1.00  0.00     0.000 HD 
ENDBRANCH   6  12
BRANCH  11  16
HETATM   16  C   UNL     1     -11.805   7.620  71.460  1.00  0.00    -0.295 C  
HETATM   17  O   UNL     1     -12.729   6.842  71.266  1.00  0.00    -0.370 OA 
BRANCH  16  18
HETATM   18  O   UNL     1     -10.946   7.517  72.517  1.00  0.00    -0.263 OA 
BRANCH  18  19
HETATM   19  C   UNL     1     -10.858   6.176  73.072  1.00  0.00    -0.257 C  
HETATM   20  C   UNL     1     -10.213   5.242  72.051  1.00  0.00    -0.259 C  
HETATM   21  C   UNL     1     -10.046   6.182  74.363  1.00  0.00    -0.337 C  
ENDBRANCH  18  19
ENDBRANCH  16  18
ENDBRANCH  11  16
BRANCH   8  22
HETATM   22  C   UNL     1      -9.364   7.749  69.592  1.00  0.00    -0.153 A  
HETATM   23  C   UNL     1      -8.506   8.153  70.637  1.00  0.00    -0.128 A  
HETATM   24  C   UNL     1      -8.998   6.622  68.835  1.00  0.00    -0.130 A  
HETATM   25  C   UNL     1      -7.803   5.937  69.095  1.00  0.00    -0.095 A  
HETATM   26  C   UNL     1      -7.291   7.483  70.867  1.00  0.00    -0.068 A  
HETATM   27  O   UNL     1      -6.712   8.975  72.548  1.00  0.00    -0.307 OA 
HETATM   28  N   UNL     1      -6.358   7.988  71.888  1.00  0.00    -0.042 N  
HETATM   29  C   UNL     1      -6.939   6.369  70.101  1.00  0.00    -0.063 A  
HETATM   30  O   UNL     1      -5.269   7.406  72.015  1.00  0.00    -0.035 OA 
ENDBRANCH   8  22
ENDBRANCH   3   5
ENDBRANCH   2   3
TORSDOF 7
ENDMDL
MODEL       87
REMARK 921   NORMALIZED FREE ENERGY PREDICTED BY IDOCK:   -4.43 KCAL/MOL
REMARK 922        TOTAL FREE ENERGY PREDICTED BY IDOCK:   -7.29 KCAL/MOL
REMARK 923 INTER-LIGAND FREE ENERGY PREDICTED BY IDOCK:   -6.28 KCAL/MOL
REMARK 924 INTRA-LIGAND FREE ENERGY PREDICTED BY IDOCK:   -1.01 KCAL/MOL
REMARK 927      BINDING AFFINITY PREDICTED BY RF-SCORE:    0.00 PKD
ROOT
HETATM    1  C   UNL     1      -5.440  11.260  66.288  1.00  0.00    -0.137 C  
HETATM    2  O   UNL     1      -5.914  12.465  66.908  1.00  0.00    -0.273 OA 
ENDROOT
BRANCH   2   3
HETATM    3  C   UNL     1      -6.479  12.271  68.127  1.00  0.00    -0.062 C  
HETATM    4  O   UNL     1      -5.983  11.655  69.052  1.00  0.00    -0.048 OA 
BRANCH   3   5
HETATM    5  C   UNL     1      -7.792  12.969  68.176  1.00  0.00    -0.145 C  
HETATM    6  C   UNL     1      -7.921  14.155  68.825  1.00  0.00    -0.102 C  
HETATM    7  N   UNL     1      -9.129  14.806  68.870  1.00  0.00    -0.186 NA 
HETATM    8  C   UNL     1      -8.992  12.281  67.505  1.00  0.00    -0.180 C  
HETATM    9  C   UNL     1     -10.301  14.269  68.343  1.00  0.00    -0.247 C  
HETATM   10  C   UNL     1     -11.533  15.127  68.526  1.00  0.00    -0.335 C  
HETATM   11  C   UNL     1     -10.301  13.063  67.704  1.00  0.00    -0.222 C  
BRANCH   6  12
HETATM   12  C   UNL     1      -6.776  14.680  69.675  1.00  0.00    -0.163 C  
HETATM   13  N   UNL     1      -5.826  15.116  70.380  1.00  0.00    -0.142 NA 
HETATM   14  H2  UNL     1      -5.684  14.106  70.357  1.00  0.00     0.000 HD 
HETATM   15  H1  UNL     1      -5.057  15.469  70.951  1.00  0.00     0.000 HD 
ENDBRANCH   6  12
BRANCH  11  16
HETATM   16  C   UNL     1     -11.602  12.480  67.249  1.00  0.00    -0.367 C  
HETATM   17  O   UNL     1     -12.149  11.556  67.834  1.00  0.00    -0.630 OA 
BRANCH  16  18
HETATM   18  O   UNL     1     -12.118  13.073  66.132  1.00  0.00    -0.412 OA 
BRANCH  18  19
HETATM   19  C   UNL     1     -11.244  13.000  64.973  1.00  0.00    -0.297 C  
HETATM   20  C   UNL     1     -12.015  12.425  63.788  1.00  0.00    -0.600 C  
HETATM   21  C   UNL     1     -10.701  14.382  64.624  1.00  0.00    -0.357 C  
ENDBRANCH  18  19
ENDBRANCH  16  18
ENDBRANCH  11  16
BRANCH   8  22
HETATM   22  C   UNL     1      -9.115  10.796  67.917  1.00  0.00    -0.150 A  
HETATM   23  C   UNL     1      -8.883   9.787  66.957  1.00  0.00    -0.145 A  
HETATM   24  C   UNL     1      -9.479  10.402  69.216  1.00  0.00    -0.214 A  
HETATM   25  C   UNL     1      -9.632   9.047  69.541  1.00  0.00    -0.165 A  
HETATM   26  C   UNL     1      -9.076   8.432  67.281  1.00  0.00    -0.137 A  
HETATM   27  O   UNL     1      -8.605   7.779  65.104  1.00  0.00    -0.109 OA 
HETATM   28  N   UNL     1      -8.939   7.404  66.237  1.00  0.00    -0.161 N  
HETATM   29  C   UNL     1      -9.444   8.058  68.575  1.00  0.00    -0.143 A  
HETATM   30  O   UNL     1      -9.180   6.226  66.549  1.00  0.00    -0.147 OA 
ENDBRANCH   8  22
ENDBRANCH   3   5
ENDBRANCH   2   3
TORSDOF 7
ENDMDL
MODEL       88
REMARK 921   NORMALIZED FREE ENERGY PREDICTED BY IDOCK:   -4.41 KCAL/MOL
REMARK 922        TOTAL FREE ENERGY PREDICTED BY IDOCK:   -7.27 KCAL/MOL
REMARK 923 INTER-LIGAND FREE ENERGY PREDICTED BY IDOCK:   -7.72 KCAL/MOL
REMARK 924 INTRA-LIGAND FREE ENERGY PREDICTED BY IDOCK:    0.45 KCAL/MOL
REMARK 927      BINDING AFFINITY PREDICTED BY RF-SCORE:    0.00 PKD
ROOT
HETATM    1  C   UNL     1      -9.777  17.963  68.602  1.00  0.00    -0.353 C  
HETATM    2  O   UNL     1      -9.592  16.669  68.010  1.00  0.00    -0.220 OA 
ENDROOT
BRANCH   2   3
HETATM    3  C   UNL     1     -10.748  15.986  67.809  1.00  0.00    -0.323 C  
HETATM    4  O   UNL     1     -11.871  16.416  67.998  1.00  0.00     0.040 OA 
BRANCH   3   5
HETATM    5  C   UNL     1     -10.433  14.633  67.277  1.00  0.00    -0.266 C  
HETATM    6  C   UNL     1     -10.430  14.400  65.938  1.00  0.00    -0.308 C  
HETATM    7  N   UNL     1     -10.135  13.155  65.440  1.00  0.00    -0.276 NA 
HETATM    8  C   UNL     1     -10.154  13.513  68.292  1.00  0.00    -0.247 C  
HETATM    9  C   UNL     1      -9.911  12.046  66.253  1.00  0.00    -0.227 C  
HETATM   10  C   UNL     1      -9.638  10.757  65.510  1.00  0.00    -0.269 C  
HETATM   11  C   UNL     1      -9.931  12.151  67.614  1.00  0.00    -0.199 C  
BRANCH   6  12
HETATM   12  C   UNL     1     -10.943  15.465  64.984  1.00  0.00    -0.436 C  
HETATM   13  N   UNL     1     -11.368  16.350  64.192  1.00  0.00    -1.422 NA 
HETATM   14  H2  UNL     1     -11.216  16.845  65.071  1.00  0.00     0.000 HD 
HETATM   15  H1  UNL     1     -11.712  17.065  63.551  1.00  0.00     0.000 HD 
ENDBRANCH   6  12
BRANCH  11  16
HETATM   16  C   UNL     1      -9.789  10.913  68.442  1.00  0.00    -0.177 C  
HETATM   17  O   UNL     1     -10.603  10.002  68.407  1.00  0.00    -0.198 OA 
BRANCH  16  18
HETATM   18  O   UNL     1      -8.672  10.893  69.229  1.00  0.00    -0.099 OA 
BRANCH  18  19
HETATM   19  C   UNL     1      -7.849   9.709  69.048  1.00  0.00    -0.079 C  
HETATM   20  C   UNL     1      -6.674  10.040  68.131  1.00  0.00    -0.059 C  
HETATM   21  C   UNL     1      -7.338   9.201  70.392  1.00  0.00    -0.100 C  
ENDBRANCH  18  19
ENDBRANCH  16  18
ENDBRANCH  11  16
BRANCH   8  22
HETATM   22  C   UNL     1     -11.226  13.457  69.403  1.00  0.00    -0.235 A  
HETATM   23  C   UNL     1     -11.338  14.529  70.315  1.00  0.00    -0.225 A  
HETATM   24  C   UNL     1     -12.088  12.359  69.565  1.00  0.00    -0.250 A  
HETATM   25  C   UNL     1     -13.014  12.319  70.617  1.00  0.00     0.120 A  
HETATM   26  C   UNL     1     -12.243  14.464  71.390  1.00  0.00    -0.352 A  
HETATM   27  O   UNL     1     -11.504  16.502  72.219  1.00  0.00    -0.289 OA 
HETATM   28  N   UNL     1     -12.266  15.541  72.394  1.00  0.00    -0.372 N  
HETATM   29  C   UNL     1     -13.088  13.363  71.540  1.00  0.00    -0.427 A  
HETATM   30  O   UNL     1     -13.034  15.415  73.361  1.00  0.00    -0.468 OA 
ENDBRANCH   8  22
ENDBRANCH   3   5
ENDBRANCH   2   3
TORSDOF 7
ENDMDL
MODEL       89
REMARK 921   NORMALIZED FREE ENERGY PREDICTED BY IDOCK:   -4.41 KCAL/MOL
REMARK 922        TOTAL FREE ENERGY PREDICTED BY IDOCK:   -7.26 KCAL/MOL
REMARK 923 INTER-LIGAND FREE ENERGY PREDICTED BY IDOCK:   -6.13 KCAL/MOL
REMARK 924 INTRA-LIGAND FREE ENERGY PREDICTED BY IDOCK:   -1.13 KCAL/MOL
REMARK 927      BINDING AFFINITY PREDICTED BY RF-SCORE:    0.00 PKD
ROOT
HETATM    1  C   UNL     1     -13.821   7.174  71.455  1.00  0.00    -0.251 C  
HETATM    2  O   UNL     1     -12.438   7.446  71.722  1.00  0.00    -0.314 OA 
ENDROOT
BRANCH   2   3
HETATM    3  C   UNL     1     -11.588   6.935  70.796  1.00  0.00    -0.349 C  
HETATM    4  O   UNL     1     -11.905   6.251  69.839  1.00  0.00    -0.340 OA 
BRANCH   3   5
HETATM    5  C   UNL     1     -10.202   7.376  71.104  1.00  0.00    -0.199 C  
HETATM    6  C   UNL     1      -9.584   6.971  72.244  1.00  0.00    -0.149 C  
HETATM    7  N   UNL     1      -8.303   7.371  72.533  1.00  0.00    -0.106 NA 
HETATM    8  C   UNL     1      -9.518   8.331  70.111  1.00  0.00    -0.167 C  
HETATM    9  C   UNL     1      -7.592   8.271  71.741  1.00  0.00    -0.099 C  
HETATM   10  C   UNL     1      -6.209   8.611  72.249  1.00  0.00    -0.076 C  
HETATM   11  C   UNL     1      -8.127   8.777  70.592  1.00  0.00    -0.145 C  
BRANCH   6  12
HETATM   12  C   UNL     1     -10.374   6.229  73.309  1.00  0.00    -0.231 C  
HETATM   13  N   UNL     1     -11.030   5.612  74.192  1.00  0.00    -0.388 NA 
HETATM   14  H2  UNL     1     -11.530   5.422  73.324  1.00  0.00     0.000 HD 
HETATM   15  H1  UNL     1     -11.560   5.114  74.907  1.00  0.00     0.000 HD 
ENDBRANCH   6  12
BRANCH  11  16
HETATM   16  C   UNL     1      -7.368   9.818  69.832  1.00  0.00    -0.134 C  
HETATM   17  O   UNL     1      -7.361  10.997  70.159  1.00  0.00     0.002 OA 
BRANCH  16  18
HETATM   18  O   UNL     1      -6.685   9.334  68.753  1.00  0.00    -0.052 OA 
BRANCH  18  19
HETATM   19  C   UNL     1      -7.210   9.788  67.475  1.00  0.00    -0.089 C  
HETATM   20  C   UNL     1      -6.176  10.671  66.783  1.00  0.00    -0.076 C  
HETATM   21  C   UNL     1      -7.562   8.599  66.588  1.00  0.00    -0.089 C  
ENDBRANCH  18  19
ENDBRANCH  16  18
ENDBRANCH  11  16
BRANCH   8  22
HETATM   22  C   UNL     1     -10.428   9.520  69.730  1.00  0.00    -0.253 A  
HETATM   23  C   UNL     1     -10.568   9.881  68.373  1.00  0.00    -0.258 A  
HETATM   24  C   UNL     1     -11.110  10.286  70.691  1.00  0.00    -0.358 A  
HETATM   25  C   UNL     1     -11.885  11.391  70.314  1.00  0.00    -0.438 A  
HETATM   26  C   UNL     1     -11.317  11.014  68.006  1.00  0.00    -0.306 A  
HETATM   27  O   UNL     1     -10.758  10.738  65.770  1.00  0.00    -0.179 OA 
HETATM   28  N   UNL     1     -11.358  11.439  66.597  1.00  0.00    -0.242 N  
HETATM   29  C   UNL     1     -11.983  11.768  68.974  1.00  0.00    -0.341 A  
HETATM   30  O   UNL     1     -11.977  12.480  66.324  1.00  0.00    -0.508 OA 
ENDBRANCH   8  22
ENDBRANCH   3   5
ENDBRANCH   2   3
TORSDOF 7
ENDMDL
MODEL       90
REMARK 921   NORMALIZED FREE ENERGY PREDICTED BY IDOCK:   -4.38 KCAL/MOL
REMARK 922        TOTAL FREE ENERGY PREDICTED BY IDOCK:   -7.23 KCAL/MOL
REMARK 923 INTER-LIGAND FREE ENERGY PREDICTED BY IDOCK:   -6.05 KCAL/MOL
REMARK 924 INTRA-LIGAND FREE ENERGY PREDICTED BY IDOCK:   -1.18 KCAL/MOL
REMARK 927      BINDING AFFINITY PREDICTED BY RF-SCORE:    0.00 PKD
ROOT
HETATM    1  C   UNL     1      -7.844   5.381  65.326  1.00  0.00    -0.097 C  
HETATM    2  O   UNL     1      -8.634   5.877  66.417  1.00  0.00    -0.120 OA 
ENDROOT
BRANCH   2   3
HETATM    3  C   UNL     1      -7.934   6.053  67.567  1.00  0.00    -0.102 C  
HETATM    4  O   UNL     1      -6.731   6.218  67.650  1.00  0.00    -0.056 OA 
BRANCH   3   5
HETATM    5  C   UNL     1      -8.875   6.057  68.718  1.00  0.00    -0.116 C  
HETATM    6  C   UNL     1      -9.541   4.928  69.072  1.00  0.00    -0.157 C  
HETATM    7  N   UNL     1     -10.407   4.924  70.138  1.00  0.00    -0.244 NA 
HETATM    8  C   UNL     1      -9.092   7.388  69.459  1.00  0.00    -0.143 C  
HETATM    9  C   UNL     1     -10.726   6.071  70.860  1.00  0.00    -0.267 C  
HETATM   10  C   UNL     1     -11.728   5.863  71.974  1.00  0.00    -0.255 C  
HETATM   11  C   UNL     1     -10.150   7.274  70.568  1.00  0.00    -0.195 C  
BRANCH   6  12
HETATM   12  C   UNL     1      -9.484   3.704  68.174  1.00  0.00    -0.156 C  
HETATM   13  N   UNL     1      -9.437   2.688  67.428  1.00  0.00    -0.394 NA 
HETATM   14  H2  UNL     1      -9.794   3.430  66.826  1.00  0.00     0.000 HD 
HETATM   15  H1  UNL     1      -9.398   1.866  66.825  1.00  0.00     0.000 HD 
ENDBRANCH   6  12
BRANCH  11  16
HETATM   16  C   UNL     1     -10.603   8.496  71.303  1.00  0.00    -0.234 C  
HETATM   17  O   UNL     1      -9.994   8.950  72.261  1.00  0.00    -0.292 OA 
BRANCH  16  18
HETATM   18  O   UNL     1     -11.747   9.053  70.807  1.00  0.00    -0.281 OA 
BRANCH  18  19
HETATM   19  C   UNL     1     -12.661   9.527  71.833  1.00  0.00    -0.411 C  
HETATM   20  C   UNL     1     -12.943  11.012  71.619  1.00  0.00    -0.561 C  
HETATM   21  C   UNL     1     -13.965   8.736  71.796  1.00  0.00    -0.475 C  
ENDBRANCH  18  19
ENDBRANCH  16  18
ENDBRANCH  11  16
BRANCH   8  22
HETATM   22  C   UNL     1      -9.370   8.555  68.485  1.00  0.00    -0.139 A  
HETATM   23  C   UNL     1      -8.539   9.695  68.511  1.00  0.00    -0.119 A  
HETATM   24  C   UNL     1     -10.447   8.542  67.582  1.00  0.00    -0.308 A  
HETATM   25  C   UNL     1     -10.701   9.641  66.749  1.00  0.00    -0.149 A  
HETATM   26  C   UNL     1      -8.824  10.809  67.700  1.00  0.00    -0.132 A  
HETATM   27  O   UNL     1      -7.062  12.009  68.619  1.00  0.00    -0.091 OA 
HETATM   28  N   UNL     1      -8.012  12.030  67.824  1.00  0.00    -0.137 N  
HETATM   29  C   UNL     1      -9.901  10.782  66.812  1.00  0.00    -0.233 A  
HETATM   30  O   UNL     1      -8.336  13.012  67.136  1.00  0.00    -0.184 OA 
ENDBRANCH   8  22
ENDBRANCH   3   5
ENDBRANCH   2   3
TORSDOF 7
ENDMDL
MODEL       91
REMARK 921   NORMALIZED FREE ENERGY PREDICTED BY IDOCK:   -4.36 KCAL/MOL
REMARK 922        TOTAL FREE ENERGY PREDICTED BY IDOCK:   -7.19 KCAL/MOL
REMARK 923 INTER-LIGAND FREE ENERGY PREDICTED BY IDOCK:   -6.71 KCAL/MOL
REMARK 924 INTRA-LIGAND FREE ENERGY PREDICTED BY IDOCK:   -0.48 KCAL/MOL
REMARK 927      BINDING AFFINITY PREDICTED BY RF-SCORE:    0.00 PKD
ROOT
HETATM    1  C   UNL     1     -12.232  14.066  69.438  1.00  0.00    -0.292 C  
HETATM    2  O   UNL     1     -11.823  13.302  68.294  1.00  0.00    -0.333 OA 
ENDROOT
BRANCH   2   3
HETATM    3  C   UNL     1     -10.550  13.547  67.894  1.00  0.00    -0.248 C  
HETATM    4  O   UNL     1      -9.795  14.367  68.385  1.00  0.00    -0.221 OA 
BRANCH   3   5
HETATM    5  C   UNL     1     -10.197  12.624  66.783  1.00  0.00    -0.246 C  
HETATM    6  C   UNL     1     -10.849  12.693  65.593  1.00  0.00    -0.274 C  
HETATM    7  N   UNL     1     -10.525  11.847  64.561  1.00  0.00    -0.279 NA 
HETATM    8  C   UNL     1      -9.105  11.574  67.045  1.00  0.00    -0.175 C  
HETATM    9  C   UNL     1      -9.589  10.823  64.685  1.00  0.00    -0.268 C  
HETATM   10  C   UNL     1      -9.401   9.980  63.443  1.00  0.00    -0.300 C  
HETATM   11  C   UNL     1      -8.900  10.631  65.847  1.00  0.00    -0.187 C  
BRANCH   6  12
HETATM   12  C   UNL     1     -12.078  13.577  65.454  1.00  0.00    -0.415 C  
HETATM   13  N   UNL     1     -13.097  14.310  65.338  1.00  0.00    -0.635 NA 
HETATM   14  H2  UNL     1     -12.484  14.603  64.577  1.00  0.00     0.000 HD 
HETATM   15  H1  UNL     1     -13.922  14.903  65.245  1.00  0.00     0.000 HD 
ENDBRANCH   6  12
BRANCH  11  16
HETATM   16  C   UNL     1      -7.984   9.455  65.965  1.00  0.00    -0.110 C  
HETATM   17  O   UNL     1      -6.779   9.575  66.136  1.00  0.00    -0.079 OA 
BRANCH  16  18
HETATM   18  O   UNL     1      -8.612   8.246  65.870  1.00  0.00    -0.133 OA 
BRANCH  18  19
HETATM   19  C   UNL     1      -9.155   7.767  67.130  1.00  0.00    -0.134 C  
HETATM   20  C   UNL     1     -10.572   7.243  66.909  1.00  0.00    -0.375 C  
HETATM   21  C   UNL     1      -8.273   6.666  67.710  1.00  0.00    -0.119 C  
ENDBRANCH  18  19
ENDBRANCH  16  18
ENDBRANCH  11  16
BRANCH   8  22
HETATM   22  C   UNL     1      -9.337  10.814  68.370  1.00  0.00    -0.167 A  
HETATM   23  C   UNL     1     -10.654  10.617  68.836  1.00  0.00    -0.241 A  
HETATM   24  C   UNL     1      -8.278  10.330  69.157  1.00  0.00    -0.152 A  
HETATM   25  C   UNL     1      -8.523   9.691  70.381  1.00  0.00    -0.187 A  
HETATM   26  C   UNL     1     -10.891  10.009  70.083  1.00  0.00    -0.311 A  
HETATM   27  O   UNL     1     -13.180  10.338  69.881  1.00  0.00     0.055 OA 
HETATM   28  N   UNL     1     -12.265   9.913  70.601  1.00  0.00    -0.265 N  
HETATM   29  C   UNL     1      -9.826   9.538  70.855  1.00  0.00    -0.279 A  
HETATM   30  O   UNL     1     -12.424   9.428  71.733  1.00  0.00    -0.342 OA 
ENDBRANCH   8  22
ENDBRANCH   3   5
ENDBRANCH   2   3
TORSDOF 7
ENDMDL
MODEL       92
REMARK 921   NORMALIZED FREE ENERGY PREDICTED BY IDOCK:   -4.29 KCAL/MOL
REMARK 922        TOTAL FREE ENERGY PREDICTED BY IDOCK:   -7.09 KCAL/MOL
REMARK 923 INTER-LIGAND FREE ENERGY PREDICTED BY IDOCK:   -5.96 KCAL/MOL
REMARK 924 INTRA-LIGAND FREE ENERGY PREDICTED BY IDOCK:   -1.14 KCAL/MOL
REMARK 927      BINDING AFFINITY PREDICTED BY RF-SCORE:    0.00 PKD
ROOT
HETATM    1  C   UNL     1     -10.568   6.960  73.522  1.00  0.00    -0.348 C  
HETATM    2  O   UNL     1     -10.392   8.033  72.585  1.00  0.00    -0.278 OA 
ENDROOT
BRANCH   2   3
HETATM    3  C   UNL     1     -11.004   7.827  71.391  1.00  0.00    -0.235 C  
HETATM    4  O   UNL     1     -11.591   6.814  71.058  1.00  0.00    -0.300 OA 
BRANCH   3   5
HETATM    5  C   UNL     1     -10.885   9.054  70.560  1.00  0.00    -0.296 C  
HETATM    6  C   UNL     1     -11.702  10.118  70.775  1.00  0.00    -0.357 C  
HETATM    7  N   UNL     1     -11.595  11.256  70.014  1.00  0.00    -0.317 NA 
HETATM    8  C   UNL     1      -9.839   9.055  69.433  1.00  0.00    -0.183 C  
HETATM    9  C   UNL     1     -10.721  11.366  68.934  1.00  0.00    -0.210 C  
HETATM   10  C   UNL     1     -10.780  12.688  68.202  1.00  0.00    -0.242 C  
HETATM   11  C   UNL     1      -9.881  10.345  68.597  1.00  0.00    -0.183 C  
BRANCH   6  12
HETATM   12  C   UNL     1     -12.875   9.988  71.732  1.00  0.00    -0.446 C  
HETATM   13  N   UNL     1     -13.848   9.881  72.527  1.00  0.00    -0.570 NA 
HETATM   14  H2  UNL     1     -13.124  10.349  73.072  1.00  0.00     0.000 HD 
HETATM   15  H1  UNL     1     -14.636   9.795  73.170  1.00  0.00     0.000 HD 
ENDBRANCH   6  12
BRANCH  11  16
HETATM   16  C   UNL     1      -9.038  10.472  67.367  1.00  0.00    -0.139 C  
HETATM   17  O   UNL     1      -9.435  10.136  66.260  1.00  0.00    -0.165 OA 
BRANCH  16  18
HETATM   18  O   UNL     1      -7.797  10.997  67.593  1.00  0.00    -0.110 OA 
BRANCH  18  19
HETATM   19  C   UNL     1      -6.991  10.219  68.519  1.00  0.00    -0.066 C  
HETATM   20  C   UNL     1      -5.842   9.557  67.764  1.00  0.00    -0.044 C  
HETATM   21  C   UNL     1      -6.444  11.108  69.631  1.00  0.00    -0.128 C  
ENDBRANCH  18  19
ENDBRANCH  16  18
ENDBRANCH  11  16
BRANCH   8  22
HETATM   22  C   UNL     1      -9.920   7.779  68.565  1.00  0.00    -0.193 A  
HETATM   23  C   UNL     1      -8.886   6.820  68.640  1.00  0.00    -0.123 A  
HETATM   24  C   UNL     1     -10.979   7.541  67.672  1.00  0.00    -0.093 A  
HETATM   25  C   UNL     1     -10.993   6.397  66.861  1.00  0.00    -0.413 A  
HETATM   26  C   UNL     1      -8.890   5.695  67.796  1.00  0.00    -0.105 A  
HETATM   27  O   UNL     1      -6.834   4.994  68.617  1.00  0.00    -0.049 OA 
HETATM   28  N   UNL     1      -7.747   4.767  67.811  1.00  0.00    -0.082 N  
HETATM   29  C   UNL     1      -9.946   5.476  66.910  1.00  0.00    -0.204 A  
HETATM   30  O   UNL     1      -7.759   3.822  67.006  1.00  0.00    -0.079 OA 
ENDBRANCH   8  22
ENDBRANCH   3   5
ENDBRANCH   2   3
TORSDOF 7
ENDMDL
MODEL       93
REMARK 921   NORMALIZED FREE ENERGY PREDICTED BY IDOCK:   -4.28 KCAL/MOL
REMARK 922        TOTAL FREE ENERGY PREDICTED BY IDOCK:   -7.08 KCAL/MOL
REMARK 923 INTER-LIGAND FREE ENERGY PREDICTED BY IDOCK:   -6.57 KCAL/MOL
REMARK 924 INTRA-LIGAND FREE ENERGY PREDICTED BY IDOCK:   -0.51 KCAL/MOL
REMARK 927      BINDING AFFINITY PREDICTED BY RF-SCORE:    0.00 PKD
ROOT
HETATM    1  C   UNL     1      -6.468   6.954  69.297  1.00  0.00    -0.043 C  
HETATM    2  O   UNL     1      -6.648   8.300  68.833  1.00  0.00    -0.050 OA 
ENDROOT
BRANCH   2   3
HETATM    3  C   UNL     1      -7.164   9.139  69.766  1.00  0.00    -0.062 C  
HETATM    4  O   UNL     1      -7.089   8.995  70.972  1.00  0.00    -0.084 OA 
BRANCH   3   5
HETATM    5  C   UNL     1      -7.804  10.297  69.086  1.00  0.00    -0.127 C  
HETATM    6  C   UNL     1      -7.271  11.542  69.190  1.00  0.00    -0.084 C  
HETATM    7  N   UNL     1      -7.854  12.614  68.560  1.00  0.00    -0.130 NA 
HETATM    8  C   UNL     1      -9.102  10.037  68.302  1.00  0.00    -0.122 C  
HETATM    9  C   UNL     1      -9.055  12.521  67.860  1.00  0.00    -0.199 C  
HETATM   10  C   UNL     1      -9.549  13.823  67.270  1.00  0.00    -0.237 C  
HETATM   11  C   UNL     1      -9.704  11.328  67.725  1.00  0.00    -0.184 C  
BRANCH   6  12
HETATM   12  C   UNL     1      -6.132  11.798  70.163  1.00  0.00    -0.147 C  
HETATM   13  N   UNL     1      -5.187  12.011  70.970  1.00  0.00    -0.172 NA 
HETATM   14  H2  UNL     1      -5.014  12.656  70.198  1.00  0.00     0.000 HD 
HETATM   15  H1  UNL     1      -4.423  12.184  71.623  1.00  0.00     0.000 HD 
ENDBRANCH   6  12
BRANCH  11  16
HETATM   16  C   UNL     1     -11.042  11.299  67.055  1.00  0.00    -0.293 C  
HETATM   17  O   UNL     1     -12.069  11.640  67.623  1.00  0.00    -0.615 OA 
BRANCH  16  18
HETATM   18  O   UNL     1     -11.008  10.865  65.760  1.00  0.00    -0.122 OA 
BRANCH  18  19
HETATM   19  C   UNL     1     -10.995  11.940  64.782  1.00  0.00    -0.312 C  
HETATM   20  C   UNL     1     -10.617  11.380  63.413  1.00  0.00    -0.435 C  
HETATM   21  C   UNL     1     -12.360  12.617  64.712  1.00  0.00    -0.556 C  
ENDBRANCH  18  19
ENDBRANCH  16  18
ENDBRANCH  11  16
BRANCH   8  22
HETATM   22  C   UNL     1     -10.122   9.218  69.126  1.00  0.00    -0.204 A  
HETATM   23  C   UNL     1     -11.001   9.886  70.005  1.00  0.00    -0.338 A  
HETATM   24  C   UNL     1     -10.194   7.816  69.057  1.00  0.00    -0.213 A  
HETATM   25  C   UNL     1     -11.096   7.101  69.858  1.00  0.00    -0.264 A  
HETATM   26  C   UNL     1     -11.876   9.159  70.832  1.00  0.00    -0.270 A  
HETATM   27  O   UNL     1     -12.630  11.104  71.851  1.00  0.00    -0.266 OA 
HETATM   28  N   UNL     1     -12.705   9.867  71.821  1.00  0.00    -0.407 N  
HETATM   29  C   UNL     1     -11.931   7.766  70.756  1.00  0.00    -0.168 A  
HETATM   30  O   UNL     1     -13.416   9.185  72.575  1.00  0.00    -0.464 OA 
ENDBRANCH   8  22
ENDBRANCH   3   5
ENDBRANCH   2   3
TORSDOF 7
ENDMDL
MODEL       94
REMARK 921   NORMALIZED FREE ENERGY PREDICTED BY IDOCK:   -4.28 KCAL/MOL
REMARK 922        TOTAL FREE ENERGY PREDICTED BY IDOCK:   -7.08 KCAL/MOL
REMARK 923 INTER-LIGAND FREE ENERGY PREDICTED BY IDOCK:   -7.91 KCAL/MOL
REMARK 924 INTRA-LIGAND FREE ENERGY PREDICTED BY IDOCK:    0.83 KCAL/MOL
REMARK 927      BINDING AFFINITY PREDICTED BY RF-SCORE:    0.00 PKD
ROOT
HETATM    1  C   UNL     1     -10.206  17.932  69.243  1.00  0.00    -0.076 C  
HETATM    2  O   UNL     1     -10.619  16.748  68.546  1.00  0.00    -0.313 OA 
ENDROOT
BRANCH   2   3
HETATM    3  C   UNL     1      -9.649  15.805  68.439  1.00  0.00    -0.200 C  
HETATM    4  O   UNL     1      -8.717  15.652  69.208  1.00  0.00    -0.240 OA 
BRANCH   3   5
HETATM    5  C   UNL     1      -9.922  14.951  67.253  1.00  0.00    -0.230 C  
HETATM    6  C   UNL     1     -10.132  15.508  66.033  1.00  0.00    -0.332 C  
HETATM    7  N   UNL     1     -10.380  14.725  64.932  1.00  0.00    -0.388 NA 
HETATM    8  C   UNL     1      -9.997  13.430  67.470  1.00  0.00    -0.230 C  
HETATM    9  C   UNL     1     -10.519  13.340  65.003  1.00  0.00    -0.353 C  
HETATM   10  C   UNL     1     -10.826  12.664  63.685  1.00  0.00    -0.437 C  
HETATM   11  C   UNL     1     -10.371  12.674  66.185  1.00  0.00    -0.273 C  
BRANCH   6  12
HETATM   12  C   UNL     1     -10.288  17.014  65.906  1.00  0.00    -0.298 C  
HETATM   13  N   UNL     1     -10.418  18.264  65.800  1.00  0.00    -0.617 NA 
HETATM   14  H2  UNL     1     -11.374  17.910  65.833  1.00  0.00     0.000 HD 
HETATM   15  H1  UNL     1     -10.522  19.276  65.715  1.00  0.00     0.000 HD 
ENDBRANCH   6  12
BRANCH  11  16
HETATM   16  C   UNL     1     -10.634  11.202  66.228  1.00  0.00    -0.253 C  
HETATM   17  O   UNL     1     -11.764  10.734  66.210  1.00  0.00     0.264 OA 
BRANCH  16  18
HETATM   18  O   UNL     1      -9.505  10.435  66.284  1.00  0.00    -0.161 OA 
BRANCH  18  19
HETATM   19  C   UNL     1      -9.753   9.013  66.107  1.00  0.00    -0.283 C  
HETATM   20  C   UNL     1      -8.533   8.359  65.463  1.00  0.00    -0.184 C  
HETATM   21  C   UNL     1     -10.056   8.352  67.448  1.00  0.00    -0.301 C  
ENDBRANCH  18  19
ENDBRANCH  16  18
ENDBRANCH  11  16
BRANCH   8  22
HETATM   22  C   UNL     1     -10.902  13.059  68.666  1.00  0.00    -0.287 A  
HETATM   23  C   UNL     1     -11.741  14.041  69.234  1.00  0.00    -0.372 A  
HETATM   24  C   UNL     1     -10.906  11.775  69.239  1.00  0.00    -0.185 A  
HETATM   25  C   UNL     1     -11.701  11.488  70.357  1.00  0.00    -0.328 A  
HETATM   26  C   UNL     1     -12.507  13.756  70.379  1.00  0.00    -0.314 A  
HETATM   27  O   UNL     1     -13.276  15.943  70.489  1.00  0.00    -0.384 OA 
HETATM   28  N   UNL     1     -13.288  14.824  71.022  1.00  0.00    -0.384 N  
HETATM   29  C   UNL     1     -12.494  12.476  70.940  1.00  0.00    -0.361 A  
HETATM   30  O   UNL     1     -13.899  14.547  72.067  1.00  0.00    -0.387 OA 
ENDBRANCH   8  22
ENDBRANCH   3   5
ENDBRANCH   2   3
TORSDOF 7
ENDMDL
MODEL       95
REMARK 921   NORMALIZED FREE ENERGY PREDICTED BY IDOCK:   -4.27 KCAL/MOL
REMARK 922        TOTAL FREE ENERGY PREDICTED BY IDOCK:   -7.07 KCAL/MOL
REMARK 923 INTER-LIGAND FREE ENERGY PREDICTED BY IDOCK:   -6.03 KCAL/MOL
REMARK 924 INTRA-LIGAND FREE ENERGY PREDICTED BY IDOCK:   -1.04 KCAL/MOL
REMARK 927      BINDING AFFINITY PREDICTED BY RF-SCORE:    0.00 PKD
ROOT
HETATM    1  C   UNL     1      -9.563  15.529  69.692  1.00  0.00    -0.262 C  
HETATM    2  O   UNL     1      -9.587  14.287  68.974  1.00  0.00    -0.134 OA 
ENDROOT
BRANCH   2   3
HETATM    3  C   UNL     1      -8.590  14.158  68.063  1.00  0.00    -0.172 C  
HETATM    4  O   UNL     1      -7.435  14.511  68.217  1.00  0.00    -0.104 OA 
BRANCH   3   5
HETATM    5  C   UNL     1      -9.116  13.475  66.851  1.00  0.00    -0.246 C  
HETATM    6  C   UNL     1      -9.891  14.146  65.960  1.00  0.00    -0.309 C  
HETATM    7  N   UNL     1     -10.376  13.522  64.837  1.00  0.00    -0.381 NA 
HETATM    8  C   UNL     1      -8.784  11.984  66.671  1.00  0.00    -0.171 C  
HETATM    9  C   UNL     1     -10.187  12.165  64.581  1.00  0.00    -0.284 C  
HETATM   10  C   UNL     1     -10.830  11.663  63.308  1.00  0.00    -0.380 C  
HETATM   11  C   UNL     1      -9.460  11.381  65.429  1.00  0.00    -0.240 C  
BRANCH   6  12
HETATM   12  C   UNL     1     -10.392  15.541  66.294  1.00  0.00    -0.302 C  
HETATM   13  N   UNL     1     -10.808  16.698  66.571  1.00  0.00    -0.104 NA 
HETATM   14  H2  UNL     1     -11.445  16.073  67.066  1.00  0.00     0.000 HD 
HETATM   15  H1  UNL     1     -11.145  17.635  66.795  1.00  0.00     0.000 HD 
ENDBRANCH   6  12
BRANCH  11  16
HETATM   16  C   UNL     1      -9.374   9.910  65.166  1.00  0.00    -0.258 C  
HETATM   17  O   UNL     1     -10.069   9.095  65.755  1.00  0.00    -0.229 OA 
BRANCH  16  18
HETATM   18  O   UNL     1      -8.459   9.567  64.212  1.00  0.00    -0.159 OA 
BRANCH  18  19
HETATM   19  C   UNL     1      -7.078   9.692  64.652  1.00  0.00    -0.120 C  
HETATM   20  C   UNL     1      -6.596   8.355  65.207  1.00  0.00    -0.056 C  
HETATM   21  C   UNL     1      -6.186  10.133  63.496  1.00  0.00    -0.138 C  
ENDBRANCH  18  19
ENDBRANCH  16  18
ENDBRANCH  11  16
BRANCH   8  22
HETATM   22  C   UNL     1      -9.059  11.169  67.955  1.00  0.00    -0.153 A  
HETATM   23  C   UNL     1     -10.374  11.096  68.463  1.00  0.00    -0.207 A  
HETATM   24  C   UNL     1      -8.039  10.513  68.665  1.00  0.00    -0.127 A  
HETATM   25  C   UNL     1      -8.317   9.827  69.856  1.00  0.00    -0.198 A  
HETATM   26  C   UNL     1     -10.638  10.438  69.678  1.00  0.00    -0.253 A  
HETATM   27  O   UNL     1     -12.877  11.044  69.594  1.00  0.00    -0.168 OA 
HETATM   28  N   UNL     1     -11.995  10.468  70.247  1.00  0.00    -0.301 N  
HETATM   29  C   UNL     1      -9.611   9.796  70.374  1.00  0.00    -0.223 A  
HETATM   30  O   UNL     1     -12.172   9.930  71.352  1.00  0.00    -0.352 OA 
ENDBRANCH   8  22
ENDBRANCH   3   5
ENDBRANCH   2   3
TORSDOF 7
ENDMDL
MODEL       96
REMARK 921   NORMALIZED FREE ENERGY PREDICTED BY IDOCK:   -4.25 KCAL/MOL
REMARK 922        TOTAL FREE ENERGY PREDICTED BY IDOCK:   -7.04 KCAL/MOL
REMARK 923 INTER-LIGAND FREE ENERGY PREDICTED BY IDOCK:   -5.53 KCAL/MOL
REMARK 924 INTRA-LIGAND FREE ENERGY PREDICTED BY IDOCK:   -1.51 KCAL/MOL
REMARK 927      BINDING AFFINITY PREDICTED BY RF-SCORE:    0.00 PKD
ROOT
HETATM    1  C   UNL     1      -7.645   9.954  64.548  1.00  0.00    -0.139 C  
HETATM    2  O   UNL     1      -8.132  10.157  65.882  1.00  0.00    -0.125 OA 
ENDROOT
BRANCH   2   3
HETATM    3  C   UNL     1      -9.463   9.933  66.022  1.00  0.00    -0.202 C  
HETATM    4  O   UNL     1     -10.281   9.916  65.119  1.00  0.00    -0.249 OA 
BRANCH   3   5
HETATM    5  C   UNL     1      -9.770   9.667  67.452  1.00  0.00    -0.198 C  
HETATM    6  C   UNL     1      -9.546  10.617  68.396  1.00  0.00    -0.168 C  
HETATM    7  N   UNL     1      -9.831  10.380  69.718  1.00  0.00    -0.158 NA 
HETATM    8  C   UNL     1     -10.307   8.274  67.821  1.00  0.00    -0.296 C  
HETATM    9  C   UNL     1     -10.277   9.146  70.189  1.00  0.00    -0.205 C  
HETATM   10  C   UNL     1     -10.499   9.078  71.683  1.00  0.00    -0.426 C  
HETATM   11  C   UNL     1     -10.497   8.103  69.337  1.00  0.00    -0.223 C  
BRANCH   6  12
HETATM   12  C   UNL     1      -8.795  11.886  68.029  1.00  0.00    -0.177 C  
HETATM   13  N   UNL     1      -8.172  12.939  67.723  1.00  0.00    -0.160 NA 
HETATM   14  H2  UNL     1      -7.990  12.301  66.948  1.00  0.00     0.000 HD 
HETATM   15  H1  UNL     1      -7.668  13.791  67.476  1.00  0.00     0.000 HD 
ENDBRANCH   6  12
BRANCH  11  16
HETATM   16  C   UNL     1     -10.874   6.770  69.902  1.00  0.00    -0.266 C  
HETATM   17  O   UNL     1     -12.027   6.362  69.914  1.00  0.00    -0.304 OA 
BRANCH  16  18
HETATM   18  O   UNL     1      -9.819   6.054  70.394  1.00  0.00    -0.172 OA 
BRANCH  18  19
HETATM   19  C   UNL     1     -10.075   4.627  70.494  1.00  0.00    -0.192 C  
HETATM   20  C   UNL     1      -9.208   3.880  69.484  1.00  0.00    -0.226 C  
HETATM   21  C   UNL     1      -9.783   4.128  71.906  1.00  0.00    -0.235 C  
ENDBRANCH  18  19
ENDBRANCH  16  18
ENDBRANCH  11  16
BRANCH   8  22
HETATM   22  C   UNL     1      -9.461   7.142  67.194  1.00  0.00    -0.180 A  
HETATM   23  C   UNL     1     -10.080   6.199  66.347  1.00  0.00    -0.119 A  
HETATM   24  C   UNL     1      -8.088   6.993  67.458  1.00  0.00    -0.113 A  
HETATM   25  C   UNL     1      -7.363   5.923  66.914  1.00  0.00    -0.079 A  
HETATM   26  C   UNL     1      -9.354   5.108  65.836  1.00  0.00    -0.159 A  
HETATM   27  O   UNL     1     -11.252   4.238  64.820  1.00  0.00    -0.310 OA 
HETATM   28  N   UNL     1     -10.044   4.075  65.047  1.00  0.00    -0.207 N  
HETATM   29  C   UNL     1      -7.992   4.971  66.113  1.00  0.00    -0.107 A  
HETATM   30  O   UNL     1      -9.381   3.096  64.669  1.00  0.00    -0.137 OA 
ENDBRANCH   8  22
ENDBRANCH   3   5
ENDBRANCH   2   3
TORSDOF 7
ENDMDL
MODEL       97
REMARK 921   NORMALIZED FREE ENERGY PREDICTED BY IDOCK:   -4.25 KCAL/MOL
REMARK 922        TOTAL FREE ENERGY PREDICTED BY IDOCK:   -7.03 KCAL/MOL
REMARK 923 INTER-LIGAND FREE ENERGY PREDICTED BY IDOCK:   -6.69 KCAL/MOL
REMARK 924 INTRA-LIGAND FREE ENERGY PREDICTED BY IDOCK:   -0.34 KCAL/MOL
REMARK 927      BINDING AFFINITY PREDICTED BY RF-SCORE:    0.00 PKD
ROOT
HETATM    1  C   UNL     1     -11.991  11.123  69.477  1.00  0.00    -0.355 C  
HETATM    2  O   UNL     1     -11.561  12.350  68.869  1.00  0.00    -0.270 OA 
ENDROOT
BRANCH   2   3
HETATM    3  C   UNL     1     -11.225  12.228  67.560  1.00  0.00    -0.297 C  
HETATM    4  O   UNL     1     -11.156  11.184  66.937  1.00  0.00    -0.289 OA 
BRANCH   3   5
HETATM    5  C   UNL     1     -10.993  13.579  66.984  1.00  0.00    -0.297 C  
HETATM    6  C   UNL     1     -11.706  14.005  65.909  1.00  0.00    -0.366 C  
HETATM    7  N   UNL     1     -11.500  15.253  65.375  1.00  0.00    -0.245 NA 
HETATM    8  C   UNL     1      -9.896  14.449  67.621  1.00  0.00    -0.224 C  
HETATM    9  C   UNL     1     -10.507  16.118  65.829  1.00  0.00    -0.367 C  
HETATM   10  C   UNL     1     -10.419  17.432  65.085  1.00  0.00     0.290 C  
HETATM   11  C   UNL     1      -9.700  15.780  66.877  1.00  0.00    -0.240 C  
BRANCH   6  12
HETATM   12  C   UNL     1     -12.605  13.032  65.165  1.00  0.00    -0.469 C  
HETATM   13  N   UNL     1     -13.351  12.224  64.547  1.00  0.00    -0.619 NA 
HETATM   14  H2  UNL     1     -13.894  12.498  65.367  1.00  0.00     0.000 HD 
HETATM   15  H1  UNL     1     -13.955  11.571  64.047  1.00  0.00     0.000 HD 
ENDBRANCH   6  12
BRANCH  11  16
HETATM   16  C   UNL     1      -8.581  16.697  67.259  1.00  0.00    -0.191 C  
HETATM   17  O   UNL     1      -7.509  16.707  66.670  1.00  0.00    -0.227 OA 
BRANCH  16  18
HETATM   18  O   UNL     1      -8.867  17.516  68.313  1.00  0.00    -0.258 OA 
BRANCH  18  19
HETATM   19  C   UNL     1      -8.688  18.929  68.022  1.00  0.00    -0.299 C  
HETATM   20  C   UNL     1      -9.942  19.697  68.431  1.00  0.00    -0.543 C  
HETATM   21  C   UNL     1      -7.473  19.479  68.762  1.00  0.00    -0.387 C  
ENDBRANCH  18  19
ENDBRANCH  16  18
ENDBRANCH  11  16
BRANCH   8  22
HETATM   22  C   UNL     1      -8.575  13.670  67.809  1.00  0.00    -0.182 A  
HETATM   23  C   UNL     1      -8.282  12.581  66.959  1.00  0.00    -0.125 A  
HETATM   24  C   UNL     1      -7.652  13.985  68.821  1.00  0.00    -0.113 A  
HETATM   25  C   UNL     1      -6.488  13.223  68.997  1.00  0.00    -0.102 A  
HETATM   26  C   UNL     1      -7.131  11.799  67.166  1.00  0.00    -0.146 A  
HETATM   27  O   UNL     1      -7.726  10.356  65.448  1.00  0.00    -0.144 OA 
HETATM   28  N   UNL     1      -6.902  10.602  66.341  1.00  0.00    -0.121 N  
HETATM   29  C   UNL     1      -6.228  12.122  68.181  1.00  0.00    -0.055 A  
HETATM   30  O   UNL     1      -5.908   9.904  66.597  1.00  0.00    -0.052 OA 
ENDBRANCH   8  22
ENDBRANCH   3   5
ENDBRANCH   2   3
TORSDOF 7
ENDMDL
MODEL       98
REMARK 921   NORMALIZED FREE ENERGY PREDICTED BY IDOCK:   -4.22 KCAL/MOL
REMARK 922        TOTAL FREE ENERGY PREDICTED BY IDOCK:   -7.00 KCAL/MOL
REMARK 923 INTER-LIGAND FREE ENERGY PREDICTED BY IDOCK:   -5.99 KCAL/MOL
REMARK 924 INTRA-LIGAND FREE ENERGY PREDICTED BY IDOCK:   -1.02 KCAL/MOL
REMARK 927      BINDING AFFINITY PREDICTED BY RF-SCORE:    0.00 PKD
ROOT
HETATM    1  C   UNL     1      -8.716   5.037  68.352  1.00  0.00    -0.101 C  
HETATM    2  O   UNL     1      -8.787   6.376  67.841  1.00  0.00    -0.115 OA 
ENDROOT
BRANCH   2   3
HETATM    3  C   UNL     1     -10.039   6.765  67.491  1.00  0.00    -0.170 C  
HETATM    4  O   UNL     1     -11.048   6.089  67.586  1.00  0.00    -0.297 OA 
BRANCH   3   5
HETATM    5  C   UNL     1     -10.000   8.171  67.008  1.00  0.00    -0.329 C  
HETATM    6  C   UNL     1      -9.298   8.500  65.892  1.00  0.00    -0.163 C  
HETATM    7  N   UNL     1      -9.262   9.796  65.438  1.00  0.00    -0.208 NA 
HETATM    8  C   UNL     1     -10.744   9.232  67.836  1.00  0.00    -0.248 C  
HETATM    9  C   UNL     1      -9.854  10.856  66.122  1.00  0.00    -0.222 C  
HETATM   10  C   UNL     1      -9.670  12.211  65.475  1.00  0.00    -0.197 C  
HETATM   11  C   UNL     1     -10.551  10.652  67.277  1.00  0.00    -0.313 C  
BRANCH   6  12
HETATM   12  C   UNL     1      -8.386   7.474  65.243  1.00  0.00    -0.106 C  
HETATM   13  N   UNL     1      -7.629   6.621  64.704  1.00  0.00    -0.097 NA 
HETATM   14  H2  UNL     1      -8.269   6.069  65.275  1.00  0.00     0.000 HD 
HETATM   15  H1  UNL     1      -7.016   5.932  64.268  1.00  0.00     0.000 HD 
ENDBRANCH   6  12
BRANCH  11  16
HETATM   16  C   UNL     1     -11.077  11.833  68.028  1.00  0.00    -0.242 C  
HETATM   17  O   UNL     1     -12.262  12.136  68.032  1.00  0.00    -0.419 OA 
BRANCH  16  18
HETATM   18  O   UNL     1     -10.122  12.534  68.708  1.00  0.00    -0.166 OA 
BRANCH  18  19
HETATM   19  C   UNL     1     -10.195  13.972  68.505  1.00  0.00    -0.237 C  
HETATM   20  C   UNL     1     -10.898  14.619  69.695  1.00  0.00    -0.211 C  
HETATM   21  C   UNL     1      -8.798  14.561  68.338  1.00  0.00    -0.180 C  
ENDBRANCH  18  19
ENDBRANCH  16  18
ENDBRANCH  11  16
BRANCH   8  22
HETATM   22  C   UNL     1     -10.410   9.132  69.341  1.00  0.00    -0.220 A  
HETATM   23  C   UNL     1      -9.063   9.194  69.760  1.00  0.00    -0.173 A  
HETATM   24  C   UNL     1     -11.400   8.952  70.323  1.00  0.00    -0.179 A  
HETATM   25  C   UNL     1     -11.056   8.812  71.675  1.00  0.00    -0.398 A  
HETATM   26  C   UNL     1      -8.724   9.015  71.113  1.00  0.00    -0.203 A  
HETATM   27  O   UNL     1      -6.458   9.146  70.628  1.00  0.00    -0.051 OA 
HETATM   28  N   UNL     1      -7.308   8.971  71.513  1.00  0.00    -0.053 N  
HETATM   29  C   UNL     1      -9.719   8.831  72.075  1.00  0.00    -0.370 A  
HETATM   30  O   UNL     1      -7.050   8.748  72.706  1.00  0.00    -0.319 OA 
ENDBRANCH   8  22
ENDBRANCH   3   5
ENDBRANCH   2   3
TORSDOF 7
ENDMDL
MODEL       99
REMARK 921   NORMALIZED FREE ENERGY PREDICTED BY IDOCK:   -4.22 KCAL/MOL
REMARK 922        TOTAL FREE ENERGY PREDICTED BY IDOCK:   -7.00 KCAL/MOL
REMARK 923 INTER-LIGAND FREE ENERGY PREDICTED BY IDOCK:   -6.23 KCAL/MOL
REMARK 924 INTRA-LIGAND FREE ENERGY PREDICTED BY IDOCK:   -0.76 KCAL/MOL
REMARK 927      BINDING AFFINITY PREDICTED BY RF-SCORE:    0.00 PKD
ROOT
HETATM    1  C   UNL     1     -12.052  13.609  69.098  1.00  0.00    -0.319 C  
HETATM    2  O   UNL     1     -11.450  12.441  68.522  1.00  0.00    -0.257 OA 
ENDROOT
BRANCH   2   3
HETATM    3  C   UNL     1     -10.123  12.574  68.270  1.00  0.00    -0.228 C  
HETATM    4  O   UNL     1      -9.401  13.453  68.703  1.00  0.00    -0.133 OA 
BRANCH   3   5
HETATM    5  C   UNL     1      -9.670  11.447  67.412  1.00  0.00    -0.196 C  
HETATM    6  C   UNL     1      -9.958  11.429  66.084  1.00  0.00    -0.227 C  
HETATM    7  N   UNL     1      -9.539  10.394  65.285  1.00  0.00    -0.235 NA 
HETATM    8  C   UNL     1      -8.907  10.296  68.088  1.00  0.00    -0.123 C  
HETATM    9  C   UNL     1      -8.881   9.270  65.782  1.00  0.00    -0.177 C  
HETATM   10  C   UNL     1      -8.535   8.226  64.744  1.00  0.00    -0.089 C  
HETATM   11  C   UNL     1      -8.576   9.158  67.107  1.00  0.00    -0.122 C  
BRANCH   6  12
HETATM   12  C   UNL     1     -10.914  12.458  65.504  1.00  0.00    -0.293 C  
HETATM   13  N   UNL     1     -11.708  13.312  65.023  1.00  0.00    -0.321 NA 
HETATM   14  H2  UNL     1     -11.723  13.486  66.028  1.00  0.00     0.000 HD 
HETATM   15  H1  UNL     1     -12.350  14.003  64.634  1.00  0.00     0.000 HD 
ENDBRANCH   6  12
BRANCH  11  16
HETATM   16  C   UNL     1      -7.964   7.888  67.608  1.00  0.00    -0.124 C  
HETATM   17  O   UNL     1      -6.888   7.861  68.189  1.00  0.00    -0.064 OA 
BRANCH  16  18
HETATM   18  O   UNL     1      -8.714   6.773  67.363  1.00  0.00    -0.119 OA 
BRANCH  18  19
HETATM   19  C   UNL     1      -9.868   6.640  68.238  1.00  0.00    -0.137 C  
HETATM   20  C   UNL     1     -11.116   6.378  67.399  1.00  0.00    -0.412 C  
HETATM   21  C   UNL     1      -9.657   5.504  69.233  1.00  0.00    -0.184 C  
ENDBRANCH  18  19
ENDBRANCH  16  18
ENDBRANCH  11  16
BRANCH   8  22
HETATM   22  C   UNL     1      -9.623   9.795  69.363  1.00  0.00    -0.218 A  
HETATM   23  C   UNL     1      -8.859   9.444  70.496  1.00  0.00    -0.287 A  
HETATM   24  C   UNL     1     -11.018   9.646  69.434  1.00  0.00    -0.215 A  
HETATM   25  C   UNL     1     -11.630   9.139  70.589  1.00  0.00    -0.282 A  
HETATM   26  C   UNL     1      -9.477   8.901  71.637  1.00  0.00    -0.281 A  
HETATM   27  O   UNL     1      -7.426   8.592  72.680  1.00  0.00    -0.315 OA 
HETATM   28  N   UNL     1      -8.652   8.437  72.765  1.00  0.00    -0.196 N  
HETATM   29  C   UNL     1     -10.864   8.753  71.690  1.00  0.00    -0.399 A  
HETATM   30  O   UNL     1      -9.232   7.905  73.725  1.00  0.00    -0.281 OA 
ENDBRANCH   8  22
ENDBRANCH   3   5
ENDBRANCH   2   3
TORSDOF 7
ENDMDL
MODEL      100
REMARK 921   NORMALIZED FREE ENERGY PREDICTED BY IDOCK:   -4.22 KCAL/MOL
REMARK 922        TOTAL FREE ENERGY PREDICTED BY IDOCK:   -7.00 KCAL/MOL
REMARK 923 INTER-LIGAND FREE ENERGY PREDICTED BY IDOCK:   -5.91 KCAL/MOL
REMARK 924 INTRA-LIGAND FREE ENERGY PREDICTED BY IDOCK:   -1.09 KCAL/MOL
REMARK 927      BINDING AFFINITY PREDICTED BY RF-SCORE:    0.00 PKD
ROOT
HETATM    1  C   UNL     1      -7.237  10.310  65.801  1.00  0.00    -0.133 C  
HETATM    2  O   UNL     1      -8.150  10.724  66.827  1.00  0.00    -0.126 OA 
ENDROOT
BRANCH   2   3
HETATM    3  C   UNL     1      -9.456  10.523  66.516  1.00  0.00    -0.166 C  
HETATM    4  O   UNL     1      -9.874  10.036  65.482  1.00  0.00    -0.268 OA 
BRANCH   3   5
HETATM    5  C   UNL     1     -10.305  10.954  67.658  1.00  0.00    -0.232 C  
HETATM    6  C   UNL     1     -10.748  12.235  67.747  1.00  0.00    -0.217 C  
HETATM    7  N   UNL     1     -11.536  12.638  68.797  1.00  0.00    -0.291 NA 
HETATM    8  C   UNL     1     -10.625   9.912  68.744  1.00  0.00    -0.246 C  
HETATM    9  C   UNL     1     -11.859  11.806  69.867  1.00  0.00    -0.348 C  
HETATM   10  C   UNL     1     -12.708  12.450  70.939  1.00  0.00    -0.273 C  
HETATM   11  C   UNL     1     -11.434  10.509  69.907  1.00  0.00    -0.384 C  
BRANCH   6  12
HETATM   12  C   UNL     1     -10.215  13.287  66.789  1.00  0.00    -0.254 C  
HETATM   13  N   UNL     1      -9.774  14.160  65.993  1.00  0.00    -0.417 NA 
HETATM   14  H2  UNL     1     -10.351  13.552  65.411  1.00  0.00     0.000 HD 
HETATM   15  H1  UNL     1      -9.417  14.867  65.349  1.00  0.00     0.000 HD 
ENDBRANCH   6  12
BRANCH  11  16
HETATM   16  C   UNL     1     -11.717   9.689  71.125  1.00  0.00    -0.372 C  
HETATM   17  O   UNL     1     -10.959   9.653  72.085  1.00  0.00     0.210 OA 
BRANCH  16  18
HETATM   18  O   UNL     1     -12.891   8.993  71.069  1.00  0.00    -0.210 OA 
BRANCH  18  19
HETATM   19  C   UNL     1     -12.777   7.614  71.514  1.00  0.00    -0.345 C  
HETATM   20  C   UNL     1     -14.170   7.008  71.660  1.00  0.00    -0.433 C  
HETATM   21  C   UNL     1     -11.951   6.798  70.525  1.00  0.00    -0.385 C  
ENDBRANCH  18  19
ENDBRANCH  16  18
ENDBRANCH  11  16
BRANCH   8  22
HETATM   22  C   UNL     1      -9.360   9.163  69.219  1.00  0.00    -0.157 A  
HETATM   23  C   UNL     1      -9.206   7.794  68.912  1.00  0.00    -0.140 A  
HETATM   24  C   UNL     1      -8.355   9.788  69.978  1.00  0.00    -0.211 A  
HETATM   25  C   UNL     1      -7.245   9.064  70.438  1.00  0.00    -0.069 A  
HETATM   26  C   UNL     1      -8.109   7.067  69.409  1.00  0.00    -0.130 A  
HETATM   27  O   UNL     1      -8.919   5.095  68.490  1.00  0.00    -0.103 OA 
HETATM   28  N   UNL     1      -8.025   5.617  69.172  1.00  0.00    -0.095 N  
HETATM   29  C   UNL     1      -7.123   7.701  70.167  1.00  0.00    -0.059 A  
HETATM   30  O   UNL     1      -7.076   5.001  69.682  1.00  0.00    -0.052 OA 
ENDBRANCH   8  22
ENDBRANCH   3   5
ENDBRANCH   2   3
TORSDOF 7
ENDMDL
MODEL      101
REMARK 921   NORMALIZED FREE ENERGY PREDICTED BY IDOCK:   -4.22 KCAL/MOL
REMARK 922        TOTAL FREE ENERGY PREDICTED BY IDOCK:   -6.99 KCAL/MOL
REMARK 923 INTER-LIGAND FREE ENERGY PREDICTED BY IDOCK:   -5.90 KCAL/MOL
REMARK 924 INTRA-LIGAND FREE ENERGY PREDICTED BY IDOCK:   -1.09 KCAL/MOL
REMARK 927      BINDING AFFINITY PREDICTED BY RF-SCORE:    0.00 PKD
ROOT
HETATM    1  C   UNL     1      -7.756  13.081  67.896  1.00  0.00    -0.145 C  
HETATM    2  O   UNL     1      -7.256  11.966  67.143  1.00  0.00    -0.137 OA 
ENDROOT
BRANCH   2   3
HETATM    3  C   UNL     1      -6.979  10.873  67.897  1.00  0.00    -0.073 C  
HETATM    4  O   UNL     1      -6.482  10.882  69.009  1.00  0.00    -0.049 OA 
BRANCH   3   5
HETATM    5  C   UNL     1      -7.419   9.651  67.172  1.00  0.00    -0.088 C  
HETATM    6  C   UNL     1      -6.878   9.329  65.968  1.00  0.00    -0.088 C  
HETATM    7  N   UNL     1      -7.276   8.200  65.295  1.00  0.00    -0.067 NA 
HETATM    8  C   UNL     1      -8.526   8.798  67.813  1.00  0.00    -0.125 C  
HETATM    9  C   UNL     1      -8.301   7.370  65.745  1.00  0.00    -0.139 C  
HETATM   10  C   UNL     1      -8.612   6.198  64.842  1.00  0.00     0.025 C  
HETATM   11  C   UNL     1      -8.946   7.618  66.921  1.00  0.00    -0.156 C  
BRANCH   6  12
HETATM   12  C   UNL     1      -5.966  10.317  65.260  1.00  0.00    -0.127 C  
HETATM   13  N   UNL     1      -5.209  11.137  64.672  1.00  0.00    -0.496 NA 
HETATM   14  H2  UNL     1      -4.671  10.271  64.706  1.00  0.00     0.000 HD 
HETATM   15  H1  UNL     1      -4.597  11.801  64.197  1.00  0.00     0.000 HD 
ENDBRANCH   6  12
BRANCH  11  16
HETATM   16  C   UNL     1     -10.109   6.760  67.308  1.00  0.00    -0.182 C  
HETATM   17  O   UNL     1     -11.243   6.966  66.900  1.00  0.00    -0.353 OA 
BRANCH  16  18
HETATM   18  O   UNL     1      -9.789   5.733  68.149  1.00  0.00    -0.122 OA 
BRANCH  18  19
HETATM   19  C   UNL     1      -9.768   6.109  69.553  1.00  0.00    -0.146 C  
HETATM   20  C   UNL     1     -11.180   6.022  70.126  1.00  0.00    -0.412 C  
HETATM   21  C   UNL     1      -8.827   5.199  70.337  1.00  0.00    -0.148 C  
ENDBRANCH  18  19
ENDBRANCH  16  18
ENDBRANCH  11  16
BRANCH   8  22
HETATM   22  C   UNL     1      -9.727   9.657  68.272  1.00  0.00    -0.162 A  
HETATM   23  C   UNL     1     -10.230   9.505  69.582  1.00  0.00    -0.234 A  
HETATM   24  C   UNL     1     -10.366  10.575  67.421  1.00  0.00    -0.269 A  
HETATM   25  C   UNL     1     -11.485  11.299  67.853  1.00  0.00    -0.360 A  
HETATM   26  C   UNL     1     -11.376  10.207  69.996  1.00  0.00    -0.287 A  
HETATM   27  O   UNL     1     -11.359   9.146  72.060  1.00  0.00    -0.366 OA 
HETATM   28  N   UNL     1     -11.950   9.951  71.326  1.00  0.00    -0.374 N  
HETATM   29  C   UNL     1     -12.003  11.111  69.135  1.00  0.00    -0.413 A  
HETATM   30  O   UNL     1     -12.998  10.544  71.628  1.00  0.00    -0.412 OA 
ENDBRANCH   8  22
ENDBRANCH   3   5
ENDBRANCH   2   3
TORSDOF 7
ENDMDL
MODEL      102
REMARK 921   NORMALIZED FREE ENERGY PREDICTED BY IDOCK:   -4.21 KCAL/MOL
REMARK 922        TOTAL FREE ENERGY PREDICTED BY IDOCK:   -6.99 KCAL/MOL
REMARK 923 INTER-LIGAND FREE ENERGY PREDICTED BY IDOCK:   -5.61 KCAL/MOL
REMARK 924 INTRA-LIGAND FREE ENERGY PREDICTED BY IDOCK:   -1.38 KCAL/MOL
REMARK 927      BINDING AFFINITY PREDICTED BY RF-SCORE:    0.00 PKD
ROOT
HETATM    1  C   UNL     1     -12.152  13.490  69.939  1.00  0.00    -0.341 C  
HETATM    2  O   UNL     1     -11.648  12.197  70.307  1.00  0.00    -0.208 OA 
ENDROOT
BRANCH   2   3
HETATM    3  C   UNL     1     -11.717  11.277  69.313  1.00  0.00    -0.334 C  
HETATM    4  O   UNL     1     -12.728  10.719  68.927  1.00  0.00    -0.153 OA 
BRANCH   3   5
HETATM    5  C   UNL     1     -10.362  11.081  68.731  1.00  0.00    -0.217 C  
HETATM    6  C   UNL     1     -10.019  11.678  67.560  1.00  0.00    -0.187 C  
HETATM    7  N   UNL     1      -8.769  11.505  67.019  1.00  0.00    -0.162 NA 
HETATM    8  C   UNL     1      -9.390  10.153  69.478  1.00  0.00    -0.230 C  
HETATM    9  C   UNL     1      -7.814  10.654  67.572  1.00  0.00    -0.106 C  
HETATM   10  C   UNL     1      -6.513  10.575  66.806  1.00  0.00    -0.081 C  
HETATM   11  C   UNL     1      -8.062   9.968  68.726  1.00  0.00    -0.106 C  
BRANCH   6  12
HETATM   12  C   UNL     1     -11.079  12.387  66.734  1.00  0.00    -0.285 C  
HETATM   13  N   UNL     1     -11.959  12.977  66.049  1.00  0.00    -0.421 NA 
HETATM   14  H2  UNL     1     -11.451  13.730  66.515  1.00  0.00     0.000 HD 
HETATM   15  H1  UNL     1     -12.670  13.454  65.495  1.00  0.00     0.000 HD 
ENDBRANCH   6  12
BRANCH  11  16
HETATM   16  C   UNL     1      -7.047   8.988  69.222  1.00  0.00    -0.058 C  
HETATM   17  O   UNL     1      -6.492   9.108  70.305  1.00  0.00    -0.041 OA 
BRANCH  16  18
HETATM   18  O   UNL     1      -6.803   7.954  68.364  1.00  0.00    -0.067 OA 
BRANCH  18  19
HETATM   19  C   UNL     1      -7.262   6.665  68.854  1.00  0.00    -0.091 C  
HETATM   20  C   UNL     1      -7.925   5.893  67.716  1.00  0.00    -0.098 C  
HETATM   21  C   UNL     1      -6.097   5.862  69.422  1.00  0.00    -0.028 C  
ENDBRANCH  18  19
ENDBRANCH  16  18
ENDBRANCH  11  16
BRANCH   8  22
HETATM   22  C   UNL     1     -10.051   8.809  69.862  1.00  0.00    -0.197 A  
HETATM   23  C   UNL     1     -10.119   8.431  71.220  1.00  0.00    -0.260 A  
HETATM   24  C   UNL     1     -10.569   7.923  68.902  1.00  0.00    -0.165 A  
HETATM   25  C   UNL     1     -11.113   6.688  69.281  1.00  0.00    -0.345 A  
HETATM   26  C   UNL     1     -10.632   7.174  71.589  1.00  0.00    -0.207 A  
HETATM   27  O   UNL     1     -10.141   7.559  73.825  1.00  0.00    -0.319 OA 
HETATM   28  N   UNL     1     -10.592   6.753  72.999  1.00  0.00    -0.247 N  
HETATM   29  C   UNL     1     -11.137   6.302  70.622  1.00  0.00    -0.389 A  
HETATM   30  O   UNL     1     -10.995   5.612  73.274  1.00  0.00    -0.265 OA 
ENDBRANCH   8  22
ENDBRANCH   3   5
ENDBRANCH   2   3
TORSDOF 7
ENDMDL
MODEL      103
REMARK 921   NORMALIZED FREE ENERGY PREDICTED BY IDOCK:   -4.21 KCAL/MOL
REMARK 922        TOTAL FREE ENERGY PREDICTED BY IDOCK:   -6.98 KCAL/MOL
REMARK 923 INTER-LIGAND FREE ENERGY PREDICTED BY IDOCK:   -6.55 KCAL/MOL
REMARK 924 INTRA-LIGAND FREE ENERGY PREDICTED BY IDOCK:   -0.43 KCAL/MOL
REMARK 927      BINDING AFFINITY PREDICTED BY RF-SCORE:    0.00 PKD
ROOT
HETATM    1  C   UNL     1      -9.975  15.698  65.643  1.00  0.00    -0.354 C  
HETATM    2  O   UNL     1      -9.025  15.005  66.465  1.00  0.00    -0.269 OA 
ENDROOT
BRANCH   2   3
HETATM    3  C   UNL     1      -9.537  14.557  67.639  1.00  0.00    -0.214 C  
HETATM    4  O   UNL     1     -10.570  14.939  68.157  1.00  0.00    -0.238 OA 
BRANCH   3   5
HETATM    5  C   UNL     1      -8.658  13.487  68.182  1.00  0.00    -0.173 C  
HETATM    6  C   UNL     1      -7.494  13.800  68.809  1.00  0.00    -0.098 C  
HETATM    7  N   UNL     1      -6.680  12.817  69.317  1.00  0.00    -0.091 NA 
HETATM    8  C   UNL     1      -9.095  12.028  67.973  1.00  0.00    -0.188 C  
HETATM    9  C   UNL     1      -6.938  11.458  69.153  1.00  0.00    -0.118 C  
HETATM   10  C   UNL     1      -5.902  10.537  69.756  1.00  0.00    -0.052 C  
HETATM   11  C   UNL     1      -8.057  11.024  68.503  1.00  0.00    -0.140 C  
BRANCH   6  12
HETATM   12  C   UNL     1      -6.983  15.230  68.785  1.00  0.00    -0.111 C  
HETATM   13  N   UNL     1      -6.558  16.417  68.764  1.00  0.00    -0.145 NA 
HETATM   14  H2  UNL     1      -6.299  16.038  67.853  1.00  0.00     0.000 HD 
HETATM   15  H1  UNL     1      -6.214  17.378  68.747  1.00  0.00     0.000 HD 
ENDBRANCH   6  12
BRANCH  11  16
HETATM   16  C   UNL     1      -8.236   9.559  68.260  1.00  0.00    -0.113 C  
HETATM   17  O   UNL     1      -7.424   8.892  67.635  1.00  0.00    -0.090 OA 
BRANCH  16  18
HETATM   18  O   UNL     1      -9.378   9.039  68.801  1.00  0.00    -0.139 OA 
BRANCH  18  19
HETATM   19  C   UNL     1      -9.849   7.838  68.131  1.00  0.00    -0.167 C  
HETATM   20  C   UNL     1     -10.706   7.020  69.094  1.00  0.00    -0.240 C  
HETATM   21  C   UNL     1     -10.656   8.198  66.888  1.00  0.00    -0.311 C  
ENDBRANCH  18  19
ENDBRANCH  16  18
ENDBRANCH  11  16
BRANCH   8  22
HETATM   22  C   UNL     1      -9.501  11.749  66.508  1.00  0.00    -0.225 A  
HETATM   23  C   UNL     1     -10.769  12.163  66.047  1.00  0.00    -0.308 A  
HETATM   24  C   UNL     1      -8.661  11.068  65.610  1.00  0.00    -0.162 A  
HETATM   25  C   UNL     1      -9.083  10.785  64.302  1.00  0.00    -0.216 A  
HETATM   26  C   UNL     1     -11.199  11.842  64.747  1.00  0.00    -0.297 A  
HETATM   27  O   UNL     1     -13.281  12.796  65.131  1.00  0.00    -0.686 OA 
HETATM   28  N   UNL     1     -12.567  12.184  64.323  1.00  0.00    -0.392 N  
HETATM   29  C   UNL     1     -10.355  11.159  63.869  1.00  0.00    -0.441 A  
HETATM   30  O   UNL     1     -12.929  11.827  63.191  1.00  0.00    -0.576 OA 
ENDBRANCH   8  22
ENDBRANCH   3   5
ENDBRANCH   2   3
TORSDOF 7
ENDMDL
MODEL      104
REMARK 921   NORMALIZED FREE ENERGY PREDICTED BY IDOCK:   -4.18 KCAL/MOL
REMARK 922        TOTAL FREE ENERGY PREDICTED BY IDOCK:   -6.94 KCAL/MOL
REMARK 923 INTER-LIGAND FREE ENERGY PREDICTED BY IDOCK:   -5.65 KCAL/MOL
REMARK 924 INTRA-LIGAND FREE ENERGY PREDICTED BY IDOCK:   -1.29 KCAL/MOL
REMARK 927      BINDING AFFINITY PREDICTED BY RF-SCORE:    0.00 PKD
ROOT
HETATM    1  C   UNL     1     -10.160   8.442  66.740  1.00  0.00    -0.303 C  
HETATM    2  O   UNL     1      -9.299   9.268  67.538  1.00  0.00    -0.127 OA 
ENDROOT
BRANCH   2   3
HETATM    3  C   UNL     1      -8.253   9.794  66.852  1.00  0.00    -0.117 C  
HETATM    4  O   UNL     1      -7.952   9.534  65.701  1.00  0.00    -0.104 OA 
BRANCH   3   5
HETATM    5  C   UNL     1      -7.546  10.779  67.714  1.00  0.00    -0.095 C  
HETATM    6  C   UNL     1      -6.659  10.364  68.655  1.00  0.00    -0.052 C  
HETATM    7  N   UNL     1      -6.000  11.268  69.451  1.00  0.00    -0.056 NA 
HETATM    8  C   UNL     1      -7.887  12.267  67.526  1.00  0.00    -0.166 C  
HETATM    9  C   UNL     1      -6.252  12.638  69.412  1.00  0.00    -0.113 C  
HETATM   10  C   UNL     1      -5.447  13.460  70.394  1.00  0.00    -0.140 C  
HETATM   11  C   UNL     1      -7.155  13.166  68.535  1.00  0.00    -0.105 C  
BRANCH   6  12
HETATM   12  C   UNL     1      -6.530   8.884  68.972  1.00  0.00    -0.047 C  
HETATM   13  N   UNL     1      -6.423   7.655  69.235  1.00  0.00    -0.039 NA 
HETATM   14  H2  UNL     1      -5.656   7.846  68.588  1.00  0.00     0.000 HD 
HETATM   15  H1  UNL     1      -6.336   6.661  69.447  1.00  0.00     0.000 HD 
ENDBRANCH   6  12
BRANCH  11  16
HETATM   16  C   UNL     1      -7.467  14.628  68.605  1.00  0.00    -0.125 C  
HETATM   17  O   UNL     1      -8.200  15.104  69.460  1.00  0.00    -0.224 OA 
BRANCH  16  18
HETATM   18  O   UNL     1      -6.860  15.375  67.635  1.00  0.00    -0.151 OA 
BRANCH  18  19
HETATM   19  C   UNL     1      -7.574  16.598  67.305  1.00  0.00    -0.169 C  
HETATM   20  C   UNL     1      -6.575  17.676  66.894  1.00  0.00    -0.213 C  
HETATM   21  C   UNL     1      -8.570  16.348  66.177  1.00  0.00    -0.343 C  
ENDBRANCH  18  19
ENDBRANCH  16  18
ENDBRANCH  11  16
BRANCH   8  22
HETATM   22  C   UNL     1      -9.412  12.514  67.502  1.00  0.00    -0.185 A  
HETATM   23  C   UNL     1     -10.049  12.814  66.279  1.00  0.00    -0.267 A  
HETATM   24  C   UNL     1     -10.199  12.480  68.666  1.00  0.00    -0.166 A  
HETATM   25  C   UNL     1     -11.572  12.761  68.616  1.00  0.00    -0.352 A  
HETATM   26  C   UNL     1     -11.418  13.132  66.243  1.00  0.00    -0.334 A  
HETATM   27  O   UNL     1     -11.324  13.560  63.963  1.00  0.00    -0.363 OA 
HETATM   28  N   UNL     1     -12.039  13.551  64.976  1.00  0.00    -0.376 N  
HETATM   29  C   UNL     1     -12.185  13.100  67.410  1.00  0.00    -0.195 A  
HETATM   30  O   UNL     1     -13.234  13.885  64.999  1.00  0.00    -0.729 OA 
ENDBRANCH   8  22
ENDBRANCH   3   5
ENDBRANCH   2   3
TORSDOF 7
ENDMDL
MODEL      105
REMARK 921   NORMALIZED FREE ENERGY PREDICTED BY IDOCK:   -4.16 KCAL/MOL
REMARK 922        TOTAL FREE ENERGY PREDICTED BY IDOCK:   -6.91 KCAL/MOL
REMARK 923 INTER-LIGAND FREE ENERGY PREDICTED BY IDOCK:   -6.83 KCAL/MOL
REMARK 924 INTRA-LIGAND FREE ENERGY PREDICTED BY IDOCK:   -0.08 KCAL/MOL
REMARK 927      BINDING AFFINITY PREDICTED BY RF-SCORE:    0.00 PKD
ROOT
HETATM    1  C   UNL     1      -7.378   7.373  68.237  1.00  0.00    -0.100 C  
HETATM    2  O   UNL     1      -8.144   8.504  68.679  1.00  0.00    -0.117 OA 
ENDROOT
BRANCH   2   3
HETATM    3  C   UNL     1      -9.366   8.602  68.096  1.00  0.00    -0.137 C  
HETATM    4  O   UNL     1      -9.783   7.899  67.193  1.00  0.00    -0.162 OA 
BRANCH   3   5
HETATM    5  C   UNL     1     -10.143   9.680  68.763  1.00  0.00    -0.193 C  
HETATM    6  C   UNL     1     -10.998   9.390  69.779  1.00  0.00    -0.215 C  
HETATM    7  N   UNL     1     -11.715  10.382  70.402  1.00  0.00    -0.305 NA 
HETATM    8  C   UNL     1      -9.974  11.114  68.235  1.00  0.00    -0.196 C  
HETATM    9  C   UNL     1     -11.687  11.712  69.989  1.00  0.00    -0.321 C  
HETATM   10  C   UNL     1     -12.575  12.643  70.784  1.00  0.00    -0.302 C  
HETATM   11  C   UNL     1     -10.897  12.114  68.951  1.00  0.00    -0.241 C  
BRANCH   6  12
HETATM   12  C   UNL     1     -11.316   7.942  70.109  1.00  0.00    -0.092 C  
HETATM   13  N   UNL     1     -11.581   6.740  70.383  1.00  0.00    -0.396 NA 
HETATM   14  H2  UNL     1     -12.319   7.275  70.842  1.00  0.00     0.000 HD 
HETATM   15  H1  UNL     1     -11.795   5.767  70.605  1.00  0.00     0.000 HD 
ENDBRANCH   6  12
BRANCH  11  16
HETATM   16  C   UNL     1     -10.981  13.531  68.479  1.00  0.00    -0.267 C  
HETATM   17  O   UNL     1     -11.974  13.983  67.926  1.00  0.00    -0.360 OA 
BRANCH  16  18
HETATM   18  O   UNL     1      -9.857  14.268  68.724  1.00  0.00    -0.227 OA 
BRANCH  18  19
HETATM   19  C   UNL     1      -8.914  14.285  67.617  1.00  0.00    -0.194 C  
HETATM   20  C   UNL     1      -9.381  15.286  66.564  1.00  0.00    -0.309 C  
HETATM   21  C   UNL     1      -7.518  14.653  68.108  1.00  0.00    -0.125 C  
ENDBRANCH  18  19
ENDBRANCH  16  18
ENDBRANCH  11  16
BRANCH   8  22
HETATM   22  C   UNL     1     -10.098  11.184  66.696  1.00  0.00    -0.256 A  
HETATM   23  C   UNL     1     -11.297  11.651  66.116  1.00  0.00    -0.275 A  
HETATM   24  C   UNL     1      -9.065  10.771  65.837  1.00  0.00    -0.208 A  
HETATM   25  C   UNL     1      -9.231  10.799  64.445  1.00  0.00    -0.250 A  
HETATM   26  C   UNL     1     -11.470  11.640  64.720  1.00  0.00    -0.155 A  
HETATM   27  O   UNL     1     -13.655  12.396  64.920  1.00  0.00    -0.289 OA 
HETATM   28  N   UNL     1     -12.767  12.024  64.140  1.00  0.00    -0.342 N  
HETATM   29  C   UNL     1     -10.435  11.220  63.881  1.00  0.00    -0.452 A  
HETATM   30  O   UNL     1     -12.899  11.939  62.909  1.00  0.00    -0.341 OA 
ENDBRANCH   8  22
ENDBRANCH   3   5
ENDBRANCH   2   3
TORSDOF 7
ENDMDL
MODEL      106
REMARK 921   NORMALIZED FREE ENERGY PREDICTED BY IDOCK:   -4.16 KCAL/MOL
REMARK 922        TOTAL FREE ENERGY PREDICTED BY IDOCK:   -6.91 KCAL/MOL
REMARK 923 INTER-LIGAND FREE ENERGY PREDICTED BY IDOCK:   -5.40 KCAL/MOL
REMARK 924 INTRA-LIGAND FREE ENERGY PREDICTED BY IDOCK:   -1.51 KCAL/MOL
REMARK 927      BINDING AFFINITY PREDICTED BY RF-SCORE:    0.00 PKD
ROOT
HETATM    1  C   UNL     1     -11.753  10.167  70.166  1.00  0.00    -0.256 C  
HETATM    2  O   UNL     1     -11.461  11.558  69.971  1.00  0.00    -0.282 OA 
ENDROOT
BRANCH   2   3
HETATM    3  C   UNL     1     -11.310  11.912  68.670  1.00  0.00    -0.276 C  
HETATM    4  O   UNL     1     -12.115  11.710  67.779  1.00  0.00    -0.613 OA 
BRANCH   3   5
HETATM    5  C   UNL     1     -10.018  12.629  68.502  1.00  0.00    -0.166 C  
HETATM    6  C   UNL     1      -9.969  13.986  68.548  1.00  0.00    -0.230 C  
HETATM    7  N   UNL     1      -8.779  14.654  68.399  1.00  0.00    -0.169 NA 
HETATM    8  C   UNL     1      -8.761  11.785  68.237  1.00  0.00    -0.167 C  
HETATM    9  C   UNL     1      -7.578  14.010  68.108  1.00  0.00    -0.141 C  
HETATM   10  C   UNL     1      -6.387  14.928  67.947  1.00  0.00    -0.174 C  
HETATM   11  C   UNL     1      -7.514  12.651  67.996  1.00  0.00    -0.120 C  
BRANCH   6  12
HETATM   12  C   UNL     1     -11.259  14.789  68.571  1.00  0.00    -0.276 C  
HETATM   13  N   UNL     1     -12.329  15.456  68.590  1.00  0.00    -0.527 NA 
HETATM   14  H2  UNL     1     -11.786  15.865  67.830  1.00  0.00     0.000 HD 
HETATM   15  H1  UNL     1     -13.195  15.995  68.605  1.00  0.00     0.000 HD 
ENDBRANCH   6  12
BRANCH  11  16
HETATM   16  C   UNL     1      -6.226  12.016  67.579  1.00  0.00    -0.113 C  
HETATM   17  O   UNL     1      -5.909  11.880  66.406  1.00  0.00    -0.214 OA 
BRANCH  16  18
HETATM   18  O   UNL     1      -5.441  11.610  68.621  1.00  0.00    -0.043 OA 
BRANCH  18  19
HETATM   19  C   UNL     1      -5.905  10.392  69.264  1.00  0.00    -0.037 C  
HETATM   20  C   UNL     1      -5.175   9.190  68.670  1.00  0.00    -0.034 C  
HETATM   21  C   UNL     1      -5.668  10.457  70.769  1.00  0.00    -0.099 C  
ENDBRANCH  18  19
ENDBRANCH  16  18
ENDBRANCH  11  16
BRANCH   8  22
HETATM   22  C   UNL     1      -8.988  10.742  67.119  1.00  0.00    -0.145 A  
HETATM   23  C   UNL     1      -8.823   9.369  67.405  1.00  0.00    -0.135 A  
HETATM   24  C   UNL     1      -9.329  11.107  65.806  1.00  0.00    -0.238 A  
HETATM   25  C   UNL     1      -9.476  10.137  64.804  1.00  0.00    -0.355 A  
HETATM   26  C   UNL     1      -8.934   8.406  66.386  1.00  0.00    -0.171 A  
HETATM   27  O   UNL     1      -8.361   6.698  67.849  1.00  0.00    -0.118 OA 
HETATM   28  N   UNL     1      -8.648   6.993  66.680  1.00  0.00    -0.120 N  
HETATM   29  C   UNL     1      -9.268   8.787  65.084  1.00  0.00    -0.029 A  
HETATM   30  O   UNL     1      -8.695   6.185  65.739  1.00  0.00    -0.153 OA 
ENDBRANCH   8  22
ENDBRANCH   3   5
ENDBRANCH   2   3
TORSDOF 7
ENDMDL
MODEL      107
REMARK 921   NORMALIZED FREE ENERGY PREDICTED BY IDOCK:   -4.15 KCAL/MOL
REMARK 922        TOTAL FREE ENERGY PREDICTED BY IDOCK:   -6.89 KCAL/MOL
REMARK 923 INTER-LIGAND FREE ENERGY PREDICTED BY IDOCK:   -6.55 KCAL/MOL
REMARK 924 INTRA-LIGAND FREE ENERGY PREDICTED BY IDOCK:   -0.34 KCAL/MOL
REMARK 927      BINDING AFFINITY PREDICTED BY RF-SCORE:    0.00 PKD
ROOT
HETATM    1  C   UNL     1     -12.720  12.758  71.249  1.00  0.00    -0.269 C  
HETATM    2  O   UNL     1     -11.760  11.854  70.684  1.00  0.00    -0.185 OA 
ENDROOT
BRANCH   2   3
HETATM    3  C   UNL     1     -12.309  10.743  70.131  1.00  0.00    -0.325 C  
HETATM    4  O   UNL     1     -13.433  10.324  70.340  1.00  0.00    -0.099 OA 
BRANCH   3   5
HETATM    5  C   UNL     1     -11.335  10.130  69.188  1.00  0.00    -0.198 C  
HETATM    6  C   UNL     1     -10.505   9.137  69.599  1.00  0.00    -0.223 C  
HETATM    7  N   UNL     1      -9.607   8.564  68.732  1.00  0.00    -0.148 NA 
HETATM    8  C   UNL     1     -11.279  10.688  67.756  1.00  0.00    -0.383 C  
HETATM    9  C   UNL     1      -9.425   9.009  67.425  1.00  0.00    -0.144 C  
HETATM   10  C   UNL     1      -8.362   8.269  66.643  1.00  0.00    -0.111 C  
HETATM   11  C   UNL     1     -10.174  10.030  66.914  1.00  0.00    -0.299 C  
BRANCH   6  12
HETATM   12  C   UNL     1     -10.424   8.781  71.074  1.00  0.00    -0.230 C  
HETATM   13  N   UNL     1     -10.357   8.485  72.298  1.00  0.00    -0.332 NA 
HETATM   14  H2  UNL     1      -9.938   7.687  71.819  1.00  0.00     0.000 HD 
HETATM   15  H1  UNL     1     -10.302   8.246  73.288  1.00  0.00     0.000 HD 
ENDBRANCH   6  12
BRANCH  11  16
HETATM   16  C   UNL     1      -9.869  10.541  65.542  1.00  0.00    -0.265 C  
HETATM   17  O   UNL     1      -8.732  10.804  65.175  1.00  0.00    -0.192 OA 
BRANCH  16  18
HETATM   18  O   UNL     1     -10.967  10.679  64.742  1.00  0.00    -0.024 OA 
BRANCH  18  19
HETATM   19  C   UNL     1     -10.916  11.845  63.873  1.00  0.00    -0.406 C  
HETATM   20  C   UNL     1     -12.297  12.096  63.274  1.00  0.00    -0.547 C  
HETATM   21  C   UNL     1     -10.451  13.072  64.651  1.00  0.00    -0.400 C  
ENDBRANCH  18  19
ENDBRANCH  16  18
ENDBRANCH  11  16
BRANCH   8  22
HETATM   22  C   UNL     1     -11.203  12.232  67.738  1.00  0.00    -0.331 A  
HETATM   23  C   UNL     1      -9.996  12.873  68.089  1.00  0.00    -0.234 A  
HETATM   24  C   UNL     1     -12.308  13.037  67.410  1.00  0.00     0.060 A  
HETATM   25  C   UNL     1     -12.218  14.436  67.455  1.00  0.00    -0.230 A  
HETATM   26  C   UNL     1      -9.925  14.275  68.169  1.00  0.00    -0.230 A  
HETATM   27  O   UNL     1      -7.729  14.186  68.917  1.00  0.00    -0.135 OA 
HETATM   28  N   UNL     1      -8.691  14.920  68.646  1.00  0.00    -0.171 N  
HETATM   29  C   UNL     1     -11.034  15.061  67.845  1.00  0.00    -0.291 A  
HETATM   30  O   UNL     1      -8.691  16.155  68.762  1.00  0.00    -0.213 OA 
ENDBRANCH   8  22
ENDBRANCH   3   5
ENDBRANCH   2   3
TORSDOF 7
ENDMDL
MODEL      108
REMARK 921   NORMALIZED FREE ENERGY PREDICTED BY IDOCK:   -4.12 KCAL/MOL
REMARK 922        TOTAL FREE ENERGY PREDICTED BY IDOCK:   -6.86 KCAL/MOL
REMARK 923 INTER-LIGAND FREE ENERGY PREDICTED BY IDOCK:   -7.90 KCAL/MOL
REMARK 924 INTRA-LIGAND FREE ENERGY PREDICTED BY IDOCK:    1.04 KCAL/MOL
REMARK 927      BINDING AFFINITY PREDICTED BY RF-SCORE:    0.00 PKD
ROOT
HETATM    1  C   UNL     1      -7.967  16.003  66.619  1.00  0.00    -0.256 C  
HETATM    2  O   UNL     1      -8.775  16.912  65.857  1.00  0.00    -0.516 OA 
ENDROOT
BRANCH   2   3
HETATM    3  C   UNL     1     -10.102  16.627  65.887  1.00  0.00    -0.320 C  
HETATM    4  O   UNL     1     -10.832  16.535  64.918  1.00  0.00    -0.684 OA 
BRANCH   3   5
HETATM    5  C   UNL     1     -10.524  16.399  67.295  1.00  0.00    -0.303 C  
HETATM    6  C   UNL     1     -10.264  17.325  68.254  1.00  0.00    -0.348 C  
HETATM    7  N   UNL     1     -10.655  17.123  69.555  1.00  0.00    -0.216 NA 
HETATM    8  C   UNL     1     -11.223  15.069  67.625  1.00  0.00    -0.331 C  
HETATM    9  C   UNL     1     -11.254  15.943  69.992  1.00  0.00    -0.353 C  
HETATM   10  C   UNL     1     -11.576  15.904  71.469  1.00  0.00    -0.537 C  
HETATM   11  C   UNL     1     -11.526  14.924  69.125  1.00  0.00    -0.324 C  
BRANCH   6  12
HETATM   12  C   UNL     1      -9.366  18.509  67.938  1.00  0.00    -0.294 C  
HETATM   13  N   UNL     1      -8.620  19.492  67.675  1.00  0.00    -0.307 NA 
HETATM   14  H2  UNL     1      -9.206  19.387  66.847  1.00  0.00     0.000 HD 
HETATM   15  H1  UNL     1      -8.017  20.287  67.463  1.00  0.00     0.000 HD 
ENDBRANCH   6  12
BRANCH  11  16
HETATM   16  C   UNL     1     -12.071  13.639  69.661  1.00  0.00    -0.321 C  
HETATM   17  O   UNL     1     -13.259  13.480  69.907  1.00  0.00     0.531 OA 
BRANCH  16  18
HETATM   18  O   UNL     1     -11.130  12.666  69.844  1.00  0.00     0.060 OA 
BRANCH  18  19
HETATM   19  C   UNL     1     -11.652  11.315  69.723  1.00  0.00    -0.333 C  
HETATM   20  C   UNL     1     -10.554  10.388  69.207  1.00  0.00    -0.259 C  
HETATM   21  C   UNL     1     -12.169  10.817  71.069  1.00  0.00    -0.485 C  
ENDBRANCH  18  19
ENDBRANCH  16  18
ENDBRANCH  11  16
BRANCH   8  22
HETATM   22  C   UNL     1     -10.459  13.855  67.050  1.00  0.00    -0.278 A  
HETATM   23  C   UNL     1     -10.969  13.185  65.917  1.00  0.00    -0.288 A  
HETATM   24  C   UNL     1      -9.277  13.364  67.631  1.00  0.00    -0.212 A  
HETATM   25  C   UNL     1      -8.639  12.227  67.114  1.00  0.00    -0.187 A  
HETATM   26  C   UNL     1     -10.344  12.024  65.428  1.00  0.00    -0.266 A  
HETATM   27  O   UNL     1     -11.990  11.740  63.816  1.00  0.00    -0.418 OA 
HETATM   28  N   UNL     1     -10.955  11.277  64.316  1.00  0.00    -0.333 N  
HETATM   29  C   UNL     1      -9.174  11.546  66.021  1.00  0.00    -0.229 A  
HETATM   30  O   UNL     1     -10.407  10.223  63.957  1.00  0.00    -0.094 OA 
ENDBRANCH   8  22
ENDBRANCH   3   5
ENDBRANCH   2   3
TORSDOF 7
ENDMDL
MODEL      109
REMARK 921   NORMALIZED FREE ENERGY PREDICTED BY IDOCK:   -4.11 KCAL/MOL
REMARK 922        TOTAL FREE ENERGY PREDICTED BY IDOCK:   -6.85 KCAL/MOL
REMARK 923 INTER-LIGAND FREE ENERGY PREDICTED BY IDOCK:   -5.28 KCAL/MOL
REMARK 924 INTRA-LIGAND FREE ENERGY PREDICTED BY IDOCK:   -1.57 KCAL/MOL
REMARK 927      BINDING AFFINITY PREDICTED BY RF-SCORE:    0.00 PKD
ROOT
HETATM    1  C   UNL     1     -13.730   7.637  71.555  1.00  0.00    -0.361 C  
HETATM    2  O   UNL     1     -12.889   6.785  70.763  1.00  0.00    -0.205 OA 
ENDROOT
BRANCH   2   3
HETATM    3  C   UNL     1     -11.591   7.179  70.721  1.00  0.00    -0.318 C  
HETATM    4  O   UNL     1     -11.186   8.316  70.879  1.00  0.00    -0.257 OA 
BRANCH   3   5
HETATM    5  C   UNL     1     -10.725   5.992  70.494  1.00  0.00    -0.349 C  
HETATM    6  C   UNL     1     -10.279   5.250  71.541  1.00  0.00    -0.212 C  
HETATM    7  N   UNL     1      -9.483   4.150  71.339  1.00  0.00    -0.149 NA 
HETATM    8  C   UNL     1     -10.325   5.665  69.046  1.00  0.00    -0.314 C  
HETATM    9  C   UNL     1      -9.012   3.775  70.082  1.00  0.00    -0.109 C  
HETATM   10  C   UNL     1      -8.119   2.555  70.075  1.00  0.00    -0.057 C  
HETATM   11  C   UNL     1      -9.360   4.471  68.960  1.00  0.00    -0.211 C  
BRANCH   6  12
HETATM   12  C   UNL     1     -10.496   5.741  72.963  1.00  0.00    -0.221 C  
HETATM   13  N   UNL     1     -10.676   6.150  74.142  1.00  0.00    -0.377 NA 
HETATM   14  H2  UNL     1     -10.707   6.995  73.572  1.00  0.00     0.000 HD 
HETATM   15  H1  UNL     1     -10.822   6.480  75.097  1.00  0.00     0.000 HD 
ENDBRANCH   6  12
BRANCH  11  16
HETATM   16  C   UNL     1      -8.745   4.093  67.650  1.00  0.00    -0.107 C  
HETATM   17  O   UNL     1      -7.604   4.407  67.344  1.00  0.00    -0.080 OA 
BRANCH  16  18
HETATM   18  O   UNL     1      -9.568   3.367  66.836  1.00  0.00    -0.182 OA 
BRANCH  18  19
HETATM   19  C   UNL     1      -9.659   3.887  65.481  1.00  0.00    -0.184 C  
HETATM   20  C   UNL     1      -9.402   2.759  64.485  1.00  0.00    -0.142 C  
HETATM   21  C   UNL     1     -11.033   4.501  65.234  1.00  0.00    -0.014 C  
ENDBRANCH  18  19
ENDBRANCH  16  18
ENDBRANCH  11  16
BRANCH   8  22
HETATM   22  C   UNL     1      -9.802   6.910  68.294  1.00  0.00    -0.141 A  
HETATM   23  C   UNL     1      -8.593   7.513  68.704  1.00  0.00    -0.129 A  
HETATM   24  C   UNL     1     -10.501   7.493  67.223  1.00  0.00    -0.391 A  
HETATM   25  C   UNL     1     -10.024   8.653  66.598  1.00  0.00    -0.357 A  
HETATM   26  C   UNL     1      -8.141   8.698  68.097  1.00  0.00    -0.115 A  
HETATM   27  O   UNL     1      -6.335   8.829  69.550  1.00  0.00    -0.042 OA 
HETATM   28  N   UNL     1      -6.939   9.372  68.613  1.00  0.00    -0.064 N  
HETATM   29  C   UNL     1      -8.851   9.268  67.038  1.00  0.00    -0.135 A  
HETATM   30  O   UNL     1      -6.610  10.449  68.091  1.00  0.00    -0.059 OA 
ENDBRANCH   8  22
ENDBRANCH   3   5
ENDBRANCH   2   3
TORSDOF 7
ENDMDL
MODEL      110
REMARK 921   NORMALIZED FREE ENERGY PREDICTED BY IDOCK:   -4.11 KCAL/MOL
REMARK 922        TOTAL FREE ENERGY PREDICTED BY IDOCK:   -6.84 KCAL/MOL
REMARK 923 INTER-LIGAND FREE ENERGY PREDICTED BY IDOCK:   -6.13 KCAL/MOL
REMARK 924 INTRA-LIGAND FREE ENERGY PREDICTED BY IDOCK:   -0.71 KCAL/MOL
REMARK 927      BINDING AFFINITY PREDICTED BY RF-SCORE:    0.00 PKD
ROOT
HETATM    1  C   UNL     1     -10.370  16.661  68.001  1.00  0.00    -0.303 C  
HETATM    2  O   UNL     1     -10.169  15.249  68.161  1.00  0.00    -0.226 OA 
ENDROOT
BRANCH   2   3
HETATM    3  C   UNL     1      -9.277  14.718  67.287  1.00  0.00    -0.203 C  
HETATM    4  O   UNL     1      -9.059  15.121  66.159  1.00  0.00    -0.295 OA 
BRANCH   3   5
HETATM    5  C   UNL     1      -8.567  13.585  67.937  1.00  0.00    -0.182 C  
HETATM    6  C   UNL     1      -7.383  13.783  68.572  1.00  0.00    -0.117 C  
HETATM    7  N   UNL     1      -6.724  12.741  69.179  1.00  0.00    -0.098 NA 
HETATM    8  C   UNL     1      -9.201  12.188  67.829  1.00  0.00    -0.189 C  
HETATM    9  C   UNL     1      -7.168  11.422  69.113  1.00  0.00    -0.102 C  
HETATM   10  C   UNL     1      -6.282  10.418  69.816  1.00  0.00    -0.067 C  
HETATM   11  C   UNL     1      -8.324  11.096  68.465  1.00  0.00    -0.154 C  
BRANCH   6  12
HETATM   12  C   UNL     1      -6.675  15.122  68.452  1.00  0.00    -0.110 C  
HETATM   13  N   UNL     1      -6.087  16.233  68.351  1.00  0.00    -0.110 NA 
HETATM   14  H2  UNL     1      -5.517  15.592  67.799  1.00  0.00     0.000 HD 
HETATM   15  H1  UNL     1      -5.612  17.132  68.270  1.00  0.00     0.000 HD 
ENDBRANCH   6  12
BRANCH  11  16
HETATM   16  C   UNL     1      -8.703   9.655  68.332  1.00  0.00    -0.120 C  
HETATM   17  O   UNL     1      -9.630   9.158  68.955  1.00  0.00    -0.149 OA 
BRANCH  16  18
HETATM   18  O   UNL     1      -7.926   8.954  67.454  1.00  0.00    -0.100 OA 
BRANCH  18  19
HETATM   19  C   UNL     1      -8.399   7.602  67.205  1.00  0.00    -0.121 C  
HETATM   20  C   UNL     1      -8.741   7.446  65.725  1.00  0.00    -0.132 C  
HETATM   21  C   UNL     1      -7.341   6.581  67.608  1.00  0.00    -0.095 C  
ENDBRANCH  18  19
ENDBRANCH  16  18
ENDBRANCH  11  16
BRANCH   8  22
HETATM   22  C   UNL     1      -9.615  11.850  66.378  1.00  0.00    -0.239 A  
HETATM   23  C   UNL     1     -10.887  12.242  65.910  1.00  0.00    -0.306 A  
HETATM   24  C   UNL     1      -8.779  11.136  65.503  1.00  0.00    -0.098 A  
HETATM   25  C   UNL     1      -9.207  10.801  64.210  1.00  0.00    -0.246 A  
HETATM   26  C   UNL     1     -11.324  11.869  64.626  1.00  0.00    -0.293 A  
HETATM   27  O   UNL     1     -13.406  12.831  64.985  1.00  0.00    -0.678 OA 
HETATM   28  N   UNL     1     -12.695  12.190  64.198  1.00  0.00    -0.387 N  
HETATM   29  C   UNL     1     -10.483  11.154  63.770  1.00  0.00    -0.444 A  
HETATM   30  O   UNL     1     -13.063  11.788  63.082  1.00  0.00    -0.568 OA 
ENDBRANCH   8  22
ENDBRANCH   3   5
ENDBRANCH   2   3
TORSDOF 7
ENDMDL
MODEL      111
REMARK 921   NORMALIZED FREE ENERGY PREDICTED BY IDOCK:   -4.06 KCAL/MOL
REMARK 922        TOTAL FREE ENERGY PREDICTED BY IDOCK:   -6.77 KCAL/MOL
REMARK 923 INTER-LIGAND FREE ENERGY PREDICTED BY IDOCK:   -6.67 KCAL/MOL
REMARK 924 INTRA-LIGAND FREE ENERGY PREDICTED BY IDOCK:   -0.10 KCAL/MOL
REMARK 927      BINDING AFFINITY PREDICTED BY RF-SCORE:    0.00 PKD
ROOT
HETATM    1  C   UNL     1     -12.289  13.002  70.526  1.00  0.00    -0.287 C  
HETATM    2  O   UNL     1     -11.454  12.241  69.641  1.00  0.00    -0.266 OA 
ENDROOT
BRANCH   2   3
HETATM    3  C   UNL     1     -11.985  11.048  69.272  1.00  0.00    -0.339 C  
HETATM    4  O   UNL     1     -13.100  10.648  69.555  1.00  0.00     0.001 OA 
BRANCH   3   5
HETATM    5  C   UNL     1     -11.007  10.315  68.426  1.00  0.00    -0.308 C  
HETATM    6  C   UNL     1     -10.170   9.396  68.975  1.00  0.00    -0.205 C  
HETATM    7  N   UNL     1      -9.267   8.711  68.199  1.00  0.00    -0.137 NA 
HETATM    8  C   UNL     1     -10.953  10.663  66.930  1.00  0.00    -0.228 C  
HETATM    9  C   UNL     1      -9.087   8.967  66.841  1.00  0.00    -0.133 C  
HETATM   10  C   UNL     1      -8.018   8.130  66.174  1.00  0.00    -0.102 C  
HETATM   11  C   UNL     1      -9.842   9.899  66.190  1.00  0.00    -0.324 C  
BRANCH   6  12
HETATM   12  C   UNL     1     -10.088   9.254  70.486  1.00  0.00    -0.255 C  
HETATM   13  N   UNL     1     -10.020   9.137  71.740  1.00  0.00    -0.283 NA 
HETATM   14  H2  UNL     1      -9.490   9.984  71.533  1.00  0.00     0.000 HD 
HETATM   15  H1  UNL     1      -9.965   9.043  72.754  1.00  0.00     0.000 HD 
ENDBRANCH   6  12
BRANCH  11  16
HETATM   16  C   UNL     1      -9.539  10.211  64.759  1.00  0.00    -0.314 C  
HETATM   17  O   UNL     1     -10.399  10.575  63.969  1.00  0.00    -0.289 OA 
BRANCH  16  18
HETATM   18  O   UNL     1      -8.225  10.057  64.421  1.00  0.00    -0.150 OA 
BRANCH  18  19
HETATM   19  C   UNL     1      -7.996   9.959  62.988  1.00  0.00    -0.142 C  
HETATM   20  C   UNL     1      -6.580  10.428  62.665  1.00  0.00    -0.138 C  
HETATM   21  C   UNL     1      -8.195   8.524  62.511  1.00  0.00    -0.189 C  
ENDBRANCH  18  19
ENDBRANCH  16  18
ENDBRANCH  11  16
BRANCH   8  22
HETATM   22  C   UNL     1     -10.888  12.189  66.692  1.00  0.00    -0.307 A  
HETATM   23  C   UNL     1      -9.676  12.876  66.916  1.00  0.00    -0.240 A  
HETATM   24  C   UNL     1     -12.005  12.936  66.282  1.00  0.00    -0.472 A  
HETATM   25  C   UNL     1     -11.924  14.327  66.127  1.00  0.00    -0.422 A  
HETATM   26  C   UNL     1      -9.612  14.276  66.795  1.00  0.00    -0.280 A  
HETATM   27  O   UNL     1      -7.397  14.299  67.489  1.00  0.00    -0.170 OA 
HETATM   28  N   UNL     1      -8.370  14.985  67.143  1.00  0.00    -0.204 N  
HETATM   29  C   UNL     1     -10.734  15.004  66.393  1.00  0.00    -0.322 A  
HETATM   30  O   UNL     1      -8.375  16.225  67.084  1.00  0.00    -0.169 OA 
ENDBRANCH   8  22
ENDBRANCH   3   5
ENDBRANCH   2   3
TORSDOF 7
ENDMDL
MODEL      112
REMARK 921   NORMALIZED FREE ENERGY PREDICTED BY IDOCK:   -4.05 KCAL/MOL
REMARK 922        TOTAL FREE ENERGY PREDICTED BY IDOCK:   -6.76 KCAL/MOL
REMARK 923 INTER-LIGAND FREE ENERGY PREDICTED BY IDOCK:   -6.18 KCAL/MOL
REMARK 924 INTRA-LIGAND FREE ENERGY PREDICTED BY IDOCK:   -0.58 KCAL/MOL
REMARK 927      BINDING AFFINITY PREDICTED BY RF-SCORE:    0.00 PKD
ROOT
HETATM    1  C   UNL     1      -9.816  10.391  64.105  1.00  0.00    -0.313 C  
HETATM    2  O   UNL     1     -10.474  10.291  65.376  1.00  0.00    -0.217 OA 
ENDROOT
BRANCH   2   3
HETATM    3  C   UNL     1      -9.958  11.108  66.329  1.00  0.00    -0.219 C  
HETATM    4  O   UNL     1      -9.028  11.879  66.178  1.00  0.00    -0.195 OA 
BRANCH   3   5
HETATM    5  C   UNL     1     -10.734  10.947  67.587  1.00  0.00    -0.288 C  
HETATM    6  C   UNL     1     -11.624  11.897  67.977  1.00  0.00    -0.332 C  
HETATM    7  N   UNL     1     -12.348  11.753  69.135  1.00  0.00    -0.181 NA 
HETATM    8  C   UNL     1     -10.463   9.697  68.440  1.00  0.00    -0.258 C  
HETATM    9  C   UNL     1     -12.162  10.691  70.019  1.00  0.00    -0.298 C  
HETATM   10  C   UNL     1     -13.032  10.734  71.255  1.00  0.00    -0.502 C  
HETATM   11  C   UNL     1     -11.264   9.699  69.752  1.00  0.00    -0.208 C  
BRANCH   6  12
HETATM   12  C   UNL     1     -11.688  13.222  67.237  1.00  0.00    -0.377 C  
HETATM   13  N   UNL     1     -11.740  14.323  66.623  1.00  0.00    -0.384 NA 
HETATM   14  H2  UNL     1     -10.783  14.270  66.972  1.00  0.00     0.000 HD 
HETATM   15  H1  UNL     1     -11.783  15.213  66.126  1.00  0.00     0.000 HD 
ENDBRANCH   6  12
BRANCH  11  16
HETATM   16  C   UNL     1     -11.026   8.638  70.780  1.00  0.00    -0.245 C  
HETATM   17  O   UNL     1     -11.417   7.488  70.641  1.00  0.00    -0.283 OA 
BRANCH  16  18
HETATM   18  O   UNL     1     -10.333   9.069  71.876  1.00  0.00    -0.341 OA 
BRANCH  18  19
HETATM   19  C   UNL     1      -9.590   8.016  72.550  1.00  0.00    -0.240 C  
HETATM   20  C   UNL     1     -10.548   7.170  73.384  1.00  0.00    -0.424 C  
HETATM   21  C   UNL     1      -8.863   7.139  71.536  1.00  0.00    -0.127 C  
ENDBRANCH  18  19
ENDBRANCH  16  18
ENDBRANCH  11  16
BRANCH   8  22
HETATM   22  C   UNL     1      -8.951   9.465  68.664  1.00  0.00    -0.132 A  
HETATM   23  C   UNL     1      -8.330   8.332  68.097  1.00  0.00    -0.129 A  
HETATM   24  C   UNL     1      -8.163  10.330  69.443  1.00  0.00    -0.171 A  
HETATM   25  C   UNL     1      -6.806  10.061  69.669  1.00  0.00    -0.078 A  
HETATM   26  C   UNL     1      -6.978   8.048  68.359  1.00  0.00    -0.072 A  
HETATM   27  O   UNL     1      -7.093   6.066  67.157  1.00  0.00    -0.067 OA 
HETATM   28  N   UNL     1      -6.379   6.804  67.851  1.00  0.00    -0.046 N  
HETATM   29  C   UNL     1      -6.210   8.915  69.140  1.00  0.00    -0.043 A  
HETATM   30  O   UNL     1      -5.201   6.560  68.158  1.00  0.00    -0.007 OA 
ENDBRANCH   8  22
ENDBRANCH   3   5
ENDBRANCH   2   3
TORSDOF 7
ENDMDL
MODEL      113
REMARK 921   NORMALIZED FREE ENERGY PREDICTED BY IDOCK:   -4.04 KCAL/MOL
REMARK 922        TOTAL FREE ENERGY PREDICTED BY IDOCK:   -6.74 KCAL/MOL
REMARK 923 INTER-LIGAND FREE ENERGY PREDICTED BY IDOCK:   -6.73 KCAL/MOL
REMARK 924 INTRA-LIGAND FREE ENERGY PREDICTED BY IDOCK:   -0.01 KCAL/MOL
REMARK 927      BINDING AFFINITY PREDICTED BY RF-SCORE:    0.00 PKD
ROOT
HETATM    1  C   UNL     1     -11.909  12.423  69.377  1.00  0.00    -0.304 C  
HETATM    2  O   UNL     1     -11.623  12.008  68.033  1.00  0.00    -0.305 OA 
ENDROOT
BRANCH   2   3
HETATM    3  C   UNL     1     -10.555  12.636  67.479  1.00  0.00    -0.221 C  
HETATM    4  O   UNL     1      -9.993  13.617  67.931  1.00  0.00    -0.231 OA 
BRANCH   3   5
HETATM    5  C   UNL     1     -10.145  11.913  66.246  1.00  0.00    -0.249 C  
HETATM    6  C   UNL     1     -10.803  12.115  65.075  1.00  0.00    -0.300 C  
HETATM    7  N   UNL     1     -10.426  11.454  63.931  1.00  0.00    -0.353 NA 
HETATM    8  C   UNL     1      -8.986  10.910  66.358  1.00  0.00    -0.186 C  
HETATM    9  C   UNL     1      -9.424  10.487  63.909  1.00  0.00    -0.292 C  
HETATM   10  C   UNL     1      -9.184   9.850  62.558  1.00  0.00    -0.307 C  
HETATM   11  C   UNL     1      -8.722  10.170  65.036  1.00  0.00    -0.190 C  
BRANCH   6  12
HETATM   12  C   UNL     1     -12.087  12.927  65.058  1.00  0.00    -0.435 C  
HETATM   13  N   UNL     1     -13.152  13.601  65.044  1.00  0.00    -0.727 NA 
HETATM   14  H2  UNL     1     -13.047  13.270  64.085  1.00  0.00     0.000 HD 
HETATM   15  H1  UNL     1     -14.015  14.147  65.033  1.00  0.00     0.000 HD 
ENDBRANCH   6  12
BRANCH  11  16
HETATM   16  C   UNL     1      -7.730   9.051  64.985  1.00  0.00    -0.109 C  
HETATM   17  O   UNL     1      -8.021   7.932  64.589  1.00  0.00    -0.133 OA 
BRANCH  16  18
HETATM   18  O   UNL     1      -6.480   9.395  65.414  1.00  0.00    -0.067 OA 
BRANCH  18  19
HETATM   19  C   UNL     1      -5.480   9.402  64.358  1.00  0.00    -0.060 C  
HETATM   20  C   UNL     1      -5.489   8.055  63.639  1.00  0.00    -0.053 C  
HETATM   21  C   UNL     1      -5.754  10.528  63.367  1.00  0.00    -0.128 C  
ENDBRANCH  18  19
ENDBRANCH  16  18
ENDBRANCH  11  16
BRANCH   8  22
HETATM   22  C   UNL     1      -9.165   9.948  67.555  1.00  0.00    -0.148 A  
HETATM   23  C   UNL     1      -9.867   8.737  67.374  1.00  0.00    -0.250 A  
HETATM   24  C   UNL     1      -8.677  10.244  68.839  1.00  0.00    -0.152 A  
HETATM   25  C   UNL     1      -8.903   9.373  69.914  1.00  0.00    -0.212 A  
HETATM   26  C   UNL     1     -10.123   7.887  68.465  1.00  0.00    -0.197 A  
HETATM   27  O   UNL     1     -11.360   6.444  67.133  1.00  0.00    -0.308 OA 
HETATM   28  N   UNL     1     -10.953   6.686  68.278  1.00  0.00    -0.262 N  
HETATM   29  C   UNL     1      -9.636   8.199  69.737  1.00  0.00    -0.171 A  
HETATM   30  O   UNL     1     -11.209   5.998  69.279  1.00  0.00    -0.384 OA 
ENDBRANCH   8  22
ENDBRANCH   3   5
ENDBRANCH   2   3
TORSDOF 7
ENDMDL
MODEL      114
REMARK 921   NORMALIZED FREE ENERGY PREDICTED BY IDOCK:   -4.02 KCAL/MOL
REMARK 922        TOTAL FREE ENERGY PREDICTED BY IDOCK:   -6.72 KCAL/MOL
REMARK 923 INTER-LIGAND FREE ENERGY PREDICTED BY IDOCK:   -5.94 KCAL/MOL
REMARK 924 INTRA-LIGAND FREE ENERGY PREDICTED BY IDOCK:   -0.78 KCAL/MOL
REMARK 927      BINDING AFFINITY PREDICTED BY RF-SCORE:    0.00 PKD
ROOT
HETATM    1  C   UNL     1      -6.509  16.060  69.691  1.00  0.00    -0.190 C  
HETATM    2  O   UNL     1      -7.572  15.373  69.015  1.00  0.00    -0.146 OA 
ENDROOT
BRANCH   2   3
HETATM    3  C   UNL     1      -7.511  15.459  67.662  1.00  0.00    -0.173 C  
HETATM    4  O   UNL     1      -6.522  15.743  67.011  1.00  0.00    -0.299 OA 
BRANCH   3   5
HETATM    5  C   UNL     1      -8.837  15.109  67.086  1.00  0.00    -0.236 C  
HETATM    6  C   UNL     1      -9.900  15.939  67.243  1.00  0.00    -0.234 C  
HETATM    7  N   UNL     1     -11.126  15.624  66.710  1.00  0.00    -0.235 NA 
HETATM    8  C   UNL     1      -8.964  13.765  66.349  1.00  0.00    -0.005 C  
HETATM    9  C   UNL     1     -11.384  14.418  66.062  1.00  0.00    -0.335 C  
HETATM   10  C   UNL     1     -12.807  14.249  65.579  1.00  0.00    -0.334 C  
HETATM   11  C   UNL     1     -10.402  13.488  65.882  1.00  0.00    -0.301 C  
BRANCH   6  12
HETATM   12  C   UNL     1      -9.796  17.134  68.177  1.00  0.00    -0.281 C  
HETATM   13  N   UNL     1      -9.710  18.125  68.951  1.00  0.00    -0.307 NA 
HETATM   14  H2  UNL     1     -10.641  18.201  68.542  1.00  0.00     0.000 HD 
HETATM   15  H1  UNL     1      -9.640  18.927  69.578  1.00  0.00     0.000 HD 
ENDBRANCH   6  12
BRANCH  11  16
HETATM   16  C   UNL     1     -10.754  12.167  65.275  1.00  0.00    -0.288 C  
HETATM   17  O   UNL     1     -11.649  11.459  65.713  1.00  0.00    -0.160 OA 
BRANCH  16  18
HETATM   18  O   UNL     1      -9.992  11.830  64.192  1.00  0.00    -0.266 OA 
BRANCH  18  19
HETATM   19  C   UNL     1      -9.883  10.397  63.975  1.00  0.00    -0.289 C  
HETATM   20  C   UNL     1      -9.421  10.131  62.544  1.00  0.00    -0.269 C  
HETATM   21  C   UNL     1      -8.902   9.778  64.966  1.00  0.00    -0.224 C  
ENDBRANCH  18  19
ENDBRANCH  16  18
ENDBRANCH  11  16
BRANCH   8  22
HETATM   22  C   UNL     1      -8.365  12.598  67.166  1.00  0.00    -0.172 A  
HETATM   23  C   UNL     1      -9.189  11.881  68.060  1.00  0.00    -0.190 A  
HETATM   24  C   UNL     1      -7.011  12.231  67.076  1.00  0.00    -0.036 A  
HETATM   25  C   UNL     1      -6.490  11.200  67.871  1.00  0.00    -0.058 A  
HETATM   26  C   UNL     1      -8.650  10.874  68.881  1.00  0.00    -0.140 A  
HETATM   27  O   UNL     1     -10.694  10.550  69.934  1.00  0.00    -0.267 OA 
HETATM   28  N   UNL     1      -9.501  10.216  69.885  1.00  0.00    -0.172 N  
HETATM   29  C   UNL     1      -7.301  10.526  68.784  1.00  0.00    -0.092 A  
HETATM   30  O   UNL     1      -8.972   9.378  70.633  1.00  0.00    -0.238 OA 
ENDBRANCH   8  22
ENDBRANCH   3   5
ENDBRANCH   2   3
TORSDOF 7
ENDMDL
MODEL      115
REMARK 921   NORMALIZED FREE ENERGY PREDICTED BY IDOCK:   -4.00 KCAL/MOL
REMARK 922        TOTAL FREE ENERGY PREDICTED BY IDOCK:   -6.69 KCAL/MOL
REMARK 923 INTER-LIGAND FREE ENERGY PREDICTED BY IDOCK:   -7.02 KCAL/MOL
REMARK 924 INTRA-LIGAND FREE ENERGY PREDICTED BY IDOCK:    0.33 KCAL/MOL
REMARK 927      BINDING AFFINITY PREDICTED BY RF-SCORE:    0.00 PKD
ROOT
HETATM    1  C   UNL     1     -12.162  13.465  69.799  1.00  0.00    -0.245 C  
HETATM    2  O   UNL     1     -12.124  12.112  69.322  1.00  0.00    -0.264 OA 
ENDROOT
BRANCH   2   3
HETATM    3  C   UNL     1     -11.524  11.971  68.113  1.00  0.00    -0.322 C  
HETATM    4  O   UNL     1     -12.066  12.093  67.030  1.00  0.00    -0.591 OA 
BRANCH   3   5
HETATM    5  C   UNL     1     -10.078  11.683  68.314  1.00  0.00    -0.206 C  
HETATM    6  C   UNL     1      -9.679  10.705  69.168  1.00  0.00    -0.189 C  
HETATM    7  N   UNL     1      -8.346  10.432  69.354  1.00  0.00    -0.161 NA 
HETATM    8  C   UNL     1      -9.064  12.555  67.554  1.00  0.00    -0.187 C  
HETATM    9  C   UNL     1      -7.329  11.177  68.762  1.00  0.00    -0.114 C  
HETATM   10  C   UNL     1      -5.927  10.738  69.122  1.00  0.00    -0.041 C  
HETATM   11  C   UNL     1      -7.610  12.212  67.917  1.00  0.00    -0.123 C  
BRANCH   6  12
HETATM   12  C   UNL     1     -10.695  10.033  70.075  1.00  0.00    -0.299 C  
HETATM   13  N   UNL     1     -11.539   9.475  70.829  1.00  0.00    -0.291 NA 
HETATM   14  H2  UNL     1     -11.128  10.210  71.405  1.00  0.00     0.000 HD 
HETATM   15  H1  UNL     1     -12.222   9.024  71.439  1.00  0.00     0.000 HD 
ENDBRANCH   6  12
BRANCH  11  16
HETATM   16  C   UNL     1      -6.487  13.047  67.391  1.00  0.00    -0.098 C  
HETATM   17  O   UNL     1      -5.509  12.563  66.839  1.00  0.00    -0.342 OA 
BRANCH  16  18
HETATM   18  O   UNL     1      -6.655  14.390  67.578  1.00  0.00    -0.231 OA 
BRANCH  18  19
HETATM   19  C   UNL     1      -5.425  15.095  67.901  1.00  0.00    -0.112 C  
HETATM   20  C   UNL     1      -5.466  16.496  67.296  1.00  0.00    -0.163 C  
HETATM   21  C   UNL     1      -5.239  15.182  69.413  1.00  0.00    -0.092 C  
ENDBRANCH  18  19
ENDBRANCH  16  18
ENDBRANCH  11  16
BRANCH   8  22
HETATM   22  C   UNL     1      -9.375  14.062  67.695  1.00  0.00    -0.203 A  
HETATM   23  C   UNL     1      -9.907  14.768  66.594  1.00  0.00    -0.270 A  
HETATM   24  C   UNL     1      -9.122  14.777  68.878  1.00  0.00    -0.168 A  
HETATM   25  C   UNL     1      -9.367  16.155  68.953  1.00  0.00    -0.235 A  
HETATM   26  C   UNL     1     -10.114  16.157  66.665  1.00  0.00    -0.276 A  
HETATM   27  O   UNL     1     -10.790  16.235  64.446  1.00  0.00    -0.648 OA 
HETATM   28  N   UNL     1     -10.562  16.892  65.472  1.00  0.00    -0.286 N  
HETATM   29  C   UNL     1      -9.851  16.853  67.847  1.00  0.00    -0.263 A  
HETATM   30  O   UNL     1     -10.672  18.126  65.559  1.00  0.00    -0.599 OA 
ENDBRANCH   8  22
ENDBRANCH   3   5
ENDBRANCH   2   3
TORSDOF 7
ENDMDL
MODEL      116
REMARK 921   NORMALIZED FREE ENERGY PREDICTED BY IDOCK:   -4.00 KCAL/MOL
REMARK 922        TOTAL FREE ENERGY PREDICTED BY IDOCK:   -6.69 KCAL/MOL
REMARK 923 INTER-LIGAND FREE ENERGY PREDICTED BY IDOCK:   -5.51 KCAL/MOL
REMARK 924 INTRA-LIGAND FREE ENERGY PREDICTED BY IDOCK:   -1.18 KCAL/MOL
REMARK 927      BINDING AFFINITY PREDICTED BY RF-SCORE:    0.00 PKD
ROOT
HETATM    1  C   UNL     1     -12.759   8.596  70.837  1.00  0.00     0.100 C  
HETATM    2  O   UNL     1     -11.502   9.261  70.641  1.00  0.00    -0.266 OA 
ENDROOT
BRANCH   2   3
HETATM    3  C   UNL     1     -10.701   8.663  69.723  1.00  0.00    -0.215 C  
HETATM    4  O   UNL     1     -11.034   7.775  68.959  1.00  0.00    -0.084 OA 
BRANCH   3   5
HETATM    5  C   UNL     1      -9.354   9.291  69.762  1.00  0.00    -0.199 C  
HETATM    6  C   UNL     1      -8.566   9.170  70.862  1.00  0.00    -0.206 C  
HETATM    7  N   UNL     1      -7.319   9.744  70.903  1.00  0.00    -0.324 NA 
HETATM    8  C   UNL     1      -8.911  10.109  68.537  1.00  0.00    -0.127 C  
HETATM    9  C   UNL     1      -6.820  10.548  69.880  1.00  0.00    -0.149 C  
HETATM   10  C   UNL     1      -5.441  11.114  70.132  1.00  0.00    -0.089 C  
HETATM   11  C   UNL     1      -7.541  10.775  68.744  1.00  0.00    -0.113 C  
BRANCH   6  12
HETATM   12  C   UNL     1      -9.131   8.562  72.134  1.00  0.00    -0.249 C  
HETATM   13  N   UNL     1      -9.601   8.058  73.191  1.00  0.00    -0.281 NA 
HETATM   14  H2  UNL     1      -9.478   9.047  73.412  1.00  0.00     0.000 HD 
HETATM   15  H1  UNL     1      -9.981   7.650  74.045  1.00  0.00     0.000 HD 
ENDBRANCH   6  12
BRANCH  11  16
HETATM   16  C   UNL     1      -7.007  11.729  67.722  1.00  0.00    -0.094 C  
HETATM   17  O   UNL     1      -7.320  12.911  67.698  1.00  0.00    -0.118 OA 
BRANCH  16  18
HETATM   18  O   UNL     1      -6.142  11.163  66.829  1.00  0.00    -0.091 OA 
BRANCH  18  19
HETATM   19  C   UNL     1      -6.685  10.002  66.142  1.00  0.00    -0.100 C  
HETATM   20  C   UNL     1      -7.276  10.433  64.802  1.00  0.00    -0.034 C  
HETATM   21  C   UNL     1      -5.601   8.953  65.924  1.00  0.00    -0.045 C  
ENDBRANCH  18  19
ENDBRANCH  16  18
ENDBRANCH  11  16
BRANCH   8  22
HETATM   22  C   UNL     1      -9.999  11.109  68.084  1.00  0.00    -0.189 A  
HETATM   23  C   UNL     1     -10.475  11.063  66.756  1.00  0.00    -0.300 A  
HETATM   24  C   UNL     1     -10.521  12.094  68.940  1.00  0.00    -0.142 A  
HETATM   25  C   UNL     1     -11.469  13.019  68.479  1.00  0.00    -0.340 A  
HETATM   26  C   UNL     1     -11.398  12.018  66.292  1.00  0.00    -0.357 A  
HETATM   27  O   UNL     1     -11.329  11.134  64.146  1.00  0.00    -0.191 OA 
HETATM   28  N   UNL     1     -11.796  12.021  64.875  1.00  0.00    -0.285 N  
HETATM   29  C   UNL     1     -11.902  12.994  67.153  1.00  0.00    -0.431 A  
HETATM   30  O   UNL     1     -12.563  12.920  64.491  1.00  0.00    -0.590 OA 
ENDBRANCH   8  22
ENDBRANCH   3   5
ENDBRANCH   2   3
TORSDOF 7
ENDMDL
MODEL      117
REMARK 921   NORMALIZED FREE ENERGY PREDICTED BY IDOCK:   -4.00 KCAL/MOL
REMARK 922        TOTAL FREE ENERGY PREDICTED BY IDOCK:   -6.69 KCAL/MOL
REMARK 923 INTER-LIGAND FREE ENERGY PREDICTED BY IDOCK:   -5.51 KCAL/MOL
REMARK 924 INTRA-LIGAND FREE ENERGY PREDICTED BY IDOCK:   -1.18 KCAL/MOL
REMARK 927      BINDING AFFINITY PREDICTED BY RF-SCORE:    0.00 PKD
ROOT
HETATM    1  C   UNL     1      -9.815   4.643  68.411  1.00  0.00    -0.102 C  
HETATM    2  O   UNL     1      -9.208   5.738  67.710  1.00  0.00    -0.107 OA 
ENDROOT
BRANCH   2   3
HETATM    3  C   UNL     1     -10.044   6.372  66.849  1.00  0.00    -0.187 C  
HETATM    4  O   UNL     1     -11.232   6.143  66.713  1.00  0.00    -0.279 OA 
BRANCH   3   5
HETATM    5  C   UNL     1      -9.292   7.427  66.120  1.00  0.00    -0.111 C  
HETATM    6  C   UNL     1      -8.234   7.103  65.332  1.00  0.00    -0.137 C  
HETATM    7  N   UNL     1      -7.538   8.073  64.652  1.00  0.00    -0.103 NA 
HETATM    8  C   UNL     1      -9.729   8.887  66.324  1.00  0.00    -0.345 C  
HETATM    9  C   UNL     1      -7.803   9.434  64.788  1.00  0.00    -0.118 C  
HETATM   10  C   UNL     1      -6.901  10.341  63.982  1.00  0.00    -0.054 C  
HETATM   11  C   UNL     1      -8.816   9.880  65.586  1.00  0.00    -0.184 C  
BRANCH   6  12
HETATM   12  C   UNL     1      -7.687   5.686  65.345  1.00  0.00    -0.087 C  
HETATM   13  N   UNL     1      -7.233   4.510  65.357  1.00  0.00    -0.067 NA 
HETATM   14  H2  UNL     1      -8.080   4.462  65.924  1.00  0.00     0.000 HD 
HETATM   15  H1  UNL     1      -6.865   3.558  65.366  1.00  0.00     0.000 HD 
ENDBRANCH   6  12
BRANCH  11  16
HETATM   16  C   UNL     1      -8.994  11.353  65.781  1.00  0.00    -0.151 C  
HETATM   17  O   UNL     1      -8.441  11.968  66.681  1.00  0.00    -0.180 OA 
BRANCH  16  18
HETATM   18  O   UNL     1      -9.820  11.941  64.866  1.00  0.00    -0.248 OA 
BRANCH  18  19
HETATM   19  C   UNL     1     -11.234  11.754  65.148  1.00  0.00    -0.250 C  
HETATM   20  C   UNL     1     -11.675  12.743  66.224  1.00  0.00    -0.460 C  
HETATM   21  C   UNL     1     -12.064  11.952  63.884  1.00  0.00    -0.505 C  
ENDBRANCH  18  19
ENDBRANCH  16  18
ENDBRANCH  11  16
BRANCH   8  22
HETATM   22  C   UNL     1      -9.905   9.236  67.819  1.00  0.00    -0.210 A  
HETATM   23  C   UNL     1      -8.843   9.000  68.718  1.00  0.00    -0.137 A  
HETATM   24  C   UNL     1     -11.103   9.759  68.336  1.00  0.00    -0.142 A  
HETATM   25  C   UNL     1     -11.246  10.014  69.707  1.00  0.00    -0.307 A  
HETATM   26  C   UNL     1      -9.006   9.223  70.097  1.00  0.00    -0.214 A  
HETATM   27  O   UNL     1      -6.876   8.417  70.546  1.00  0.00    -0.036 OA 
HETATM   28  N   UNL     1      -7.926   8.865  71.030  1.00  0.00    -0.141 N  
HETATM   29  C   UNL     1     -10.206   9.737  70.594  1.00  0.00    -0.290 A  
HETATM   30  O   UNL     1      -8.134   9.017  72.244  1.00  0.00    -0.355 OA 
ENDBRANCH   8  22
ENDBRANCH   3   5
ENDBRANCH   2   3
TORSDOF 7
ENDMDL
MODEL      118
REMARK 921   NORMALIZED FREE ENERGY PREDICTED BY IDOCK:   -4.00 KCAL/MOL
REMARK 922        TOTAL FREE ENERGY PREDICTED BY IDOCK:   -6.68 KCAL/MOL
REMARK 923 INTER-LIGAND FREE ENERGY PREDICTED BY IDOCK:   -6.14 KCAL/MOL
REMARK 924 INTRA-LIGAND FREE ENERGY PREDICTED BY IDOCK:   -0.54 KCAL/MOL
REMARK 927      BINDING AFFINITY PREDICTED BY RF-SCORE:    0.00 PKD
ROOT
HETATM    1  C   UNL     1     -11.981  15.129  70.032  1.00  0.00    -0.336 C  
HETATM    2  O   UNL     1     -11.450  13.796  70.061  1.00  0.00    -0.219 OA 
ENDROOT
BRANCH   2   3
HETATM    3  C   UNL     1     -12.014  12.959  69.153  1.00  0.00    -0.259 C  
HETATM    4  O   UNL     1     -12.486  13.287  68.080  1.00  0.00    -0.012 OA 
BRANCH   3   5
HETATM    5  C   UNL     1     -11.928  11.561  69.653  1.00  0.00    -0.407 C  
HETATM    6  C   UNL     1     -12.530  11.205  70.818  1.00  0.00    -0.384 C  
HETATM    7  N   UNL     1     -12.460   9.915  71.283  1.00  0.00    -0.352 NA 
HETATM    8  C   UNL     1     -11.106  10.556  68.829  1.00  0.00    -0.315 C  
HETATM    9  C   UNL     1     -11.709   8.923  70.656  1.00  0.00    -0.179 C  
HETATM   10  C   UNL     1     -11.732   7.577  71.346  1.00  0.00    -0.310 C  
HETATM   11  C   UNL     1     -11.027   9.175  69.501  1.00  0.00    -0.138 C  
BRANCH   6  12
HETATM   12  C   UNL     1     -13.126  12.274  71.719  1.00  0.00    -0.344 C  
HETATM   13  N   UNL     1     -13.620  13.162  72.466  1.00  0.00    -0.625 NA 
HETATM   14  H2  UNL     1     -13.378  13.657  71.607  1.00  0.00     0.000 HD 
HETATM   15  H1  UNL     1     -14.020  13.879  73.071  1.00  0.00     0.000 HD 
ENDBRANCH   6  12
BRANCH  11  16
HETATM   16  C   UNL     1     -10.152   8.108  68.924  1.00  0.00    -0.202 C  
HETATM   17  O   UNL     1      -9.215   7.621  69.541  1.00  0.00    -0.150 OA 
BRANCH  16  18
HETATM   18  O   UNL     1     -10.496   7.728  67.658  1.00  0.00    -0.226 OA 
BRANCH  18  19
HETATM   19  C   UNL     1      -9.358   7.533  66.775  1.00  0.00    -0.165 C  
HETATM   20  C   UNL     1      -9.529   6.227  66.004  1.00  0.00    -0.028 C  
HETATM   21  C   UNL     1      -9.226   8.702  65.804  1.00  0.00    -0.245 C  
ENDBRANCH  18  19
ENDBRANCH  16  18
ENDBRANCH  11  16
BRANCH   8  22
HETATM   22  C   UNL     1      -9.717  11.116  68.450  1.00  0.00    -0.191 A  
HETATM   23  C   UNL     1      -8.609  10.848  69.282  1.00  0.00     0.005 A  
HETATM   24  C   UNL     1      -9.511  11.915  67.312  1.00  0.00    -0.176 A  
HETATM   25  C   UNL     1      -8.247  12.451  67.027  1.00  0.00    -0.141 A  
HETATM   26  C   UNL     1      -7.353  11.420  69.010  1.00  0.00    -0.108 A  
HETATM   27  O   UNL     1      -6.445  10.501  70.939  1.00  0.00    -0.344 OA 
HETATM   28  N   UNL     1      -6.238  11.220  69.951  1.00  0.00    -0.123 N  
HETATM   29  C   UNL     1      -7.167  12.217  67.878  1.00  0.00    -0.106 A  
HETATM   30  O   UNL     1      -5.165  11.794  69.707  1.00  0.00    -0.064 OA 
ENDBRANCH   8  22
ENDBRANCH   3   5
ENDBRANCH   2   3
TORSDOF 7
ENDMDL
MODEL      119
REMARK 921   NORMALIZED FREE ENERGY PREDICTED BY IDOCK:   -3.99 KCAL/MOL
REMARK 922        TOTAL FREE ENERGY PREDICTED BY IDOCK:   -6.67 KCAL/MOL
REMARK 923 INTER-LIGAND FREE ENERGY PREDICTED BY IDOCK:   -7.44 KCAL/MOL
REMARK 924 INTRA-LIGAND FREE ENERGY PREDICTED BY IDOCK:    0.77 KCAL/MOL
REMARK 927      BINDING AFFINITY PREDICTED BY RF-SCORE:    0.00 PKD
ROOT
HETATM    1  C   UNL     1     -12.894  14.019  65.818  1.00  0.00    -0.377 C  
HETATM    2  O   UNL     1     -12.298  12.828  66.352  1.00  0.00    -0.500 OA 
ENDROOT
BRANCH   2   3
HETATM    3  C   UNL     1     -10.972  12.945  66.614  1.00  0.00    -0.276 C  
HETATM    4  O   UNL     1     -10.371  13.989  66.793  1.00  0.00    -0.266 OA 
BRANCH   3   5
HETATM    5  C   UNL     1     -10.364  11.590  66.693  1.00  0.00    -0.262 C  
HETATM    6  C   UNL     1     -10.322  10.786  65.599  1.00  0.00    -0.230 C  
HETATM    7  N   UNL     1      -9.758   9.535  65.663  1.00  0.00    -0.289 NA 
HETATM    8  C   UNL     1      -9.828  11.125  68.057  1.00  0.00    -0.185 C  
HETATM    9  C   UNL     1      -9.280   8.979  66.848  1.00  0.00    -0.142 C  
HETATM   10  C   UNL     1      -8.730   7.577  66.715  1.00  0.00    -0.138 C  
HETATM   11  C   UNL     1      -9.309   9.678  68.020  1.00  0.00    -0.142 C  
BRANCH   6  12
HETATM   12  C   UNL     1     -11.073  11.183  64.339  1.00  0.00    -0.104 C  
HETATM   13  N   UNL     1     -11.697  11.513  63.294  1.00  0.00    -0.867 NA 
HETATM   14  H2  UNL     1     -12.366  11.665  64.049  1.00  0.00     0.000 HD 
HETATM   15  H1  UNL     1     -12.201  11.781  62.448  1.00  0.00     0.000 HD 
ENDBRANCH   6  12
BRANCH  11  16
HETATM   16  C   UNL     1      -8.881   9.000  69.283  1.00  0.00    -0.139 C  
HETATM   17  O   UNL     1      -9.382   7.953  69.669  1.00  0.00    -0.153 OA 
BRANCH  16  18
HETATM   18  O   UNL     1      -7.886   9.650  69.956  1.00  0.00    -0.127 OA 
BRANCH  18  19
HETATM   19  C   UNL     1      -6.635   8.912  70.008  1.00  0.00    -0.042 C  
HETATM   20  C   UNL     1      -5.808   9.221  68.762  1.00  0.00    -0.040 C  
HETATM   21  C   UNL     1      -5.849   9.277  71.262  1.00  0.00    -0.067 C  
ENDBRANCH  18  19
ENDBRANCH  16  18
ENDBRANCH  11  16
BRANCH   8  22
HETATM   22  C   UNL     1     -10.848  11.364  69.193  1.00  0.00    -0.260 A  
HETATM   23  C   UNL     1     -11.334  10.265  69.933  1.00  0.00    -0.354 A  
HETATM   24  C   UNL     1     -11.341  12.643  69.507  1.00  0.00    -0.227 A  
HETATM   25  C   UNL     1     -12.306  12.816  70.509  1.00  0.00    -0.355 A  
HETATM   26  C   UNL     1     -12.330  10.443  70.910  1.00  0.00    -0.381 A  
HETATM   27  O   UNL     1     -12.442   8.158  71.304  1.00  0.00    -0.307 OA 
HETATM   28  N   UNL     1     -12.904   9.272  71.592  1.00  0.00    -0.348 N  
HETATM   29  C   UNL     1     -12.814  11.720  71.206  1.00  0.00    -0.409 A  
HETATM   30  O   UNL     1     -13.825   9.466  72.401  1.00  0.00    -0.451 OA 
ENDBRANCH   8  22
ENDBRANCH   3   5
ENDBRANCH   2   3
TORSDOF 7
ENDMDL
MODEL      120
REMARK 921   NORMALIZED FREE ENERGY PREDICTED BY IDOCK:   -3.99 KCAL/MOL
REMARK 922        TOTAL FREE ENERGY PREDICTED BY IDOCK:   -6.67 KCAL/MOL
REMARK 923 INTER-LIGAND FREE ENERGY PREDICTED BY IDOCK:   -5.57 KCAL/MOL
REMARK 924 INTRA-LIGAND FREE ENERGY PREDICTED BY IDOCK:   -1.10 KCAL/MOL
REMARK 927      BINDING AFFINITY PREDICTED BY RF-SCORE:    0.00 PKD
ROOT
HETATM    1  C   UNL     1     -12.070  12.366  69.165  1.00  0.00    -0.146 C  
HETATM    2  O   UNL     1     -12.100  11.464  68.050  1.00  0.00    -0.629 OA 
ENDROOT
BRANCH   2   3
HETATM    3  C   UNL     1     -11.308  11.842  67.014  1.00  0.00    -0.321 C  
HETATM    4  O   UNL     1     -11.668  11.991  65.861  1.00  0.00    -0.432 OA 
BRANCH   3   5
HETATM    5  C   UNL     1      -9.930  12.090  67.515  1.00  0.00    -0.199 C  
HETATM    6  C   UNL     1      -9.319  13.283  67.294  1.00  0.00    -0.226 C  
HETATM    7  N   UNL     1      -8.048  13.521  67.758  1.00  0.00    -0.161 NA 
HETATM    8  C   UNL     1      -9.219  10.942  68.249  1.00  0.00    -0.161 C  
HETATM    9  C   UNL     1      -7.279  12.549  68.395  1.00  0.00    -0.111 C  
HETATM   10  C   UNL     1      -5.892  13.000  68.798  1.00  0.00    -0.074 C  
HETATM   11  C   UNL     1      -7.774  11.300  68.634  1.00  0.00    -0.136 C  
BRANCH   6  12
HETATM   12  C   UNL     1      -9.958  14.300  66.363  1.00  0.00    -0.292 C  
HETATM   13  N   UNL     1     -10.488  15.144  65.591  1.00  0.00    -0.332 NA 
HETATM   14  H2  UNL     1     -10.919  15.322  66.499  1.00  0.00     0.000 HD 
HETATM   15  H1  UNL     1     -10.918  15.827  64.966  1.00  0.00     0.000 HD 
ENDBRANCH   6  12
BRANCH  11  16
HETATM   16  C   UNL     1      -6.874  10.262  69.226  1.00  0.00    -0.068 C  
HETATM   17  O   UNL     1      -6.140   9.561  68.544  1.00  0.00    -0.044 OA 
BRANCH  16  18
HETATM   18  O   UNL     1      -6.944  10.174  70.588  1.00  0.00    -0.298 OA 
BRANCH  18  19
HETATM   19  C   UNL     1      -7.047   8.810  71.082  1.00  0.00    -0.089 C  
HETATM   20  C   UNL     1      -6.037   8.597  72.206  1.00  0.00    -0.072 C  
HETATM   21  C   UNL     1      -8.459   8.528  71.585  1.00  0.00    -0.235 C  
ENDBRANCH  18  19
ENDBRANCH  16  18
ENDBRANCH  11  16
BRANCH   8  22
HETATM   22  C   UNL     1      -9.316   9.609  67.473  1.00  0.00    -0.149 A  
HETATM   23  C   UNL     1      -9.925   8.492  68.084  1.00  0.00    -0.214 A  
HETATM   24  C   UNL     1      -8.793   9.451  66.178  1.00  0.00    -0.178 A  
HETATM   25  C   UNL     1      -8.852   8.212  65.523  1.00  0.00    -0.130 A  
HETATM   26  C   UNL     1      -9.946   7.243  67.436  1.00  0.00    -0.174 A  
HETATM   27  O   UNL     1     -10.950   6.236  69.271  1.00  0.00    -0.297 OA 
HETATM   28  N   UNL     1     -10.484   6.065  68.135  1.00  0.00    -0.209 N  
HETATM   29  C   UNL     1      -9.416   7.102  66.152  1.00  0.00    -0.059 A  
HETATM   30  O   UNL     1     -10.426   4.970  67.553  1.00  0.00    -0.133 OA 
ENDBRANCH   8  22
ENDBRANCH   3   5
ENDBRANCH   2   3
TORSDOF 7
ENDMDL
MODEL      121
REMARK 921   NORMALIZED FREE ENERGY PREDICTED BY IDOCK:   -3.98 KCAL/MOL
REMARK 922        TOTAL FREE ENERGY PREDICTED BY IDOCK:   -6.65 KCAL/MOL
REMARK 923 INTER-LIGAND FREE ENERGY PREDICTED BY IDOCK:   -6.11 KCAL/MOL
REMARK 924 INTRA-LIGAND FREE ENERGY PREDICTED BY IDOCK:   -0.55 KCAL/MOL
REMARK 927      BINDING AFFINITY PREDICTED BY RF-SCORE:    0.00 PKD
ROOT
HETATM    1  C   UNL     1      -6.849  10.342  63.213  1.00  0.00    -0.049 C  
HETATM    2  O   UNL     1      -7.725  10.031  64.307  1.00  0.00    -0.136 OA 
ENDROOT
BRANCH   2   3
HETATM    3  C   UNL     1      -7.098   9.951  65.508  1.00  0.00    -0.118 C  
HETATM    4  O   UNL     1      -6.013  10.434  65.778  1.00  0.00    -0.093 OA 
BRANCH   3   5
HETATM    5  C   UNL     1      -7.963   9.214  66.466  1.00  0.00    -0.100 C  
HETATM    6  C   UNL     1      -8.500   8.012  66.130  1.00  0.00    -0.135 C  
HETATM    7  N   UNL     1      -9.296   7.324  67.012  1.00  0.00    -0.142 NA 
HETATM    8  C   UNL     1      -8.257   9.879  67.821  1.00  0.00    -0.114 C  
HETATM    9  C   UNL     1      -9.676   7.836  68.251  1.00  0.00    -0.159 C  
HETATM   10  C   UNL     1     -10.585   6.938  69.059  1.00  0.00    -0.240 C  
HETATM   11  C   UNL     1      -9.232   9.054  68.678  1.00  0.00    -0.136 C  
BRANCH   6  12
HETATM   12  C   UNL     1      -8.384   7.504  64.703  1.00  0.00     0.022 C  
HETATM   13  N   UNL     1      -8.287   7.082  63.519  1.00  0.00    -0.349 NA 
HETATM   14  H2  UNL     1      -7.385   6.863  63.942  1.00  0.00     0.000 HD 
HETATM   15  H1  UNL     1      -8.209   6.741  62.560  1.00  0.00     0.000 HD 
ENDBRANCH   6  12
BRANCH  11  16
HETATM   16  C   UNL     1      -9.751   9.607  69.968  1.00  0.00    -0.241 C  
HETATM   17  O   UNL     1      -9.053   9.711  70.967  1.00  0.00    -0.180 OA 
BRANCH  16  18
HETATM   18  O   UNL     1     -11.063   9.985  69.925  1.00  0.00    -0.253 OA 
BRANCH  18  19
HETATM   19  C   UNL     1     -11.744   9.881  71.205  1.00  0.00    -0.392 C  
HETATM   20  C   UNL     1     -13.026  10.709  71.169  1.00  0.00    -0.483 C  
HETATM   21  C   UNL     1     -12.070   8.425  71.522  1.00  0.00    -0.342 C  
ENDBRANCH  18  19
ENDBRANCH  16  18
ENDBRANCH  11  16
BRANCH   8  22
HETATM   22  C   UNL     1      -8.701  11.350  67.661  1.00  0.00    -0.136 A  
HETATM   23  C   UNL     1      -9.930  11.641  67.031  1.00  0.00    -0.226 A  
HETATM   24  C   UNL     1      -7.910  12.428  68.096  1.00  0.00    -0.146 A  
HETATM   25  C   UNL     1      -8.319  13.752  67.887  1.00  0.00    -0.172 A  
HETATM   26  C   UNL     1     -10.315  12.972  66.791  1.00  0.00    -0.254 A  
HETATM   27  O   UNL     1     -12.229  12.284  65.672  1.00  0.00    -0.605 OA 
HETATM   28  N   UNL     1     -11.545  13.253  66.033  1.00  0.00    -0.335 N  
HETATM   29  C   UNL     1      -9.515  14.032  67.224  1.00  0.00    -0.231 A  
HETATM   30  O   UNL     1     -11.817  14.439  65.788  1.00  0.00    -0.363 OA 
ENDBRANCH   8  22
ENDBRANCH   3   5
ENDBRANCH   2   3
TORSDOF 7
ENDMDL
MODEL      122
REMARK 921   NORMALIZED FREE ENERGY PREDICTED BY IDOCK:   -3.97 KCAL/MOL
REMARK 922        TOTAL FREE ENERGY PREDICTED BY IDOCK:   -6.64 KCAL/MOL
REMARK 923 INTER-LIGAND FREE ENERGY PREDICTED BY IDOCK:   -5.58 KCAL/MOL
REMARK 924 INTRA-LIGAND FREE ENERGY PREDICTED BY IDOCK:   -1.07 KCAL/MOL
REMARK 927      BINDING AFFINITY PREDICTED BY RF-SCORE:    0.00 PKD
ROOT
HETATM    1  C   UNL     1      -9.154   8.097  71.977  1.00  0.00    -0.180 C  
HETATM    2  O   UNL     1      -9.619   9.394  71.573  1.00  0.00    -0.250 OA 
ENDROOT
BRANCH   2   3
HETATM    3  C   UNL     1     -10.573   9.360  70.609  1.00  0.00    -0.290 C  
HETATM    4  O   UNL     1     -10.985   8.361  70.049  1.00  0.00    -0.244 OA 
BRANCH   3   5
HETATM    5  C   UNL     1     -11.077  10.739  70.368  1.00  0.00    -0.177 C  
HETATM    6  C   UNL     1     -12.204  11.182  70.983  1.00  0.00    -0.333 C  
HETATM    7  N   UNL     1     -12.671  12.455  70.768  1.00  0.00    -0.188 NA 
HETATM    8  C   UNL     1     -10.301  11.619  69.373  1.00  0.00     0.138 C  
HETATM    9  C   UNL     1     -12.088  13.334  69.858  1.00  0.00    -0.308 C  
HETATM   10  C   UNL     1     -12.774  14.676  69.742  1.00  0.00    -0.053 C  
HETATM   11  C   UNL     1     -10.975  12.983  69.150  1.00  0.00    -0.190 C  
BRANCH   6  12
HETATM   12  C   UNL     1     -13.069  10.209  71.766  1.00  0.00    -0.463 C  
HETATM   13  N   UNL     1     -13.788   9.401  72.415  1.00  0.00    -0.616 NA 
HETATM   14  H2  UNL     1     -14.048   9.247  71.441  1.00  0.00     0.000 HD 
HETATM   15  H1  UNL     1     -14.370   8.748  72.941  1.00  0.00     0.000 HD 
ENDBRANCH   6  12
BRANCH  11  16
HETATM   16  C   UNL     1     -10.449  13.920  68.109  1.00  0.00    -0.245 C  
HETATM   17  O   UNL     1     -11.083  14.210  67.104  1.00  0.00    -0.293 OA 
BRANCH  16  18
HETATM   18  O   UNL     1      -9.209  14.421  68.385  1.00  0.00    -0.185 OA 
BRANCH  18  19
HETATM   19  C   UNL     1      -9.234  15.667  69.134  1.00  0.00    -0.254 C  
HETATM   20  C   UNL     1      -7.805  16.158  69.355  1.00  0.00    -0.126 C  
HETATM   21  C   UNL     1     -10.042  16.724  68.389  1.00  0.00    -0.285 C  
ENDBRANCH  18  19
ENDBRANCH  16  18
ENDBRANCH  11  16
BRANCH   8  22
HETATM   22  C   UNL     1     -10.004  10.876  68.051  1.00  0.00    -0.188 A  
HETATM   23  C   UNL     1      -8.665  10.636  67.674  1.00  0.00    -0.121 A  
HETATM   24  C   UNL     1     -11.022  10.448  67.182  1.00  0.00    -0.263 A  
HETATM   25  C   UNL     1     -10.714   9.824  65.965  1.00  0.00     0.210 A  
HETATM   26  C   UNL     1      -8.364  10.044  66.435  1.00  0.00    -0.126 A  
HETATM   27  O   UNL     1      -6.084  10.280  66.803  1.00  0.00    -0.057 OA 
HETATM   28  N   UNL     1      -6.961   9.905  66.012  1.00  0.00    -0.099 N  
HETATM   29  C   UNL     1      -9.387   9.630  65.580  1.00  0.00    -0.309 A  
HETATM   30  O   UNL     1      -6.740   9.436  64.884  1.00  0.00    -0.080 OA 
ENDBRANCH   8  22
ENDBRANCH   3   5
ENDBRANCH   2   3
TORSDOF 7
ENDMDL
MODEL      123
REMARK 921   NORMALIZED FREE ENERGY PREDICTED BY IDOCK:   -3.97 KCAL/MOL
REMARK 922        TOTAL FREE ENERGY PREDICTED BY IDOCK:   -6.64 KCAL/MOL
REMARK 923 INTER-LIGAND FREE ENERGY PREDICTED BY IDOCK:   -6.63 KCAL/MOL
REMARK 924 INTRA-LIGAND FREE ENERGY PREDICTED BY IDOCK:   -0.01 KCAL/MOL
REMARK 927      BINDING AFFINITY PREDICTED BY RF-SCORE:    0.00 PKD
ROOT
HETATM    1  C   UNL     1     -10.187  19.960  67.536  1.00  0.00    -0.422 C  
HETATM    2  O   UNL     1      -9.266  18.868  67.673  1.00  0.00    -0.282 OA 
ENDROOT
BRANCH   2   3
HETATM    3  C   UNL     1      -9.638  17.947  68.597  1.00  0.00    -0.328 C  
HETATM    4  O   UNL     1     -10.667  17.967  69.248  1.00  0.00     0.034 OA 
BRANCH   3   5
HETATM    5  C   UNL     1      -8.609  16.876  68.666  1.00  0.00    -0.267 C  
HETATM    6  C   UNL     1      -7.309  17.180  68.916  1.00  0.00    -0.241 C  
HETATM    7  N   UNL     1      -6.354  16.195  68.986  1.00  0.00    -0.140 NA 
HETATM    8  C   UNL     1      -9.063  15.430  68.404  1.00  0.00    -0.191 C  
HETATM    9  C   UNL     1      -6.627  14.855  68.722  1.00  0.00    -0.087 C  
HETATM   10  C   UNL     1      -5.432  13.933  68.817  1.00  0.00    -0.082 C  
HETATM   11  C   UNL     1      -7.890  14.437  68.418  1.00  0.00    -0.138 C  
BRANCH   6  12
HETATM   12  C   UNL     1      -6.861  18.632  68.931  1.00  0.00    -0.283 C  
HETATM   13  N   UNL     1      -6.490  19.837  68.942  1.00  0.00    -0.289 NA 
HETATM   14  H2  UNL     1      -7.178  19.789  68.190  1.00  0.00     0.000 HD 
HETATM   15  H1  UNL     1      -6.190  20.813  68.952  1.00  0.00     0.000 HD 
ENDBRANCH   6  12
BRANCH  11  16
HETATM   16  C   UNL     1      -8.111  13.006  68.040  1.00  0.00    -0.157 C  
HETATM   17  O   UNL     1      -8.578  12.185  68.817  1.00  0.00    -0.046 OA 
BRANCH  16  18
HETATM   18  O   UNL     1      -7.753  12.706  66.757  1.00  0.00     0.020 OA 
BRANCH  18  19
HETATM   19  C   UNL     1      -7.506  11.290  66.533  1.00  0.00    -0.105 C  
HETATM   20  C   UNL     1      -8.476  10.763  65.480  1.00  0.00    -0.153 C  
HETATM   21  C   UNL     1      -6.067  11.063  66.082  1.00  0.00    -0.119 C  
ENDBRANCH  18  19
ENDBRANCH  16  18
ENDBRANCH  11  16
BRANCH   8  22
HETATM   22  C   UNL     1      -9.927  15.316  67.127  1.00  0.00    -0.233 A  
HETATM   23  C   UNL     1     -10.780  14.204  66.962  1.00  0.00    -0.285 A  
HETATM   24  C   UNL     1      -9.878  16.271  66.097  1.00  0.00    -0.358 A  
HETATM   25  C   UNL     1     -10.636  16.108  64.928  1.00  0.00    -0.203 A  
HETATM   26  C   UNL     1     -11.508  14.029  65.772  1.00  0.00    -0.318 A  
HETATM   27  O   UNL     1     -12.339  11.989  66.504  1.00  0.00    -0.377 OA 
HETATM   28  N   UNL     1     -12.305  12.808  65.574  1.00  0.00    -0.472 N  
HETATM   29  C   UNL     1     -11.444  14.984  64.755  1.00  0.00    -0.403 A  
HETATM   30  O   UNL     1     -12.881  12.662  64.484  1.00  0.00    -0.706 OA 
ENDBRANCH   8  22
ENDBRANCH   3   5
ENDBRANCH   2   3
TORSDOF 7
ENDMDL
MODEL      124
REMARK 921   NORMALIZED FREE ENERGY PREDICTED BY IDOCK:   -3.96 KCAL/MOL
REMARK 922        TOTAL FREE ENERGY PREDICTED BY IDOCK:   -6.63 KCAL/MOL
REMARK 923 INTER-LIGAND FREE ENERGY PREDICTED BY IDOCK:   -7.10 KCAL/MOL
REMARK 924 INTRA-LIGAND FREE ENERGY PREDICTED BY IDOCK:    0.47 KCAL/MOL
REMARK 927      BINDING AFFINITY PREDICTED BY RF-SCORE:    0.00 PKD
ROOT
HETATM    1  C   UNL     1      -8.569  15.362  66.403  1.00  0.00    -0.209 C  
HETATM    2  O   UNL     1      -9.867  15.969  66.466  1.00  0.00    -0.241 OA 
ENDROOT
BRANCH   2   3
HETATM    3  C   UNL     1     -10.892  15.100  66.276  1.00  0.00    -0.333 C  
HETATM    4  O   UNL     1     -11.346  14.759  65.199  1.00  0.00    -0.350 OA 
BRANCH   3   5
HETATM    5  C   UNL     1     -11.352  14.586  67.593  1.00  0.00    -0.354 C  
HETATM    6  C   UNL     1     -11.541  15.434  68.638  1.00  0.00    -0.359 C  
HETATM    7  N   UNL     1     -11.971  14.967  69.856  1.00  0.00    -0.314 NA 
HETATM    8  C   UNL     1     -11.563  13.070  67.736  1.00  0.00    -0.385 C  
HETATM    9  C   UNL     1     -12.153  13.613  70.129  1.00  0.00    -0.361 C  
HETATM   10  C   UNL     1     -12.595  13.303  71.541  1.00  0.00    -0.311 C  
HETATM   11  C   UNL     1     -11.952  12.665  69.168  1.00  0.00    -0.293 C  
BRANCH   6  12
HETATM   12  C   UNL     1     -11.095  16.882  68.528  1.00  0.00    -0.213 C  
HETATM   13  N   UNL     1     -10.724  18.084  68.436  1.00  0.00    -0.302 NA 
HETATM   14  H2  UNL     1     -11.386  17.961  67.669  1.00  0.00     0.000 HD 
HETATM   15  H1  UNL     1     -10.424  19.056  68.362  1.00  0.00     0.000 HD 
ENDBRANCH   6  12
BRANCH  11  16
HETATM   16  C   UNL     1     -12.058  11.220  69.537  1.00  0.00    -0.317 C  
HETATM   17  O   UNL     1     -13.020  10.531  69.230  1.00  0.00     0.088 OA 
BRANCH  16  18
HETATM   18  O   UNL     1     -10.988  10.743  70.240  1.00  0.00    -0.246 OA 
BRANCH  18  19
HETATM   19  C   UNL     1     -11.313   9.636  71.124  1.00  0.00    -0.386 C  
HETATM   20  C   UNL     1     -12.710   9.841  71.706  1.00  0.00    -0.519 C  
HETATM   21  C   UNL     1     -11.248   8.312  70.371  1.00  0.00    -0.222 C  
ENDBRANCH  18  19
ENDBRANCH  16  18
ENDBRANCH  11  16
BRANCH   8  22
HETATM   22  C   UNL     1     -10.361  12.264  67.194  1.00  0.00    -0.234 A  
HETATM   23  C   UNL     1      -9.129  12.305  67.882  1.00  0.00    -0.190 A  
HETATM   24  C   UNL     1     -10.434  11.504  66.014  1.00  0.00    -0.298 A  
HETATM   25  C   UNL     1      -9.308  10.827  65.522  1.00  0.00    -0.242 A  
HETATM   26  C   UNL     1      -7.995  11.655  67.362  1.00  0.00    -0.147 A  
HETATM   27  O   UNL     1      -6.662  12.468  69.079  1.00  0.00    -0.094 OA 
HETATM   28  N   UNL     1      -6.694  11.803  68.034  1.00  0.00    -0.065 N  
HETATM   29  C   UNL     1      -8.083  10.909  66.184  1.00  0.00    -0.160 A  
HETATM   30  O   UNL     1      -5.706  11.266  67.508  1.00  0.00    -0.044 OA 
ENDBRANCH   8  22
ENDBRANCH   3   5
ENDBRANCH   2   3
TORSDOF 7
ENDMDL
MODEL      125
REMARK 921   NORMALIZED FREE ENERGY PREDICTED BY IDOCK:   -3.94 KCAL/MOL
REMARK 922        TOTAL FREE ENERGY PREDICTED BY IDOCK:   -6.60 KCAL/MOL
REMARK 923 INTER-LIGAND FREE ENERGY PREDICTED BY IDOCK:   -5.31 KCAL/MOL
REMARK 924 INTRA-LIGAND FREE ENERGY PREDICTED BY IDOCK:   -1.29 KCAL/MOL
REMARK 927      BINDING AFFINITY PREDICTED BY RF-SCORE:    0.00 PKD
ROOT
HETATM    1  C   UNL     1      -8.280   8.238  73.539  1.00  0.00    -0.185 C  
HETATM    2  O   UNL     1      -8.160   8.861  72.252  1.00  0.00    -0.376 OA 
ENDROOT
BRANCH   2   3
HETATM    3  C   UNL     1      -7.294   8.234  71.416  1.00  0.00    -0.083 C  
HETATM    4  O   UNL     1      -6.267   7.672  71.746  1.00  0.00    -0.039 OA 
BRANCH   3   5
HETATM    5  C   UNL     1      -7.818   8.302  70.025  1.00  0.00    -0.104 C  
HETATM    6  C   UNL     1      -7.599   9.401  69.257  1.00  0.00    -0.081 C  
HETATM    7  N   UNL     1      -8.076   9.468  67.970  1.00  0.00    -0.102 NA 
HETATM    8  C   UNL     1      -8.642   7.109  69.512  1.00  0.00    -0.134 C  
HETATM    9  C   UNL     1      -8.874   8.477  67.404  1.00  0.00    -0.134 C  
HETATM   10  C   UNL     1      -9.326   8.756  65.988  1.00  0.00    -0.296 C  
HETATM   11  C   UNL     1      -9.195   7.346  68.097  1.00  0.00    -0.133 C  
BRANCH   6  12
HETATM   12  C   UNL     1      -6.992  10.648  69.876  1.00  0.00    -0.146 C  
HETATM   13  N   UNL     1      -6.489  11.684  70.391  1.00  0.00    -0.515 NA 
HETATM   14  H2  UNL     1      -6.420  10.976  71.122  1.00  0.00     0.000 HD 
HETATM   15  H1  UNL     1      -6.081  12.522  70.807  1.00  0.00     0.000 HD 
ENDBRANCH   6  12
BRANCH  11  16
HETATM   16  C   UNL     1     -10.140   6.360  67.485  1.00  0.00    -0.155 C  
HETATM   17  O   UNL     1     -11.321   6.613  67.295  1.00  0.00    -0.324 OA 
BRANCH  16  18
HETATM   18  O   UNL     1      -9.565   5.166  67.157  1.00  0.00    -0.130 OA 
BRANCH  18  19
HETATM   19  C   UNL     1      -9.273   5.025  65.740  1.00  0.00    -0.156 C  
HETATM   20  C   UNL     1      -7.784   4.750  65.550  1.00  0.00    -0.086 C  
HETATM   21  C   UNL     1     -10.097   3.894  65.133  1.00  0.00    -0.145 C  
ENDBRANCH  18  19
ENDBRANCH  16  18
ENDBRANCH  11  16
BRANCH   8  22
HETATM   22  C   UNL     1      -9.736   6.685  70.518  1.00  0.00    -0.187 A  
HETATM   23  C   UNL     1      -9.562   5.510  71.280  1.00  0.00    -0.198 A  
HETATM   24  C   UNL     1     -10.926   7.414  70.689  1.00  0.00    -0.274 A  
HETATM   25  C   UNL     1     -11.921   6.972  71.572  1.00  0.00    -0.372 A  
HETATM   26  C   UNL     1     -10.581   5.053  72.135  1.00  0.00    -0.193 A  
HETATM   27  O   UNL     1      -9.362   3.152  72.675  1.00  0.00    -0.096 OA 
HETATM   28  N   UNL     1     -10.426   3.767  72.835  1.00  0.00    -0.171 N  
HETATM   29  C   UNL     1     -11.760   5.786  72.289  1.00  0.00    -0.265 A  
HETATM   30  O   UNL     1     -11.375   3.369  73.530  1.00  0.00    -0.230 OA 
ENDBRANCH   8  22
ENDBRANCH   3   5
ENDBRANCH   2   3
TORSDOF 7
ENDMDL
MODEL      126
REMARK 921   NORMALIZED FREE ENERGY PREDICTED BY IDOCK:   -3.94 KCAL/MOL
REMARK 922        TOTAL FREE ENERGY PREDICTED BY IDOCK:   -6.60 KCAL/MOL
REMARK 923 INTER-LIGAND FREE ENERGY PREDICTED BY IDOCK:   -5.89 KCAL/MOL
REMARK 924 INTRA-LIGAND FREE ENERGY PREDICTED BY IDOCK:   -0.71 KCAL/MOL
REMARK 927      BINDING AFFINITY PREDICTED BY RF-SCORE:    0.00 PKD
ROOT
HETATM    1  C   UNL     1      -9.895  13.507  68.013  1.00  0.00    -0.238 C  
HETATM    2  O   UNL     1      -9.820  12.078  67.905  1.00  0.00    -0.185 OA 
ENDROOT
BRANCH   2   3
HETATM    3  C   UNL     1      -8.554  11.590  67.933  1.00  0.00    -0.143 C  
HETATM    4  O   UNL     1      -7.591  12.138  68.437  1.00  0.00    -0.116 OA 
BRANCH   3   5
HETATM    5  C   UNL     1      -8.529  10.250  67.287  1.00  0.00    -0.125 C  
HETATM    6  C   UNL     1      -8.847  10.110  65.974  1.00  0.00    -0.143 C  
HETATM    7  N   UNL     1      -8.822   8.877  65.370  1.00  0.00    -0.193 NA 
HETATM    8  C   UNL     1      -8.172   9.039  68.165  1.00  0.00    -0.113 C  
HETATM    9  C   UNL     1      -8.561   7.697  66.064  1.00  0.00    -0.151 C  
HETATM   10  C   UNL     1      -8.615   6.441  65.224  1.00  0.00    -0.051 C  
HETATM   11  C   UNL     1      -8.269   7.711  67.397  1.00  0.00    -0.116 C  
BRANCH   6  12
HETATM   12  C   UNL     1      -9.424  11.287  65.205  1.00  0.00    -0.221 C  
HETATM   13  N   UNL     1      -9.903  12.264  64.568  1.00  0.00    -0.478 NA 
HETATM   14  H2  UNL     1     -10.480  12.199  65.407  1.00  0.00     0.000 HD 
HETATM   15  H1  UNL     1     -10.290  13.055  64.052  1.00  0.00     0.000 HD 
ENDBRANCH   6  12
BRANCH  11  16
HETATM   16  C   UNL     1      -8.100   6.411  68.118  1.00  0.00    -0.113 C  
HETATM   17  O   UNL     1      -7.036   6.067  68.612  1.00  0.00    -0.076 OA 
BRANCH  16  18
HETATM   18  O   UNL     1      -9.236   5.655  68.178  1.00  0.00    -0.110 OA 
BRANCH  18  19
HETATM   19  C   UNL     1      -9.735   5.453  69.529  1.00  0.00    -0.176 C  
HETATM   20  C   UNL     1     -11.158   5.994  69.634  1.00  0.00    -0.474 C  
HETATM   21  C   UNL     1      -9.710   3.972  69.893  1.00  0.00    -0.263 C  
ENDBRANCH  18  19
ENDBRANCH  16  18
ENDBRANCH  11  16
BRANCH   8  22
HETATM   22  C   UNL     1      -8.974   9.025  69.486  1.00  0.00    -0.147 A  
HETATM   23  C   UNL     1     -10.290   9.536  69.506  1.00  0.00    -0.229 A  
HETATM   24  C   UNL     1      -8.433   8.545  70.691  1.00  0.00    -0.158 A  
HETATM   25  C   UNL     1      -9.171   8.595  71.883  1.00  0.00    -0.345 A  
HETATM   26  C   UNL     1     -11.009   9.618  70.712  1.00  0.00    -0.327 A  
HETATM   27  O   UNL     1     -12.792  10.660  69.653  1.00  0.00    -0.177 OA 
HETATM   28  N   UNL     1     -12.335  10.256  70.732  1.00  0.00    -0.326 N  
HETATM   29  C   UNL     1     -10.454   9.142  71.902  1.00  0.00    -0.280 A  
HETATM   30  O   UNL     1     -12.908  10.366  71.827  1.00  0.00    -0.417 OA 
ENDBRANCH   8  22
ENDBRANCH   3   5
ENDBRANCH   2   3
TORSDOF 7
ENDMDL
MODEL      127
REMARK 921   NORMALIZED FREE ENERGY PREDICTED BY IDOCK:   -3.90 KCAL/MOL
REMARK 922        TOTAL FREE ENERGY PREDICTED BY IDOCK:   -6.55 KCAL/MOL
REMARK 923 INTER-LIGAND FREE ENERGY PREDICTED BY IDOCK:   -5.64 KCAL/MOL
REMARK 924 INTRA-LIGAND FREE ENERGY PREDICTED BY IDOCK:   -0.91 KCAL/MOL
REMARK 927      BINDING AFFINITY PREDICTED BY RF-SCORE:    0.00 PKD
ROOT
HETATM    1  C   UNL     1     -11.626  10.121  70.865  1.00  0.00    -0.372 C  
HETATM    2  O   UNL     1     -10.624  10.135  69.838  1.00  0.00    -0.251 OA 
ENDROOT
BRANCH   2   3
HETATM    3  C   UNL     1     -11.125  10.245  68.582  1.00  0.00    -0.239 C  
HETATM    4  O   UNL     1     -12.117  10.875  68.264  1.00  0.00    -0.562 OA 
BRANCH   3   5
HETATM    5  C   UNL     1     -10.246   9.507  67.636  1.00  0.00    -0.273 C  
HETATM    6  C   UNL     1     -10.262   8.150  67.592  1.00  0.00    -0.234 C  
HETATM    7  N   UNL     1      -9.457   7.463  66.717  1.00  0.00    -0.168 NA 
HETATM    8  C   UNL     1      -9.299  10.333  66.748  1.00  0.00    -0.187 C  
HETATM    9  C   UNL     1      -8.522   8.089  65.894  1.00  0.00    -0.143 C  
HETATM   10  C   UNL     1      -7.708   7.152  65.030  1.00  0.00    -0.115 C  
HETATM   11  C   UNL     1      -8.387   9.447  65.884  1.00  0.00    -0.125 C  
BRANCH   6  12
HETATM   12  C   UNL     1     -11.030   7.368  68.644  1.00  0.00     0.055 C  
HETATM   13  N   UNL     1     -11.666   6.719  69.519  1.00  0.00    -0.637 NA 
HETATM   14  H2  UNL     1     -10.710   6.370  69.587  1.00  0.00     0.000 HD 
HETATM   15  H1  UNL     1     -12.181   6.194  70.226  1.00  0.00     0.000 HD 
ENDBRANCH   6  12
BRANCH  11  16
HETATM   16  C   UNL     1      -7.299  10.063  65.062  1.00  0.00    -0.140 C  
HETATM   17  O   UNL     1      -6.144  10.142  65.454  1.00  0.00    -0.084 OA 
BRANCH  16  18
HETATM   18  O   UNL     1      -7.713  10.522  63.844  1.00  0.00    -0.078 OA 
BRANCH  18  19
HETATM   19  C   UNL     1      -9.113  10.251  63.560  1.00  0.00    -0.264 C  
HETATM   20  C   UNL     1      -9.850  11.568  63.330  1.00  0.00    -0.431 C  
HETATM   21  C   UNL     1      -9.247   9.354  62.334  1.00  0.00    -0.100 C  
ENDBRANCH  18  19
ENDBRANCH  16  18
ENDBRANCH  11  16
BRANCH   8  22
HETATM   22  C   UNL     1      -8.512  11.385  67.562  1.00  0.00    -0.137 A  
HETATM   23  C   UNL     1      -8.744  12.758  67.330  1.00  0.00    -0.196 A  
HETATM   24  C   UNL     1      -7.543  11.030  68.515  1.00  0.00    -0.114 A  
HETATM   25  C   UNL     1      -6.810  12.012  69.197  1.00  0.00    -0.090 A  
HETATM   26  C   UNL     1      -7.978  13.736  67.990  1.00  0.00    -0.156 A  
HETATM   27  O   UNL     1      -9.028  15.442  66.817  1.00  0.00    -0.219 OA 
HETATM   28  N   UNL     1      -8.158  15.157  67.652  1.00  0.00    -0.149 N  
HETATM   29  C   UNL     1      -7.014  13.366  68.931  1.00  0.00    -0.102 A  
HETATM   30  O   UNL     1      -7.418  15.983  68.211  1.00  0.00    -0.130 OA 
ENDBRANCH   8  22
ENDBRANCH   3   5
ENDBRANCH   2   3
TORSDOF 7
ENDMDL
MODEL      128
REMARK 921   NORMALIZED FREE ENERGY PREDICTED BY IDOCK:   -3.90 KCAL/MOL
REMARK 922        TOTAL FREE ENERGY PREDICTED BY IDOCK:   -6.54 KCAL/MOL
REMARK 923 INTER-LIGAND FREE ENERGY PREDICTED BY IDOCK:   -5.50 KCAL/MOL
REMARK 924 INTRA-LIGAND FREE ENERGY PREDICTED BY IDOCK:   -1.04 KCAL/MOL
REMARK 927      BINDING AFFINITY PREDICTED BY RF-SCORE:    0.00 PKD
ROOT
HETATM    1  C   UNL     1     -11.777  10.124  70.778  1.00  0.00    -0.357 C  
HETATM    2  O   UNL     1     -10.722   9.892  69.833  1.00  0.00    -0.239 OA 
ENDROOT
BRANCH   2   3
HETATM    3  C   UNL     1     -11.097  10.058  68.539  1.00  0.00    -0.167 C  
HETATM    4  O   UNL     1     -12.003  10.769  68.145  1.00  0.00    -0.527 OA 
BRANCH   3   5
HETATM    5  C   UNL     1     -10.196   9.264  67.661  1.00  0.00    -0.285 C  
HETATM    6  C   UNL     1     -10.214   7.906  67.698  1.00  0.00    -0.226 C  
HETATM    7  N   UNL     1      -9.388   7.167  66.887  1.00  0.00    -0.148 NA 
HETATM    8  C   UNL     1      -9.226  10.034  66.749  1.00  0.00    -0.173 C  
HETATM    9  C   UNL     1      -8.433   7.742  66.051  1.00  0.00    -0.139 C  
HETATM   10  C   UNL     1      -7.599   6.755  65.266  1.00  0.00    -0.092 C  
HETATM   11  C   UNL     1      -8.295   9.097  65.962  1.00  0.00    -0.125 C  
BRANCH   6  12
HETATM   12  C   UNL     1     -11.009   7.190  68.777  1.00  0.00    -0.050 C  
HETATM   13  N   UNL     1     -11.668   6.595  69.672  1.00  0.00    -0.657 NA 
HETATM   14  H2  UNL     1     -11.319   5.847  69.072  1.00  0.00     0.000 HD 
HETATM   15  H1  UNL     1     -12.202   6.113  70.396  1.00  0.00     0.000 HD 
ENDBRANCH   6  12
BRANCH  11  16
HETATM   16  C   UNL     1      -7.186   9.662  65.132  1.00  0.00    -0.115 C  
HETATM   17  O   UNL     1      -6.007   9.437  65.368  1.00  0.00    -0.060 OA 
BRANCH  16  18
HETATM   18  O   UNL     1      -7.608  10.443  64.094  1.00  0.00    -0.118 OA 
BRANCH  18  19
HETATM   19  C   UNL     1      -8.764   9.908  63.392  1.00  0.00    -0.224 C  
HETATM   20  C   UNL     1      -9.515  11.046  62.706  1.00  0.00    -0.361 C  
HETATM   21  C   UNL     1      -8.333   8.868  62.363  1.00  0.00    -0.194 C  
ENDBRANCH  18  19
ENDBRANCH  16  18
ENDBRANCH  11  16
BRANCH   8  22
HETATM   22  C   UNL     1      -8.458  11.133  67.517  1.00  0.00    -0.126 A  
HETATM   23  C   UNL     1      -7.560  10.766  68.543  1.00  0.00    -0.104 A  
HETATM   24  C   UNL     1      -8.637  12.502  67.253  1.00  0.00    -0.191 A  
HETATM   25  C   UNL     1      -7.962  13.474  68.006  1.00  0.00    -0.151 A  
HETATM   26  C   UNL     1      -6.917  11.748  69.317  1.00  0.00    -0.065 A  
HETATM   27  O   UNL     1      -5.923  10.133  70.655  1.00  0.00    -0.084 OA 
HETATM   28  N   UNL     1      -6.073  11.346  70.454  1.00  0.00    -0.152 N  
HETATM   29  C   UNL     1      -7.111  13.104  69.047  1.00  0.00    -0.030 A  
HETATM   30  O   UNL     1      -5.575  12.244  71.152  1.00  0.00    -0.341 OA 
ENDBRANCH   8  22
ENDBRANCH   3   5
ENDBRANCH   2   3
TORSDOF 7
ENDMDL
MODEL      129
REMARK 921   NORMALIZED FREE ENERGY PREDICTED BY IDOCK:   -3.89 KCAL/MOL
REMARK 922        TOTAL FREE ENERGY PREDICTED BY IDOCK:   -6.53 KCAL/MOL
REMARK 923 INTER-LIGAND FREE ENERGY PREDICTED BY IDOCK:   -5.92 KCAL/MOL
REMARK 924 INTRA-LIGAND FREE ENERGY PREDICTED BY IDOCK:   -0.62 KCAL/MOL
REMARK 927      BINDING AFFINITY PREDICTED BY RF-SCORE:    0.00 PKD
ROOT
HETATM    1  C   UNL     1      -6.018  11.151  69.085  1.00  0.00    -0.044 C  
HETATM    2  O   UNL     1      -7.041  12.082  68.702  1.00  0.00    -0.091 OA 
ENDROOT
BRANCH   2   3
HETATM    3  C   UNL     1      -7.769  11.686  67.627  1.00  0.00    -0.133 C  
HETATM    4  O   UNL     1      -7.714  12.172  66.512  1.00  0.00     0.042 OA 
BRANCH   3   5
HETATM    5  C   UNL     1      -8.623  10.531  68.010  1.00  0.00    -0.121 C  
HETATM    6  C   UNL     1      -8.383   9.294  67.501  1.00  0.00    -0.119 C  
HETATM    7  N   UNL     1      -9.164   8.222  67.854  1.00  0.00    -0.132 NA 
HETATM    8  C   UNL     1      -9.800  10.796  68.963  1.00  0.00    -0.208 C  
HETATM    9  C   UNL     1     -10.288   8.337  68.670  1.00  0.00    -0.200 C  
HETATM   10  C   UNL     1     -11.034   7.045  68.911  1.00  0.00    -0.162 C  
HETATM   11  C   UNL     1     -10.651   9.539  69.206  1.00  0.00    -0.236 C  
BRANCH   6  12
HETATM   12  C   UNL     1      -7.367   9.121  66.384  1.00  0.00    -0.092 C  
HETATM   13  N   UNL     1      -6.525   8.977  65.457  1.00  0.00    -0.067 NA 
HETATM   14  H2  UNL     1      -7.046   9.816  65.201  1.00  0.00     0.000 HD 
HETATM   15  H1  UNL     1      -5.842   8.861  64.707  1.00  0.00     0.000 HD 
ENDBRANCH   6  12
BRANCH  11  16
HETATM   16  C   UNL     1     -11.923   9.631  69.990  1.00  0.00     0.120 C  
HETATM   17  O   UNL     1     -12.900  10.246  69.587  1.00  0.00     0.010 OA 
BRANCH  16  18
HETATM   18  O   UNL     1     -11.892   8.968  71.183  1.00  0.00    -0.281 OA 
BRANCH  18  19
HETATM   19  C   UNL     1     -13.153   8.335  71.534  1.00  0.00    -0.293 C  
HETATM   20  C   UNL     1     -12.903   6.882  71.927  1.00  0.00    -0.290 C  
HETATM   21  C   UNL     1     -13.825   9.081  72.683  1.00  0.00    -0.414 C  
ENDBRANCH  18  19
ENDBRANCH  16  18
ENDBRANCH  11  16
BRANCH   8  22
HETATM   22  C   UNL     1     -10.645  12.011  68.517  1.00  0.00    -0.252 A  
HETATM   23  C   UNL     1     -11.229  12.017  67.232  1.00  0.00    -0.371 A  
HETATM   24  C   UNL     1     -10.836  13.138  69.335  1.00  0.00     0.031 A  
HETATM   25  C   UNL     1     -11.564  14.245  68.877  1.00  0.00    -0.340 A  
HETATM   26  C   UNL     1     -11.926  13.147  66.767  1.00  0.00    -0.373 A  
HETATM   27  O   UNL     1     -12.259  12.165  64.690  1.00  0.00    -0.369 OA 
HETATM   28  N   UNL     1     -12.431  13.177  65.384  1.00  0.00    -0.478 N  
HETATM   29  C   UNL     1     -12.101  14.261  67.590  1.00  0.00    -0.332 A  
HETATM   30  O   UNL     1     -12.984  14.217  64.992  1.00  0.00    -0.721 OA 
ENDBRANCH   8  22
ENDBRANCH   3   5
ENDBRANCH   2   3
TORSDOF 7
ENDMDL
MODEL      130
REMARK 921   NORMALIZED FREE ENERGY PREDICTED BY IDOCK:   -3.89 KCAL/MOL
REMARK 922        TOTAL FREE ENERGY PREDICTED BY IDOCK:   -6.53 KCAL/MOL
REMARK 923 INTER-LIGAND FREE ENERGY PREDICTED BY IDOCK:   -5.13 KCAL/MOL
REMARK 924 INTRA-LIGAND FREE ENERGY PREDICTED BY IDOCK:   -1.40 KCAL/MOL
REMARK 927      BINDING AFFINITY PREDICTED BY RF-SCORE:    0.00 PKD
ROOT
HETATM    1  C   UNL     1      -9.408   3.357  67.734  1.00  0.00    -0.194 C  
HETATM    2  O   UNL     1      -9.944   4.680  67.883  1.00  0.00    -0.143 OA 
ENDROOT
BRANCH   2   3
HETATM    3  C   UNL     1      -9.157   5.513  68.610  1.00  0.00    -0.117 C  
HETATM    4  O   UNL     1      -8.651   5.255  69.687  1.00  0.00    -0.096 OA 
BRANCH   3   5
HETATM    5  C   UNL     1      -8.969   6.786  67.865  1.00  0.00    -0.113 C  
HETATM    6  C   UNL     1      -7.898   6.958  67.047  1.00  0.00    -0.111 C  
HETATM    7  N   UNL     1      -7.721   8.129  66.352  1.00  0.00    -0.090 NA 
HETATM    8  C   UNL     1     -10.002   7.904  68.086  1.00  0.00    -0.210 C  
HETATM    9  C   UNL     1      -8.558   9.233  66.500  1.00  0.00    -0.130 C  
HETATM   10  C   UNL     1      -8.172  10.439  65.674  1.00  0.00    -0.158 C  
HETATM   11  C   UNL     1      -9.643   9.192  67.328  1.00  0.00    -0.200 C  
BRANCH   6  12
HETATM   12  C   UNL     1      -6.780   5.929  67.040  1.00  0.00    -0.061 C  
HETATM   13  N   UNL     1      -5.852   5.075  67.035  1.00  0.00    -0.024 NA 
HETATM   14  H2  UNL     1      -6.388   4.864  67.876  1.00  0.00     0.000 HD 
HETATM   15  H1  UNL     1      -5.101   4.385  67.030  1.00  0.00     0.000 HD 
ENDBRANCH   6  12
BRANCH  11  16
HETATM   16  C   UNL     1     -10.449  10.435  67.533  1.00  0.00    -0.245 C  
HETATM   17  O   UNL     1     -11.545  10.601  67.018  1.00  0.00    -0.254 OA 
BRANCH  16  18
HETATM   18  O   UNL     1      -9.855  11.357  68.347  1.00  0.00    -0.192 OA 
BRANCH  18  19
HETATM   19  C   UNL     1     -10.066  12.733  67.926  1.00  0.00    -0.231 C  
HETATM   20  C   UNL     1     -11.003  13.429  68.909  1.00  0.00    -0.284 C  
HETATM   21  C   UNL     1      -8.738  13.479  67.849  1.00  0.00    -0.183 C  
ENDBRANCH  18  19
ENDBRANCH  16  18
ENDBRANCH  11  16
BRANCH   8  22
HETATM   22  C   UNL     1     -10.275   8.151  69.587  1.00  0.00    -0.205 A  
HETATM   23  C   UNL     1     -11.573   7.943  70.101  1.00  0.00     0.056 A  
HETATM   24  C   UNL     1      -9.280   8.608  70.469  1.00  0.00    -0.201 A  
HETATM   25  C   UNL     1      -9.576   8.872  71.814  1.00  0.00    -0.353 A  
HETATM   26  C   UNL     1     -11.871   8.247  71.442  1.00  0.00    -0.293 A  
HETATM   27  O   UNL     1     -14.109   7.713  71.133  1.00  0.00    -0.305 OA 
HETATM   28  N   UNL     1     -13.255   8.130  71.929  1.00  0.00    -0.333 N  
HETATM   29  C   UNL     1     -10.872   8.706  72.304  1.00  0.00    -0.392 A  
HETATM   30  O   UNL     1     -13.487   8.469  73.100  1.00  0.00    -0.067 OA 
ENDBRANCH   8  22
ENDBRANCH   3   5
ENDBRANCH   2   3
TORSDOF 7
ENDMDL
MODEL      131
REMARK 921   NORMALIZED FREE ENERGY PREDICTED BY IDOCK:   -3.89 KCAL/MOL
REMARK 922        TOTAL FREE ENERGY PREDICTED BY IDOCK:   -6.53 KCAL/MOL
REMARK 923 INTER-LIGAND FREE ENERGY PREDICTED BY IDOCK:   -5.25 KCAL/MOL
REMARK 924 INTRA-LIGAND FREE ENERGY PREDICTED BY IDOCK:   -1.28 KCAL/MOL
REMARK 927      BINDING AFFINITY PREDICTED BY RF-SCORE:    0.00 PKD
ROOT
HETATM    1  C   UNL     1     -11.752  10.167  70.165  1.00  0.00    -0.256 C  
HETATM    2  O   UNL     1     -11.453  11.559  69.983  1.00  0.00    -0.282 OA 
ENDROOT
BRANCH   2   3
HETATM    3  C   UNL     1     -11.304  11.924  68.685  1.00  0.00    -0.276 C  
HETATM    4  O   UNL     1     -12.109  11.727  67.793  1.00  0.00    -0.595 OA 
BRANCH   3   5
HETATM    5  C   UNL     1     -10.015  12.647  68.522  1.00  0.00    -0.166 C  
HETATM    6  C   UNL     1      -9.970  14.004  68.580  1.00  0.00    -0.203 C  
HETATM    7  N   UNL     1      -8.782  14.677  68.436  1.00  0.00    -0.169 NA 
HETATM    8  C   UNL     1      -8.755  11.809  68.249  1.00  0.00    -0.167 C  
HETATM    9  C   UNL     1      -7.579  14.039  68.138  1.00  0.00    -0.141 C  
HETATM   10  C   UNL     1      -6.391  14.962  67.984  1.00  0.00    -0.163 C  
HETATM   11  C   UNL     1      -7.511  12.682  68.014  1.00  0.00    -0.120 C  
BRANCH   6  12
HETATM   12  C   UNL     1     -11.262  14.802  68.612  1.00  0.00    -0.273 C  
HETATM   13  N   UNL     1     -12.335  15.465  68.638  1.00  0.00    -0.527 NA 
HETATM   14  H2  UNL     1     -12.571  14.579  69.086  1.00  0.00     0.000 HD 
HETATM   15  H1  UNL     1     -13.203  16.001  68.659  1.00  0.00     0.000 HD 
ENDBRANCH   6  12
BRANCH  11  16
HETATM   16  C   UNL     1      -6.221  12.054  67.590  1.00  0.00    -0.096 C  
HETATM   17  O   UNL     1      -5.905  11.928  66.416  1.00  0.00    -0.214 OA 
BRANCH  16  18
HETATM   18  O   UNL     1      -5.433  11.642  68.628  1.00  0.00    -0.043 OA 
BRANCH  18  19
HETATM   19  C   UNL     1      -5.893  10.417  69.261  1.00  0.00    -0.037 C  
HETATM   20  C   UNL     1      -5.159   9.223  68.656  1.00  0.00    -0.034 C  
HETATM   21  C   UNL     1      -5.654  10.470  70.767  1.00  0.00    -0.099 C  
ENDBRANCH  18  19
ENDBRANCH  16  18
ENDBRANCH  11  16
BRANCH   8  22
HETATM   22  C   UNL     1      -8.980  10.775  67.122  1.00  0.00    -0.145 A  
HETATM   23  C   UNL     1      -8.970  11.201  65.776  1.00  0.00    -0.207 A  
HETATM   24  C   UNL     1      -9.224   9.416  67.384  1.00  0.00    -0.145 A  
HETATM   25  C   UNL     1      -9.477   8.516  66.339  1.00  0.00    -0.297 A  
HETATM   26  C   UNL     1      -9.262  10.299  64.737  1.00  0.00    -0.241 A  
HETATM   27  O   UNL     1      -9.124  11.986  63.148  1.00  0.00    -0.096 OA 
HETATM   28  N   UNL     1      -9.357  10.786  63.351  1.00  0.00    -0.255 N  
HETATM   29  C   UNL     1      -9.509   8.953  65.014  1.00  0.00     0.202 A  
HETATM   30  O   UNL     1      -9.679   9.971  62.472  1.00  0.00    -0.205 OA 
ENDBRANCH   8  22
ENDBRANCH   3   5
ENDBRANCH   2   3
TORSDOF 7
ENDMDL
MODEL      132
REMARK 921   NORMALIZED FREE ENERGY PREDICTED BY IDOCK:   -3.88 KCAL/MOL
REMARK 922        TOTAL FREE ENERGY PREDICTED BY IDOCK:   -6.52 KCAL/MOL
REMARK 923 INTER-LIGAND FREE ENERGY PREDICTED BY IDOCK:   -5.11 KCAL/MOL
REMARK 924 INTRA-LIGAND FREE ENERGY PREDICTED BY IDOCK:   -1.41 KCAL/MOL
REMARK 927      BINDING AFFINITY PREDICTED BY RF-SCORE:    0.00 PKD
ROOT
HETATM    1  C   UNL     1      -8.733   4.516  65.339  1.00  0.00    -0.129 C  
HETATM    2  O   UNL     1      -9.239   5.810  65.696  1.00  0.00    -0.126 OA 
ENDROOT
BRANCH   2   3
HETATM    3  C   UNL     1      -8.274   6.749  65.872  1.00  0.00    -0.132 C  
HETATM    4  O   UNL     1      -7.223   6.587  66.465  1.00  0.00    -0.070 OA 
BRANCH   3   5
HETATM    5  C   UNL     1      -8.680   8.005  65.188  1.00  0.00    -0.015 C  
HETATM    6  C   UNL     1      -8.234   8.287  63.936  1.00  0.00    -0.086 C  
HETATM    7  N   UNL     1      -8.608   9.443  63.297  1.00  0.00    -0.207 NA 
HETATM    8  C   UNL     1      -9.582   8.981  65.962  1.00  0.00    -0.342 C  
HETATM    9  C   UNL     1      -9.383  10.430  63.905  1.00  0.00    -0.279 C  
HETATM   10  C   UNL     1      -9.656  11.643  63.045  1.00  0.00    -0.311 C  
HETATM   11  C   UNL     1      -9.853  10.275  65.177  1.00  0.00    -0.389 C  
BRANCH   6  12
HETATM   12  C   UNL     1      -7.159   7.419  63.304  1.00  0.00    -0.070 C  
HETATM   13  N   UNL     1      -6.266   6.699  62.779  1.00  0.00    -0.034 NA 
HETATM   14  H2  UNL     1      -5.805   7.593  62.951  1.00  0.00     0.000 HD 
HETATM   15  H1  UNL     1      -5.544   6.117  62.354  1.00  0.00     0.000 HD 
ENDBRANCH   6  12
BRANCH  11  16
HETATM   16  C   UNL     1     -10.590  11.406  65.822  1.00  0.00    -0.260 C  
HETATM   17  O   UNL     1     -11.792  11.365  66.046  1.00  0.00    -0.176 OA 
BRANCH  16  18
HETATM   18  O   UNL     1      -9.803  12.476  66.139  1.00  0.00    -0.251 OA 
BRANCH  18  19
HETATM   19  C   UNL     1      -9.986  12.955  67.500  1.00  0.00    -0.215 C  
HETATM   20  C   UNL     1      -8.624  13.141  68.163  1.00  0.00    -0.181 C  
HETATM   21  C   UNL     1     -10.756  14.272  67.505  1.00  0.00    -0.270 C  
ENDBRANCH  18  19
ENDBRANCH  16  18
ENDBRANCH  11  16
BRANCH   8  22
HETATM   22  C   UNL     1      -9.056   9.249  67.390  1.00  0.00    -0.141 A  
HETATM   23  C   UNL     1      -9.863   8.920  68.501  1.00  0.00    -0.182 A  
HETATM   24  C   UNL     1      -7.804   9.839  67.634  1.00  0.00    -0.095 A  
HETATM   25  C   UNL     1      -7.381  10.116  68.942  1.00  0.00    -0.083 A  
HETATM   26  C   UNL     1      -9.447   9.236  69.807  1.00  0.00    -0.191 A  
HETATM   27  O   UNL     1     -11.443   8.455  70.699  1.00  0.00    -0.267 OA 
HETATM   28  N   UNL     1     -10.350   8.987  70.942  1.00  0.00    -0.233 N  
HETATM   29  C   UNL     1      -8.202   9.828  70.032  1.00  0.00    -0.207 A  
HETATM   30  O   UNL     1      -9.972   9.339  72.071  1.00  0.00    -0.164 OA 
ENDBRANCH   8  22
ENDBRANCH   3   5
ENDBRANCH   2   3
TORSDOF 7
ENDMDL
MODEL      133
REMARK 921   NORMALIZED FREE ENERGY PREDICTED BY IDOCK:   -3.85 KCAL/MOL
REMARK 922        TOTAL FREE ENERGY PREDICTED BY IDOCK:   -6.48 KCAL/MOL
REMARK 923 INTER-LIGAND FREE ENERGY PREDICTED BY IDOCK:   -5.36 KCAL/MOL
REMARK 924 INTRA-LIGAND FREE ENERGY PREDICTED BY IDOCK:   -1.12 KCAL/MOL
REMARK 927      BINDING AFFINITY PREDICTED BY RF-SCORE:    0.00 PKD
ROOT
HETATM    1  C   UNL     1     -11.706  12.711  64.046  1.00  0.00    -0.424 C  
HETATM    2  O   UNL     1     -10.922  13.731  64.681  1.00  0.00    -0.367 OA 
ENDROOT
BRANCH   2   3
HETATM    3  C   UNL     1     -10.909  13.652  66.036  1.00  0.00    -0.275 C  
HETATM    4  O   UNL     1     -11.887  13.689  66.761  1.00  0.00    -0.367 OA 
BRANCH   3   5
HETATM    5  C   UNL     1      -9.510  13.467  66.504  1.00  0.00    -0.252 C  
HETATM    6  C   UNL     1      -9.020  12.223  66.746  1.00  0.00    -0.209 C  
HETATM    7  N   UNL     1      -7.727  12.045  67.174  1.00  0.00    -0.165 NA 
HETATM    8  C   UNL     1      -8.662  14.728  66.738  1.00  0.00    -0.255 C  
HETATM    9  C   UNL     1      -6.872  13.105  67.468  1.00  0.00    -0.149 C  
HETATM   10  C   UNL     1      -5.501  12.698  67.959  1.00  0.00    -0.087 C  
HETATM   11  C   UNL     1      -7.270  14.400  67.303  1.00  0.00    -0.030 C  
BRANCH   6  12
HETATM   12  C   UNL     1      -9.956  11.026  66.735  1.00  0.00    -0.203 C  
HETATM   13  N   UNL     1     -10.732  10.033  66.724  1.00  0.00    -0.151 NA 
HETATM   14  H2  UNL     1     -10.044   9.826  66.000  1.00  0.00     0.000 HD 
HETATM   15  H1  UNL     1     -11.361   9.229  66.716  1.00  0.00     0.000 HD 
ENDBRANCH   6  12
BRANCH  11  16
HETATM   16  C   UNL     1      -6.354  15.503  67.732  1.00  0.00    -0.161 C  
HETATM   17  O   UNL     1      -5.762  15.488  68.802  1.00  0.00    -0.094 OA 
BRANCH  16  18
HETATM   18  O   UNL     1      -6.237  16.516  66.823  1.00  0.00    -0.273 OA 
BRANCH  18  19
HETATM   19  C   UNL     1      -5.721  17.753  67.388  1.00  0.00    -0.147 C  
HETATM   20  C   UNL     1      -5.207  18.650  66.265  1.00  0.00    -0.169 C  
HETATM   21  C   UNL     1      -6.806  18.474  68.181  1.00  0.00    -0.238 C  
ENDBRANCH  18  19
ENDBRANCH  16  18
ENDBRANCH  11  16
BRANCH   8  22
HETATM   22  C   UNL     1      -9.414  15.784  67.579  1.00  0.00    -0.218 A  
HETATM   23  C   UNL     1      -9.787  15.479  68.906  1.00  0.00    -0.219 A  
HETATM   24  C   UNL     1      -9.772  17.042  67.064  1.00  0.00    -0.264 A  
HETATM   25  C   UNL     1     -10.500  17.956  67.839  1.00  0.00    -0.404 A  
HETATM   26  C   UNL     1     -10.550  16.386  69.662  1.00  0.00    -0.307 A  
HETATM   27  O   UNL     1     -10.684  14.894  71.435  1.00  0.00     0.081 OA 
HETATM   28  N   UNL     1     -11.025  16.004  71.002  1.00  0.00    -0.165 N  
HETATM   29  C   UNL     1     -10.903  17.630  69.134  1.00  0.00     0.333 A  
HETATM   30  O   UNL     1     -11.749  16.807  71.611  1.00  0.00    -0.183 OA 
ENDBRANCH   8  22
ENDBRANCH   3   5
ENDBRANCH   2   3
TORSDOF 7
ENDMDL
MODEL      134
REMARK 921   NORMALIZED FREE ENERGY PREDICTED BY IDOCK:   -3.82 KCAL/MOL
REMARK 922        TOTAL FREE ENERGY PREDICTED BY IDOCK:   -6.43 KCAL/MOL
REMARK 923 INTER-LIGAND FREE ENERGY PREDICTED BY IDOCK:   -5.08 KCAL/MOL
REMARK 924 INTRA-LIGAND FREE ENERGY PREDICTED BY IDOCK:   -1.36 KCAL/MOL
REMARK 927      BINDING AFFINITY PREDICTED BY RF-SCORE:    0.00 PKD
ROOT
HETATM    1  C   UNL     1      -9.395   3.091  67.726  1.00  0.00    -0.202 C  
HETATM    2  O   UNL     1      -9.919   4.415  67.905  1.00  0.00    -0.120 OA 
ENDROOT
BRANCH   2   3
HETATM    3  C   UNL     1      -9.119   5.229  68.639  1.00  0.00    -0.109 C  
HETATM    4  O   UNL     1      -8.560   4.930  69.679  1.00  0.00    -0.082 OA 
BRANCH   3   5
HETATM    5  C   UNL     1      -8.990   6.542  67.952  1.00  0.00    -0.115 C  
HETATM    6  C   UNL     1      -7.948   6.785  67.115  1.00  0.00    -0.116 C  
HETATM    7  N   UNL     1      -7.826   7.994  66.473  1.00  0.00    -0.096 NA 
HETATM    8  C   UNL     1     -10.050   7.614  68.255  1.00  0.00    -0.214 C  
HETATM    9  C   UNL     1      -8.692   9.063  66.698  1.00  0.00    -0.128 C  
HETATM   10  C   UNL     1      -8.365  10.318  65.920  1.00  0.00    -0.145 C  
HETATM   11  C   UNL     1      -9.751   8.948  67.551  1.00  0.00    -0.216 C  
BRANCH   6  12
HETATM   12  C   UNL     1      -6.800   5.794  67.028  1.00  0.00    -0.063 C  
HETATM   13  N   UNL     1      -5.847   4.971  66.955  1.00  0.00    -0.024 NA 
HETATM   14  H2  UNL     1      -6.518   4.647  66.258  1.00  0.00     0.000 HD 
HETATM   15  H1  UNL     1      -5.076   4.305  66.897  1.00  0.00     0.000 HD 
ENDBRANCH   6  12
BRANCH  11  16
HETATM   16  C   UNL     1     -10.588  10.154  67.838  1.00  0.00    -0.249 C  
HETATM   17  O   UNL     1     -11.731  10.276  67.422  1.00  0.00    -0.052 OA 
BRANCH  16  18
HETATM   18  O   UNL     1      -9.964  11.096  68.606  1.00  0.00    -0.193 OA 
BRANCH  18  19
HETATM   19  C   UNL     1     -10.235  12.463  68.192  1.00  0.00    -0.225 C  
HETATM   20  C   UNL     1     -11.164  13.128  69.204  1.00  0.00    -0.303 C  
HETATM   21  C   UNL     1      -8.937  13.254  68.073  1.00  0.00    -0.191 C  
ENDBRANCH  18  19
ENDBRANCH  16  18
ENDBRANCH  11  16
BRANCH   8  22
HETATM   22  C   UNL     1     -10.287   7.781  69.773  1.00  0.00    -0.221 A  
HETATM   23  C   UNL     1      -9.222   8.194  70.602  1.00  0.00    -0.162 A  
HETATM   24  C   UNL     1     -11.527   7.509  70.376  1.00  0.00    -0.219 A  
HETATM   25  C   UNL     1     -11.693   7.621  71.764  1.00  0.00    -0.319 A  
HETATM   26  C   UNL     1      -9.386   8.266  71.997  1.00  0.00    -0.230 A  
HETATM   27  O   UNL     1      -7.155   8.836  72.294  1.00  0.00    -0.264 OA 
HETATM   28  N   UNL     1      -8.233   8.589  72.854  1.00  0.00    -0.099 N  
HETATM   29  C   UNL     1     -10.623   7.987  72.582  1.00  0.00    -0.419 A  
HETATM   30  O   UNL     1      -8.405   8.580  74.083  1.00  0.00    -0.301 OA 
ENDBRANCH   8  22
ENDBRANCH   3   5
ENDBRANCH   2   3
TORSDOF 7
ENDMDL
MODEL      135
REMARK 921   NORMALIZED FREE ENERGY PREDICTED BY IDOCK:   -3.81 KCAL/MOL
REMARK 922        TOTAL FREE ENERGY PREDICTED BY IDOCK:   -6.42 KCAL/MOL
REMARK 923 INTER-LIGAND FREE ENERGY PREDICTED BY IDOCK:   -5.07 KCAL/MOL
REMARK 924 INTRA-LIGAND FREE ENERGY PREDICTED BY IDOCK:   -1.36 KCAL/MOL
REMARK 927      BINDING AFFINITY PREDICTED BY RF-SCORE:    0.00 PKD
ROOT
HETATM    1  C   UNL     1      -9.370   3.664  67.802  1.00  0.00    -0.194 C  
HETATM    2  O   UNL     1      -9.003   4.712  66.893  1.00  0.00    -0.110 OA 
ENDROOT
BRANCH   2   3
HETATM    3  C   UNL     1     -10.034   5.521  66.539  1.00  0.00    -0.185 C  
HETATM    4  O   UNL     1     -11.153   5.153  66.230  1.00  0.00    -0.142 OA 
BRANCH   3   5
HETATM    5  C   UNL     1      -9.599   6.940  66.629  1.00  0.00    -0.218 C  
HETATM    6  C   UNL     1      -8.728   7.455  65.722  1.00  0.00    -0.109 C  
HETATM    7  N   UNL     1      -8.326   8.766  65.796  1.00  0.00    -0.126 NA 
HETATM    8  C   UNL     1     -10.137   7.780  67.799  1.00  0.00    -0.242 C  
HETATM    9  C   UNL     1      -8.703   9.618  66.833  1.00  0.00    -0.131 C  
HETATM   10  C   UNL     1      -8.125  11.013  66.751  1.00  0.00    -0.151 C  
HETATM   11  C   UNL     1      -9.542   9.198  67.824  1.00  0.00    -0.173 C  
BRANCH   6  12
HETATM   12  C   UNL     1      -8.038   6.535  64.730  1.00  0.00    -0.112 C  
HETATM   13  N   UNL     1      -7.465   5.771  63.906  1.00  0.00    -0.064 NA 
HETATM   14  H2  UNL     1      -8.409   5.394  63.991  1.00  0.00     0.000 HD 
HETATM   15  H1  UNL     1      -7.001   5.153  63.239  1.00  0.00     0.000 HD 
ENDBRANCH   6  12
BRANCH  11  16
HETATM   16  C   UNL     1      -9.833  10.115  68.969  1.00  0.00    -0.205 C  
HETATM   17  O   UNL     1      -8.985  10.427  69.793  1.00  0.00    -0.118 OA 
BRANCH  16  18
HETATM   18  O   UNL     1     -11.120  10.572  69.005  1.00  0.00    -0.219 OA 
BRANCH  18  19
HETATM   19  C   UNL     1     -11.546  11.021  70.321  1.00  0.00    -0.322 C  
HETATM   20  C   UNL     1     -12.317  12.331  70.188  1.00  0.00    -0.212 C  
HETATM   21  C   UNL     1     -12.418   9.964  70.991  1.00  0.00    -0.441 C  
ENDBRANCH  18  19
ENDBRANCH  16  18
ENDBRANCH  11  16
BRANCH   8  22
HETATM   22  C   UNL     1      -9.992   7.048  69.153  1.00  0.00    -0.165 A  
HETATM   23  C   UNL     1      -8.716   6.928  69.745  1.00  0.00    -0.141 A  
HETATM   24  C   UNL     1     -11.086   6.465  69.815  1.00  0.00    -0.459 A  
HETATM   25  C   UNL     1     -10.909   5.763  71.016  1.00  0.00    -0.316 A  
HETATM   26  C   UNL     1      -8.542   6.189  70.929  1.00  0.00    -0.132 A  
HETATM   27  O   UNL     1      -6.245   6.517  70.871  1.00  0.00    -0.031 OA 
HETATM   28  N   UNL     1      -7.189   5.981  71.469  1.00  0.00    -0.081 N  
HETATM   29  C   UNL     1      -9.639   5.611  71.572  1.00  0.00    -0.184 A  
HETATM   30  O   UNL     1      -7.072   5.270  72.480  1.00  0.00    -0.081 OA 
ENDBRANCH   8  22
ENDBRANCH   3   5
ENDBRANCH   2   3
TORSDOF 7
ENDMDL
MODEL      136
REMARK 921   NORMALIZED FREE ENERGY PREDICTED BY IDOCK:   -3.80 KCAL/MOL
REMARK 922        TOTAL FREE ENERGY PREDICTED BY IDOCK:   -6.41 KCAL/MOL
REMARK 923 INTER-LIGAND FREE ENERGY PREDICTED BY IDOCK:   -5.55 KCAL/MOL
REMARK 924 INTRA-LIGAND FREE ENERGY PREDICTED BY IDOCK:   -0.85 KCAL/MOL
REMARK 927      BINDING AFFINITY PREDICTED BY RF-SCORE:    0.00 PKD
ROOT
HETATM    1  C   UNL     1      -6.954  10.370  62.488  1.00  0.00    -0.133 C  
HETATM    2  O   UNL     1      -7.898  10.344  63.568  1.00  0.00    -0.149 OA 
ENDROOT
BRANCH   2   3
HETATM    3  C   UNL     1      -7.329  10.222  64.794  1.00  0.00    -0.099 C  
HETATM    4  O   UNL     1      -6.247  10.673  65.125  1.00  0.00    -0.109 OA 
BRANCH   3   5
HETATM    5  C   UNL     1      -8.254   9.483  65.694  1.00  0.00    -0.120 C  
HETATM    6  C   UNL     1      -8.511   8.164  65.490  1.00  0.00    -0.159 C  
HETATM    7  N   UNL     1      -9.360   7.474  66.320  1.00  0.00    -0.154 NA 
HETATM    8  C   UNL     1      -8.931  10.271  66.827  1.00  0.00    -0.147 C  
HETATM    9  C   UNL     1     -10.072   8.082  67.352  1.00  0.00    -0.228 C  
HETATM   10  C   UNL     1     -10.981   7.156  68.128  1.00  0.00    -0.114 C  
HETATM   11  C   UNL     1      -9.926   9.412  67.624  1.00  0.00    -0.238 C  
BRANCH   6  12
HETATM   12  C   UNL     1      -8.013   7.483  64.226  1.00  0.00    -0.109 C  
HETATM   13  N   UNL     1      -7.601   6.918  63.177  1.00  0.00    -0.091 NA 
HETATM   14  H2  UNL     1      -8.147   6.201  63.655  1.00  0.00     0.000 HD 
HETATM   15  H1  UNL     1      -7.267   6.461  62.328  1.00  0.00     0.000 HD 
ENDBRANCH   6  12
BRANCH  11  16
HETATM   16  C   UNL     1     -10.789  10.039  68.672  1.00  0.00    -0.229 C  
HETATM   17  O   UNL     1     -11.987  10.225  68.513  1.00  0.00    -0.163 OA 
BRANCH  16  18
HETATM   18  O   UNL     1     -10.122  10.376  69.816  1.00  0.00    -0.227 OA 
BRANCH  18  19
HETATM   19  C   UNL     1      -9.567   9.237  70.528  1.00  0.00    -0.262 C  
HETATM   20  C   UNL     1      -8.085   9.481  70.804  1.00  0.00    -0.081 C  
HETATM   21  C   UNL     1     -10.313   9.008  71.838  1.00  0.00    -0.357 C  
ENDBRANCH  18  19
ENDBRANCH  16  18
ENDBRANCH  11  16
BRANCH   8  22
HETATM   22  C   UNL     1      -9.555  11.592  66.321  1.00  0.00    -0.239 A  
HETATM   23  C   UNL     1      -9.283  12.796  67.005  1.00  0.00    -0.221 A  
HETATM   24  C   UNL     1     -10.415  11.643  65.210  1.00  0.00    -0.323 A  
HETATM   25  C   UNL     1     -11.005  12.850  64.811  1.00  0.00    -0.344 A  
HETATM   26  C   UNL     1      -9.909  13.996  66.622  1.00  0.00    -0.284 A  
HETATM   27  O   UNL     1      -8.927  15.146  68.383  1.00  0.00    -0.172 OA 
HETATM   28  N   UNL     1      -9.700  15.217  67.417  1.00  0.00    -0.209 N  
HETATM   29  C   UNL     1     -10.766  14.028  65.520  1.00  0.00    -0.317 A  
HETATM   30  O   UNL     1     -10.320  16.239  67.083  1.00  0.00    -0.277 OA 
ENDBRANCH   8  22
ENDBRANCH   3   5
ENDBRANCH   2   3
TORSDOF 7
ENDMDL
MODEL      137
REMARK 921   NORMALIZED FREE ENERGY PREDICTED BY IDOCK:   -3.78 KCAL/MOL
REMARK 922        TOTAL FREE ENERGY PREDICTED BY IDOCK:   -6.38 KCAL/MOL
REMARK 923 INTER-LIGAND FREE ENERGY PREDICTED BY IDOCK:   -5.31 KCAL/MOL
REMARK 924 INTRA-LIGAND FREE ENERGY PREDICTED BY IDOCK:   -1.06 KCAL/MOL
REMARK 927      BINDING AFFINITY PREDICTED BY RF-SCORE:    0.00 PKD
ROOT
HETATM    1  C   UNL     1     -10.723  17.313  69.203  1.00  0.00    -0.118 C  
HETATM    2  O   UNL     1     -10.967  16.117  69.958  1.00  0.00    -0.326 OA 
ENDROOT
BRANCH   2   3
HETATM    3  C   UNL     1     -12.159  15.528  69.685  1.00  0.00    -0.328 C  
HETATM    4  O   UNL     1     -13.202  16.109  69.446  1.00  0.00     0.810 OA 
BRANCH   3   5
HETATM    5  C   UNL     1     -11.987  14.051  69.679  1.00  0.00    -0.393 C  
HETATM    6  C   UNL     1     -12.296  13.314  70.778  1.00  0.00    -0.344 C  
HETATM    7  N   UNL     1     -12.144  11.949  70.777  1.00  0.00    -0.313 NA 
HETATM    8  C   UNL     1     -11.413  13.403  68.408  1.00  0.00    -0.351 C  
HETATM    9  C   UNL     1     -11.592  11.247  69.708  1.00  0.00    -0.333 C  
HETATM   10  C   UNL     1     -11.478   9.754  69.918  1.00  0.00    -0.190 C  
HETATM   11  C   UNL     1     -11.205  11.888  68.566  1.00  0.00    -0.308 C  
BRANCH   6  12
HETATM   12  C   UNL     1     -12.630  14.011  72.086  1.00  0.00    -0.193 C  
HETATM   13  N   UNL     1     -12.906  14.588  73.172  1.00  0.00    -0.483 NA 
HETATM   14  H2  UNL     1     -12.839  13.600  73.418  1.00  0.00     0.000 HD 
HETATM   15  H1  UNL     1     -13.130  15.056  74.051  1.00  0.00     0.000 HD 
ENDBRANCH   6  12
BRANCH  11  16
HETATM   16  C   UNL     1     -10.522  11.106  67.489  1.00  0.00    -0.204 C  
HETATM   17  O   UNL     1     -11.110  10.698  66.498  1.00  0.00    -0.114 OA 
BRANCH  16  18
HETATM   18  O   UNL     1      -9.190  10.898  67.711  1.00  0.00    -0.150 OA 
BRANCH  18  19
HETATM   19  C   UNL     1      -8.372  11.015  66.514  1.00  0.00    -0.163 C  
HETATM   20  C   UNL     1      -7.122  11.833  66.829  1.00  0.00    -0.047 C  
HETATM   21  C   UNL     1      -7.979   9.635  65.997  1.00  0.00    -0.108 C  
ENDBRANCH  18  19
ENDBRANCH  16  18
ENDBRANCH  11  16
BRANCH   8  22
HETATM   22  C   UNL     1     -10.145  14.131  67.908  1.00  0.00    -0.235 A  
HETATM   23  C   UNL     1      -9.020  14.228  68.755  1.00  0.00    -0.097 A  
HETATM   24  C   UNL     1     -10.072  14.733  66.640  1.00  0.00    -0.269 A  
HETATM   25  C   UNL     1      -8.924  15.431  66.240  1.00  0.00    -0.341 A  
HETATM   26  C   UNL     1      -7.887  14.962  68.360  1.00  0.00    -0.121 A  
HETATM   27  O   UNL     1      -6.856  14.593  70.407  1.00  0.00    -0.100 OA 
HETATM   28  N   UNL     1      -6.770  15.145  69.301  1.00  0.00    -0.133 N  
HETATM   29  C   UNL     1      -7.833  15.560  67.099  1.00  0.00    -0.256 A  
HETATM   30  O   UNL     1      -5.817  15.853  68.938  1.00  0.00    -0.109 OA 
ENDBRANCH   8  22
ENDBRANCH   3   5
ENDBRANCH   2   3
TORSDOF 7
ENDMDL
MODEL      138
REMARK 921   NORMALIZED FREE ENERGY PREDICTED BY IDOCK:   -3.72 KCAL/MOL
REMARK 922        TOTAL FREE ENERGY PREDICTED BY IDOCK:   -6.29 KCAL/MOL
REMARK 923 INTER-LIGAND FREE ENERGY PREDICTED BY IDOCK:   -8.13 KCAL/MOL
REMARK 924 INTRA-LIGAND FREE ENERGY PREDICTED BY IDOCK:    1.84 KCAL/MOL
REMARK 927      BINDING AFFINITY PREDICTED BY RF-SCORE:    0.00 PKD
ROOT
HETATM    1  C   UNL     1      -9.359  17.928  68.560  1.00  0.00    -0.296 C  
HETATM    2  O   UNL     1      -9.351  16.824  67.643  1.00  0.00    -0.226 OA 
ENDROOT
BRANCH   2   3
HETATM    3  C   UNL     1     -10.585  16.333  67.362  1.00  0.00    -0.307 C  
HETATM    4  O   UNL     1     -11.636  16.936  67.485  1.00  0.00     0.284 OA 
BRANCH   3   5
HETATM    5  C   UNL     1     -10.455  14.949  66.834  1.00  0.00    -0.280 C  
HETATM    6  C   UNL     1     -10.629  14.693  65.512  1.00  0.00    -0.355 C  
HETATM    7  N   UNL     1     -10.505  13.418  65.017  1.00  0.00    -0.346 NA 
HETATM    8  C   UNL     1     -10.159  13.825  67.842  1.00  0.00    -0.246 C  
HETATM    9  C   UNL     1     -10.286  12.307  65.829  1.00  0.00    -0.258 C  
HETATM   10  C   UNL     1     -10.216  10.987  65.095  1.00  0.00    -0.352 C  
HETATM   11  C   UNL     1     -10.137  12.437  67.180  1.00  0.00    -0.221 C  
BRANCH   6  12
HETATM   12  C   UNL     1     -11.153  15.784  64.593  1.00  0.00    -0.361 C  
HETATM   13  N   UNL     1     -11.588  16.690  63.831  1.00  0.00    -1.431 NA 
HETATM   14  H2  UNL     1     -10.576  16.821  63.831  1.00  0.00     0.000 HD 
HETATM   15  H1  UNL     1     -11.940  17.422  63.214  1.00  0.00     0.000 HD 
ENDBRANCH   6  12
BRANCH  11  16
HETATM   16  C   UNL     1     -10.009  11.206  68.020  1.00  0.00    -0.176 C  
HETATM   17  O   UNL     1     -10.886  10.355  68.078  1.00  0.00    -0.228 OA 
BRANCH  16  18
HETATM   18  O   UNL     1      -8.831  11.118  68.705  1.00  0.00    -0.162 OA 
BRANCH  18  19
HETATM   19  C   UNL     1      -7.725  10.614  67.908  1.00  0.00    -0.100 C  
HETATM   20  C   UNL     1      -6.875  11.783  67.418  1.00  0.00    -0.122 C  
HETATM   21  C   UNL     1      -6.871   9.651  68.725  1.00  0.00    -0.051 C  
ENDBRANCH  18  19
ENDBRANCH  16  18
ENDBRANCH  11  16
BRANCH   8  22
HETATM   22  C   UNL     1     -11.095  13.886  69.070  1.00  0.00    -0.302 A  
HETATM   23  C   UNL     1     -11.454  12.692  69.730  1.00  0.00    -0.200 A  
HETATM   24  C   UNL     1     -11.635  15.093  69.547  1.00  0.00    -0.340 A  
HETATM   25  C   UNL     1     -12.523  15.106  70.632  1.00  0.00    -0.442 A  
HETATM   26  C   UNL     1     -12.375  12.709  70.793  1.00  0.00    -0.283 A  
HETATM   27  O   UNL     1     -12.321  10.394  70.962  1.00  0.00    -0.319 OA 
HETATM   28  N   UNL     1     -12.822  11.442  71.395  1.00  0.00    -0.422 N  
HETATM   29  C   UNL     1     -12.907  13.916  71.251  1.00  0.00    -0.435 A  
HETATM   30  O   UNL     1     -13.684  11.497  72.287  1.00  0.00    -0.158 OA 
ENDBRANCH   8  22
ENDBRANCH   3   5
ENDBRANCH   2   3
TORSDOF 7
ENDMDL
MODEL      139
REMARK 921   NORMALIZED FREE ENERGY PREDICTED BY IDOCK:   -3.72 KCAL/MOL
REMARK 922        TOTAL FREE ENERGY PREDICTED BY IDOCK:   -6.29 KCAL/MOL
REMARK 923 INTER-LIGAND FREE ENERGY PREDICTED BY IDOCK:   -5.13 KCAL/MOL
REMARK 924 INTRA-LIGAND FREE ENERGY PREDICTED BY IDOCK:   -1.16 KCAL/MOL
REMARK 927      BINDING AFFINITY PREDICTED BY RF-SCORE:    0.00 PKD
ROOT
HETATM    1  C   UNL     1      -9.482   3.881  68.247  1.00  0.00    -0.151 C  
HETATM    2  O   UNL     1      -8.965   4.616  67.128  1.00  0.00    -0.110 OA 
ENDROOT
BRANCH   2   3
HETATM    3  C   UNL     1      -9.839   5.516  66.609  1.00  0.00    -0.170 C  
HETATM    4  O   UNL     1     -11.026   5.325  66.415  1.00  0.00    -0.235 OA 
BRANCH   3   5
HETATM    5  C   UNL     1      -9.130   6.797  66.351  1.00  0.00    -0.175 C  
HETATM    6  C   UNL     1      -8.219   6.894  65.349  1.00  0.00    -0.134 C  
HETATM    7  N   UNL     1      -7.564   8.076  65.102  1.00  0.00    -0.092 NA 
HETATM    8  C   UNL     1      -9.438   7.984  67.280  1.00  0.00    -0.196 C  
HETATM    9  C   UNL     1      -7.718   9.209  65.899  1.00  0.00    -0.095 C  
HETATM   10  C   UNL     1      -6.882  10.398  65.481  1.00  0.00    -0.125 C  
HETATM   11  C   UNL     1      -8.576   9.216  66.960  1.00  0.00    -0.127 C  
BRANCH   6  12
HETATM   12  C   UNL     1      -7.769   5.644  64.613  1.00  0.00    -0.099 C  
HETATM   13  N   UNL     1      -7.395   4.606  64.002  1.00  0.00    -0.057 NA 
HETATM   14  H2  UNL     1      -6.800   4.643  64.829  1.00  0.00     0.000 HD 
HETATM   15  H1  UNL     1      -7.093   3.766  63.507  1.00  0.00     0.000 HD 
ENDBRANCH   6  12
BRANCH  11  16
HETATM   16  C   UNL     1      -8.627  10.420  67.846  1.00  0.00    -0.118 C  
HETATM   17  O   UNL     1      -8.045  10.472  68.920  1.00  0.00    -0.119 OA 
BRANCH  16  18
HETATM   18  O   UNL     1      -9.375  11.449  67.347  1.00  0.00    -0.165 OA 
BRANCH  18  19
HETATM   19  C   UNL     1     -10.783  11.125  67.184  1.00  0.00    -0.259 C  
HETATM   20  C   UNL     1     -11.463  11.108  68.550  1.00  0.00    -0.371 C  
HETATM   21  C   UNL     1     -11.464  12.140  66.272  1.00  0.00    -0.433 C  
ENDBRANCH  18  19
ENDBRANCH  16  18
ENDBRANCH  11  16
BRANCH   8  22
HETATM   22  C   UNL     1      -9.376   7.584  68.772  1.00  0.00    -0.147 A  
HETATM   23  C   UNL     1     -10.512   7.771  69.589  1.00  0.00    -0.229 A  
HETATM   24  C   UNL     1      -8.215   7.060  69.364  1.00  0.00    -0.132 A  
HETATM   25  C   UNL     1      -8.178   6.757  70.733  1.00  0.00    -0.123 A  
HETATM   26  C   UNL     1     -10.455   7.501  70.968  1.00  0.00    -0.215 A  
HETATM   27  O   UNL     1     -12.628   8.258  71.271  1.00  0.00    -0.296 OA 
HETATM   28  N   UNL     1     -11.613   7.809  71.822  1.00  0.00    -0.262 N  
HETATM   29  C   UNL     1      -9.291   6.986  71.542  1.00  0.00    -0.154 A  
HETATM   30  O   UNL     1     -11.500   7.615  73.043  1.00  0.00    -0.342 OA 
ENDBRANCH   8  22
ENDBRANCH   3   5
ENDBRANCH   2   3
TORSDOF 7
ENDMDL
MODEL      140
REMARK 921   NORMALIZED FREE ENERGY PREDICTED BY IDOCK:   -3.68 KCAL/MOL
REMARK 922        TOTAL FREE ENERGY PREDICTED BY IDOCK:   -6.24 KCAL/MOL
REMARK 923 INTER-LIGAND FREE ENERGY PREDICTED BY IDOCK:   -5.49 KCAL/MOL
REMARK 924 INTRA-LIGAND FREE ENERGY PREDICTED BY IDOCK:   -0.75 KCAL/MOL
REMARK 927      BINDING AFFINITY PREDICTED BY RF-SCORE:    0.00 PKD
ROOT
HETATM    1  C   UNL     1     -12.705  11.466  70.849  1.00  0.00    -0.303 C  
HETATM    2  O   UNL     1     -11.350  11.230  70.439  1.00  0.00    -0.219 OA 
ENDROOT
BRANCH   2   3
HETATM    3  C   UNL     1     -11.237  10.670  69.208  1.00  0.00    -0.273 C  
HETATM    4  O   UNL     1     -12.103  10.649  68.353  1.00  0.00    -0.423 OA 
BRANCH   3   5
HETATM    5  C   UNL     1      -9.866  10.117  69.043  1.00  0.00    -0.211 C  
HETATM    6  C   UNL     1      -9.331   9.301  69.989  1.00  0.00    -0.209 C  
HETATM    7  N   UNL     1      -8.068   8.783  69.841  1.00  0.00    -0.104 NA 
HETATM    8  C   UNL     1      -9.072  10.533  67.794  1.00  0.00    -0.140 C  
HETATM    9  C   UNL     1      -7.229   9.119  68.780  1.00  0.00    -0.074 C  
HETATM   10  C   UNL     1      -5.865   8.469  68.818  1.00  0.00    -0.044 C  
HETATM   11  C   UNL     1      -7.644   9.964  67.791  1.00  0.00    -0.090 C  
BRANCH   6  12
HETATM   12  C   UNL     1     -10.048   9.108  71.314  1.00  0.00    -0.318 C  
HETATM   13  N   UNL     1     -10.644   8.947  72.414  1.00  0.00    -0.162 NA 
HETATM   14  H2  UNL     1     -11.110   8.303  71.775  1.00  0.00     0.000 HD 
HETATM   15  H1  UNL     1     -11.125   8.817  73.304  1.00  0.00     0.000 HD 
ENDBRANCH   6  12
BRANCH  11  16
HETATM   16  C   UNL     1      -6.672  10.376  66.731  1.00  0.00    -0.086 C  
HETATM   17  O   UNL     1      -6.065  11.437  66.772  1.00  0.00    -0.118 OA 
BRANCH  16  18
HETATM   18  O   UNL     1      -6.524   9.464  65.725  1.00  0.00    -0.066 OA 
BRANCH  18  19
HETATM   19  C   UNL     1      -7.783   8.988  65.176  1.00  0.00    -0.101 C  
HETATM   20  C   UNL     1      -8.205   9.884  64.015  1.00  0.00    -0.159 C  
HETATM   21  C   UNL     1      -7.649   7.544  64.703  1.00  0.00    -0.111 C  
ENDBRANCH  18  19
ENDBRANCH  16  18
ENDBRANCH  11  16
BRANCH   8  22
HETATM   22  C   UNL     1      -9.106  12.062  67.569  1.00  0.00    -0.177 A  
HETATM   23  C   UNL     1      -9.781  12.584  66.444  1.00  0.00    -0.253 A  
HETATM   24  C   UNL     1      -8.461  12.965  68.431  1.00  0.00    -0.115 A  
HETATM   25  C   UNL     1      -8.467  14.342  68.167  1.00  0.00    -0.160 A  
HETATM   26  C   UNL     1      -9.750  13.963  66.166  1.00  0.00    -0.272 A  
HETATM   27  O   UNL     1     -10.936  13.656  64.194  1.00  0.00    -0.345 OA 
HETATM   28  N   UNL     1     -10.364  14.474  64.930  1.00  0.00    -0.414 N  
HETATM   29  C   UNL     1      -9.099  14.846  67.030  1.00  0.00    -0.255 A  
HETATM   30  O   UNL     1     -10.259  15.687  64.690  1.00  0.00    -0.284 OA 
ENDBRANCH   8  22
ENDBRANCH   3   5
ENDBRANCH   2   3
TORSDOF 7
ENDMDL
MODEL      141
REMARK 921   NORMALIZED FREE ENERGY PREDICTED BY IDOCK:   -3.65 KCAL/MOL
REMARK 922        TOTAL FREE ENERGY PREDICTED BY IDOCK:   -6.19 KCAL/MOL
REMARK 923 INTER-LIGAND FREE ENERGY PREDICTED BY IDOCK:   -4.50 KCAL/MOL
REMARK 924 INTRA-LIGAND FREE ENERGY PREDICTED BY IDOCK:   -1.70 KCAL/MOL
REMARK 927      BINDING AFFINITY PREDICTED BY RF-SCORE:    0.00 PKD
ROOT
HETATM    1  C   UNL     1     -11.676   7.649  72.106  1.00  0.00    -0.311 C  
HETATM    2  O   UNL     1     -11.240   7.604  70.739  1.00  0.00    -0.261 OA 
ENDROOT
BRANCH   2   3
HETATM    3  C   UNL     1      -9.937   7.259  70.588  1.00  0.00    -0.186 C  
HETATM    4  O   UNL     1      -8.980   7.898  70.986  1.00  0.00    -0.139 OA 
BRANCH   3   5
HETATM    5  C   UNL     1      -9.853   5.947  69.892  1.00  0.00    -0.223 C  
HETATM    6  C   UNL     1      -9.710   4.796  70.601  1.00  0.00    -0.200 C  
HETATM    7  N   UNL     1      -9.637   3.581  69.965  1.00  0.00    -0.183 NA 
HETATM    8  C   UNL     1      -9.895   5.948  68.355  1.00  0.00    -0.163 C  
HETATM    9  C   UNL     1      -9.616   3.450  68.578  1.00  0.00    -0.068 C  
HETATM   10  C   UNL     1      -9.496   2.029  68.076  1.00  0.00    -0.199 C  
HETATM   11  C   UNL     1      -9.712   4.541  67.763  1.00  0.00    -0.199 C  
BRANCH   6  12
HETATM   12  C   UNL     1      -9.432   4.857  72.093  1.00  0.00    -0.145 C  
HETATM   13  N   UNL     1      -9.202   4.907  73.332  1.00  0.00    -0.123 NA 
HETATM   14  H2  UNL     1     -10.009   4.287  73.247  1.00  0.00     0.000 HD 
HETATM   15  H1  UNL     1      -9.016   4.947  74.335  1.00  0.00     0.000 HD 
ENDBRANCH   6  12
BRANCH  11  16
HETATM   16  C   UNL     1      -9.579   4.359  66.285  1.00  0.00    -0.194 C  
HETATM   17  O   UNL     1     -10.543   4.366  65.532  1.00  0.00    -0.265 OA 
BRANCH  16  18
HETATM   18  O   UNL     1      -8.293   4.190  65.857  1.00  0.00    -0.108 OA 
BRANCH  18  19
HETATM   19  C   UNL     1      -8.127   4.354  64.422  1.00  0.00    -0.097 C  
HETATM   20  C   UNL     1      -7.629   5.766  64.124  1.00  0.00    -0.083 C  
HETATM   21  C   UNL     1      -7.142   3.325  63.875  1.00  0.00    -0.049 C  
ENDBRANCH  18  19
ENDBRANCH  16  18
ENDBRANCH  11  16
BRANCH   8  22
HETATM   22  C   UNL     1      -8.919   6.982  67.750  1.00  0.00    -0.121 A  
HETATM   23  C   UNL     1      -9.423   8.027  66.947  1.00  0.00    -0.244 A  
HETATM   24  C   UNL     1      -7.529   6.909  67.944  1.00  0.00    -0.099 A  
HETATM   25  C   UNL     1      -6.668   7.834  67.336  1.00  0.00    -0.068 A  
HETATM   26  C   UNL     1      -8.551   8.928  66.310  1.00  0.00    -0.133 A  
HETATM   27  O   UNL     1     -10.319   9.990  65.246  1.00  0.00    -0.236 OA 
HETATM   28  N   UNL     1      -9.089   9.941  65.388  1.00  0.00    -0.180 N  
HETATM   29  C   UNL     1      -7.171   8.838  66.508  1.00  0.00    -0.081 A  
HETATM   30  O   UNL     1      -8.280  10.674  64.797  1.00  0.00    -0.139 OA 
ENDBRANCH   8  22
ENDBRANCH   3   5
ENDBRANCH   2   3
TORSDOF 7
ENDMDL
MODEL      142
REMARK 921   NORMALIZED FREE ENERGY PREDICTED BY IDOCK:   -3.60 KCAL/MOL
REMARK 922        TOTAL FREE ENERGY PREDICTED BY IDOCK:   -6.13 KCAL/MOL
REMARK 923 INTER-LIGAND FREE ENERGY PREDICTED BY IDOCK:   -5.51 KCAL/MOL
REMARK 924 INTRA-LIGAND FREE ENERGY PREDICTED BY IDOCK:   -0.62 KCAL/MOL
REMARK 927      BINDING AFFINITY PREDICTED BY RF-SCORE:    0.00 PKD
ROOT
HETATM    1  C   UNL     1     -10.305  14.425  64.664  1.00  0.00    -0.182 C  
HETATM    2  O   UNL     1      -9.649  13.339  65.335  1.00  0.00    -0.061 OA 
ENDROOT
BRANCH   2   3
HETATM    3  C   UNL     1     -10.272  12.142  65.185  1.00  0.00    -0.278 C  
HETATM    4  O   UNL     1     -10.445  11.557  64.131  1.00  0.00    -0.293 OA 
BRANCH   3   5
HETATM    5  C   UNL     1     -10.678  11.628  66.520  1.00  0.00    -0.313 C  
HETATM    6  C   UNL     1     -11.849  12.020  67.086  1.00  0.00    -0.178 C  
HETATM    7  N   UNL     1     -12.232  11.546  68.316  1.00  0.00    -0.493 NA 
HETATM    8  C   UNL     1      -9.710  10.678  67.244  1.00  0.00    -0.195 C  
HETATM    9  C   UNL     1     -11.426  10.718  69.094  1.00  0.00    -0.298 C  
HETATM   10  C   UNL     1     -12.014  10.334  70.434  1.00  0.00    -0.391 C  
HETATM   11  C   UNL     1     -10.208  10.293  68.647  1.00  0.00    -0.196 C  
BRANCH   6  12
HETATM   12  C   UNL     1     -12.658  13.139  66.451  1.00  0.00     0.121 C  
HETATM   13  N   UNL     1     -13.330  14.067  65.924  1.00  0.00    -0.512 NA 
HETATM   14  H2  UNL     1     -13.687  13.215  65.490  1.00  0.00     0.000 HD 
HETATM   15  H1  UNL     1     -13.874  14.818  65.498  1.00  0.00     0.000 HD 
ENDBRANCH   6  12
BRANCH  11  16
HETATM   16  C   UNL     1      -9.336   9.492  69.561  1.00  0.00    -0.190 C  
HETATM   17  O   UNL     1      -8.587  10.011  70.377  1.00  0.00    -0.070 OA 
BRANCH  16  18
HETATM   18  O   UNL     1      -9.457   8.140  69.406  1.00  0.00    -0.161 OA 
BRANCH  18  19
HETATM   19  C   UNL     1     -10.010   7.464  70.568  1.00  0.00    -0.184 C  
HETATM   20  C   UNL     1     -11.420   6.973  70.249  1.00  0.00    -0.333 C  
HETATM   21  C   UNL     1      -9.125   6.290  70.976  1.00  0.00    -0.156 C  
ENDBRANCH  18  19
ENDBRANCH  16  18
ENDBRANCH  11  16
BRANCH   8  22
HETATM   22  C   UNL     1      -8.263  11.220  67.253  1.00  0.00    -0.140 A  
HETATM   23  C   UNL     1      -7.963  12.389  67.985  1.00  0.00    -0.155 A  
HETATM   24  C   UNL     1      -7.224  10.607  66.532  1.00  0.00    -0.134 A  
HETATM   25  C   UNL     1      -5.934  11.156  66.520  1.00  0.00    -0.143 A  
HETATM   26  C   UNL     1      -6.676  12.954  67.937  1.00  0.00    -0.123 A  
HETATM   27  O   UNL     1      -7.344  14.745  69.255  1.00  0.00    -0.151 OA 
HETATM   28  N   UNL     1      -6.413  14.234  68.616  1.00  0.00    -0.083 N  
HETATM   29  C   UNL     1      -5.656  12.336  67.210  1.00  0.00    -0.122 A  
HETATM   30  O   UNL     1      -5.282  14.731  68.496  1.00  0.00    -0.091 OA 
ENDBRANCH   8  22
ENDBRANCH   3   5
ENDBRANCH   2   3
TORSDOF 7
ENDMDL
MODEL      143
REMARK 921   NORMALIZED FREE ENERGY PREDICTED BY IDOCK:   -3.59 KCAL/MOL
REMARK 922        TOTAL FREE ENERGY PREDICTED BY IDOCK:   -6.10 KCAL/MOL
REMARK 923 INTER-LIGAND FREE ENERGY PREDICTED BY IDOCK:   -5.55 KCAL/MOL
REMARK 924 INTRA-LIGAND FREE ENERGY PREDICTED BY IDOCK:   -0.56 KCAL/MOL
REMARK 927      BINDING AFFINITY PREDICTED BY RF-SCORE:    0.00 PKD
ROOT
HETATM    1  C   UNL     1     -11.787  10.179  70.597  1.00  0.00    -0.342 C  
HETATM    2  O   UNL     1     -11.777  11.603  70.777  1.00  0.00    -0.162 OA 
ENDROOT
BRANCH   2   3
HETATM    3  C   UNL     1     -12.027  12.303  69.642  1.00  0.00    -0.279 C  
HETATM    4  O   UNL     1     -12.907  12.061  68.836  1.00  0.00     0.579 OA 
BRANCH   3   5
HETATM    5  C   UNL     1     -11.081  13.447  69.551  1.00  0.00    -0.100 C  
HETATM    6  C   UNL     1     -11.357  14.623  70.172  1.00  0.00    -0.225 C  
HETATM    7  N   UNL     1     -10.486  15.682  70.097  1.00  0.00    -0.316 NA 
HETATM    8  C   UNL     1      -9.813  13.260  68.703  1.00  0.00    -0.096 C  
HETATM    9  C   UNL     1      -9.327  15.658  69.323  1.00  0.00    -0.267 C  
HETATM   10  C   UNL     1      -8.521  16.937  69.346  1.00  0.00     0.252 C  
HETATM   11  C   UNL     1      -8.969  14.544  68.622  1.00  0.00    -0.181 C  
BRANCH   6  12
HETATM   12  C   UNL     1     -12.725  14.846  70.796  1.00  0.00    -0.363 C  
HETATM   13  N   UNL     1     -13.859  15.032  71.314  1.00  0.00    -0.553 NA 
HETATM   14  H2  UNL     1     -13.750  15.804  70.656  1.00  0.00     0.000 HD 
HETATM   15  H1  UNL     1     -14.778  15.182  71.733  1.00  0.00     0.000 HD 
ENDBRANCH   6  12
BRANCH  11  16
HETATM   16  C   UNL     1      -7.774  14.602  67.724  1.00  0.00    -0.157 C  
HETATM   17  O   UNL     1      -7.867  14.627  66.505  1.00  0.00     0.337 OA 
BRANCH  16  18
HETATM   18  O   UNL     1      -6.579  14.629  68.387  1.00  0.00    -0.089 OA 
BRANCH  18  19
HETATM   19  C   UNL     1      -5.920  13.335  68.458  1.00  0.00    -0.083 C  
HETATM   20  C   UNL     1      -6.355  12.609  69.728  1.00  0.00    -0.070 C  
HETATM   21  C   UNL     1      -6.258  12.493  67.231  1.00  0.00    -0.124 C  
ENDBRANCH  18  19
ENDBRANCH  16  18
ENDBRANCH  11  16
BRANCH   8  22
HETATM   22  C   UNL     1     -10.128  12.664  67.312  1.00  0.00    -0.215 A  
HETATM   23  C   UNL     1     -11.008  13.348  66.446  1.00  0.00    -0.297 A  
HETATM   24  C   UNL     1      -9.590  11.441  66.877  1.00  0.00    -0.203 A  
HETATM   25  C   UNL     1      -9.940  10.903  65.630  1.00  0.00    -0.305 A  
HETATM   26  C   UNL     1     -11.383  12.784  65.213  1.00  0.00    -0.303 A  
HETATM   27  O   UNL     1     -12.835  14.542  64.778  1.00  0.00    -0.603 OA 
HETATM   28  N   UNL     1     -12.388  13.458  64.375  1.00  0.00    -0.365 N  
HETATM   29  C   UNL     1     -10.844  11.564  64.799  1.00  0.00    -0.360 A  
HETATM   30  O   UNL     1     -12.738  12.896  63.326  1.00  0.00    -0.660 OA 
ENDBRANCH   8  22
ENDBRANCH   3   5
ENDBRANCH   2   3
TORSDOF 7
ENDMDL
MODEL      144
REMARK 921   NORMALIZED FREE ENERGY PREDICTED BY IDOCK:   -3.58 KCAL/MOL
REMARK 922        TOTAL FREE ENERGY PREDICTED BY IDOCK:   -6.09 KCAL/MOL
REMARK 923 INTER-LIGAND FREE ENERGY PREDICTED BY IDOCK:   -6.72 KCAL/MOL
REMARK 924 INTRA-LIGAND FREE ENERGY PREDICTED BY IDOCK:    0.63 KCAL/MOL
REMARK 927      BINDING AFFINITY PREDICTED BY RF-SCORE:    0.00 PKD
ROOT
HETATM    1  C   UNL     1     -10.476   8.601  66.362  1.00  0.00     0.098 C  
HETATM    2  O   UNL     1      -9.682   9.647  66.941  1.00  0.00    -0.167 OA 
ENDROOT
BRANCH   2   3
HETATM    3  C   UNL     1      -9.225   9.365  68.188  1.00  0.00    -0.130 C  
HETATM    4  O   UNL     1      -8.097   9.004  68.468  1.00  0.00    -0.105 OA 
BRANCH   3   5
HETATM    5  C   UNL     1     -10.311   9.608  69.175  1.00  0.00    -0.219 C  
HETATM    6  C   UNL     1     -11.015   8.570  69.697  1.00  0.00    -0.086 C  
HETATM    7  N   UNL     1     -12.016   8.787  70.613  1.00  0.00    -0.135 NA 
HETATM    8  C   UNL     1     -10.627  11.066  69.546  1.00  0.00    -0.182 C  
HETATM    9  C   UNL     1     -12.430  10.061  70.997  1.00  0.00    -0.362 C  
HETATM   10  C   UNL     1     -13.571  10.086  71.989  1.00  0.00    -0.366 C  
HETATM   11  C   UNL     1     -11.823  11.180  70.505  1.00  0.00    -0.448 C  
BRANCH   6  12
HETATM   12  C   UNL     1     -10.836   7.172  69.130  1.00  0.00    -0.162 C  
HETATM   13  N   UNL     1     -10.689   6.012  68.659  1.00  0.00    -0.277 NA 
HETATM   14  H2  UNL     1     -11.449   5.919  69.333  1.00  0.00     0.000 HD 
HETATM   15  H1  UNL     1     -10.569   5.073  68.277  1.00  0.00     0.000 HD 
ENDBRANCH   6  12
BRANCH  11  16
HETATM   16  C   UNL     1     -12.373  12.524  70.865  1.00  0.00    -0.255 C  
HETATM   17  O   UNL     1     -13.474  12.669  71.377  1.00  0.00    -0.127 OA 
BRANCH  16  18
HETATM   18  O   UNL     1     -11.536  13.564  70.576  1.00  0.00    -0.135 OA 
BRANCH  18  19
HETATM   19  C   UNL     1     -12.199  14.858  70.547  1.00  0.00    -0.329 C  
HETATM   20  C   UNL     1     -11.706  15.710  71.714  1.00  0.00    -0.535 C  
HETATM   21  C   UNL     1     -11.925  15.571  69.227  1.00  0.00    -0.338 C  
ENDBRANCH  18  19
ENDBRANCH  16  18
ENDBRANCH  11  16
BRANCH   8  22
HETATM   22  C   UNL     1     -10.776  11.963  68.295  1.00  0.00    -0.253 A  
HETATM   23  C   UNL     1      -9.774  12.909  67.995  1.00  0.00    -0.224 A  
HETATM   24  C   UNL     1     -11.896  11.894  67.449  1.00  0.00    -0.239 A  
HETATM   25  C   UNL     1     -12.024  12.760  66.353  1.00  0.00    -0.443 A  
HETATM   26  C   UNL     1      -9.927  13.799  66.917  1.00  0.00    -0.264 A  
HETATM   27  O   UNL     1      -7.942  14.881  67.442  1.00  0.00    -0.170 OA 
HETATM   28  N   UNL     1      -8.925  14.852  66.688  1.00  0.00    -0.270 N  
HETATM   29  C   UNL     1     -11.049  13.722  66.088  1.00  0.00    -0.296 A  
HETATM   30  O   UNL     1      -9.130  15.656  65.765  1.00  0.00    -0.303 OA 
ENDBRANCH   8  22
ENDBRANCH   3   5
ENDBRANCH   2   3
TORSDOF 7
ENDMDL
MODEL      145
REMARK 921   NORMALIZED FREE ENERGY PREDICTED BY IDOCK:   -3.52 KCAL/MOL
REMARK 922        TOTAL FREE ENERGY PREDICTED BY IDOCK:   -6.01 KCAL/MOL
REMARK 923 INTER-LIGAND FREE ENERGY PREDICTED BY IDOCK:   -5.06 KCAL/MOL
REMARK 924 INTRA-LIGAND FREE ENERGY PREDICTED BY IDOCK:   -0.95 KCAL/MOL
REMARK 927      BINDING AFFINITY PREDICTED BY RF-SCORE:    0.00 PKD
ROOT
HETATM    1  C   UNL     1     -12.966   9.066  71.480  1.00  0.00    -0.337 C  
HETATM    2  O   UNL     1     -12.107   9.036  70.331  1.00  0.00    -0.040 OA 
ENDROOT
BRANCH   2   3
HETATM    3  C   UNL     1     -11.272   7.967  70.295  1.00  0.00    -0.200 C  
HETATM    4  O   UNL     1     -11.598   6.817  70.063  1.00  0.00    -0.343 OA 
BRANCH   3   5
HETATM    5  C   UNL     1      -9.879   8.423  70.543  1.00  0.00    -0.204 C  
HETATM    6  C   UNL     1      -9.311   8.280  71.769  1.00  0.00    -0.202 C  
HETATM    7  N   UNL     1      -8.023   8.695  72.003  1.00  0.00    -0.300 NA 
HETATM    8  C   UNL     1      -9.128   9.091  69.379  1.00  0.00    -0.146 C  
HETATM    9  C   UNL     1      -7.254   9.356  71.048  1.00  0.00    -0.033 C  
HETATM   10  C   UNL     1      -5.874   9.762  71.514  1.00  0.00     0.008 C  
HETATM   11  C   UNL     1      -7.735   9.593  69.793  1.00  0.00    -0.133 C  
BRANCH   6  12
HETATM   12  C   UNL     1     -10.161   7.838  72.948  1.00  0.00    -0.315 C  
HETATM   13  N   UNL     1     -10.867   7.471  73.927  1.00  0.00    -0.493 NA 
HETATM   14  H2  UNL     1     -11.069   6.788  73.196  1.00  0.00     0.000 HD 
HETATM   15  H1  UNL     1     -11.437   7.174  74.719  1.00  0.00     0.000 HD 
ENDBRANCH   6  12
BRANCH  11  16
HETATM   16  C   UNL     1      -6.912  10.399  68.838  1.00  0.00    -0.067 C  
HETATM   17  O   UNL     1      -6.242   9.886  67.952  1.00  0.00    -0.051 OA 
BRANCH  16  18
HETATM   18  O   UNL     1      -6.981  11.748  69.042  1.00  0.00    -0.100 OA 
BRANCH  18  19
HETATM   19  C   UNL     1      -6.775  12.534  67.836  1.00  0.00    -0.103 C  
HETATM   20  C   UNL     1      -8.061  13.277  67.485  1.00  0.00    -0.187 C  
HETATM   21  C   UNL     1      -5.633  13.526  68.033  1.00  0.00    -0.121 C  
ENDBRANCH  18  19
ENDBRANCH  16  18
ENDBRANCH  11  16
BRANCH   8  22
HETATM   22  C   UNL     1      -9.977  10.186  68.694  1.00  0.00    -0.181 A  
HETATM   23  C   UNL     1     -10.494  11.249  69.465  1.00  0.00    -0.017 A  
HETATM   24  C   UNL     1     -10.285  10.153  67.323  1.00  0.00    -0.273 A  
HETATM   25  C   UNL     1     -11.103  11.135  66.745  1.00  0.00    -0.280 A  
HETATM   26  C   UNL     1     -11.344  12.208  68.886  1.00  0.00    -0.283 A  
HETATM   27  O   UNL     1     -11.664  13.255  70.932  1.00  0.00     0.009 OA 
HETATM   28  N   UNL     1     -11.963  13.243  69.730  1.00  0.00    -0.327 N  
HETATM   29  C   UNL     1     -11.646  12.158  67.523  1.00  0.00    -0.413 A  
HETATM   30  O   UNL     1     -12.757  14.031  69.191  1.00  0.00     0.069 OA 
ENDBRANCH   8  22
ENDBRANCH   3   5
ENDBRANCH   2   3
TORSDOF 7
ENDMDL
MODEL      146
REMARK 921   NORMALIZED FREE ENERGY PREDICTED BY IDOCK:   -3.49 KCAL/MOL
REMARK 922        TOTAL FREE ENERGY PREDICTED BY IDOCK:   -5.96 KCAL/MOL
REMARK 923 INTER-LIGAND FREE ENERGY PREDICTED BY IDOCK:   -6.90 KCAL/MOL
REMARK 924 INTRA-LIGAND FREE ENERGY PREDICTED BY IDOCK:    0.94 KCAL/MOL
REMARK 927      BINDING AFFINITY PREDICTED BY RF-SCORE:    0.00 PKD
ROOT
HETATM    1  C   UNL     1     -12.796  14.242  70.240  1.00  0.00    -0.153 C  
HETATM    2  O   UNL     1     -11.381  14.471  70.305  1.00  0.00    -0.244 OA 
ENDROOT
BRANCH   2   3
HETATM    3  C   UNL     1     -10.663  13.739  69.415  1.00  0.00     0.025 C  
HETATM    4  O   UNL     1      -9.825  12.901  69.694  1.00  0.00     0.989 OA 
BRANCH   3   5
HETATM    5  C   UNL     1     -11.092  14.087  68.034  1.00  0.00    -0.282 C  
HETATM    6  C   UNL     1     -11.756  13.184  67.267  1.00  0.00    -0.374 C  
HETATM    7  N   UNL     1     -12.159  13.500  65.993  1.00  0.00    -0.421 NA 
HETATM    8  C   UNL     1     -10.721  15.481  67.500  1.00  0.00    -0.300 C  
HETATM    9  C   UNL     1     -11.845  14.710  65.377  1.00  0.00    -0.304 C  
HETATM   10  C   UNL     1     -12.350  14.850  63.958  1.00  0.00    -0.089 C  
HETATM   11  C   UNL     1     -11.144  15.678  66.035  1.00  0.00    -0.136 C  
BRANCH   6  12
HETATM   12  C   UNL     1     -11.891  11.746  67.739  1.00  0.00    -0.196 C  
HETATM   13  N   UNL     1     -12.003  10.552  68.130  1.00  0.00    -0.740 NA 
HETATM   14  H2  UNL     1     -11.316  10.511  67.377  1.00  0.00     0.000 HD 
HETATM   15  H1  UNL     1     -12.093   9.586  68.447  1.00  0.00     0.000 HD 
ENDBRANCH   6  12
BRANCH  11  16
HETATM   16  C   UNL     1     -10.742  16.915  65.297  1.00  0.00    -0.134 C  
HETATM   17  O   UNL     1     -11.210  17.212  64.207  1.00  0.00    -1.126 OA 
BRANCH  16  18
HETATM   18  O   UNL     1      -9.815  17.678  65.949  1.00  0.00    -0.516 OA 
BRANCH  18  19
HETATM   19  C   UNL     1     -10.208  19.068  66.110  1.00  0.00    -0.446 C  
HETATM   20  C   UNL     1     -11.031  19.221  67.386  1.00  0.00    -0.445 C  
HETATM   21  C   UNL     1      -8.979  19.969  66.167  1.00  0.00    -0.338 C  
ENDBRANCH  18  19
ENDBRANCH  16  18
ENDBRANCH  11  16
BRANCH   8  22
HETATM   22  C   UNL     1      -9.232  15.817  67.742  1.00  0.00    -0.197 A  
HETATM   23  C   UNL     1      -8.889  16.992  68.443  1.00  0.00    -0.247 A  
HETATM   24  C   UNL     1      -8.189  15.005  67.262  1.00  0.00    -0.236 A  
HETATM   25  C   UNL     1      -6.848  15.368  67.454  1.00  0.00    -0.204 A  
HETATM   26  C   UNL     1      -7.543  17.368  68.598  1.00  0.00    -0.265 A  
HETATM   27  O   UNL     1      -8.149  19.343  69.658  1.00  0.00     0.038 OA 
HETATM   28  N   UNL     1      -7.211  18.654  69.234  1.00  0.00    -0.190 N  
HETATM   29  C   UNL     1      -6.519  16.554  68.110  1.00  0.00    -0.141 A  
HETATM   30  O   UNL     1      -6.014  18.978  69.294  1.00  0.00    -0.229 OA 
ENDBRANCH   8  22
ENDBRANCH   3   5
ENDBRANCH   2   3
TORSDOF 7
ENDMDL
MODEL      147
REMARK 921   NORMALIZED FREE ENERGY PREDICTED BY IDOCK:   -3.48 KCAL/MOL
REMARK 922        TOTAL FREE ENERGY PREDICTED BY IDOCK:   -5.96 KCAL/MOL
REMARK 923 INTER-LIGAND FREE ENERGY PREDICTED BY IDOCK:   -5.38 KCAL/MOL
REMARK 924 INTRA-LIGAND FREE ENERGY PREDICTED BY IDOCK:   -0.58 KCAL/MOL
REMARK 927      BINDING AFFINITY PREDICTED BY RF-SCORE:    0.00 PKD
ROOT
HETATM    1  C   UNL     1     -11.994  12.627  64.259  1.00  0.00    -0.408 C  
HETATM    2  O   UNL     1     -10.945  13.213  65.044  1.00  0.00    -0.286 OA 
ENDROOT
BRANCH   2   3
HETATM    3  C   UNL     1     -11.112  13.064  66.383  1.00  0.00    -0.287 C  
HETATM    4  O   UNL     1     -12.143  12.734  66.940  1.00  0.00    -0.444 OA 
BRANCH   3   5
HETATM    5  C   UNL     1      -9.819  13.325  67.071  1.00  0.00    -0.242 C  
HETATM    6  C   UNL     1      -9.233  14.548  67.002  1.00  0.00    -0.240 C  
HETATM    7  N   UNL     1      -8.042  14.797  67.639  1.00  0.00    -0.156 NA 
HETATM    8  C   UNL     1      -9.161  12.155  67.822  1.00  0.00    -0.189 C  
HETATM    9  C   UNL     1      -7.322  13.813  68.312  1.00  0.00    -0.118 C  
HETATM   10  C   UNL     1      -6.017  14.281  68.916  1.00  0.00    -0.086 C  
HETATM   11  C   UNL     1      -7.792  12.535  68.411  1.00  0.00    -0.141 C  
BRANCH   6  12
HETATM   12  C   UNL     1      -9.790  15.601  66.058  1.00  0.00    -0.333 C  
HETATM   13  N   UNL     1     -10.252  16.474  65.274  1.00  0.00    -0.596 NA 
HETATM   14  H2  UNL     1     -10.793  15.634  65.068  1.00  0.00     0.000 HD 
HETATM   15  H1  UNL     1     -10.626  17.181  64.641  1.00  0.00     0.000 HD 
ENDBRANCH   6  12
BRANCH  11  16
HETATM   16  C   UNL     1      -6.933  11.491  69.052  1.00  0.00    -0.112 C  
HETATM   17  O   UNL     1      -6.889  11.329  70.263  1.00  0.00    -0.145 OA 
BRANCH  16  18
HETATM   18  O   UNL     1      -6.214  10.740  68.166  1.00  0.00    -0.056 OA 
BRANCH  18  19
HETATM   19  C   UNL     1      -5.830   9.435  68.681  1.00  0.00    -0.040 C  
HETATM   20  C   UNL     1      -7.071   8.698  69.180  1.00  0.00    -0.063 C  
HETATM   21  C   UNL     1      -5.133   8.617  67.600  1.00  0.00    -0.034 C  
ENDBRANCH  18  19
ENDBRANCH  16  18
ENDBRANCH  11  16
BRANCH   8  22
HETATM   22  C   UNL     1      -9.105  10.872  66.962  1.00  0.00    -0.158 A  
HETATM   23  C   UNL     1      -8.158  10.774  65.920  1.00  0.00    -0.148 A  
HETATM   24  C   UNL     1      -9.986   9.795  67.157  1.00  0.00    -0.252 A  
HETATM   25  C   UNL     1      -9.942   8.668  66.324  1.00  0.00    -0.287 A  
HETATM   26  C   UNL     1      -8.145   9.658  65.065  1.00  0.00    -0.127 A  
HETATM   27  O   UNL     1      -6.451  10.583  63.776  1.00  0.00    -0.074 OA 
HETATM   28  N   UNL     1      -7.225   9.626  63.917  1.00  0.00    -0.110 N  
HETATM   29  C   UNL     1      -9.032   8.598  65.269  1.00  0.00    -0.150 A  
HETATM   30  O   UNL     1      -7.290   8.652  63.150  1.00  0.00    -0.097 OA 
ENDBRANCH   8  22
ENDBRANCH   3   5
ENDBRANCH   2   3
TORSDOF 7
ENDMDL
MODEL      148
REMARK 921   NORMALIZED FREE ENERGY PREDICTED BY IDOCK:   -3.48 KCAL/MOL
REMARK 922        TOTAL FREE ENERGY PREDICTED BY IDOCK:   -5.95 KCAL/MOL
REMARK 923 INTER-LIGAND FREE ENERGY PREDICTED BY IDOCK:   -5.15 KCAL/MOL
REMARK 924 INTRA-LIGAND FREE ENERGY PREDICTED BY IDOCK:   -0.80 KCAL/MOL
REMARK 927      BINDING AFFINITY PREDICTED BY RF-SCORE:    0.00 PKD
ROOT
HETATM    1  C   UNL     1     -11.838  12.325  69.721  1.00  0.00    -0.318 C  
HETATM    2  O   UNL     1     -10.816  11.396  69.330  1.00  0.00    -0.228 OA 
ENDROOT
BRANCH   2   3
HETATM    3  C   UNL     1      -9.855  11.937  68.539  1.00  0.00    -0.183 C  
HETATM    4  O   UNL     1      -9.345  13.032  68.686  1.00  0.00    -0.123 OA 
BRANCH   3   5
HETATM    5  C   UNL     1      -9.485  10.961  67.479  1.00  0.00    -0.168 C  
HETATM    6  C   UNL     1     -10.121  10.969  66.279  1.00  0.00    -0.235 C  
HETATM    7  N   UNL     1      -9.781  10.074  65.294  1.00  0.00    -0.288 NA 
HETATM    8  C   UNL     1      -8.393   9.929  67.807  1.00  0.00    -0.114 C  
HETATM    9  C   UNL     1      -8.843   9.061  65.481  1.00  0.00    -0.194 C  
HETATM   10  C   UNL     1      -8.637   8.158  64.285  1.00  0.00     0.145 C  
HETATM   11  C   UNL     1      -8.170   8.929  66.661  1.00  0.00    -0.111 C  
BRANCH   6  12
HETATM   12  C   UNL     1     -11.350  11.840  66.080  1.00  0.00    -0.273 C  
HETATM   13  N   UNL     1     -12.370  12.563  65.915  1.00  0.00    -0.603 NA 
HETATM   14  H2  UNL     1     -12.224  12.553  66.925  1.00  0.00     0.000 HD 
HETATM   15  H1  UNL     1     -13.195  13.149  65.782  1.00  0.00     0.000 HD 
ENDBRANCH   6  12
BRANCH  11  16
HETATM   16  C   UNL     1      -7.251   7.763  66.848  1.00  0.00    -0.089 C  
HETATM   17  O   UNL     1      -6.080   7.786  66.498  1.00  0.00    -0.043 OA 
BRANCH  16  18
HETATM   18  O   UNL     1      -7.836   6.683  67.446  1.00  0.00    -0.109 OA 
BRANCH  18  19
HETATM   19  C   UNL     1      -8.109   5.585  66.533  1.00  0.00    -0.105 C  
HETATM   20  C   UNL     1      -7.297   4.361  66.950  1.00  0.00    -0.080 C  
HETATM   21  C   UNL     1      -9.597   5.250  66.528  1.00  0.00    -0.166 C  
ENDBRANCH  18  19
ENDBRANCH  16  18
ENDBRANCH  11  16
BRANCH   8  22
HETATM   22  C   UNL     1      -8.641   9.235  69.165  1.00  0.00    -0.134 A  
HETATM   23  C   UNL     1      -9.622   8.224  69.261  1.00  0.00    -0.164 A  
HETATM   24  C   UNL     1      -7.943   9.590  70.332  1.00  0.00    -0.200 A  
HETATM   25  C   UNL     1      -8.231   8.976  71.559  1.00  0.00    -0.055 A  
HETATM   26  C   UNL     1      -9.931   7.640  70.502  1.00  0.00    -0.184 A  
HETATM   27  O   UNL     1     -11.624   6.366  69.553  1.00  0.00    -0.404 OA 
HETATM   28  N   UNL     1     -11.033   6.670  70.599  1.00  0.00    -0.262 N  
HETATM   29  C   UNL     1      -9.232   8.009  71.653  1.00  0.00    -0.196 A  
HETATM   30  O   UNL     1     -11.316   6.226  71.724  1.00  0.00    -0.269 OA 
ENDBRANCH   8  22
ENDBRANCH   3   5
ENDBRANCH   2   3
TORSDOF 7
ENDMDL
MODEL      149
REMARK 921   NORMALIZED FREE ENERGY PREDICTED BY IDOCK:   -3.44 KCAL/MOL
REMARK 922        TOTAL FREE ENERGY PREDICTED BY IDOCK:   -5.91 KCAL/MOL
REMARK 923 INTER-LIGAND FREE ENERGY PREDICTED BY IDOCK:   -4.90 KCAL/MOL
REMARK 924 INTRA-LIGAND FREE ENERGY PREDICTED BY IDOCK:   -1.00 KCAL/MOL
REMARK 927      BINDING AFFINITY PREDICTED BY RF-SCORE:    0.00 PKD
ROOT
HETATM    1  C   UNL     1      -7.790  12.112  67.878  1.00  0.00    -0.147 C  
HETATM    2  O   UNL     1      -7.218  11.115  67.018  1.00  0.00    -0.112 OA 
ENDROOT
BRANCH   2   3
HETATM    3  C   UNL     1      -6.725  10.037  67.678  1.00  0.00    -0.075 C  
HETATM    4  O   UNL     1      -5.969  10.071  68.632  1.00  0.00    -0.042 OA 
BRANCH   3   5
HETATM    5  C   UNL     1      -7.287   8.796  67.082  1.00  0.00    -0.080 C  
HETATM    6  C   UNL     1      -7.256   8.598  65.738  1.00  0.00    -0.080 C  
HETATM    7  N   UNL     1      -7.769   7.453  65.181  1.00  0.00    -0.104 NA 
HETATM    8  C   UNL     1      -7.934   7.775  68.033  1.00  0.00    -0.122 C  
HETATM    9  C   UNL     1      -8.423   6.474  65.927  1.00  0.00    -0.147 C  
HETATM   10  C   UNL     1      -8.947   5.306  65.121  1.00  0.00    -0.106 C  
HETATM   11  C   UNL     1      -8.552   6.585  67.281  1.00  0.00    -0.111 C  
BRANCH   6  12
HETATM   12  C   UNL     1      -6.829   9.729  64.817  1.00  0.00    -0.122 C  
HETATM   13  N   UNL     1      -6.474  10.667  64.053  1.00  0.00    -0.362 NA 
HETATM   14  H2  UNL     1      -5.679  10.532  64.678  1.00  0.00     0.000 HD 
HETATM   15  H1  UNL     1      -6.186  11.426  63.435  1.00  0.00     0.000 HD 
ENDBRANCH   6  12
BRANCH  11  16
HETATM   16  C   UNL     1      -9.352   5.561  68.022  1.00  0.00    -0.110 C  
HETATM   17  O   UNL     1     -10.557   5.671  68.199  1.00  0.00    -0.216 OA 
BRANCH  16  18
HETATM   18  O   UNL     1      -8.620   4.500  68.474  1.00  0.00    -0.092 OA 
BRANCH  18  19
HETATM   19  C   UNL     1      -8.679   4.320  69.916  1.00  0.00    -0.070 C  
HETATM   20  C   UNL     1      -9.274   2.951  70.235  1.00  0.00    -0.209 C  
HETATM   21  C   UNL     1      -7.287   4.442  70.528  1.00  0.00    -0.049 C  
ENDBRANCH  18  19
ENDBRANCH  16  18
ENDBRANCH  11  16
BRANCH   8  22
HETATM   22  C   UNL     1      -8.927   8.443  69.011  1.00  0.00    -0.147 A  
HETATM   23  C   UNL     1      -9.933   9.295  68.507  1.00  0.00    -0.193 A  
HETATM   24  C   UNL     1      -8.853   8.259  70.403  1.00  0.00    -0.141 A  
HETATM   25  C   UNL     1      -9.737   8.922  71.265  1.00  0.00    -0.359 A  
HETATM   26  C   UNL     1     -10.791   9.986  69.381  1.00  0.00    -0.239 A  
HETATM   27  O   UNL     1     -11.811  11.088  67.611  1.00  0.00    -0.599 OA 
HETATM   28  N   UNL     1     -11.759  10.955  68.842  1.00  0.00    -0.313 N  
HETATM   29  C   UNL     1     -10.700   9.796  70.762  1.00  0.00    -0.393 A  
HETATM   30  O   UNL     1     -12.454  11.591  69.650  1.00  0.00    -0.165 OA 
ENDBRANCH   8  22
ENDBRANCH   3   5
ENDBRANCH   2   3
TORSDOF 7
ENDMDL
MODEL      150
REMARK 921   NORMALIZED FREE ENERGY PREDICTED BY IDOCK:   -3.41 KCAL/MOL
REMARK 922        TOTAL FREE ENERGY PREDICTED BY IDOCK:   -5.86 KCAL/MOL
REMARK 923 INTER-LIGAND FREE ENERGY PREDICTED BY IDOCK:   -6.61 KCAL/MOL
REMARK 924 INTRA-LIGAND FREE ENERGY PREDICTED BY IDOCK:    0.75 KCAL/MOL
REMARK 927      BINDING AFFINITY PREDICTED BY RF-SCORE:    0.00 PKD
ROOT
HETATM    1  C   UNL     1     -12.715   9.776  70.021  1.00  0.00     0.499 C  
HETATM    2  O   UNL     1     -11.438  10.395  69.809  1.00  0.00    -0.251 OA 
ENDROOT
BRANCH   2   3
HETATM    3  C   UNL     1     -11.318  11.012  68.606  1.00  0.00    -0.281 C  
HETATM    4  O   UNL     1     -12.154  11.014  67.721  1.00  0.00    -0.534 OA 
BRANCH   3   5
HETATM    5  C   UNL     1     -10.016  11.729  68.549  1.00  0.00    -0.203 C  
HETATM    6  C   UNL     1      -8.851  11.066  68.769  1.00  0.00    -0.147 C  
HETATM    7  N   UNL     1      -7.645  11.721  68.712  1.00  0.00    -0.123 NA 
HETATM    8  C   UNL     1     -10.045  13.242  68.274  1.00  0.00    -0.250 C  
HETATM    9  C   UNL     1      -7.537  13.096  68.519  1.00  0.00    -0.122 C  
HETATM   10  C   UNL     1      -6.122  13.629  68.524  1.00  0.00    -0.091 C  
HETATM   11  C   UNL     1      -8.643  13.873  68.329  1.00  0.00    -0.177 C  
BRANCH   6  12
HETATM   12  C   UNL     1      -8.880   9.632  69.271  1.00  0.00    -0.164 C  
HETATM   13  N   UNL     1      -8.905   8.443  69.688  1.00  0.00    -0.140 NA 
HETATM   14  H2  UNL     1      -9.670   8.902  70.183  1.00  0.00     0.000 HD 
HETATM   15  H1  UNL     1      -8.924   7.480  70.026  1.00  0.00     0.000 HD 
ENDBRANCH   6  12
BRANCH  11  16
HETATM   16  C   UNL     1      -8.483  15.357  68.230  1.00  0.00    -0.159 C  
HETATM   17  O   UNL     1      -8.173  16.050  69.189  1.00  0.00    -0.226 OA 
BRANCH  16  18
HETATM   18  O   UNL     1      -8.708  15.861  66.981  1.00  0.00    -0.192 OA 
BRANCH  18  19
HETATM   19  C   UNL     1      -8.719  17.314  66.928  1.00  0.00    -0.240 C  
HETATM   20  C   UNL     1      -7.533  17.803  66.101  1.00  0.00    -0.322 C  
HETATM   21  C   UNL     1     -10.025  17.818  66.323  1.00  0.00    -0.322 C  
ENDBRANCH  18  19
ENDBRANCH  16  18
ENDBRANCH  11  16
BRANCH   8  22
HETATM   22  C   UNL     1     -11.065  13.975  69.173  1.00  0.00    -0.294 A  
HETATM   23  C   UNL     1     -11.665  13.286  70.249  1.00  0.00    -0.217 A  
HETATM   24  C   UNL     1     -11.448  15.309  68.947  1.00  0.00    -0.346 A  
HETATM   25  C   UNL     1     -12.416  15.926  69.751  1.00  0.00     0.057 A  
HETATM   26  C   UNL     1     -12.663  13.900  71.027  1.00  0.00    -0.357 A  
HETATM   27  O   UNL     1     -12.989  11.959  72.257  1.00  0.00    -0.293 OA 
HETATM   28  N   UNL     1     -13.356  13.128  72.071  1.00  0.00    -0.483 N  
HETATM   29  C   UNL     1     -13.036  15.224  70.785  1.00  0.00    -0.492 A  
HETATM   30  O   UNL     1     -14.274  13.688  72.692  1.00  0.00    -0.735 OA 
ENDBRANCH   8  22
ENDBRANCH   3   5
ENDBRANCH   2   3
TORSDOF 7
ENDMDL
MODEL      151
REMARK 921   NORMALIZED FREE ENERGY PREDICTED BY IDOCK:   -3.39 KCAL/MOL
REMARK 922        TOTAL FREE ENERGY PREDICTED BY IDOCK:   -5.83 KCAL/MOL
REMARK 923 INTER-LIGAND FREE ENERGY PREDICTED BY IDOCK:   -6.65 KCAL/MOL
REMARK 924 INTRA-LIGAND FREE ENERGY PREDICTED BY IDOCK:    0.81 KCAL/MOL
REMARK 927      BINDING AFFINITY PREDICTED BY RF-SCORE:    0.00 PKD
ROOT
HETATM    1  C   UNL     1     -10.527  16.664  67.949  1.00  0.00    -0.322 C  
HETATM    2  O   UNL     1     -11.190  15.624  68.683  1.00  0.00    -0.296 OA 
ENDROOT
BRANCH   2   3
HETATM    3  C   UNL     1     -11.576  14.571  67.919  1.00  0.00    -0.344 C  
HETATM    4  O   UNL     1     -11.776  14.599  66.718  1.00  0.00    -0.373 OA 
BRANCH   3   5
HETATM    5  C   UNL     1     -11.678  13.356  68.770  1.00  0.00    -0.377 C  
HETATM    6  C   UNL     1     -12.380  13.383  69.932  1.00  0.00    -0.195 C  
HETATM    7  N   UNL     1     -12.482  12.263  70.721  1.00  0.00    -0.322 NA 
HETATM    8  C   UNL     1     -10.931  12.094  68.307  1.00  0.00    -0.273 C  
HETATM    9  C   UNL     1     -11.816  11.073  70.438  1.00  0.00    -0.367 C  
HETATM   10  C   UNL     1     -12.030   9.969  71.449  1.00  0.00    -0.470 C  
HETATM   11  C   UNL     1     -11.046  10.942  69.318  1.00  0.00    -0.305 C  
BRANCH   6  12
HETATM   12  C   UNL     1     -12.899  14.705  70.472  1.00  0.00    -0.317 C  
HETATM   13  N   UNL     1     -13.330  15.802  70.921  1.00  0.00    -0.722 NA 
HETATM   14  H2  UNL     1     -12.776  15.414  71.684  1.00  0.00     0.000 HD 
HETATM   15  H1  UNL     1     -13.678  16.690  71.283  1.00  0.00     0.000 HD 
ENDBRANCH   6  12
BRANCH  11  16
HETATM   16  C   UNL     1     -10.268   9.681  69.113  1.00  0.00    -0.202 C  
HETATM   17  O   UNL     1     -10.608   8.821  68.314  1.00  0.00    -0.210 OA 
BRANCH  16  18
HETATM   18  O   UNL     1      -9.150   9.583  69.892  1.00  0.00    -0.182 OA 
BRANCH  18  19
HETATM   19  C   UNL     1      -8.441   8.322  69.744  1.00  0.00    -0.128 C  
HETATM   20  C   UNL     1      -9.360   7.171  70.145  1.00  0.00    -0.158 C  
HETATM   21  C   UNL     1      -7.969   8.139  68.306  1.00  0.00    -0.123 C  
ENDBRANCH  18  19
ENDBRANCH  16  18
ENDBRANCH  11  16
BRANCH   8  22
HETATM   22  C   UNL     1      -9.468  12.398  67.913  1.00  0.00    -0.198 A  
HETATM   23  C   UNL     1      -8.827  11.594  66.946  1.00  0.00    -0.190 A  
HETATM   24  C   UNL     1      -8.729  13.438  68.503  1.00  0.00    -0.071 A  
HETATM   25  C   UNL     1      -7.386  13.652  68.160  1.00  0.00    -0.121 A  
HETATM   26  C   UNL     1      -7.470  11.792  66.635  1.00  0.00     0.014 A  
HETATM   27  O   UNL     1      -7.470   9.973  65.192  1.00  0.00    -0.127 OA 
HETATM   28  N   UNL     1      -6.790  10.872  65.707  1.00  0.00    -0.046 N  
HETATM   29  C   UNL     1      -6.748  12.825  67.235  1.00  0.00    -0.089 A  
HETATM   30  O   UNL     1      -5.577  11.042  65.509  1.00  0.00    -0.130 OA 
ENDBRANCH   8  22
ENDBRANCH   3   5
ENDBRANCH   2   3
TORSDOF 7
ENDMDL
MODEL      152
REMARK 921   NORMALIZED FREE ENERGY PREDICTED BY IDOCK:   -3.39 KCAL/MOL
REMARK 922        TOTAL FREE ENERGY PREDICTED BY IDOCK:   -5.83 KCAL/MOL
REMARK 923 INTER-LIGAND FREE ENERGY PREDICTED BY IDOCK:   -4.40 KCAL/MOL
REMARK 924 INTRA-LIGAND FREE ENERGY PREDICTED BY IDOCK:   -1.43 KCAL/MOL
REMARK 927      BINDING AFFINITY PREDICTED BY RF-SCORE:    0.00 PKD
ROOT
HETATM    1  C   UNL     1      -9.765  10.750  69.285  1.00  0.00    -0.120 C  
HETATM    2  O   UNL     1      -9.307  10.193  68.045  1.00  0.00    -0.140 OA 
ENDROOT
BRANCH   2   3
HETATM    3  C   UNL     1      -8.088   9.600  68.124  1.00  0.00    -0.105 C  
HETATM    4  O   UNL     1      -7.049  10.148  68.445  1.00  0.00    -0.069 OA 
BRANCH   3   5
HETATM    5  C   UNL     1      -8.223   8.155  67.798  1.00  0.00    -0.128 C  
HETATM    6  C   UNL     1      -8.744   7.760  66.608  1.00  0.00    -0.140 C  
HETATM    7  N   UNL     1      -8.866   6.428  66.299  1.00  0.00    -0.142 NA 
HETATM    8  C   UNL     1      -7.792   7.138  68.868  1.00  0.00    -0.115 C  
HETATM    9  C   UNL     1      -8.556   5.409  67.197  1.00  0.00    -0.108 C  
HETATM   10  C   UNL     1      -8.794   4.009  66.677  1.00  0.00    -0.122 C  
HETATM   11  C   UNL     1      -8.064   5.687  68.439  1.00  0.00    -0.103 C  
BRANCH   6  12
HETATM   12  C   UNL     1      -9.377   8.785  65.682  1.00  0.00    -0.150 C  
HETATM   13  N   UNL     1      -9.902   9.636  64.914  1.00  0.00    -0.422 NA 
HETATM   14  H2  UNL     1      -9.991  10.043  65.845  1.00  0.00     0.000 HD 
HETATM   15  H1  UNL     1     -10.327  10.325  64.292  1.00  0.00     0.000 HD 
ENDBRANCH   6  12
BRANCH  11  16
HETATM   16  C   UNL     1      -7.846   4.564  69.404  1.00  0.00    -0.062 C  
HETATM   17  O   UNL     1      -6.731   4.177  69.721  1.00  0.00    -0.033 OA 
BRANCH  16  18
HETATM   18  O   UNL     1      -8.998   4.021  69.897  1.00  0.00    -0.082 OA 
BRANCH  18  19
HETATM   19  C   UNL     1      -8.818   3.300  71.146  1.00  0.00    -0.083 C  
HETATM   20  C   UNL     1      -8.956   4.268  72.319  1.00  0.00    -0.138 C  
HETATM   21  C   UNL     1      -9.843   2.177  71.270  1.00  0.00    -0.151 C  
ENDBRANCH  18  19
ENDBRANCH  16  18
ENDBRANCH  11  16
BRANCH   8  22
HETATM   22  C   UNL     1      -8.382   7.471  70.257  1.00  0.00    -0.133 A  
HETATM   23  C   UNL     1      -9.773   7.356  70.466  1.00  0.00    -0.175 A  
HETATM   24  C   UNL     1      -7.588   7.917  71.327  1.00  0.00    -0.081 A  
HETATM   25  C   UNL     1      -8.164   8.261  72.558  1.00  0.00    -0.224 A  
HETATM   26  C   UNL     1     -10.348   7.739  71.691  1.00  0.00    -0.197 A  
HETATM   27  O   UNL     1     -12.486   7.308  70.896  1.00  0.00    -0.308 OA 
HETATM   28  N   UNL     1     -11.811   7.718  71.851  1.00  0.00    -0.285 N  
HETATM   29  C   UNL     1      -9.545   8.186  72.743  1.00  0.00    -0.353 A  
HETATM   30  O   UNL     1     -12.282   8.124  72.926  1.00  0.00    -0.234 OA 
ENDBRANCH   8  22
ENDBRANCH   3   5
ENDBRANCH   2   3
TORSDOF 7
ENDMDL
MODEL      153
REMARK 921   NORMALIZED FREE ENERGY PREDICTED BY IDOCK:   -3.36 KCAL/MOL
REMARK 922        TOTAL FREE ENERGY PREDICTED BY IDOCK:   -5.78 KCAL/MOL
REMARK 923 INTER-LIGAND FREE ENERGY PREDICTED BY IDOCK:   -4.51 KCAL/MOL
REMARK 924 INTRA-LIGAND FREE ENERGY PREDICTED BY IDOCK:   -1.27 KCAL/MOL
REMARK 927      BINDING AFFINITY PREDICTED BY RF-SCORE:    0.00 PKD
ROOT
HETATM    1  C   UNL     1      -7.880  10.000  65.420  1.00  0.00    -0.136 C  
HETATM    2  O   UNL     1      -8.049   8.841  66.250  1.00  0.00    -0.103 OA 
ENDROOT
BRANCH   2   3
HETATM    3  C   UNL     1      -7.659   9.024  67.537  1.00  0.00    -0.089 C  
HETATM    4  O   UNL     1      -6.509   9.086  67.930  1.00  0.00    -0.055 OA 
BRANCH   3   5
HETATM    5  C   UNL     1      -8.862   9.182  68.397  1.00  0.00    -0.129 C  
HETATM    6  C   UNL     1      -9.252  10.412  68.822  1.00  0.00    -0.172 C  
HETATM    7  N   UNL     1     -10.364  10.566  69.613  1.00  0.00    -0.222 NA 
HETATM    8  C   UNL     1      -9.615   7.908  68.814  1.00  0.00    -0.152 C  
HETATM    9  C   UNL     1     -11.105   9.490  70.098  1.00  0.00    -0.255 C  
HETATM   10  C   UNL     1     -12.272   9.869  70.981  1.00  0.00    -0.446 C  
HETATM   11  C   UNL     1     -10.782   8.205  69.771  1.00  0.00    -0.229 C  
BRANCH   6  12
HETATM   12  C   UNL     1      -8.351  11.613  68.590  1.00  0.00    -0.100 C  
HETATM   13  N   UNL     1      -7.603  12.610  68.397  1.00  0.00    -0.128 NA 
HETATM   14  H2  UNL     1      -8.048  12.795  69.296  1.00  0.00     0.000 HD 
HETATM   15  H1  UNL     1      -6.998  13.417  68.241  1.00  0.00     0.000 HD 
ENDBRANCH   6  12
BRANCH  11  16
HETATM   16  C   UNL     1     -11.542   7.081  70.400  1.00  0.00    -0.295 C  
HETATM   17  O   UNL     1     -12.020   6.163  69.748  1.00  0.00    -0.046 OA 
BRANCH  16  18
HETATM   18  O   UNL     1     -11.648   7.170  71.759  1.00  0.00    -0.261 OA 
BRANCH  18  19
HETATM   19  C   UNL     1     -10.638   6.409  72.477  1.00  0.00    -0.214 C  
HETATM   20  C   UNL     1      -9.963   7.305  73.512  1.00  0.00    -0.366 C  
HETATM   21  C   UNL     1     -11.265   5.198  73.160  1.00  0.00    -0.398 C  
ENDBRANCH  18  19
ENDBRANCH  16  18
ENDBRANCH  11  16
BRANCH   8  22
HETATM   22  C   UNL     1      -8.660   6.821  69.357  1.00  0.00    -0.132 A  
HETATM   23  C   UNL     1      -8.670   5.534  68.778  1.00  0.00    -0.102 A  
HETATM   24  C   UNL     1      -7.788   7.054  70.435  1.00  0.00    -0.108 A  
HETATM   25  C   UNL     1      -6.973   6.030  70.936  1.00  0.00    -0.067 A  
HETATM   26  C   UNL     1      -7.877   4.502  69.311  1.00  0.00    -0.062 A  
HETATM   27  O   UNL     1      -8.754   2.966  67.807  1.00  0.00    -0.094 OA 
HETATM   28  N   UNL     1      -7.987   3.139  68.765  1.00  0.00    -0.057 N  
HETATM   29  C   UNL     1      -7.021   4.748  70.386  1.00  0.00    -0.045 A  
HETATM   30  O   UNL     1      -7.317   2.244  69.305  1.00  0.00    -0.043 OA 
ENDBRANCH   8  22
ENDBRANCH   3   5
ENDBRANCH   2   3
TORSDOF 7
ENDMDL
MODEL      154
REMARK 921   NORMALIZED FREE ENERGY PREDICTED BY IDOCK:   -3.35 KCAL/MOL
REMARK 922        TOTAL FREE ENERGY PREDICTED BY IDOCK:   -5.77 KCAL/MOL
REMARK 923 INTER-LIGAND FREE ENERGY PREDICTED BY IDOCK:   -4.19 KCAL/MOL
REMARK 924 INTRA-LIGAND FREE ENERGY PREDICTED BY IDOCK:   -1.57 KCAL/MOL
REMARK 927      BINDING AFFINITY PREDICTED BY RF-SCORE:    0.00 PKD
ROOT
HETATM    1  C   UNL     1      -9.080   2.818  67.906  1.00  0.00    -0.182 C  
HETATM    2  O   UNL     1      -8.313   3.684  67.057  1.00  0.00    -0.097 OA 
ENDROOT
BRANCH   2   3
HETATM    3  C   UNL     1      -8.973   4.084  65.940  1.00  0.00    -0.128 C  
HETATM    4  O   UNL     1      -9.816   3.440  65.342  1.00  0.00    -0.105 OA 
BRANCH   3   5
HETATM    5  C   UNL     1      -8.536   5.458  65.577  1.00  0.00    -0.148 C  
HETATM    6  C   UNL     1      -7.401   5.657  64.858  1.00  0.00    -0.071 C  
HETATM    7  N   UNL     1      -6.995   6.923  64.515  1.00  0.00    -0.052 NA 
HETATM    8  C   UNL     1      -9.391   6.635  66.077  1.00  0.00    -0.035 C  
HETATM    9  C   UNL     1      -7.654   8.073  64.945  1.00  0.00    -0.106 C  
HETATM   10  C   UNL     1      -7.028   9.372  64.488  1.00  0.00    -0.097 C  
HETATM   11  C   UNL     1      -8.783   7.998  65.708  1.00  0.00    -0.175 C  
BRANCH   6  12
HETATM   12  C   UNL     1      -6.462   4.492  64.590  1.00  0.00    -0.039 C  
HETATM   13  N   UNL     1      -5.683   3.526  64.368  1.00  0.00    -0.013 NA 
HETATM   14  H2  UNL     1      -6.265   3.583  63.531  1.00  0.00     0.000 HD 
HETATM   15  H1  UNL     1      -5.053   2.744  64.188  1.00  0.00     0.000 HD 
ENDBRANCH   6  12
BRANCH  11  16
HETATM   16  C   UNL     1      -9.393   9.260  66.232  1.00  0.00    -0.200 C  
HETATM   17  O   UNL     1     -10.370   9.782  65.714  1.00  0.00    -0.209 OA 
BRANCH  16  18
HETATM   18  O   UNL     1      -8.766   9.767  67.334  1.00  0.00    -0.131 OA 
BRANCH  18  19
HETATM   19  C   UNL     1      -9.628  10.578  68.177  1.00  0.00    -0.154 C  
HETATM   20  C   UNL     1      -9.633  10.014  69.596  1.00  0.00    -0.251 C  
HETATM   21  C   UNL     1      -9.154  12.028  68.192  1.00  0.00    -0.191 C  
ENDBRANCH  18  19
ENDBRANCH  16  18
ENDBRANCH  11  16
BRANCH   8  22
HETATM   22  C   UNL     1      -9.718   6.515  67.583  1.00  0.00    -0.137 A  
HETATM   23  C   UNL     1      -8.672   6.579  68.528  1.00  0.00    -0.122 A  
HETATM   24  C   UNL     1     -11.026   6.315  68.056  1.00  0.00    -0.418 A  
HETATM   25  C   UNL     1     -11.280   6.157  69.426  1.00  0.00    -0.466 A  
HETATM   26  C   UNL     1      -8.930   6.382  69.897  1.00  0.00    -0.142 A  
HETATM   27  O   UNL     1      -6.671   6.532  70.410  1.00  0.00    -0.050 OA 
HETATM   28  N   UNL     1      -7.812   6.340  70.853  1.00  0.00    -0.105 N  
HETATM   29  C   UNL     1     -10.235   6.178  70.350  1.00  0.00    -0.256 A  
HETATM   30  O   UNL     1      -8.077   6.100  72.043  1.00  0.00    -0.109 OA 
ENDBRANCH   8  22
ENDBRANCH   3   5
ENDBRANCH   2   3
TORSDOF 7
ENDMDL
MODEL      155
REMARK 921   NORMALIZED FREE ENERGY PREDICTED BY IDOCK:   -3.31 KCAL/MOL
REMARK 922        TOTAL FREE ENERGY PREDICTED BY IDOCK:   -5.72 KCAL/MOL
REMARK 923 INTER-LIGAND FREE ENERGY PREDICTED BY IDOCK:   -4.36 KCAL/MOL
REMARK 924 INTRA-LIGAND FREE ENERGY PREDICTED BY IDOCK:   -1.36 KCAL/MOL
REMARK 927      BINDING AFFINITY PREDICTED BY RF-SCORE:    0.00 PKD
ROOT
HETATM    1  C   UNL     1     -12.064   7.529  72.373  1.00  0.00    -0.176 C  
HETATM    2  O   UNL     1     -12.212   7.941  71.006  1.00  0.00    -0.286 OA 
ENDROOT
BRANCH   2   3
HETATM    3  C   UNL     1     -11.327   7.360  70.157  1.00  0.00    -0.177 C  
HETATM    4  O   UNL     1     -11.573   6.450  69.386  1.00  0.00    -0.382 OA 
BRANCH   3   5
HETATM    5  C   UNL     1     -10.009   8.037  70.280  1.00  0.00    -0.189 C  
HETATM    6  C   UNL     1      -9.811   9.268  69.741  1.00  0.00    -0.188 C  
HETATM    7  N   UNL     1      -8.597   9.901  69.855  1.00  0.00    -0.204 NA 
HETATM    8  C   UNL     1      -8.881   7.279  71.000  1.00  0.00    -0.144 C  
HETATM    9  C   UNL     1      -7.483   9.304  70.441  1.00  0.00    -0.121 C  
HETATM   10  C   UNL     1      -6.231  10.154  70.437  1.00  0.00    -0.112 C  
HETATM   11  C   UNL     1      -7.552   8.053  70.980  1.00  0.00    -0.083 C  
BRANCH   6  12
HETATM   12  C   UNL     1     -10.868   9.876  68.836  1.00  0.00    -0.210 C  
HETATM   13  N   UNL     1     -11.747  10.381  68.084  1.00  0.00    -0.743 NA 
HETATM   14  H2  UNL     1     -11.563   9.462  67.681  1.00  0.00     0.000 HD 
HETATM   15  H1  UNL     1     -12.457  10.790  67.477  1.00  0.00     0.000 HD 
ENDBRANCH   6  12
BRANCH  11  16
HETATM   16  C   UNL     1      -6.304   7.415  71.503  1.00  0.00    -0.036 C  
HETATM   17  O   UNL     1      -5.482   6.881  70.771  1.00  0.00    -0.023 OA 
BRANCH  16  18
HETATM   18  O   UNL     1      -6.166   7.488  72.860  1.00  0.00    -0.057 OA 
BRANCH  18  19
HETATM   19  C   UNL     1      -6.417   6.230  73.543  1.00  0.00    -0.066 C  
HETATM   20  C   UNL     1      -5.195   5.848  74.375  1.00  0.00    -0.032 C  
HETATM   21  C   UNL     1      -7.646   6.343  74.439  1.00  0.00    -0.098 C  
ENDBRANCH  18  19
ENDBRANCH  16  18
ENDBRANCH  11  16
BRANCH   8  22
HETATM   22  C   UNL     1      -8.736   5.830  70.485  1.00  0.00    -0.140 A  
HETATM   23  C   UNL     1      -8.311   5.602  69.158  1.00  0.00    -0.100 A  
HETATM   24  C   UNL     1      -9.039   4.712  71.283  1.00  0.00    -0.179 A  
HETATM   25  C   UNL     1      -8.946   3.412  70.766  1.00  0.00    -0.163 A  
HETATM   26  C   UNL     1      -8.258   4.298  68.636  1.00  0.00    -0.083 A  
HETATM   27  O   UNL     1      -7.647   5.092  66.542  1.00  0.00    -0.086 OA 
HETATM   28  N   UNL     1      -7.922   4.090  67.218  1.00  0.00    -0.091 N  
HETATM   29  C   UNL     1      -8.569   3.199  69.440  1.00  0.00    -0.113 A  
HETATM   30  O   UNL     1      -7.948   2.929  66.781  1.00  0.00    -0.075 OA 
ENDBRANCH   8  22
ENDBRANCH   3   5
ENDBRANCH   2   3
TORSDOF 7
ENDMDL
MODEL      156
REMARK 921   NORMALIZED FREE ENERGY PREDICTED BY IDOCK:   -3.30 KCAL/MOL
REMARK 922        TOTAL FREE ENERGY PREDICTED BY IDOCK:   -5.71 KCAL/MOL
REMARK 923 INTER-LIGAND FREE ENERGY PREDICTED BY IDOCK:   -5.43 KCAL/MOL
REMARK 924 INTRA-LIGAND FREE ENERGY PREDICTED BY IDOCK:   -0.28 KCAL/MOL
REMARK 927      BINDING AFFINITY PREDICTED BY RF-SCORE:    0.00 PKD
ROOT
HETATM    1  C   UNL     1      -5.577   5.676  70.558  1.00  0.00    -0.009 C  
HETATM    2  O   UNL     1      -5.954   4.470  69.878  1.00  0.00    -0.016 OA 
ENDROOT
BRANCH   2   3
HETATM    3  C   UNL     1      -7.296   4.291  69.779  1.00  0.00    -0.050 C  
HETATM    4  O   UNL     1      -7.869   3.681  68.895  1.00  0.00    -0.052 OA 
BRANCH   3   5
HETATM    5  C   UNL     1      -7.963   4.922  70.948  1.00  0.00    -0.084 C  
HETATM    6  C   UNL     1      -8.189   4.211  72.083  1.00  0.00    -0.101 C  
HETATM    7  N   UNL     1      -8.800   4.789  73.168  1.00  0.00    -0.112 NA 
HETATM    8  C   UNL     1      -8.419   6.384  70.808  1.00  0.00    -0.135 C  
HETATM    9  C   UNL     1      -9.302   6.089  73.154  1.00  0.00    -0.139 C  
HETATM   10  C   UNL     1      -9.972   6.526  74.437  1.00  0.00    -0.374 C  
HETATM   11  C   UNL     1      -9.171   6.885  72.053  1.00  0.00    -0.146 C  
BRANCH   6  12
HETATM   12  C   UNL     1      -7.943   2.712  72.097  1.00  0.00    -0.054 C  
HETATM   13  N   UNL     1      -7.738   1.467  72.108  1.00  0.00    -0.040 NA 
HETATM   14  H2  UNL     1      -7.757   1.714  71.118  1.00  0.00     0.000 HD 
HETATM   15  H1  UNL     1      -7.573   0.460  72.117  1.00  0.00     0.000 HD 
ENDBRANCH   6  12
BRANCH  11  16
HETATM   16  C   UNL     1      -9.818   8.234  72.049  1.00  0.00    -0.257 C  
HETATM   17  O   UNL     1      -9.274   9.222  71.578  1.00  0.00    -0.305 OA 
BRANCH  16  18
HETATM   18  O   UNL     1     -11.063   8.257  72.610  1.00  0.00    -0.367 OA 
BRANCH  18  19
HETATM   19  C   UNL     1     -12.119   8.613  71.676  1.00  0.00    -0.326 C  
HETATM   20  C   UNL     1     -12.910   7.363  71.299  1.00  0.00    -0.365 C  
HETATM   21  C   UNL     1     -13.048   9.655  72.291  1.00  0.00    -0.468 C  
ENDBRANCH  18  19
ENDBRANCH  16  18
ENDBRANCH  11  16
BRANCH   8  22
HETATM   22  C   UNL     1      -9.206   6.623  69.499  1.00  0.00    -0.143 A  
HETATM   23  C   UNL     1      -8.710   7.540  68.547  1.00  0.00    -0.128 A  
HETATM   24  C   UNL     1     -10.425   5.980  69.225  1.00  0.00    -0.328 A  
HETATM   25  C   UNL     1     -11.139   6.260  68.051  1.00  0.00    -0.365 A  
HETATM   26  C   UNL     1      -9.451   7.844  67.391  1.00  0.00    -0.144 A  
HETATM   27  O   UNL     1      -7.887   9.426  66.728  1.00  0.00    -0.103 OA 
HETATM   28  N   UNL     1      -8.971   8.884  66.467  1.00  0.00    -0.147 N  
HETATM   29  C   UNL     1     -10.663   7.200  67.136  1.00  0.00    -0.422 A  
HETATM   30  O   UNL     1      -9.685   9.167  65.492  1.00  0.00    -0.247 OA 
ENDBRANCH   8  22
ENDBRANCH   3   5
ENDBRANCH   2   3
TORSDOF 7
ENDMDL
MODEL      157
REMARK 921   NORMALIZED FREE ENERGY PREDICTED BY IDOCK:   -3.26 KCAL/MOL
REMARK 922        TOTAL FREE ENERGY PREDICTED BY IDOCK:   -5.64 KCAL/MOL
REMARK 923 INTER-LIGAND FREE ENERGY PREDICTED BY IDOCK:   -5.56 KCAL/MOL
REMARK 924 INTRA-LIGAND FREE ENERGY PREDICTED BY IDOCK:   -0.08 KCAL/MOL
REMARK 927      BINDING AFFINITY PREDICTED BY RF-SCORE:    0.00 PKD
ROOT
HETATM    1  C   UNL     1      -9.580  14.861  66.868  1.00  0.00    -0.245 C  
HETATM    2  O   UNL     1      -8.785  13.732  67.259  1.00  0.00    -0.199 OA 
ENDROOT
BRANCH   2   3
HETATM    3  C   UNL     1      -9.426  12.867  68.085  1.00  0.00    -0.218 C  
HETATM    4  O   UNL     1     -10.436  13.107  68.721  1.00  0.00    -0.235 OA 
BRANCH   3   5
HETATM    5  C   UNL     1      -8.726  11.555  68.062  1.00  0.00    -0.151 C  
HETATM    6  C   UNL     1      -7.582  11.370  68.770  1.00  0.00    -0.132 C  
HETATM    7  N   UNL     1      -6.933  10.159  68.758  1.00  0.00    -0.064 NA 
HETATM    8  C   UNL     1      -9.321  10.442  67.184  1.00  0.00    -0.177 C  
HETATM    9  C   UNL     1      -7.342   9.087  67.967  1.00  0.00    -0.084 C  
HETATM   10  C   UNL     1      -6.472   7.854  68.069  1.00  0.00    -0.052 C  
HETATM   11  C   UNL     1      -8.455   9.172  67.182  1.00  0.00    -0.120 C  
BRANCH   6  12
HETATM   12  C   UNL     1      -6.899  12.556  69.429  1.00  0.00     0.033 C  
HETATM   13  N   UNL     1      -6.333  13.541  69.977  1.00  0.00    -0.316 NA 
HETATM   14  H2  UNL     1      -6.181  12.767  70.624  1.00  0.00     0.000 HD 
HETATM   15  H1  UNL     1      -5.874  14.338  70.420  1.00  0.00     0.000 HD 
ENDBRANCH   6  12
BRANCH  11  16
HETATM   16  C   UNL     1      -8.793   8.033  66.273  1.00  0.00    -0.162 C  
HETATM   17  O   UNL     1      -9.899   7.512  66.254  1.00  0.00    -0.124 OA 
BRANCH  16  18
HETATM   18  O   UNL     1      -7.762   7.635  65.470  1.00  0.00    -0.090 OA 
BRANCH  18  19
HETATM   19  C   UNL     1      -8.101   6.533  64.585  1.00  0.00    -0.092 C  
HETATM   20  C   UNL     1      -8.325   7.064  63.172  1.00  0.00     0.174 C  
HETATM   21  C   UNL     1      -6.990   5.487  64.582  1.00  0.00    -0.049 C  
ENDBRANCH  18  19
ENDBRANCH  16  18
ENDBRANCH  11  16
BRANCH   8  22
HETATM   22  C   UNL     1      -9.650  10.942  65.759  1.00  0.00    -0.259 A  
HETATM   23  C   UNL     1     -10.818  11.705  65.542  1.00  0.00    -0.334 A  
HETATM   24  C   UNL     1      -8.841  10.643  64.649  1.00  0.00    -0.191 A  
HETATM   25  C   UNL     1      -9.197  11.069  63.362  1.00  0.00    -0.255 A  
HETATM   26  C   UNL     1     -11.188  12.096  64.243  1.00  0.00    -0.347 A  
HETATM   27  O   UNL     1     -13.153  13.055  65.022  1.00  0.00    -0.761 OA 
HETATM   28  N   UNL     1     -12.466  12.793  64.024  1.00  0.00    -0.378 N  
HETATM   29  C   UNL     1     -10.376  11.785  63.150  1.00  0.00    -0.364 A  
HETATM   30  O   UNL     1     -12.786  13.064  62.856  1.00  0.00    -0.367 OA 
ENDBRANCH   8  22
ENDBRANCH   3   5
ENDBRANCH   2   3
TORSDOF 7
ENDMDL
MODEL      158
REMARK 921   NORMALIZED FREE ENERGY PREDICTED BY IDOCK:   -3.25 KCAL/MOL
REMARK 922        TOTAL FREE ENERGY PREDICTED BY IDOCK:   -5.63 KCAL/MOL
REMARK 923 INTER-LIGAND FREE ENERGY PREDICTED BY IDOCK:   -4.48 KCAL/MOL
REMARK 924 INTRA-LIGAND FREE ENERGY PREDICTED BY IDOCK:   -1.15 KCAL/MOL
REMARK 927      BINDING AFFINITY PREDICTED BY RF-SCORE:    0.00 PKD
ROOT
HETATM    1  C   UNL     1      -7.615   9.543  66.013  1.00  0.00    -0.100 C  
HETATM    2  O   UNL     1      -7.192   8.538  66.946  1.00  0.00    -0.074 OA 
ENDROOT
BRANCH   2   3
HETATM    3  C   UNL     1      -7.077   8.984  68.222  1.00  0.00    -0.077 C  
HETATM    4  O   UNL     1      -6.034   9.246  68.793  1.00  0.00    -0.043 OA 
BRANCH   3   5
HETATM    5  C   UNL     1      -8.433   9.147  68.810  1.00  0.00    -0.130 C  
HETATM    6  C   UNL     1      -8.937  10.385  69.054  1.00  0.00    -0.179 C  
HETATM    7  N   UNL     1     -10.190  10.543  69.593  1.00  0.00    -0.207 NA 
HETATM    8  C   UNL     1      -9.217   7.872  69.164  1.00  0.00    -0.144 C  
HETATM    9  C   UNL     1     -10.982   9.471  70.000  1.00  0.00    -0.251 C  
HETATM   10  C   UNL     1     -12.314   9.857  70.601  1.00  0.00    -0.299 C  
HETATM   11  C   UNL     1     -10.561   8.182  69.843  1.00  0.00    -0.239 C  
BRANCH   6  12
HETATM   12  C   UNL     1      -8.043  11.606  68.916  1.00  0.00    -0.004 C  
HETATM   13  N   UNL     1      -7.302  12.620  68.802  1.00  0.00    -0.198 NA 
HETATM   14  H2  UNL     1      -7.925  12.846  69.577  1.00  0.00     0.000 HD 
HETATM   15  H1  UNL     1      -6.701  13.440  68.709  1.00  0.00     0.000 HD 
ENDBRANCH   6  12
BRANCH  11  16
HETATM   16  C   UNL     1     -11.400   7.071  70.391  1.00  0.00    -0.310 C  
HETATM   17  O   UNL     1     -11.777   6.131  69.705  1.00  0.00    -0.340 OA 
BRANCH  16  18
HETATM   18  O   UNL     1     -11.698   7.200  71.718  1.00  0.00    -0.267 OA 
BRANCH  18  19
HETATM   19  C   UNL     1     -10.817   6.443  72.593  1.00  0.00    -0.240 C  
HETATM   20  C   UNL     1     -10.373   7.326  73.757  1.00  0.00    -0.360 C  
HETATM   21  C   UNL     1     -11.523   5.198  73.118  1.00  0.00    -0.348 C  
ENDBRANCH  18  19
ENDBRANCH  16  18
ENDBRANCH  11  16
BRANCH   8  22
HETATM   22  C   UNL     1      -8.359   6.869  69.968  1.00  0.00    -0.139 A  
HETATM   23  C   UNL     1      -7.759   7.280  71.177  1.00  0.00    -0.092 A  
HETATM   24  C   UNL     1      -8.125   5.555  69.526  1.00  0.00    -0.101 A  
HETATM   25  C   UNL     1      -7.298   4.688  70.254  1.00  0.00    -0.050 A  
HETATM   26  C   UNL     1      -6.901   6.417  71.881  1.00  0.00    -0.068 A  
HETATM   27  O   UNL     1      -6.432   8.060  73.453  1.00  0.00    -0.079 OA 
HETATM   28  N   UNL     1      -6.197   6.902  73.080  1.00  0.00    -0.057 N  
HETATM   29  C   UNL     1      -6.673   5.116  71.426  1.00  0.00    -0.043 A  
HETATM   30  O   UNL     1      -5.400   6.129  73.635  1.00  0.00    -0.037 OA 
ENDBRANCH   8  22
ENDBRANCH   3   5
ENDBRANCH   2   3
TORSDOF 7
ENDMDL
MODEL      159
REMARK 921   NORMALIZED FREE ENERGY PREDICTED BY IDOCK:   -3.23 KCAL/MOL
REMARK 922        TOTAL FREE ENERGY PREDICTED BY IDOCK:   -5.60 KCAL/MOL
REMARK 923 INTER-LIGAND FREE ENERGY PREDICTED BY IDOCK:   -6.76 KCAL/MOL
REMARK 924 INTRA-LIGAND FREE ENERGY PREDICTED BY IDOCK:    1.16 KCAL/MOL
REMARK 927      BINDING AFFINITY PREDICTED BY RF-SCORE:    0.00 PKD
ROOT
HETATM    1  C   UNL     1      -8.194   9.998  65.393  1.00  0.00    -0.149 C  
HETATM    2  O   UNL     1      -6.975  10.705  65.665  1.00  0.00    -0.136 OA 
ENDROOT
BRANCH   2   3
HETATM    3  C   UNL     1      -7.066  11.582  66.696  1.00  0.00    -0.069 C  
HETATM    4  O   UNL     1      -6.462  12.635  66.791  1.00  0.00    -0.037 OA 
BRANCH   3   5
HETATM    5  C   UNL     1      -8.059  11.079  67.683  1.00  0.00    -0.116 C  
HETATM    6  C   UNL     1      -7.924   9.844  68.232  1.00  0.00    -0.100 C  
HETATM    7  N   UNL     1      -8.834   9.375  69.148  1.00  0.00    -0.138 NA 
HETATM    8  C   UNL     1      -9.252  11.987  68.023  1.00  0.00    -0.192 C  
HETATM    9  C   UNL     1      -9.982  10.079  69.504  1.00  0.00    -0.228 C  
HETATM   10  C   UNL     1     -10.875   9.375  70.502  1.00  0.00    -0.336 C  
HETATM   11  C   UNL     1     -10.245  11.314  68.985  1.00  0.00    -0.169 C  
BRANCH   6  12
HETATM   12  C   UNL     1      -6.871   8.889  67.695  1.00  0.00    -0.070 C  
HETATM   13  N   UNL     1      -5.998   8.096  67.249  1.00  0.00    -0.049 NA 
HETATM   14  H2  UNL     1      -6.312   7.667  68.120  1.00  0.00     0.000 HD 
HETATM   15  H1  UNL     1      -5.292   7.454  66.888  1.00  0.00     0.000 HD 
ENDBRANCH   6  12
BRANCH  11  16
HETATM   16  C   UNL     1     -11.541  11.983  69.318  1.00  0.00    -0.321 C  
HETATM   17  O   UNL     1     -12.614  11.590  68.882  1.00  0.00    -0.203 OA 
BRANCH  16  18
HETATM   18  O   UNL     1     -11.416  13.059  70.149  1.00  0.00    -0.119 OA 
BRANCH  18  19
HETATM   19  C   UNL     1     -12.678  13.710  70.459  1.00  0.00    -0.190 C  
HETATM   20  C   UNL     1     -12.823  13.848  71.973  1.00  0.00    -0.393 C  
HETATM   21  C   UNL     1     -12.750  15.082  69.799  1.00  0.00    -0.062 C  
ENDBRANCH  18  19
ENDBRANCH  16  18
ENDBRANCH  11  16
BRANCH   8  22
HETATM   22  C   UNL     1      -9.936  12.545  66.754  1.00  0.00    -0.234 A  
HETATM   23  C   UNL     1      -9.843  13.923  66.462  1.00  0.00    -0.296 A  
HETATM   24  C   UNL     1     -10.680  11.733  65.880  1.00  0.00    -0.328 A  
HETATM   25  C   UNL     1     -11.332  12.282  64.766  1.00  0.00    -0.371 A  
HETATM   26  C   UNL     1     -10.530  14.472  65.365  1.00  0.00    -0.380 A  
HETATM   27  O   UNL     1      -9.838  16.616  65.922  1.00  0.00    -0.415 OA 
HETATM   28  N   UNL     1     -10.512  15.927  65.143  1.00  0.00    -0.384 N  
HETATM   29  C   UNL     1     -11.271  13.652  64.510  1.00  0.00    -0.395 A  
HETATM   30  O   UNL     1     -11.183  16.377  64.201  1.00  0.00    -0.882 OA 
ENDBRANCH   8  22
ENDBRANCH   3   5
ENDBRANCH   2   3
TORSDOF 7
ENDMDL
MODEL      160
REMARK 921   NORMALIZED FREE ENERGY PREDICTED BY IDOCK:   -3.20 KCAL/MOL
REMARK 922        TOTAL FREE ENERGY PREDICTED BY IDOCK:   -5.56 KCAL/MOL
REMARK 923 INTER-LIGAND FREE ENERGY PREDICTED BY IDOCK:   -5.96 KCAL/MOL
REMARK 924 INTRA-LIGAND FREE ENERGY PREDICTED BY IDOCK:    0.40 KCAL/MOL
REMARK 927      BINDING AFFINITY PREDICTED BY RF-SCORE:    0.00 PKD
ROOT
HETATM    1  C   UNL     1      -6.884  14.289  70.175  1.00  0.00     0.065 C  
HETATM    2  O   UNL     1      -7.429  14.932  69.014  1.00  0.00    -0.124 OA 
ENDROOT
BRANCH   2   3
HETATM    3  C   UNL     1      -8.725  15.309  69.151  1.00  0.00    -0.238 C  
HETATM    4  O   UNL     1      -9.278  15.589  70.199  1.00  0.00     0.009 OA 
BRANCH   3   5
HETATM    5  C   UNL     1      -9.364  15.373  67.810  1.00  0.00    -0.195 C  
HETATM    6  C   UNL     1      -9.913  16.530  67.359  1.00  0.00    -0.267 C  
HETATM    7  N   UNL     1     -10.500  16.597  66.119  1.00  0.00    -0.311 NA 
HETATM    8  C   UNL     1      -9.412  14.079  66.979  1.00  0.00    -0.253 C  
HETATM    9  C   UNL     1     -10.650  15.487  65.290  1.00  0.00    -0.424 C  
HETATM   10  C   UNL     1     -11.355  15.762  63.981  1.00  0.00     0.202 C  
HETATM   11  C   UNL     1     -10.174  14.261  65.656  1.00  0.00    -0.366 C  
BRANCH   6  12
HETATM   12  C   UNL     1     -10.058  17.715  68.299  1.00  0.00    -0.362 C  
HETATM   13  N   UNL     1     -10.177  18.699  69.079  1.00  0.00    -0.479 NA 
HETATM   14  H2  UNL     1      -9.290  18.858  68.601  1.00  0.00     0.000 HD 
HETATM   15  H1  UNL     1     -10.275  19.495  69.710  1.00  0.00     0.000 HD 
ENDBRANCH   6  12
BRANCH  11  16
HETATM   16  C   UNL     1     -10.453  13.081  64.781  1.00  0.00    -0.363 C  
HETATM   17  O   UNL     1     -10.006  12.983  63.647  1.00  0.00    -0.193 OA 
BRANCH  16  18
HETATM   18  O   UNL     1     -11.241  12.129  65.362  1.00  0.00    -0.314 OA 
BRANCH  18  19
HETATM   19  C   UNL     1     -12.633  12.186  64.944  1.00  0.00     0.006 C  
HETATM   20  C   UNL     1     -13.238  13.522  65.367  1.00  0.00     0.104 C  
HETATM   21  C   UNL     1     -12.746  12.014  63.432  1.00  0.00    -0.527 C  
ENDBRANCH  18  19
ENDBRANCH  16  18
ENDBRANCH  11  16
BRANCH   8  22
HETATM   22  C   UNL     1      -9.929  12.879  67.805  1.00  0.00    -0.230 A  
HETATM   23  C   UNL     1      -9.099  11.752  67.987  1.00  0.00    -0.180 A  
HETATM   24  C   UNL     1     -11.216  12.850  68.368  1.00  0.00    -0.305 A  
HETATM   25  C   UNL     1     -11.671  11.723  69.067  1.00  0.00    -0.390 A  
HETATM   26  C   UNL     1      -9.576  10.611  68.657  1.00  0.00    -0.179 A  
HETATM   27  O   UNL     1      -7.601   9.464  68.244  1.00  0.00    -0.082 OA 
HETATM   28  N   UNL     1      -8.736   9.405  68.738  1.00  0.00    -0.130 N  
HETATM   29  C   UNL     1     -10.861  10.595  69.204  1.00  0.00    -0.279 A  
HETATM   30  O   UNL     1      -9.219   8.398  69.281  1.00  0.00    -0.153 OA 
ENDBRANCH   8  22
ENDBRANCH   3   5
ENDBRANCH   2   3
TORSDOF 7
ENDMDL
MODEL      161
REMARK 921   NORMALIZED FREE ENERGY PREDICTED BY IDOCK:   -3.17 KCAL/MOL
REMARK 922        TOTAL FREE ENERGY PREDICTED BY IDOCK:   -5.52 KCAL/MOL
REMARK 923 INTER-LIGAND FREE ENERGY PREDICTED BY IDOCK:   -4.72 KCAL/MOL
REMARK 924 INTRA-LIGAND FREE ENERGY PREDICTED BY IDOCK:   -0.80 KCAL/MOL
REMARK 927      BINDING AFFINITY PREDICTED BY RF-SCORE:    0.00 PKD
ROOT
HETATM    1  C   UNL     1     -13.352   7.730  71.459  1.00  0.00    -0.320 C  
HETATM    2  O   UNL     1     -12.020   7.440  71.011  1.00  0.00    -0.304 OA 
ENDROOT
BRANCH   2   3
HETATM    3  C   UNL     1     -11.169   8.494  71.094  1.00  0.00    -0.267 C  
HETATM    4  O   UNL     1     -11.457   9.612  71.480  1.00  0.00    -0.377 OA 
BRANCH   3   5
HETATM    5  C   UNL     1      -9.808   8.061  70.680  1.00  0.00    -0.192 C  
HETATM    6  C   UNL     1      -8.918   7.603  71.598  1.00  0.00    -0.127 C  
HETATM    7  N   UNL     1      -7.661   7.197  71.221  1.00  0.00    -0.092 NA 
HETATM    8  C   UNL     1      -9.440   8.189  69.192  1.00  0.00    -0.155 C  
HETATM    9  C   UNL     1      -7.189   7.306  69.915  1.00  0.00    -0.081 C  
HETATM   10  C   UNL     1      -5.765   6.837  69.713  1.00  0.00    -0.019 C  
HETATM   11  C   UNL     1      -7.980   7.792  68.915  1.00  0.00    -0.124 C  
BRANCH   6  12
HETATM   12  C   UNL     1      -9.234   7.717  73.080  1.00  0.00    -0.201 C  
HETATM   13  N   UNL     1      -9.497   7.812  74.310  1.00  0.00    -0.276 NA 
HETATM   14  H2  UNL     1      -9.870   8.670  73.902  1.00  0.00     0.000 HD 
HETATM   15  H1  UNL     1      -9.710   7.889  75.305  1.00  0.00     0.000 HD 
ENDBRANCH   6  12
BRANCH  11  16
HETATM   16  C   UNL     1      -7.394   7.987  67.553  1.00  0.00    -0.089 C  
HETATM   17  O   UNL     1      -6.482   8.772  67.336  1.00  0.00    -0.056 OA 
BRANCH  16  18
HETATM   18  O   UNL     1      -7.964   7.211  66.583  1.00  0.00    -0.107 OA 
BRANCH  18  19
HETATM   19  C   UNL     1      -7.099   6.975  65.439  1.00  0.00    -0.068 C  
HETATM   20  C   UNL     1      -6.482   5.582  65.545  1.00  0.00    -0.040 C  
HETATM   21  C   UNL     1      -7.885   7.102  64.138  1.00  0.00    -0.113 C  
ENDBRANCH  18  19
ENDBRANCH  16  18
ENDBRANCH  11  16
BRANCH   8  22
HETATM   22  C   UNL     1      -9.798   9.581  68.624  1.00  0.00    -0.173 A  
HETATM   23  C   UNL     1      -8.869  10.637  68.737  1.00  0.00    -0.161 A  
HETATM   24  C   UNL     1     -11.036   9.851  68.017  1.00  0.00    -0.269 A  
HETATM   25  C   UNL     1     -11.348  11.139  67.559  1.00  0.00    -0.351 A  
HETATM   26  C   UNL     1      -9.204  11.935  68.310  1.00  0.00    -0.187 A  
HETATM   27  O   UNL     1      -7.176  12.776  69.065  1.00  0.00    -0.076 OA 
HETATM   28  N   UNL     1      -8.265  13.046  68.539  1.00  0.00    -0.112 N  
HETATM   29  C   UNL     1     -10.441  12.188  67.714  1.00  0.00    -0.222 A  
HETATM   30  O   UNL     1      -8.625  14.186  68.206  1.00  0.00    -0.162 OA 
ENDBRANCH   8  22
ENDBRANCH   3   5
ENDBRANCH   2   3
TORSDOF 7
ENDMDL
MODEL      162
REMARK 921   NORMALIZED FREE ENERGY PREDICTED BY IDOCK:   -3.14 KCAL/MOL
REMARK 922        TOTAL FREE ENERGY PREDICTED BY IDOCK:   -5.48 KCAL/MOL
REMARK 923 INTER-LIGAND FREE ENERGY PREDICTED BY IDOCK:   -4.93 KCAL/MOL
REMARK 924 INTRA-LIGAND FREE ENERGY PREDICTED BY IDOCK:   -0.55 KCAL/MOL
REMARK 927      BINDING AFFINITY PREDICTED BY RF-SCORE:    0.00 PKD
ROOT
HETATM    1  C   UNL     1      -5.330  11.024  70.414  1.00  0.00    -0.092 C  
HETATM    2  O   UNL     1      -5.455  10.190  69.252  1.00  0.00    -0.038 OA 
ENDROOT
BRANCH   2   3
HETATM    3  C   UNL     1      -6.204   9.076  69.452  1.00  0.00    -0.040 C  
HETATM    4  O   UNL     1      -5.790   7.931  69.454  1.00  0.00    -0.029 OA 
BRANCH   3   5
HETATM    5  C   UNL     1      -7.613   9.472  69.714  1.00  0.00    -0.110 C  
HETATM    6  C   UNL     1      -8.242   9.079  70.852  1.00  0.00    -0.185 C  
HETATM    7  N   UNL     1      -9.542   9.444  71.103  1.00  0.00    -0.221 NA 
HETATM    8  C   UNL     1      -8.335  10.301  68.639  1.00  0.00    -0.122 C  
HETATM    9  C   UNL     1     -10.320  10.153  70.190  1.00  0.00    -0.224 C  
HETATM   10  C   UNL     1     -11.737  10.427  70.640  1.00  0.00    -0.444 C  
HETATM   11  C   UNL     1      -9.807  10.565  68.994  1.00  0.00    -0.224 C  
BRANCH   6  12
HETATM   12  C   UNL     1      -7.579   8.067  71.772  1.00  0.00    -0.086 C  
HETATM   13  N   UNL     1      -7.029   7.227  72.535  1.00  0.00    -0.067 NA 
HETATM   14  H2  UNL     1      -7.686   6.677  71.981  1.00  0.00     0.000 HD 
HETATM   15  H1  UNL     1      -6.583   6.547  73.152  1.00  0.00     0.000 HD 
ENDBRANCH   6  12
BRANCH  11  16
HETATM   16  C   UNL     1     -10.712  11.230  68.005  1.00  0.00    -0.203 C  
HETATM   17  O   UNL     1     -11.759  10.725  67.628  1.00  0.00    -0.538 OA 
BRANCH  16  18
HETATM   18  O   UNL     1     -10.265  12.446  67.570  1.00  0.00    -0.206 OA 
BRANCH  18  19
HETATM   19  C   UNL     1     -11.255  13.505  67.674  1.00  0.00    -0.279 C  
HETATM   20  C   UNL     1     -11.263  14.059  69.096  1.00  0.00    -0.308 C  
HETATM   21  C   UNL     1     -10.952  14.621  66.679  1.00  0.00    -0.323 C  
ENDBRANCH  18  19
ENDBRANCH  16  18
ENDBRANCH  11  16
BRANCH   8  22
HETATM   22  C   UNL     1      -8.161   9.695  67.227  1.00  0.00    -0.114 A  
HETATM   23  C   UNL     1      -7.115  10.154  66.398  1.00  0.00    -0.107 A  
HETATM   24  C   UNL     1      -9.028   8.715  66.715  1.00  0.00    -0.167 A  
HETATM   25  C   UNL     1      -8.872   8.226  65.411  1.00  0.00    -0.116 A  
HETATM   26  C   UNL     1      -6.989   9.687  65.078  1.00  0.00    -0.111 A  
HETATM   27  O   UNL     1      -5.203  11.114  64.675  1.00  0.00    -0.209 OA 
HETATM   28  N   UNL     1      -5.961  10.260  64.194  1.00  0.00    -0.139 N  
HETATM   29  C   UNL     1      -7.863   8.716  64.582  1.00  0.00    -0.129 A  
HETATM   30  O   UNL     1      -5.924   9.866  63.017  1.00  0.00    -0.103 OA 
ENDBRANCH   8  22
ENDBRANCH   3   5
ENDBRANCH   2   3
TORSDOF 7
ENDMDL
MODEL      163
REMARK 921   NORMALIZED FREE ENERGY PREDICTED BY IDOCK:   -3.09 KCAL/MOL
REMARK 922        TOTAL FREE ENERGY PREDICTED BY IDOCK:   -5.40 KCAL/MOL
REMARK 923 INTER-LIGAND FREE ENERGY PREDICTED BY IDOCK:   -3.93 KCAL/MOL
REMARK 924 INTRA-LIGAND FREE ENERGY PREDICTED BY IDOCK:   -1.47 KCAL/MOL
REMARK 927      BINDING AFFINITY PREDICTED BY RF-SCORE:    0.00 PKD
ROOT
HETATM    1  C   UNL     1     -11.280   7.656  72.894  1.00  0.00    -0.372 C  
HETATM    2  O   UNL     1     -10.763   8.446  71.813  1.00  0.00    -0.244 OA 
ENDROOT
BRANCH   2   3
HETATM    3  C   UNL     1      -9.422   8.331  71.639  1.00  0.00    -0.195 C  
HETATM    4  O   UNL     1      -8.567   8.839  72.341  1.00  0.00    -0.395 OA 
BRANCH   3   5
HETATM    5  C   UNL     1      -9.152   7.447  70.474  1.00  0.00    -0.157 C  
HETATM    6  C   UNL     1      -8.706   6.177  70.658  1.00  0.00    -0.139 C  
HETATM    7  N   UNL     1      -8.459   5.354  69.587  1.00  0.00    -0.099 NA 
HETATM    8  C   UNL     1      -9.357   8.035  69.068  1.00  0.00    -0.147 C  
HETATM    9  C   UNL     1      -8.560   5.779  68.264  1.00  0.00    -0.112 C  
HETATM   10  C   UNL     1      -8.211   4.731  67.231  1.00  0.00    -0.106 C  
HETATM   11  C   UNL     1      -8.959   7.048  67.958  1.00  0.00    -0.126 C  
BRANCH   6  12
HETATM   12  C   UNL     1      -8.289   5.716  72.044  1.00  0.00    -0.122 C  
HETATM   13  N   UNL     1      -7.942   5.333  73.195  1.00  0.00    -0.101 NA 
HETATM   14  H2  UNL     1      -7.064   5.540  72.719  1.00  0.00     0.000 HD 
HETATM   15  H1  UNL     1      -7.662   5.023  74.126  1.00  0.00     0.000 HD 
ENDBRANCH   6  12
BRANCH  11  16
HETATM   16  C   UNL     1      -8.951   7.488  66.528  1.00  0.00    -0.162 C  
HETATM   17  O   UNL     1      -9.973   7.585  65.864  1.00  0.00     0.249 OA 
BRANCH  16  18
HETATM   18  O   UNL     1      -7.707   7.774  66.040  1.00  0.00    -0.087 OA 
BRANCH  18  19
HETATM   19  C   UNL     1      -7.717   8.295  64.682  1.00  0.00    -0.117 C  
HETATM   20  C   UNL     1      -7.145   9.710  64.675  1.00  0.00    -0.120 C  
HETATM   21  C   UNL     1      -6.902   7.396  63.758  1.00  0.00    -0.053 C  
ENDBRANCH  18  19
ENDBRANCH  16  18
ENDBRANCH  11  16
BRANCH   8  22
HETATM   22  C   UNL     1      -8.678   9.414  68.912  1.00  0.00    -0.132 A  
HETATM   23  C   UNL     1      -9.476  10.567  68.746  1.00  0.00    -0.181 A  
HETATM   24  C   UNL     1      -7.281   9.570  68.899  1.00  0.00    -0.072 A  
HETATM   25  C   UNL     1      -6.699  10.830  68.702  1.00  0.00    -0.058 A  
HETATM   26  C   UNL     1      -8.884  11.821  68.512  1.00  0.00    -0.122 A  
HETATM   27  O   UNL     1     -10.961  12.826  68.261  1.00  0.00    -0.230 OA 
HETATM   28  N   UNL     1      -9.733  12.990  68.231  1.00  0.00    -0.226 N  
HETATM   29  C   UNL     1      -7.494  11.957  68.496  1.00  0.00    -0.117 A  
HETATM   30  O   UNL     1      -9.170  14.064  67.965  1.00  0.00    -0.187 OA 
ENDBRANCH   8  22
ENDBRANCH   3   5
ENDBRANCH   2   3
TORSDOF 7
ENDMDL
MODEL      164
REMARK 921   NORMALIZED FREE ENERGY PREDICTED BY IDOCK:   -3.08 KCAL/MOL
REMARK 922        TOTAL FREE ENERGY PREDICTED BY IDOCK:   -5.40 KCAL/MOL
REMARK 923 INTER-LIGAND FREE ENERGY PREDICTED BY IDOCK:   -4.41 KCAL/MOL
REMARK 924 INTRA-LIGAND FREE ENERGY PREDICTED BY IDOCK:   -0.99 KCAL/MOL
REMARK 927      BINDING AFFINITY PREDICTED BY RF-SCORE:    0.00 PKD
ROOT
HETATM    1  C   UNL     1      -8.826   3.940  68.102  1.00  0.00    -0.110 C  
HETATM    2  O   UNL     1      -8.429   4.509  66.846  1.00  0.00    -0.106 OA 
ENDROOT
BRANCH   2   3
HETATM    3  C   UNL     1      -9.434   5.138  66.184  1.00  0.00    -0.159 C  
HETATM    4  O   UNL     1     -10.620   4.882  66.282  1.00  0.00    -0.306 OA 
BRANCH   3   5
HETATM    5  C   UNL     1      -8.864   6.227  65.346  1.00  0.00     0.002 C  
HETATM    6  C   UNL     1      -8.282   5.947  64.151  1.00  0.00    -0.075 C  
HETATM    7  N   UNL     1      -7.758   6.948  63.370  1.00  0.00    -0.103 NA 
HETATM    8  C   UNL     1      -8.925   7.661  65.899  1.00  0.00    -0.144 C  
HETATM    9  C   UNL     1      -7.708   8.280  63.776  1.00  0.00    -0.145 C  
HETATM   10  C   UNL     1      -7.060   9.222  62.787  1.00  0.00    -0.097 C  
HETATM   11  C   UNL     1      -8.226   8.673  64.977  1.00  0.00    -0.159 C  
BRANCH   6  12
HETATM   12  C   UNL     1      -8.027   4.503  63.754  1.00  0.00    -0.093 C  
HETATM   13  N   UNL     1      -7.817   3.304  63.423  1.00  0.00    -0.068 NA 
HETATM   14  H2  UNL     1      -8.703   3.540  62.976  1.00  0.00     0.000 HD 
HETATM   15  H1  UNL     1      -7.646   2.334  63.156  1.00  0.00     0.000 HD 
ENDBRANCH   6  12
BRANCH  11  16
HETATM   16  C   UNL     1      -8.054  10.094  65.413  1.00  0.00    -0.149 C  
HETATM   17  O   UNL     1      -7.312  10.415  66.330  1.00  0.00    -0.107 OA 
BRANCH  16  18
HETATM   18  O   UNL     1      -8.793  10.991  64.696  1.00  0.00    -0.133 OA 
BRANCH  18  19
HETATM   19  C   UNL     1     -10.223  10.903  64.943  1.00  0.00    -0.316 C  
HETATM   20  C   UNL     1     -10.581  11.736  66.171  1.00  0.00    -0.301 C  
HETATM   21  C   UNL     1     -11.008  11.393  63.731  1.00  0.00    -0.448 C  
ENDBRANCH  18  19
ENDBRANCH  16  18
ENDBRANCH  11  16
BRANCH   8  22
HETATM   22  C   UNL     1      -8.428   7.741  67.360  1.00  0.00    -0.119 A  
HETATM   23  C   UNL     1      -9.311   8.173  68.372  1.00  0.00    -0.135 A  
HETATM   24  C   UNL     1      -7.108   7.424  67.725  1.00  0.00    -0.085 A  
HETATM   25  C   UNL     1      -6.676   7.558  69.052  1.00  0.00    -0.049 A  
HETATM   26  C   UNL     1      -8.859   8.342  69.693  1.00  0.00    -0.139 A  
HETATM   27  O   UNL     1     -10.926   9.159  70.363  1.00  0.00    -0.231 OA 
HETATM   28  N   UNL     1      -9.765   8.900  70.711  1.00  0.00    -0.207 N  
HETATM   29  C   UNL     1      -7.543   8.028  70.038  1.00  0.00    -0.082 A  
HETATM   30  O   UNL     1      -9.309   9.093  71.849  1.00  0.00    -0.349 OA 
ENDBRANCH   8  22
ENDBRANCH   3   5
ENDBRANCH   2   3
TORSDOF 7
ENDMDL
MODEL      165
REMARK 921   NORMALIZED FREE ENERGY PREDICTED BY IDOCK:   -3.08 KCAL/MOL
REMARK 922        TOTAL FREE ENERGY PREDICTED BY IDOCK:   -5.39 KCAL/MOL
REMARK 923 INTER-LIGAND FREE ENERGY PREDICTED BY IDOCK:   -4.55 KCAL/MOL
REMARK 924 INTRA-LIGAND FREE ENERGY PREDICTED BY IDOCK:   -0.83 KCAL/MOL
REMARK 927      BINDING AFFINITY PREDICTED BY RF-SCORE:    0.00 PKD
ROOT
HETATM    1  C   UNL     1      -5.193   9.452  62.859  1.00  0.00    -0.071 C  
HETATM    2  O   UNL     1      -5.625   9.757  64.193  1.00  0.00    -0.071 OA 
ENDROOT
BRANCH   2   3
HETATM    3  C   UNL     1      -6.973   9.776  64.345  1.00  0.00    -0.126 C  
HETATM    4  O   UNL     1      -7.751  10.464  63.711  1.00  0.00    -0.131 OA 
BRANCH   3   5
HETATM    5  C   UNL     1      -7.365   8.787  65.384  1.00  0.00    -0.085 C  
HETATM    6  C   UNL     1      -7.897   7.588  65.032  1.00  0.00    -0.127 C  
HETATM    7  N   UNL     1      -8.257   6.668  65.987  1.00  0.00    -0.122 NA 
HETATM    8  C   UNL     1      -7.182   9.187  66.858  1.00  0.00    -0.086 C  
HETATM    9  C   UNL     1      -8.185   6.926  67.354  1.00  0.00    -0.119 C  
HETATM   10  C   UNL     1      -8.661   5.796  68.239  1.00  0.00    -0.111 C  
HETATM   11  C   UNL     1      -7.706   8.113  67.825  1.00  0.00    -0.110 C  
BRANCH   6  12
HETATM   12  C   UNL     1      -8.283   7.327  63.586  1.00  0.00     0.087 C  
HETATM   13  N   UNL     1      -8.603   7.111  62.385  1.00  0.00    -0.371 NA 
HETATM   14  H2  UNL     1      -8.231   8.061  62.384  1.00  0.00     0.000 HD 
HETATM   15  H1  UNL     1      -8.861   6.936  61.414  1.00  0.00     0.000 HD 
ENDBRANCH   6  12
BRANCH  11  16
HETATM   16  C   UNL     1      -7.747   8.383  69.296  1.00  0.00    -0.098 C  
HETATM   17  O   UNL     1      -6.745   8.367  69.996  1.00  0.00    -0.041 OA 
BRANCH  16  18
HETATM   18  O   UNL     1      -8.997   8.650  69.779  1.00  0.00    -0.140 OA 
BRANCH  18  19
HETATM   19  C   UNL     1      -9.093   8.575  71.228  1.00  0.00    -0.196 C  
HETATM   20  C   UNL     1     -10.479   9.037  71.671  1.00  0.00    -0.426 C  
HETATM   21  C   UNL     1      -8.836   7.151  71.709  1.00  0.00    -0.129 C  
ENDBRANCH  18  19
ENDBRANCH  16  18
ENDBRANCH  11  16
BRANCH   8  22
HETATM   22  C   UNL     1      -7.760  10.590  67.153  1.00  0.00    -0.101 A  
HETATM   23  C   UNL     1      -9.155  10.752  67.289  1.00  0.00    -0.151 A  
HETATM   24  C   UNL     1      -6.947  11.731  67.265  1.00  0.00    -0.138 A  
HETATM   25  C   UNL     1      -7.510  12.997  67.481  1.00  0.00    -0.158 A  
HETATM   26  C   UNL     1      -9.714  12.030  67.468  1.00  0.00    -0.187 A  
HETATM   27  O   UNL     1     -11.868  11.167  67.406  1.00  0.00    -0.570 OA 
HETATM   28  N   UNL     1     -11.177  12.191  67.495  1.00  0.00    -0.277 N  
HETATM   29  C   UNL     1      -8.894  13.155  67.571  1.00  0.00    -0.199 A  
HETATM   30  O   UNL     1     -11.631  13.343  67.590  1.00  0.00    -0.300 OA 
ENDBRANCH   8  22
ENDBRANCH   3   5
ENDBRANCH   2   3
TORSDOF 7
ENDMDL
MODEL      166
REMARK 921   NORMALIZED FREE ENERGY PREDICTED BY IDOCK:   -3.07 KCAL/MOL
REMARK 922        TOTAL FREE ENERGY PREDICTED BY IDOCK:   -5.37 KCAL/MOL
REMARK 923 INTER-LIGAND FREE ENERGY PREDICTED BY IDOCK:   -4.87 KCAL/MOL
REMARK 924 INTRA-LIGAND FREE ENERGY PREDICTED BY IDOCK:   -0.51 KCAL/MOL
REMARK 927      BINDING AFFINITY PREDICTED BY RF-SCORE:    0.00 PKD
ROOT
HETATM    1  C   UNL     1     -12.432  11.437  71.367  1.00  0.00    -0.265 C  
HETATM    2  O   UNL     1     -11.357  10.591  70.932  1.00  0.00    -0.306 OA 
ENDROOT
BRANCH   2   3
HETATM    3  C   UNL     1     -11.578   9.991  69.735  1.00  0.00    -0.134 C  
HETATM    4  O   UNL     1     -12.151  10.490  68.784  1.00  0.00    -0.306 OA 
BRANCH   3   5
HETATM    5  C   UNL     1     -10.970   8.634  69.746  1.00  0.00    -0.132 C  
HETATM    6  C   UNL     1     -11.530   7.631  70.471  1.00  0.00    -0.218 C  
HETATM    7  N   UNL     1     -10.977   6.374  70.482  1.00  0.00    -0.282 NA 
HETATM    8  C   UNL     1      -9.674   8.424  68.945  1.00  0.00    -0.168 C  
HETATM    9  C   UNL     1      -9.781   6.066  69.837  1.00  0.00    -0.163 C  
HETATM   10  C   UNL     1      -9.322   4.634  69.999  1.00  0.00    -0.215 C  
HETATM   11  C   UNL     1      -9.106   7.005  69.113  1.00  0.00    -0.136 C  
BRANCH   6  12
HETATM   12  C   UNL     1     -12.665   7.936  71.434  1.00  0.00    -0.292 C  
HETATM   13  N   UNL     1     -13.607   8.189  72.233  1.00  0.00    -0.540 NA 
HETATM   14  H2  UNL     1     -12.931   7.668  72.792  1.00  0.00     0.000 HD 
HETATM   15  H1  UNL     1     -14.369   8.395  72.880  1.00  0.00     0.000 HD 
ENDBRANCH   6  12
BRANCH  11  16
HETATM   16  C   UNL     1      -7.774   6.655  68.527  1.00  0.00    -0.105 C  
HETATM   17  O   UNL     1      -6.792   6.428  69.219  1.00  0.00    -0.060 OA 
BRANCH  16  18
HETATM   18  O   UNL     1      -7.760   6.609  67.162  1.00  0.00    -0.097 OA 
BRANCH  18  19
HETATM   19  C   UNL     1      -8.182   5.330  66.615  1.00  0.00    -0.108 C  
HETATM   20  C   UNL     1      -8.848   5.550  65.259  1.00  0.00    -0.112 C  
HETATM   21  C   UNL     1      -6.990   4.390  66.468  1.00  0.00    -0.059 C  
ENDBRANCH  18  19
ENDBRANCH  16  18
ENDBRANCH  11  16
BRANCH   8  22
HETATM   22  C   UNL     1      -8.629   9.524  69.237  1.00  0.00    -0.149 A  
HETATM   23  C   UNL     1      -8.643  10.715  68.480  1.00  0.00    -0.137 A  
HETATM   24  C   UNL     1      -7.633   9.377  70.218  1.00  0.00    -0.143 A  
HETATM   25  C   UNL     1      -6.668  10.374  70.420  1.00  0.00    -0.105 A  
HETATM   26  C   UNL     1      -7.648  11.693  68.662  1.00  0.00    -0.133 A  
HETATM   27  O   UNL     1      -8.512  12.985  66.938  1.00  0.00    -0.173 OA 
HETATM   28  N   UNL     1      -7.615  12.875  67.786  1.00  0.00    -0.126 N  
HETATM   29  C   UNL     1      -6.662  11.528  69.637  1.00  0.00    -0.083 A  
HETATM   30  O   UNL     1      -6.684  13.683  67.938  1.00  0.00    -0.118 OA 
ENDBRANCH   8  22
ENDBRANCH   3   5
ENDBRANCH   2   3
TORSDOF 7
ENDMDL
MODEL      167
REMARK 921   NORMALIZED FREE ENERGY PREDICTED BY IDOCK:   -3.04 KCAL/MOL
REMARK 922        TOTAL FREE ENERGY PREDICTED BY IDOCK:   -5.34 KCAL/MOL
REMARK 923 INTER-LIGAND FREE ENERGY PREDICTED BY IDOCK:   -4.03 KCAL/MOL
REMARK 924 INTRA-LIGAND FREE ENERGY PREDICTED BY IDOCK:   -1.30 KCAL/MOL
REMARK 927      BINDING AFFINITY PREDICTED BY RF-SCORE:    0.00 PKD
ROOT
HETATM    1  C   UNL     1      -5.971   8.897  65.647  1.00  0.00    -0.051 C  
HETATM    2  O   UNL     1      -6.469   7.551  65.666  1.00  0.00    -0.044 OA 
ENDROOT
BRANCH   2   3
HETATM    3  C   UNL     1      -7.819   7.463  65.551  1.00  0.00    -0.115 C  
HETATM    4  O   UNL     1      -8.480   7.861  64.609  1.00  0.00    -0.085 OA 
BRANCH   3   5
HETATM    5  C   UNL     1      -8.369   6.760  66.740  1.00  0.00    -0.115 C  
HETATM    6  C   UNL     1      -8.781   5.469  66.652  1.00  0.00    -0.116 C  
HETATM    7  N   UNL     1      -9.286   4.813  67.747  1.00  0.00    -0.129 NA 
HETATM    8  C   UNL     1      -8.489   7.558  68.049  1.00  0.00    -0.123 C  
HETATM    9  C   UNL     1      -9.490   5.435  68.977  1.00  0.00    -0.133 C  
HETATM   10  C   UNL     1     -10.089   4.549  70.046  1.00  0.00    -0.204 C  
HETATM   11  C   UNL     1      -9.153   6.743  69.172  1.00  0.00    -0.138 C  
BRANCH   6  12
HETATM   12  C   UNL     1      -8.870   4.795  65.293  1.00  0.00    -0.149 C  
HETATM   13  N   UNL     1      -8.943   4.235  64.165  1.00  0.00    -0.144 NA 
HETATM   14  H2  UNL     1      -7.942   4.349  64.330  1.00  0.00     0.000 HD 
HETATM   15  H1  UNL     1      -9.002   3.782  63.253  1.00  0.00     0.000 HD 
ENDBRANCH   6  12
BRANCH  11  16
HETATM   16  C   UNL     1      -9.488   7.395  70.476  1.00  0.00    -0.161 C  
HETATM   17  O   UNL     1     -10.493   8.074  70.633  1.00  0.00    -0.205 OA 
BRANCH  16  18
HETATM   18  O   UNL     1      -8.579   7.160  71.468  1.00  0.00    -0.116 OA 
BRANCH  18  19
HETATM   19  C   UNL     1      -7.998   8.369  72.029  1.00  0.00    -0.135 C  
HETATM   20  C   UNL     1      -8.279   8.421  73.528  1.00  0.00    -0.176 C  
HETATM   21  C   UNL     1      -6.494   8.408  71.776  1.00  0.00    -0.064 C  
ENDBRANCH  18  19
ENDBRANCH  16  18
ENDBRANCH  11  16
BRANCH   8  22
HETATM   22  C   UNL     1      -9.162   8.932  67.831  1.00  0.00    -0.148 A  
HETATM   23  C   UNL     1      -8.419  10.112  68.047  1.00  0.00    -0.118 A  
HETATM   24  C   UNL     1     -10.509   9.059  67.448  1.00  0.00    -0.338 A  
HETATM   25  C   UNL     1     -11.102  10.323  67.311  1.00  0.00    -0.215 A  
HETATM   26  C   UNL     1      -9.032  11.374  67.944  1.00  0.00    -0.153 A  
HETATM   27  O   UNL     1      -7.082  12.446  68.606  1.00  0.00    -0.094 OA 
HETATM   28  N   UNL     1      -8.270  12.587  68.283  1.00  0.00    -0.168 N  
HETATM   29  C   UNL     1     -10.372  11.483  67.569  1.00  0.00    -0.220 A  
HETATM   30  O   UNL     1      -8.865  13.676  68.241  1.00  0.00    -0.176 OA 
ENDBRANCH   8  22
ENDBRANCH   3   5
ENDBRANCH   2   3
TORSDOF 7
ENDMDL
MODEL      168
REMARK 921   NORMALIZED FREE ENERGY PREDICTED BY IDOCK:   -3.03 KCAL/MOL
REMARK 922        TOTAL FREE ENERGY PREDICTED BY IDOCK:   -5.32 KCAL/MOL
REMARK 923 INTER-LIGAND FREE ENERGY PREDICTED BY IDOCK:   -4.55 KCAL/MOL
REMARK 924 INTRA-LIGAND FREE ENERGY PREDICTED BY IDOCK:   -0.77 KCAL/MOL
REMARK 927      BINDING AFFINITY PREDICTED BY RF-SCORE:    0.00 PKD
ROOT
HETATM    1  C   UNL     1     -12.256  11.217  71.408  1.00  0.00    -0.132 C  
HETATM    2  O   UNL     1     -11.233  10.299  70.997  1.00  0.00    -0.315 OA 
ENDROOT
BRANCH   2   3
HETATM    3  C   UNL     1     -11.526   9.620  69.860  1.00  0.00    -0.100 C  
HETATM    4  O   UNL     1     -12.024  10.095  68.855  1.00  0.00     0.009 OA 
BRANCH   3   5
HETATM    5  C   UNL     1     -11.104   8.202  70.011  1.00  0.00    -0.146 C  
HETATM    6  C   UNL     1     -11.770   7.367  70.850  1.00  0.00    -0.296 C  
HETATM    7  N   UNL     1     -11.389   6.055  70.990  1.00  0.00    -0.273 NA 
HETATM    8  C   UNL     1      -9.872   7.735  69.218  1.00  0.00    -0.173 C  
HETATM    9  C   UNL     1     -10.264   5.521  70.366  1.00  0.00    -0.251 C  
HETATM   10  C   UNL     1      -9.994   4.066  70.677  1.00  0.00    -0.141 C  
HETATM   11  C   UNL     1      -9.492   6.278  69.532  1.00  0.00    -0.151 C  
BRANCH   6  12
HETATM   12  C   UNL     1     -12.825   7.925  71.790  1.00  0.00    -0.328 C  
HETATM   13  N   UNL     1     -13.701   8.387  72.572  1.00  0.00    -0.618 NA 
HETATM   14  H2  UNL     1     -13.084   7.842  73.174  1.00  0.00     0.000 HD 
HETATM   15  H1  UNL     1     -14.409   8.762  73.203  1.00  0.00     0.000 HD 
ENDBRANCH   6  12
BRANCH  11  16
HETATM   16  C   UNL     1      -8.237   5.690  68.968  1.00  0.00    -0.100 C  
HETATM   17  O   UNL     1      -7.324   5.289  69.676  1.00  0.00    -0.062 OA 
BRANCH  16  18
HETATM   18  O   UNL     1      -8.209   5.639  67.604  1.00  0.00    -0.102 OA 
BRANCH  18  19
HETATM   19  C   UNL     1      -8.796   4.430  67.050  1.00  0.00    -0.114 C  
HETATM   20  C   UNL     1      -9.358   4.725  65.662  1.00  0.00    -0.166 C  
HETATM   21  C   UNL     1      -7.755   3.318  66.969  1.00  0.00    -0.079 C  
ENDBRANCH  18  19
ENDBRANCH  16  18
ENDBRANCH  11  16
BRANCH   8  22
HETATM   22  C   UNL     1      -8.681   8.708  69.371  1.00  0.00    -0.139 A  
HETATM   23  C   UNL     1      -7.930   8.706  70.566  1.00  0.00    -0.107 A  
HETATM   24  C   UNL     1      -8.325   9.627  68.369  1.00  0.00    -0.117 A  
HETATM   25  C   UNL     1      -7.272  10.532  68.562  1.00  0.00    -0.085 A  
HETATM   26  C   UNL     1      -6.900   9.642  70.767  1.00  0.00    -0.086 A  
HETATM   27  O   UNL     1      -6.530   8.866  72.924  1.00  0.00    -0.280 OA 
HETATM   28  N   UNL     1      -6.204   9.696  72.063  1.00  0.00     0.227 N  
HETATM   29  C   UNL     1      -6.563  10.552  69.764  1.00  0.00    -0.112 A  
HETATM   30  O   UNL     1      -5.346  10.579  72.223  1.00  0.00    -0.314 OA 
ENDBRANCH   8  22
ENDBRANCH   3   5
ENDBRANCH   2   3
TORSDOF 7
ENDMDL
MODEL      169
REMARK 921   NORMALIZED FREE ENERGY PREDICTED BY IDOCK:   -2.92 KCAL/MOL
REMARK 922        TOTAL FREE ENERGY PREDICTED BY IDOCK:   -5.17 KCAL/MOL
REMARK 923 INTER-LIGAND FREE ENERGY PREDICTED BY IDOCK:   -4.39 KCAL/MOL
REMARK 924 INTRA-LIGAND FREE ENERGY PREDICTED BY IDOCK:   -0.78 KCAL/MOL
REMARK 927      BINDING AFFINITY PREDICTED BY RF-SCORE:    0.00 PKD
ROOT
HETATM    1  C   UNL     1      -7.585   6.181  65.257  1.00  0.00    -0.089 C  
HETATM    2  O   UNL     1      -8.164   5.646  66.456  1.00  0.00    -0.105 OA 
ENDROOT
BRANCH   2   3
HETATM    3  C   UNL     1      -7.255   5.328  67.412  1.00  0.00    -0.075 C  
HETATM    4  O   UNL     1      -6.045   5.390  67.292  1.00  0.00    -0.028 OA 
BRANCH   3   5
HETATM    5  C   UNL     1      -7.967   4.929  68.655  1.00  0.00    -0.084 C  
HETATM    6  C   UNL     1      -8.744   3.815  68.681  1.00  0.00    -0.101 C  
HETATM    7  N   UNL     1      -9.400   3.439  69.827  1.00  0.00    -0.159 NA 
HETATM    8  C   UNL     1      -7.822   5.841  69.885  1.00  0.00    -0.088 C  
HETATM    9  C   UNL     1      -9.389   4.201  70.993  1.00  0.00    -0.149 C  
HETATM   10  C   UNL     1     -10.204   3.632  72.132  1.00  0.00    -0.171 C  
HETATM   11  C   UNL     1      -8.677   5.363  71.071  1.00  0.00    -0.141 C  
BRANCH   6  12
HETATM   12  C   UNL     1      -9.052   3.079  67.388  1.00  0.00    -0.178 C  
HETATM   13  N   UNL     1      -9.307   2.467  66.315  1.00  0.00    -0.361 NA 
HETATM   14  H2  UNL     1      -8.302   2.347  66.445  1.00  0.00     0.000 HD 
HETATM   15  H1  UNL     1      -9.514   1.972  65.447  1.00  0.00     0.000 HD 
ENDBRANCH   6  12
BRANCH  11  16
HETATM   16  C   UNL     1      -8.781   6.199  72.307  1.00  0.00    -0.137 C  
HETATM   17  O   UNL     1      -7.806   6.503  72.980  1.00  0.00    -0.103 OA 
BRANCH  16  18
HETATM   18  O   UNL     1     -10.054   6.591  72.610  1.00  0.00    -0.171 OA 
BRANCH  18  19
HETATM   19  C   UNL     1     -10.663   7.436  71.595  1.00  0.00    -0.214 C  
HETATM   20  C   UNL     1     -12.102   6.987  71.354  1.00  0.00    -0.396 C  
HETATM   21  C   UNL     1     -10.636   8.898  72.029  1.00  0.00    -0.388 C  
ENDBRANCH  18  19
ENDBRANCH  16  18
ENDBRANCH  11  16
BRANCH   8  22
HETATM   22  C   UNL     1      -8.063   7.327  69.537  1.00  0.00    -0.129 A  
HETATM   23  C   UNL     1      -9.112   7.674  68.659  1.00  0.00    -0.135 A  
HETATM   24  C   UNL     1      -7.254   8.360  70.041  1.00  0.00    -0.054 A  
HETATM   25  C   UNL     1      -7.469   9.693  69.662  1.00  0.00    -0.102 A  
HETATM   26  C   UNL     1      -9.297   9.008  68.254  1.00  0.00    -0.139 A  
HETATM   27  O   UNL     1     -11.030   8.405  66.833  1.00  0.00    -0.086 OA 
HETATM   28  N   UNL     1     -10.324   9.333  67.251  1.00  0.00    -0.250 N  
HETATM   29  C   UNL     1      -8.480  10.022  68.760  1.00  0.00    -0.126 A  
HETATM   30  O   UNL     1     -10.412  10.513  66.873  1.00  0.00    -0.231 OA 
ENDBRANCH   8  22
ENDBRANCH   3   5
ENDBRANCH   2   3
TORSDOF 7
ENDMDL
MODEL      170
REMARK 921   NORMALIZED FREE ENERGY PREDICTED BY IDOCK:   -2.90 KCAL/MOL
REMARK 922        TOTAL FREE ENERGY PREDICTED BY IDOCK:   -5.14 KCAL/MOL
REMARK 923 INTER-LIGAND FREE ENERGY PREDICTED BY IDOCK:   -6.83 KCAL/MOL
REMARK 924 INTRA-LIGAND FREE ENERGY PREDICTED BY IDOCK:    1.70 KCAL/MOL
REMARK 927      BINDING AFFINITY PREDICTED BY RF-SCORE:    0.00 PKD
ROOT
HETATM    1  C   UNL     1      -8.843  11.980  68.981  1.00  0.00     0.360 C  
HETATM    2  O   UNL     1      -9.676  12.657  68.029  1.00  0.00    -0.203 OA 
ENDROOT
BRANCH   2   3
HETATM    3  C   UNL     1     -10.732  13.305  68.585  1.00  0.00    -0.259 C  
HETATM    4  O   UNL     1     -11.724  12.777  69.053  1.00  0.00    -0.288 OA 
BRANCH   3   5
HETATM    5  C   UNL     1     -10.471  14.769  68.574  1.00  0.00    -0.249 C  
HETATM    6  C   UNL     1     -10.718  15.523  69.677  1.00  0.00    -0.271 C  
HETATM    7  N   UNL     1     -10.476  16.875  69.675  1.00  0.00    -0.227 NA 
HETATM    8  C   UNL     1      -9.955  15.394  67.268  1.00  0.00    -0.226 C  
HETATM    9  C   UNL     1     -10.053  17.569  68.543  1.00  0.00    -0.363 C  
HETATM   10  C   UNL     1      -9.877  19.058  68.739  1.00  0.00    -0.485 C  
HETATM   11  C   UNL     1      -9.813  16.922  67.366  1.00  0.00    -0.261 C  
BRANCH   6  12
HETATM   12  C   UNL     1     -11.449  14.915  70.861  1.00  0.00    -0.261 C  
HETATM   13  N   UNL     1     -12.055  14.409  71.845  1.00  0.00    -0.254 NA 
HETATM   14  H2  UNL     1     -11.090  14.502  72.161  1.00  0.00     0.000 HD 
HETATM   15  H1  UNL     1     -12.546  14.001  72.641  1.00  0.00     0.000 HD 
ENDBRANCH   6  12
BRANCH  11  16
HETATM   16  C   UNL     1      -9.463  17.724  66.153  1.00  0.00    -0.159 C  
HETATM   17  O   UNL     1     -10.185  18.611  65.720  1.00  0.00    -0.552 OA 
BRANCH  16  18
HETATM   18  O   UNL     1      -8.271  17.380  65.582  1.00  0.00    -0.491 OA 
BRANCH  18  19
HETATM   19  C   UNL     1      -7.163  18.235  65.978  1.00  0.00    -0.263 C  
HETATM   20  C   UNL     1      -7.651  19.675  66.106  1.00  0.00    -0.326 C  
HETATM   21  C   UNL     1      -6.569  17.763  67.301  1.00  0.00    -0.186 C  
ENDBRANCH  18  19
ENDBRANCH  16  18
ENDBRANCH  11  16
BRANCH   8  22
HETATM   22  C   UNL     1     -10.789  14.950  66.044  1.00  0.00    -0.328 A  
HETATM   23  C   UNL     1     -10.784  13.593  65.656  1.00  0.00    -0.283 A  
HETATM   24  C   UNL     1     -11.539  15.855  65.274  1.00  0.00     0.213 A  
HETATM   25  C   UNL     1     -12.241  15.426  64.139  1.00  0.00    -0.075 A  
HETATM   26  C   UNL     1     -11.460  13.177  64.494  1.00  0.00    -0.353 A  
HETATM   27  O   UNL     1     -10.693  11.001  64.749  1.00  0.00    -0.309 OA 
HETATM   28  N   UNL     1     -11.351  11.780  64.045  1.00  0.00    -0.380 N  
HETATM   29  C   UNL     1     -12.196  14.091  63.737  1.00  0.00    -0.250 A  
HETATM   30  O   UNL     1     -11.910  11.469  62.980  1.00  0.00    -0.103 OA 
ENDBRANCH   8  22
ENDBRANCH   3   5
ENDBRANCH   2   3
TORSDOF 7
ENDMDL
MODEL      171
REMARK 921   NORMALIZED FREE ENERGY PREDICTED BY IDOCK:   -2.89 KCAL/MOL
REMARK 922        TOTAL FREE ENERGY PREDICTED BY IDOCK:   -5.13 KCAL/MOL
REMARK 923 INTER-LIGAND FREE ENERGY PREDICTED BY IDOCK:   -6.38 KCAL/MOL
REMARK 924 INTRA-LIGAND FREE ENERGY PREDICTED BY IDOCK:    1.25 KCAL/MOL
REMARK 927      BINDING AFFINITY PREDICTED BY RF-SCORE:    0.00 PKD
ROOT
HETATM    1  C   UNL     1     -11.943  15.181  70.232  1.00  0.00    -0.319 C  
HETATM    2  O   UNL     1     -11.396  13.854  70.254  1.00  0.00    -0.117 OA 
ENDROOT
BRANCH   2   3
HETATM    3  C   UNL     1     -11.855  13.053  69.259  1.00  0.00    -0.316 C  
HETATM    4  O   UNL     1     -12.343  13.431  68.210  1.00  0.00    -0.187 OA 
BRANCH   3   5
HETATM    5  C   UNL     1     -11.631  11.631  69.630  1.00  0.00    -0.401 C  
HETATM    6  C   UNL     1     -12.215  11.104  70.737  1.00  0.00    -0.385 C  
HETATM    7  N   UNL     1     -12.016   9.790  71.083  1.00  0.00    -0.347 NA 
HETATM    8  C   UNL     1     -10.689  10.801  68.742  1.00  0.00    -0.243 C  
HETATM    9  C   UNL     1     -11.151   8.946  70.390  1.00  0.00    -0.239 C  
HETATM   10  C   UNL     1     -11.044   7.546  70.951  1.00  0.00    -0.279 C  
HETATM   11  C   UNL     1     -10.476   9.378  69.285  1.00  0.00    -0.230 C  
BRANCH   6  12
HETATM   12  C   UNL     1     -12.941  12.013  71.715  1.00  0.00    -0.340 C  
HETATM   13  N   UNL     1     -13.543  12.769  72.526  1.00  0.00    -0.615 NA 
HETATM   14  H2  UNL     1     -13.337  13.366  71.725  1.00  0.00     0.000 HD 
HETATM   15  H1  UNL     1     -14.030  13.379  73.182  1.00  0.00     0.000 HD 
ENDBRANCH   6  12
BRANCH  11  16
HETATM   16  C   UNL     1      -9.479   8.468  68.639  1.00  0.00    -0.143 C  
HETATM   17  O   UNL     1      -8.453   8.112  69.201  1.00  0.00    -0.132 OA 
BRANCH  16  18
HETATM   18  O   UNL     1      -9.821   8.073  67.377  1.00  0.00    -0.159 OA 
BRANCH  18  19
HETATM   19  C   UNL     1      -8.711   8.083  66.439  1.00  0.00    -0.151 C  
HETATM   20  C   UNL     1      -8.697   6.776  65.650  1.00  0.00    -0.086 C  
HETATM   21  C   UNL     1      -8.825   9.269  65.486  1.00  0.00    -0.224 C  
ENDBRANCH  18  19
ENDBRANCH  16  18
ENDBRANCH  11  16
BRANCH   8  22
HETATM   22  C   UNL     1      -9.360  11.537  68.460  1.00  0.00    -0.171 A  
HETATM   23  C   UNL     1      -9.388  12.880  68.026  1.00  0.00    -0.213 A  
HETATM   24  C   UNL     1      -8.108  10.911  68.591  1.00  0.00    -0.143 A  
HETATM   25  C   UNL     1      -6.925  11.594  68.275  1.00  0.00    -0.074 A  
HETATM   26  C   UNL     1      -8.200  13.546  67.676  1.00  0.00    -0.178 A  
HETATM   27  O   UNL     1      -9.375  15.439  67.027  1.00  0.00    -0.209 OA 
HETATM   28  N   UNL     1      -8.260  14.907  67.120  1.00  0.00    -0.208 N  
HETATM   29  C   UNL     1      -6.964  12.907  67.806  1.00  0.00    -0.138 A  
HETATM   30  O   UNL     1      -7.194  15.435  66.763  1.00  0.00    -0.137 OA 
ENDBRANCH   8  22
ENDBRANCH   3   5
ENDBRANCH   2   3
TORSDOF 7
ENDMDL
MODEL      172
REMARK 921   NORMALIZED FREE ENERGY PREDICTED BY IDOCK:   -2.84 KCAL/MOL
REMARK 922        TOTAL FREE ENERGY PREDICTED BY IDOCK:   -5.05 KCAL/MOL
REMARK 923 INTER-LIGAND FREE ENERGY PREDICTED BY IDOCK:   -5.14 KCAL/MOL
REMARK 924 INTRA-LIGAND FREE ENERGY PREDICTED BY IDOCK:    0.09 KCAL/MOL
REMARK 927      BINDING AFFINITY PREDICTED BY RF-SCORE:    0.00 PKD
ROOT
HETATM    1  C   UNL     1     -11.964  12.448  69.660  1.00  0.00    -0.274 C  
HETATM    2  O   UNL     1     -11.682  12.208  68.273  1.00  0.00    -0.313 OA 
ENDROOT
BRANCH   2   3
HETATM    3  C   UNL     1     -10.602  12.884  67.807  1.00  0.00    -0.222 C  
HETATM    4  O   UNL     1     -10.010  13.772  68.393  1.00  0.00    -0.224 OA 
BRANCH   3   5
HETATM    5  C   UNL     1     -10.220  12.342  66.476  1.00  0.00    -0.235 C  
HETATM    6  C   UNL     1     -10.836  12.781  65.347  1.00  0.00    -0.286 C  
HETATM    7  N   UNL     1     -10.485  12.288  64.114  1.00  0.00    -0.345 NA 
HETATM    8  C   UNL     1      -9.141  11.247  66.433  1.00  0.00    -0.201 C  
HETATM    9  C   UNL     1      -9.557  11.262  63.944  1.00  0.00    -0.245 C  
HETATM   10  C   UNL     1      -9.336  10.837  62.509  1.00  0.00    -0.310 C  
HETATM   11  C   UNL     1      -8.905  10.714  65.010  1.00  0.00    -0.212 C  
BRANCH   6  12
HETATM   12  C   UNL     1     -12.055  13.681  65.452  1.00  0.00    -0.403 C  
HETATM   13  N   UNL     1     -13.067  14.429  65.540  1.00  0.00    -0.531 NA 
HETATM   14  H2  UNL     1     -12.274  15.053  65.694  1.00  0.00     0.000 HD 
HETATM   15  H1  UNL     1     -13.886  15.034  65.610  1.00  0.00     0.000 HD 
ENDBRANCH   6  12
BRANCH  11  16
HETATM   16  C   UNL     1      -7.998   9.546  64.786  1.00  0.00    -0.123 C  
HETATM   17  O   UNL     1      -8.359   8.535  64.201  1.00  0.00    -0.157 OA 
BRANCH  16  18
HETATM   18  O   UNL     1      -6.738   9.714  65.287  1.00  0.00    -0.079 OA 
BRANCH  18  19
HETATM   19  C   UNL     1      -5.688   9.581  64.289  1.00  0.00    -0.077 C  
HETATM   20  C   UNL     1      -5.686   8.158  63.738  1.00  0.00    -0.061 C  
HETATM   21  C   UNL     1      -5.896  10.582  63.157  1.00  0.00    -0.128 C  
ENDBRANCH  18  19
ENDBRANCH  16  18
ENDBRANCH  11  16
BRANCH   8  22
HETATM   22  C   UNL     1      -9.417  10.121  67.454  1.00  0.00    -0.175 A  
HETATM   23  C   UNL     1      -8.886  10.220  68.758  1.00  0.00    -0.148 A  
HETATM   24  C   UNL     1     -10.160   8.973  67.128  1.00  0.00    -0.309 A  
HETATM   25  C   UNL     1     -10.347   7.946  68.065  1.00  0.00    -0.264 A  
HETATM   26  C   UNL     1      -9.045   9.168  69.679  1.00  0.00    -0.160 A  
HETATM   27  O   UNL     1      -7.751  10.271  71.259  1.00  0.00     0.795 OA 
HETATM   28  N   UNL     1      -8.389   9.242  70.995  1.00  0.00    -0.151 N  
HETATM   29  C   UNL     1      -9.782   8.032  69.337  1.00  0.00    -0.170 A  
HETATM   30  O   UNL     1      -8.502   8.266  71.753  1.00  0.00    -0.130 OA 
ENDBRANCH   8  22
ENDBRANCH   3   5
ENDBRANCH   2   3
TORSDOF 7
ENDMDL
MODEL      173
REMARK 921   NORMALIZED FREE ENERGY PREDICTED BY IDOCK:   -2.76 KCAL/MOL
REMARK 922        TOTAL FREE ENERGY PREDICTED BY IDOCK:   -4.94 KCAL/MOL
REMARK 923 INTER-LIGAND FREE ENERGY PREDICTED BY IDOCK:   -4.19 KCAL/MOL
REMARK 924 INTRA-LIGAND FREE ENERGY PREDICTED BY IDOCK:   -0.75 KCAL/MOL
REMARK 927      BINDING AFFINITY PREDICTED BY RF-SCORE:    0.00 PKD
ROOT
HETATM    1  C   UNL     1      -7.030   9.198  64.062  1.00  0.00    -0.089 C  
HETATM    2  O   UNL     1      -7.345   9.167  65.462  1.00  0.00    -0.087 OA 
ENDROOT
BRANCH   2   3
HETATM    3  C   UNL     1      -6.290   8.855  66.257  1.00  0.00    -0.065 C  
HETATM    4  O   UNL     1      -5.129   9.154  66.048  1.00  0.00    -0.035 OA 
BRANCH   3   5
HETATM    5  C   UNL     1      -6.778   8.122  67.455  1.00  0.00    -0.062 C  
HETATM    6  C   UNL     1      -7.198   6.834  67.356  1.00  0.00    -0.090 C  
HETATM    7  N   UNL     1      -7.645   6.150  68.460  1.00  0.00    -0.090 NA 
HETATM    8  C   UNL     1      -6.824   8.885  68.790  1.00  0.00    -0.062 C  
HETATM    9  C   UNL     1      -7.780   6.741  69.715  1.00  0.00    -0.113 C  
HETATM   10  C   UNL     1      -8.323   5.828  70.791  1.00  0.00    -0.124 C  
HETATM   11  C   UNL     1      -7.428   8.043  69.925  1.00  0.00    -0.078 C  
BRANCH   6  12
HETATM   12  C   UNL     1      -7.362   6.196  65.987  1.00  0.00    -0.080 C  
HETATM   13  N   UNL     1      -7.499   5.667  64.850  1.00  0.00    -0.075 NA 
HETATM   14  H2  UNL     1      -8.427   5.615  65.270  1.00  0.00     0.000 HD 
HETATM   15  H1  UNL     1      -7.609   5.239  63.931  1.00  0.00     0.000 HD 
ENDBRANCH   6  12
BRANCH  11  16
HETATM   16  C   UNL     1      -7.691   8.660  71.262  1.00  0.00    -0.118 C  
HETATM   17  O   UNL     1      -6.936   8.515  72.213  1.00  0.00    -0.098 OA 
BRANCH  16  18
HETATM   18  O   UNL     1      -8.839   9.398  71.320  1.00  0.00    -0.287 OA 
BRANCH  18  19
HETATM   19  C   UNL     1     -10.032   8.607  71.574  1.00  0.00    -0.274 C  
HETATM   20  C   UNL     1     -10.061   8.186  73.041  1.00  0.00    -0.290 C  
HETATM   21  C   UNL     1     -11.286   9.404  71.232  1.00  0.00    -0.436 C  
ENDBRANCH  18  19
ENDBRANCH  16  18
ENDBRANCH  11  16
BRANCH   8  22
HETATM   22  C   UNL     1      -7.504  10.266  68.644  1.00  0.00    -0.086 A  
HETATM   23  C   UNL     1      -8.868  10.335  68.290  1.00  0.00    -0.126 A  
HETATM   24  C   UNL     1      -6.806  11.472  68.825  1.00  0.00    -0.084 A  
HETATM   25  C   UNL     1      -7.442  12.708  68.634  1.00  0.00    -0.094 A  
HETATM   26  C   UNL     1      -9.488  11.577  68.062  1.00  0.00    -0.181 A  
HETATM   27  O   UNL     1     -11.474  10.545  67.445  1.00  0.00    -0.405 OA 
HETATM   28  N   UNL     1     -10.879  11.624  67.584  1.00  0.00    -0.213 N  
HETATM   29  C   UNL     1      -8.779  12.767  68.240  1.00  0.00    -0.168 A  
HETATM   30  O   UNL     1     -11.369  12.737  67.334  1.00  0.00    -0.277 OA 
ENDBRANCH   8  22
ENDBRANCH   3   5
ENDBRANCH   2   3
TORSDOF 7
ENDMDL
MODEL      174
REMARK 921   NORMALIZED FREE ENERGY PREDICTED BY IDOCK:   -2.74 KCAL/MOL
REMARK 922        TOTAL FREE ENERGY PREDICTED BY IDOCK:   -4.91 KCAL/MOL
REMARK 923 INTER-LIGAND FREE ENERGY PREDICTED BY IDOCK:   -4.53 KCAL/MOL
REMARK 924 INTRA-LIGAND FREE ENERGY PREDICTED BY IDOCK:   -0.38 KCAL/MOL
REMARK 927      BINDING AFFINITY PREDICTED BY RF-SCORE:    0.00 PKD
ROOT
HETATM    1  C   UNL     1     -12.508   8.682  72.638  1.00  0.00    -0.214 C  
HETATM    2  O   UNL     1     -12.590   8.561  71.210  1.00  0.00    -0.298 OA 
ENDROOT
BRANCH   2   3
HETATM    3  C   UNL     1     -11.728   7.655  70.684  1.00  0.00    -0.193 C  
HETATM    4  O   UNL     1     -12.038   6.643  70.081  1.00  0.00    -0.323 OA 
BRANCH   3   5
HETATM    5  C   UNL     1     -10.332   8.110  70.920  1.00  0.00    -0.218 C  
HETATM    6  C   UNL     1      -9.748   9.011  70.088  1.00  0.00    -0.188 C  
HETATM    7  N   UNL     1      -8.461   9.439  70.302  1.00  0.00    -0.195 NA 
HETATM    8  C   UNL     1      -9.571   7.496  72.107  1.00  0.00    -0.190 C  
HETATM    9  C   UNL     1      -7.649   8.926  71.313  1.00  0.00    -0.103 C  
HETATM   10  C   UNL     1      -6.252   9.504  71.360  1.00  0.00    -0.007 C  
HETATM   11  C   UNL     1      -8.115   7.985  72.185  1.00  0.00    -0.172 C  
BRANCH   6  12
HETATM   12  C   UNL     1     -10.443   9.409  68.797  1.00  0.00    -0.212 C  
HETATM   13  N   UNL     1     -11.020   9.740  67.725  1.00  0.00    -0.460 NA 
HETATM   14  H2  UNL     1     -10.486  10.567  67.994  1.00  0.00     0.000 HD 
HETATM   15  H1  UNL     1     -11.487  10.008  66.858  1.00  0.00     0.000 HD 
ENDBRANCH   6  12
BRANCH  11  16
HETATM   16  C   UNL     1      -7.175   7.391  73.185  1.00  0.00    -0.074 C  
HETATM   17  O   UNL     1      -7.288   7.580  74.387  1.00  0.00    -0.114 OA 
BRANCH  16  18
HETATM   18  O   UNL     1      -6.190   6.620  72.635  1.00  0.00    -0.052 OA 
BRANCH  18  19
HETATM   19  C   UNL     1      -5.890   5.420  73.398  1.00  0.00    -0.028 C  
HETATM   20  C   UNL     1      -7.052   5.110  74.339  1.00  0.00    -0.078 C  
HETATM   21  C   UNL     1      -5.642   4.239  72.465  1.00  0.00    -0.004 C  
ENDBRANCH  18  19
ENDBRANCH  16  18
ENDBRANCH  11  16
BRANCH   8  22
HETATM   22  C   UNL     1      -9.685   5.955  72.135  1.00  0.00    -0.175 A  
HETATM   23  C   UNL     1      -9.125   5.198  71.084  1.00  0.00    -0.174 A  
HETATM   24  C   UNL     1     -10.355   5.267  73.161  1.00  0.00    -0.229 A  
HETATM   25  C   UNL     1     -10.486   3.872  73.127  1.00  0.00    -0.254 A  
HETATM   26  C   UNL     1      -9.293   3.802  71.037  1.00  0.00    -0.148 A  
HETATM   27  O   UNL     1      -8.202   3.675  68.992  1.00  0.00    -0.060 OA 
HETATM   28  N   UNL     1      -8.799   3.044  69.876  1.00  0.00    -0.080 N  
HETATM   29  C   UNL     1      -9.967   3.135  72.062  1.00  0.00    -0.223 A  
HETATM   30  O   UNL     1      -9.024   1.824  69.843  1.00  0.00    -0.063 OA 
ENDBRANCH   8  22
ENDBRANCH   3   5
ENDBRANCH   2   3
TORSDOF 7
ENDMDL
MODEL      175
REMARK 921   NORMALIZED FREE ENERGY PREDICTED BY IDOCK:   -2.70 KCAL/MOL
REMARK 922        TOTAL FREE ENERGY PREDICTED BY IDOCK:   -4.85 KCAL/MOL
REMARK 923 INTER-LIGAND FREE ENERGY PREDICTED BY IDOCK:   -4.04 KCAL/MOL
REMARK 924 INTRA-LIGAND FREE ENERGY PREDICTED BY IDOCK:   -0.81 KCAL/MOL
REMARK 927      BINDING AFFINITY PREDICTED BY RF-SCORE:    0.00 PKD
ROOT
HETATM    1  C   UNL     1      -9.898  14.791  69.555  1.00  0.00     0.012 C  
HETATM    2  O   UNL     1      -9.672  13.616  68.762  1.00  0.00    -0.157 OA 
ENDROOT
BRANCH   2   3
HETATM    3  C   UNL     1      -8.512  13.642  68.057  1.00  0.00    -0.174 C  
HETATM    4  O   UNL     1      -7.572  14.388  68.261  1.00  0.00    -0.107 OA 
BRANCH   3   5
HETATM    5  C   UNL     1      -8.546  12.581  67.016  1.00  0.00    -0.188 C  
HETATM    6  C   UNL     1      -9.585  12.500  66.144  1.00  0.00    -0.228 C  
HETATM    7  N   UNL     1      -9.620  11.526  65.177  1.00  0.00    -0.230 NA 
HETATM    8  C   UNL     1      -7.391  11.567  66.991  1.00  0.00    -0.145 C  
HETATM    9  C   UNL     1      -8.661  10.521  65.077  1.00  0.00    -0.176 C  
HETATM   10  C   UNL     1      -8.899   9.523  63.966  1.00  0.00    -0.243 C  
HETATM   11  C   UNL     1      -7.593  10.476  65.926  1.00  0.00    -0.148 C  
BRANCH   6  12
HETATM   12  C   UNL     1     -10.816  13.366  66.353  1.00  0.00    -0.289 C  
HETATM   13  N   UNL     1     -11.838  14.085  66.525  1.00  0.00    -0.397 NA 
HETATM   14  H2  UNL     1     -11.994  13.631  65.625  1.00  0.00     0.000 HD 
HETATM   15  H1  UNL     1     -12.665  14.666  66.665  1.00  0.00     0.000 HD 
ENDBRANCH   6  12
BRANCH  11  16
HETATM   16  C   UNL     1      -6.648   9.319  65.847  1.00  0.00    -0.076 C  
HETATM   17  O   UNL     1      -5.806   9.216  64.966  1.00  0.00    -0.057 OA 
BRANCH  16  18
HETATM   18  O   UNL     1      -6.808   8.398  66.843  1.00  0.00    -0.067 OA 
BRANCH  18  19
HETATM   19  C   UNL     1      -7.693   7.300  66.490  1.00  0.00    -0.093 C  
HETATM   20  C   UNL     1      -6.889   6.006  66.398  1.00  0.00    -0.062 C  
HETATM   21  C   UNL     1      -8.805   7.155  67.524  1.00  0.00    -0.119 C  
ENDBRANCH  18  19
ENDBRANCH  16  18
ENDBRANCH  11  16
BRANCH   8  22
HETATM   22  C   UNL     1      -7.099  10.986  68.393  1.00  0.00    -0.074 A  
HETATM   23  C   UNL     1      -8.117  10.294  69.084  1.00  0.00    -0.138 A  
HETATM   24  C   UNL     1      -5.856  11.142  69.030  1.00  0.00    -0.040 A  
HETATM   25  C   UNL     1      -5.643  10.648  70.324  1.00  0.00    -0.076 A  
HETATM   26  C   UNL     1      -7.907   9.835  70.397  1.00  0.00    -0.118 A  
HETATM   27  O   UNL     1     -10.097   9.080  70.551  1.00  0.00    -0.188 OA 
HETATM   28  N   UNL     1      -9.016   9.216  71.141  1.00  0.00    -0.219 N  
HETATM   29  C   UNL     1      -6.668  10.004  71.018  1.00  0.00     0.157 A  
HETATM   30  O   UNL     1      -8.807   8.883  72.319  1.00  0.00    -0.397 OA 
ENDBRANCH   8  22
ENDBRANCH   3   5
ENDBRANCH   2   3
TORSDOF 7
ENDMDL
MODEL      176
REMARK 921   NORMALIZED FREE ENERGY PREDICTED BY IDOCK:   -2.67 KCAL/MOL
REMARK 922        TOTAL FREE ENERGY PREDICTED BY IDOCK:   -4.82 KCAL/MOL
REMARK 923 INTER-LIGAND FREE ENERGY PREDICTED BY IDOCK:   -3.91 KCAL/MOL
REMARK 924 INTRA-LIGAND FREE ENERGY PREDICTED BY IDOCK:   -0.91 KCAL/MOL
REMARK 927      BINDING AFFINITY PREDICTED BY RF-SCORE:    0.00 PKD
ROOT
HETATM    1  C   UNL     1      -9.681  10.276  69.301  1.00  0.00    -0.225 C  
HETATM    2  O   UNL     1      -9.349  10.042  67.924  1.00  0.00    -0.140 OA 
ENDROOT
BRANCH   2   3
HETATM    3  C   UNL     1      -8.032   9.796  67.710  1.00  0.00    -0.101 C  
HETATM    4  O   UNL     1      -7.104  10.446  68.156  1.00  0.00    -0.080 OA 
BRANCH   3   5
HETATM    5  C   UNL     1      -7.890   8.573  66.876  1.00  0.00    -0.092 C  
HETATM    6  C   UNL     1      -8.455   8.508  65.642  1.00  0.00    -0.155 C  
HETATM    7  N   UNL     1      -8.324   7.384  64.864  1.00  0.00    -0.076 NA 
HETATM    8  C   UNL     1      -7.120   7.384  67.474  1.00  0.00    -0.088 C  
HETATM    9  C   UNL     1      -7.692   6.224  65.308  1.00  0.00    -0.096 C  
HETATM   10  C   UNL     1      -7.684   5.085  64.313  1.00  0.00    -0.085 C  
HETATM   11  C   UNL     1      -7.123   6.158  66.546  1.00  0.00    -0.068 C  
BRANCH   6  12
HETATM   12  C   UNL     1      -9.404   9.604  65.187  1.00  0.00    -0.259 C  
HETATM   13  N   UNL     1     -10.192  10.513  64.809  1.00  0.00    -0.341 NA 
HETATM   14  H2  UNL     1     -10.558  10.218  65.715  1.00  0.00     0.000 HD 
HETATM   15  H1  UNL     1     -10.830  11.249  64.504  1.00  0.00     0.000 HD 
ENDBRANCH   6  12
BRANCH  11  16
HETATM   16  C   UNL     1      -6.550   4.859  67.016  1.00  0.00    -0.050 C  
HETATM   17  O   UNL     1      -5.497   4.411  66.586  1.00  0.00    -0.012 OA 
BRANCH  16  18
HETATM   18  O   UNL     1      -7.304   4.227  67.964  1.00  0.00    -0.063 OA 
BRANCH  18  19
HETATM   19  C   UNL     1      -8.414   3.464  67.417  1.00  0.00    -0.097 C  
HETATM   20  C   UNL     1      -7.913   2.104  66.939  1.00  0.00    -0.072 C  
HETATM   21  C   UNL     1      -9.506   3.281  68.466  1.00  0.00    -0.206 C  
ENDBRANCH  18  19
ENDBRANCH  16  18
ENDBRANCH  11  16
BRANCH   8  22
HETATM   22  C   UNL     1      -7.593   7.050  68.907  1.00  0.00    -0.104 A  
HETATM   23  C   UNL     1      -8.954   6.757  69.139  1.00  0.00    -0.132 A  
HETATM   24  C   UNL     1      -6.720   7.052  70.009  1.00  0.00    -0.055 A  
HETATM   25  C   UNL     1      -7.194   6.796  71.303  1.00  0.00    -0.077 A  
HETATM   26  C   UNL     1      -9.428   6.538  70.445  1.00  0.00    -0.162 A  
HETATM   27  O   UNL     1     -11.613   6.336  69.687  1.00  0.00    -0.430 OA 
HETATM   28  N   UNL     1     -10.869   6.345  70.678  1.00  0.00    -0.258 N  
HETATM   29  C   UNL     1      -8.549   6.550  71.530  1.00  0.00    -0.129 A  
HETATM   30  O   UNL     1     -11.254   6.219  71.851  1.00  0.00    -0.257 OA 
ENDBRANCH   8  22
ENDBRANCH   3   5
ENDBRANCH   2   3
TORSDOF 7
ENDMDL
MODEL      177
REMARK 921   NORMALIZED FREE ENERGY PREDICTED BY IDOCK:   -2.66 KCAL/MOL
REMARK 922        TOTAL FREE ENERGY PREDICTED BY IDOCK:   -4.80 KCAL/MOL
REMARK 923 INTER-LIGAND FREE ENERGY PREDICTED BY IDOCK:   -4.35 KCAL/MOL
REMARK 924 INTRA-LIGAND FREE ENERGY PREDICTED BY IDOCK:   -0.45 KCAL/MOL
REMARK 927      BINDING AFFINITY PREDICTED BY RF-SCORE:    0.00 PKD
ROOT
HETATM    1  C   UNL     1     -11.081  13.766  64.090  1.00  0.00    -0.171 C  
HETATM    2  O   UNL     1     -10.053  13.676  65.087  1.00  0.00    -0.324 OA 
ENDROOT
BRANCH   2   3
HETATM    3  C   UNL     1     -10.362  12.857  66.124  1.00  0.00    -0.276 C  
HETATM    4  O   UNL     1     -11.394  12.223  66.248  1.00  0.00    -0.309 OA 
BRANCH   3   5
HETATM    5  C   UNL     1      -9.220  12.818  67.077  1.00  0.00    -0.221 C  
HETATM    6  C   UNL     1      -8.600  13.964  67.461  1.00  0.00    -0.193 C  
HETATM    7  N   UNL     1      -7.549  13.935  68.344  1.00  0.00    -0.122 NA 
HETATM    8  C   UNL     1      -8.749  11.440  67.571  1.00  0.00    -0.140 C  
HETATM    9  C   UNL     1      -6.997  12.751  68.828  1.00  0.00    -0.096 C  
HETATM   10  C   UNL     1      -5.821  12.933  69.762  1.00  0.00    -0.121 C  
HETATM   11  C   UNL     1      -7.510  11.536  68.477  1.00  0.00    -0.115 C  
BRANCH   6  12
HETATM   12  C   UNL     1      -8.937  15.274  66.770  1.00  0.00    -0.262 C  
HETATM   13  N   UNL     1      -9.217  16.362  66.196  1.00  0.00    -0.336 NA 
HETATM   14  H2  UNL     1     -10.014  15.756  65.999  1.00  0.00     0.000 HD 
HETATM   15  H1  UNL     1      -9.443  17.242  65.731  1.00  0.00     0.000 HD 
ENDBRANCH   6  12
BRANCH  11  16
HETATM   16  C   UNL     1      -6.819  10.293  68.939  1.00  0.00    -0.059 C  
HETATM   17  O   UNL     1      -5.859   9.817  68.350  1.00  0.00    -0.043 OA 
BRANCH  16  18
HETATM   18  O   UNL     1      -7.350   9.747  70.073  1.00  0.00    -0.106 OA 
BRANCH  18  19
HETATM   19  C   UNL     1      -7.701   8.343  69.938  1.00  0.00    -0.092 C  
HETATM   20  C   UNL     1      -6.772   7.499  70.806  1.00  0.00    -0.043 C  
HETATM   21  C   UNL     1      -9.153   8.112  70.346  1.00  0.00    -0.150 C  
ENDBRANCH  18  19
ENDBRANCH  16  18
ENDBRANCH  11  16
BRANCH   8  22
HETATM   22  C   UNL     1      -8.562  10.440  66.408  1.00  0.00    -0.137 A  
HETATM   23  C   UNL     1      -8.821   9.069  66.622  1.00  0.00    -0.152 A  
HETATM   24  C   UNL     1      -8.112  10.837  65.137  1.00  0.00     0.004 A  
HETATM   25  C   UNL     1      -7.902   9.895  64.121  1.00  0.00    -0.142 A  
HETATM   26  C   UNL     1      -8.572   8.126  65.609  1.00  0.00    -0.158 A  
HETATM   27  O   UNL     1      -9.151   6.370  67.013  1.00  0.00    -0.122 OA 
HETATM   28  N   UNL     1      -8.741   6.690  65.888  1.00  0.00    -0.151 N  
HETATM   29  C   UNL     1      -8.119   8.536  64.354  1.00  0.00    -0.163 A  
HETATM   30  O   UNL     1      -8.450   5.887  64.988  1.00  0.00    -0.150 OA 
ENDBRANCH   8  22
ENDBRANCH   3   5
ENDBRANCH   2   3
TORSDOF 7
ENDMDL
MODEL      178
REMARK 921   NORMALIZED FREE ENERGY PREDICTED BY IDOCK:   -2.66 KCAL/MOL
REMARK 922        TOTAL FREE ENERGY PREDICTED BY IDOCK:   -4.80 KCAL/MOL
REMARK 923 INTER-LIGAND FREE ENERGY PREDICTED BY IDOCK:   -8.04 KCAL/MOL
REMARK 924 INTRA-LIGAND FREE ENERGY PREDICTED BY IDOCK:    3.25 KCAL/MOL
REMARK 927      BINDING AFFINITY PREDICTED BY RF-SCORE:    0.00 PKD
ROOT
HETATM    1  C   UNL     1     -14.102   8.630  71.992  1.00  0.00    -0.453 C  
HETATM    2  O   UNL     1     -13.520   9.192  70.806  1.00  0.00     0.028 OA 
ENDROOT
BRANCH   2   3
HETATM    3  C   UNL     1     -12.453   9.996  71.044  1.00  0.00    -0.362 C  
HETATM    4  O   UNL     1     -12.280  10.673  72.042  1.00  0.00    -0.006 OA 
BRANCH   3   5
HETATM    5  C   UNL     1     -11.496   9.892  69.911  1.00  0.00    -0.234 C  
HETATM    6  C   UNL     1     -10.514   8.954  69.919  1.00  0.00    -0.214 C  
HETATM    7  N   UNL     1      -9.630   8.849  68.873  1.00  0.00    -0.158 NA 
HETATM    8  C   UNL     1     -11.637  10.904  68.761  1.00  0.00    -0.378 C  
HETATM    9  C   UNL     1      -9.621   9.732  67.796  1.00  0.00    -0.135 C  
HETATM   10  C   UNL     1      -8.545   9.468  66.766  1.00  0.00    -0.133 C  
HETATM   11  C   UNL     1     -10.535  10.742  67.701  1.00  0.00    -0.252 C  
BRANCH   6  12
HETATM   12  C   UNL     1     -10.260   8.136  71.174  1.00  0.00    -0.195 C  
HETATM   13  N   UNL     1     -10.048   7.456  72.215  1.00  0.00    -0.191 NA 
HETATM   14  H2  UNL     1      -9.251   7.253  71.611  1.00  0.00     0.000 HD 
HETATM   15  H1  UNL     1      -9.877   6.907  73.058  1.00  0.00     0.000 HD 
ENDBRANCH   6  12
BRANCH  11  16
HETATM   16  C   UNL     1     -10.418  11.726  66.581  1.00  0.00    -0.224 C  
HETATM   17  O   UNL     1      -9.436  12.439  66.432  1.00  0.00    -0.237 OA 
BRANCH  16  18
HETATM   18  O   UNL     1     -11.499  11.751  65.746  1.00  0.00    -0.300 OA 
BRANCH  18  19
HETATM   19  C   UNL     1     -11.186  12.193  64.396  1.00  0.00    -0.341 C  
HETATM   20  C   UNL     1     -10.849  13.681  64.411  1.00  0.00    -0.374 C  
HETATM   21  C   UNL     1     -10.014  11.396  63.830  1.00  0.00    -0.357 C  
ENDBRANCH  18  19
ENDBRANCH  16  18
ENDBRANCH  11  16
BRANCH   8  22
HETATM   22  C   UNL     1     -11.759  12.355  69.278  1.00  0.00    -0.386 A  
HETATM   23  C   UNL     1     -12.425  12.605  70.497  1.00  0.00    -0.273 A  
HETATM   24  C   UNL     1     -11.254  13.455  68.563  1.00  0.00    -0.316 A  
HETATM   25  C   UNL     1     -11.429  14.763  69.036  1.00  0.00    -0.316 A  
HETATM   26  C   UNL     1     -12.630  13.922  70.945  1.00  0.00    -0.361 A  
HETATM   27  O   UNL     1     -13.846  13.178  72.777  1.00  0.00    -0.648 OA 
HETATM   28  N   UNL     1     -13.423  14.167  72.161  1.00  0.00    -0.409 N  
HETATM   29  C   UNL     1     -12.126  15.004  70.220  1.00  0.00    -0.378 A  
HETATM   30  O   UNL     1     -13.635  15.346  72.487  1.00  0.00    -0.441 OA 
ENDBRANCH   8  22
ENDBRANCH   3   5
ENDBRANCH   2   3
TORSDOF 7
ENDMDL
MODEL      179
REMARK 921   NORMALIZED FREE ENERGY PREDICTED BY IDOCK:   -2.59 KCAL/MOL
REMARK 922        TOTAL FREE ENERGY PREDICTED BY IDOCK:   -4.69 KCAL/MOL
REMARK 923 INTER-LIGAND FREE ENERGY PREDICTED BY IDOCK:   -4.84 KCAL/MOL
REMARK 924 INTRA-LIGAND FREE ENERGY PREDICTED BY IDOCK:    0.15 KCAL/MOL
REMARK 927      BINDING AFFINITY PREDICTED BY RF-SCORE:    0.00 PKD
ROOT
HETATM    1  C   UNL     1      -8.240   8.055  73.384  1.00  0.00    -0.202 C  
HETATM    2  O   UNL     1      -7.734   8.931  72.367  1.00  0.00    -0.360 OA 
ENDROOT
BRANCH   2   3
HETATM    3  C   UNL     1      -6.940   8.315  71.455  1.00  0.00    -0.065 C  
HETATM    4  O   UNL     1      -6.294   7.300  71.643  1.00  0.00    -0.037 OA 
BRANCH   3   5
HETATM    5  C   UNL     1      -7.014   9.048  70.163  1.00  0.00    -0.047 C  
HETATM    6  C   UNL     1      -6.372  10.235  70.004  1.00  0.00    -0.101 C  
HETATM    7  N   UNL     1      -6.432  10.916  68.813  1.00  0.00    -0.051 NA 
HETATM    8  C   UNL     1      -7.870   8.437  69.041  1.00  0.00    -0.102 C  
HETATM    9  C   UNL     1      -7.209  10.493  67.736  1.00  0.00    -0.085 C  
HETATM   10  C   UNL     1      -7.167  11.401  66.527  1.00  0.00    -0.057 C  
HETATM   11  C   UNL     1      -7.931   9.336  67.796  1.00  0.00    -0.100 C  
BRANCH   6  12
HETATM   12  C   UNL     1      -5.740  10.920  71.204  1.00  0.00     0.064 C  
HETATM   13  N   UNL     1      -5.216  11.488  72.201  1.00  0.00    -0.326 NA 
HETATM   14  H2  UNL     1      -6.206  11.418  72.438  1.00  0.00     0.000 HD 
HETATM   15  H1  UNL     1      -4.792  11.948  73.007  1.00  0.00     0.000 HD 
ENDBRANCH   6  12
BRANCH  11  16
HETATM   16  C   UNL     1      -8.831   8.980  66.655  1.00  0.00    -0.132 C  
HETATM   17  O   UNL     1      -8.659   7.984  65.968  1.00  0.00    -0.130 OA 
BRANCH  16  18
HETATM   18  O   UNL     1      -9.856   9.861  66.457  1.00  0.00    -0.190 OA 
BRANCH  18  19
HETATM   19  C   UNL     1      -9.756  10.606  65.213  1.00  0.00    -0.259 C  
HETATM   20  C   UNL     1      -9.443   9.647  64.067  1.00  0.00    -0.003 C  
HETATM   21  C   UNL     1     -11.055  11.353  64.930  1.00  0.00    -0.235 C  
ENDBRANCH  18  19
ENDBRANCH  16  18
ENDBRANCH  11  16
BRANCH   8  22
HETATM   22  C   UNL     1      -9.269   8.016  69.543  1.00  0.00    -0.152 A  
HETATM   23  C   UNL     1     -10.198   9.008  69.926  1.00  0.00    -0.214 A  
HETATM   24  C   UNL     1      -9.653   6.669  69.664  1.00  0.00    -0.156 A  
HETATM   25  C   UNL     1     -10.913   6.322  70.173  1.00  0.00    -0.411 A  
HETATM   26  C   UNL     1     -11.444   8.651  70.471  1.00  0.00    -0.188 A  
HETATM   27  O   UNL     1     -11.993  10.876  70.837  1.00  0.00    -0.328 OA 
HETATM   28  N   UNL     1     -12.352   9.698  70.968  1.00  0.00    -0.314 N  
HETATM   29  C   UNL     1     -11.808   7.308  70.590  1.00  0.00    -0.290 A  
HETATM   30  O   UNL     1     -13.414   9.338  71.500  1.00  0.00    -0.368 OA 
ENDBRANCH   8  22
ENDBRANCH   3   5
ENDBRANCH   2   3
TORSDOF 7
ENDMDL
MODEL      180
REMARK 921   NORMALIZED FREE ENERGY PREDICTED BY IDOCK:   -2.56 KCAL/MOL
REMARK 922        TOTAL FREE ENERGY PREDICTED BY IDOCK:   -4.66 KCAL/MOL
REMARK 923 INTER-LIGAND FREE ENERGY PREDICTED BY IDOCK:   -4.73 KCAL/MOL
REMARK 924 INTRA-LIGAND FREE ENERGY PREDICTED BY IDOCK:    0.08 KCAL/MOL
REMARK 927      BINDING AFFINITY PREDICTED BY RF-SCORE:    0.00 PKD
ROOT
HETATM    1  C   UNL     1      -9.631  19.737  66.338  1.00  0.00    -0.411 C  
HETATM    2  O   UNL     1      -9.042  18.661  65.594  1.00  0.00    -0.280 OA 
ENDROOT
BRANCH   2   3
HETATM    3  C   UNL     1      -9.726  17.492  65.681  1.00  0.00     0.249 C  
HETATM    4  O   UNL     1     -10.679  17.172  64.993  1.00  0.00    -0.712 OA 
BRANCH   3   5
HETATM    5  C   UNL     1      -9.104  16.634  66.724  1.00  0.00    -0.261 C  
HETATM    6  C   UNL     1      -7.773  16.715  66.983  1.00  0.00    -0.200 C  
HETATM    7  N   UNL     1      -7.193  15.930  67.949  1.00  0.00    -0.127 NA 
HETATM    8  C   UNL     1     -10.010  15.635  67.462  1.00  0.00    -0.231 C  
HETATM    9  C   UNL     1      -7.893  14.953  68.654  1.00  0.00    -0.134 C  
HETATM   10  C   UNL     1      -7.065  14.171  69.649  1.00  0.00     0.046 C  
HETATM   11  C   UNL     1      -9.227  14.752  68.448  1.00  0.00    -0.189 C  
BRANCH   6  12
HETATM   12  C   UNL     1      -6.874  17.536  66.074  1.00  0.00    -0.246 C  
HETATM   13  N   UNL     1      -6.129  18.218  65.318  1.00  0.00    -0.211 NA 
HETATM   14  H2  UNL     1      -6.822  17.808  64.691  1.00  0.00     0.000 HD 
HETATM   15  H1  UNL     1      -5.526  18.769  64.707  1.00  0.00     0.000 HD 
ENDBRANCH   6  12
BRANCH  11  16
HETATM   16  C   UNL     1      -9.910  13.623  69.153  1.00  0.00     0.286 C  
HETATM   17  O   UNL     1     -10.753  13.803  70.020  1.00  0.00     0.286 OA 
BRANCH  16  18
HETATM   18  O   UNL     1      -9.513  12.384  68.737  1.00  0.00    -0.064 OA 
BRANCH  18  19
HETATM   19  C   UNL     1     -10.566  11.384  68.787  1.00  0.00    -0.204 C  
HETATM   20  C   UNL     1     -10.987  11.015  67.367  1.00  0.00    -0.349 C  
HETATM   21  C   UNL     1     -10.090  10.141  69.531  1.00  0.00    -0.258 C  
ENDBRANCH  18  19
ENDBRANCH  16  18
ENDBRANCH  11  16
BRANCH   8  22
HETATM   22  C   UNL     1     -10.880  14.811  66.486  1.00  0.00    -0.319 A  
HETATM   23  C   UNL     1     -10.260  13.921  65.583  1.00  0.00    -0.344 A  
HETATM   24  C   UNL     1     -12.280  14.932  66.438  1.00  0.00     0.110 A  
HETATM   25  C   UNL     1     -13.034  14.209  65.503  1.00  0.00    -0.303 A  
HETATM   26  C   UNL     1     -11.019  13.228  64.624  1.00  0.00    -0.370 A  
HETATM   27  O   UNL     1      -9.109  12.293  63.693  1.00  0.00     0.259 OA 
HETATM   28  N   UNL     1     -10.342  12.391  63.619  1.00  0.00    -0.428 N  
HETATM   29  C   UNL     1     -12.409  13.364  64.585  1.00  0.00    -0.433 A  
HETATM   30  O   UNL     1     -11.043  11.848  62.751  1.00  0.00     0.108 OA 
ENDBRANCH   8  22
ENDBRANCH   3   5
ENDBRANCH   2   3
TORSDOF 7
ENDMDL
MODEL      181
REMARK 921   NORMALIZED FREE ENERGY PREDICTED BY IDOCK:   -2.51 KCAL/MOL
REMARK 922        TOTAL FREE ENERGY PREDICTED BY IDOCK:   -4.59 KCAL/MOL
REMARK 923 INTER-LIGAND FREE ENERGY PREDICTED BY IDOCK:   -4.59 KCAL/MOL
REMARK 924 INTRA-LIGAND FREE ENERGY PREDICTED BY IDOCK:   -0.00 KCAL/MOL
REMARK 927      BINDING AFFINITY PREDICTED BY RF-SCORE:    0.00 PKD
ROOT
HETATM    1  C   UNL     1     -11.460   7.895  72.905  1.00  0.00    -0.297 C  
HETATM    2  O   UNL     1     -12.023   8.235  71.630  1.00  0.00    -0.277 OA 
ENDROOT
BRANCH   2   3
HETATM    3  C   UNL     1     -11.455   7.580  70.586  1.00  0.00    -0.269 C  
HETATM    4  O   UNL     1     -11.966   6.677  69.949  1.00  0.00    -0.301 OA 
BRANCH   3   5
HETATM    5  C   UNL     1     -10.117   8.166  70.306  1.00  0.00    -0.192 C  
HETATM    6  C   UNL     1     -10.006   9.388  69.722  1.00  0.00    -0.200 C  
HETATM    7  N   UNL     1      -8.773   9.937  69.466  1.00  0.00    -0.176 NA 
HETATM    8  C   UNL     1      -8.880   7.326  70.664  1.00  0.00    -0.148 C  
HETATM    9  C   UNL     1      -7.578   9.261  69.698  1.00  0.00    -0.084 C  
HETATM   10  C   UNL     1      -6.330  10.025  69.316  1.00  0.00    -0.045 C  
HETATM   11  C   UNL     1      -7.568   8.010  70.244  1.00  0.00    -0.081 C  
BRANCH   6  12
HETATM   12  C   UNL     1     -11.241  10.077  69.168  1.00  0.00    -0.149 C  
HETATM   13  N   UNL     1     -12.267  10.648  68.708  1.00  0.00    -0.808 NA 
HETATM   14  H2  UNL     1     -11.766  10.318  67.882  1.00  0.00     0.000 HD 
HETATM   15  H1  UNL     1     -13.097  11.111  68.335  1.00  0.00     0.000 HD 
ENDBRANCH   6  12
BRANCH  11  16
HETATM   16  C   UNL     1      -6.266   7.284  70.376  1.00  0.00    -0.034 C  
HETATM   17  O   UNL     1      -6.030   6.521  71.302  1.00  0.00    -0.034 OA 
BRANCH  16  18
HETATM   18  O   UNL     1      -5.376   7.547  69.374  1.00  0.00    -0.015 OA 
BRANCH  18  19
HETATM   19  C   UNL     1      -5.240   6.464  68.413  1.00  0.00    -0.008 C  
HETATM   20  C   UNL     1      -5.554   5.135  69.094  1.00  0.00    -0.008 C  
HETATM   21  C   UNL     1      -6.176   6.679  67.228  1.00  0.00    -0.036 C  
ENDBRANCH  18  19
ENDBRANCH  16  18
ENDBRANCH  11  16
BRANCH   8  22
HETATM   22  C   UNL     1      -8.992   5.877  70.140  1.00  0.00    -0.148 A  
HETATM   23  C   UNL     1      -9.054   5.642  68.750  1.00  0.00    -0.126 A  
HETATM   24  C   UNL     1      -9.064   4.768  71.001  1.00  0.00    -0.177 A  
HETATM   25  C   UNL     1      -9.219   3.470  70.493  1.00  0.00    -0.213 A  
HETATM   26  C   UNL     1      -9.248   4.342  68.250  1.00  0.00    -0.137 A  
HETATM   27  O   UNL     1      -9.342   5.127  66.067  1.00  0.00    -0.150 OA 
HETATM   28  N   UNL     1      -9.422   4.133  66.803  1.00  0.00    -0.180 N  
HETATM   29  C   UNL     1      -9.323   3.252  69.119  1.00  0.00    -0.233 A  
HETATM   30  O   UNL     1      -9.654   2.979  66.409  1.00  0.00    -0.060 OA 
ENDBRANCH   8  22
ENDBRANCH   3   5
ENDBRANCH   2   3
TORSDOF 7
ENDMDL
MODEL      182
REMARK 921   NORMALIZED FREE ENERGY PREDICTED BY IDOCK:   -2.49 KCAL/MOL
REMARK 922        TOTAL FREE ENERGY PREDICTED BY IDOCK:   -4.56 KCAL/MOL
REMARK 923 INTER-LIGAND FREE ENERGY PREDICTED BY IDOCK:   -5.45 KCAL/MOL
REMARK 924 INTRA-LIGAND FREE ENERGY PREDICTED BY IDOCK:    0.89 KCAL/MOL
REMARK 927      BINDING AFFINITY PREDICTED BY RF-SCORE:    0.00 PKD
ROOT
HETATM    1  C   UNL     1     -10.668  18.629  67.361  1.00  0.00    -0.402 C  
HETATM    2  O   UNL     1      -9.921  17.404  67.327  1.00  0.00    -0.284 OA 
ENDROOT
BRANCH   2   3
HETATM    3  C   UNL     1     -10.110  16.614  68.415  1.00  0.00    -0.268 C  
HETATM    4  O   UNL     1     -11.124  16.557  69.086  1.00  0.00    -0.311 OA 
BRANCH   3   5
HETATM    5  C   UNL     1      -8.893  15.790  68.641  1.00  0.00    -0.199 C  
HETATM    6  C   UNL     1      -7.741  16.362  69.077  1.00  0.00    -0.235 C  
HETATM    7  N   UNL     1      -6.615  15.605  69.292  1.00  0.00    -0.141 NA 
HETATM    8  C   UNL     1      -8.979  14.287  68.325  1.00  0.00    -0.187 C  
HETATM    9  C   UNL     1      -6.548  14.244  69.001  1.00  0.00    -0.105 C  
HETATM   10  C   UNL     1      -5.208  13.601  69.276  1.00  0.00    -0.077 C  
HETATM   11  C   UNL     1      -7.632  13.571  68.517  1.00  0.00    -0.129 C  
BRANCH   6  12
HETATM   12  C   UNL     1      -7.627  17.875  69.147  1.00  0.00    -0.044 C  
HETATM   13  N   UNL     1      -7.532  19.131  69.204  1.00  0.00    -0.307 NA 
HETATM   14  H2  UNL     1      -7.231  18.895  68.258  1.00  0.00     0.000 HD 
HETATM   15  H1  UNL     1      -7.456  20.148  69.250  1.00  0.00     0.000 HD 
ENDBRANCH   6  12
BRANCH  11  16
HETATM   16  C   UNL     1      -7.481  12.136  68.122  1.00  0.00    -0.114 C  
HETATM   17  O   UNL     1      -7.121  11.797  67.003  1.00  0.00    -0.137 OA 
BRANCH  16  18
HETATM   18  O   UNL     1      -7.774  11.249  69.118  1.00  0.00    -0.120 OA 
BRANCH  18  19
HETATM   19  C   UNL     1      -7.882   9.872  68.662  1.00  0.00    -0.086 C  
HETATM   20  C   UNL     1      -6.610   9.112  69.031  1.00  0.00    -0.047 C  
HETATM   21  C   UNL     1      -9.097   9.195  69.287  1.00  0.00    -0.146 C  
ENDBRANCH  18  19
ENDBRANCH  16  18
ENDBRANCH  11  16
BRANCH   8  22
HETATM   22  C   UNL     1      -9.604  14.021  66.937  1.00  0.00    -0.275 A  
HETATM   23  C   UNL     1      -9.997  12.711  66.591  1.00  0.00    -0.247 A  
HETATM   24  C   UNL     1      -9.774  15.037  65.980  1.00  0.00    -0.359 A  
HETATM   25  C   UNL     1     -10.296  14.750  64.710  1.00  0.00    -0.260 A  
HETATM   26  C   UNL     1     -10.484  12.424  65.303  1.00  0.00    -0.286 A  
HETATM   27  O   UNL     1     -10.635  10.160  65.793  1.00  0.00    -0.115 OA 
HETATM   28  N   UNL     1     -10.783  11.033  64.926  1.00  0.00    -0.255 N  
HETATM   29  C   UNL     1     -10.641  13.444  64.361  1.00  0.00    -0.423 A  
HETATM   30  O   UNL     1     -11.149  10.815  63.760  1.00  0.00     0.108 OA 
ENDBRANCH   8  22
ENDBRANCH   3   5
ENDBRANCH   2   3
TORSDOF 7
ENDMDL
MODEL      183
REMARK 921   NORMALIZED FREE ENERGY PREDICTED BY IDOCK:   -2.47 KCAL/MOL
REMARK 922        TOTAL FREE ENERGY PREDICTED BY IDOCK:   -4.53 KCAL/MOL
REMARK 923 INTER-LIGAND FREE ENERGY PREDICTED BY IDOCK:   -4.75 KCAL/MOL
REMARK 924 INTRA-LIGAND FREE ENERGY PREDICTED BY IDOCK:    0.22 KCAL/MOL
REMARK 927      BINDING AFFINITY PREDICTED BY RF-SCORE:    0.00 PKD
ROOT
HETATM    1  C   UNL     1     -10.277   9.120  66.808  1.00  0.00    -0.261 C  
HETATM    2  O   UNL     1      -9.564  10.254  67.325  1.00  0.00    -0.155 OA 
ENDROOT
BRANCH   2   3
HETATM    3  C   UNL     1      -8.841  10.922  66.390  1.00  0.00    -0.171 C  
HETATM    4  O   UNL     1      -8.919  10.766  65.185  1.00  0.00    -0.194 OA 
BRANCH   3   5
HETATM    5  C   UNL     1      -7.962  11.913  67.064  1.00  0.00    -0.158 C  
HETATM    6  C   UNL     1      -6.955  11.504  67.880  1.00  0.00    -0.075 C  
HETATM    7  N   UNL     1      -6.137  12.414  68.502  1.00  0.00    -0.054 NA 
HETATM    8  C   UNL     1      -8.260  13.405  66.837  1.00  0.00     0.040 C  
HETATM    9  C   UNL     1      -6.330  13.792  68.415  1.00  0.00    -0.099 C  
HETATM   10  C   UNL     1      -5.342  14.623  69.203  1.00  0.00    -0.085 C  
HETATM   11  C   UNL     1      -7.336  14.318  67.659  1.00  0.00    -0.192 C  
BRANCH   6  12
HETATM   12  C   UNL     1      -6.844  10.039  68.267  1.00  0.00    -0.063 C  
HETATM   13  N   UNL     1      -6.752   8.823  68.588  1.00  0.00    -0.058 NA 
HETATM   14  H2  UNL     1      -5.948   8.989  67.983  1.00  0.00     0.000 HD 
HETATM   15  H1  UNL     1      -6.677   7.839  68.849  1.00  0.00     0.000 HD 
ENDBRANCH   6  12
BRANCH  11  16
HETATM   16  C   UNL     1      -7.567  15.796  67.682  1.00  0.00    -0.156 C  
HETATM   17  O   UNL     1      -7.177  16.537  66.791  1.00  0.00    -0.199 OA 
BRANCH  16  18
HETATM   18  O   UNL     1      -8.253  16.237  68.778  1.00  0.00    -0.202 OA 
BRANCH  18  19
HETATM   19  C   UNL     1      -8.910  17.519  68.582  1.00  0.00    -0.255 C  
HETATM   20  C   UNL     1      -7.868  18.577  68.229  1.00  0.00    -0.323 C  
HETATM   21  C   UNL     1      -9.954  17.422  67.476  1.00  0.00    -0.298 C  
ENDBRANCH  18  19
ENDBRANCH  16  18
ENDBRANCH  11  16
BRANCH   8  22
HETATM   22  C   UNL     1      -9.757  13.734  67.037  1.00  0.00    -0.251 A  
HETATM   23  C   UNL     1     -10.243  13.995  68.336  1.00  0.00    -0.239 A  
HETATM   24  C   UNL     1     -10.673  13.757  65.972  1.00  0.00    -0.284 A  
HETATM   25  C   UNL     1     -12.034  14.007  66.197  1.00  0.00    -0.440 A  
HETATM   26  C   UNL     1     -11.615  14.208  68.559  1.00  0.00    -0.316 A  
HETATM   27  O   UNL     1     -11.286  14.354  70.852  1.00  0.00    -0.138 OA 
HETATM   28  N   UNL     1     -12.118  14.367  69.933  1.00  0.00    -0.325 N  
HETATM   29  C   UNL     1     -12.514  14.221  67.490  1.00  0.00     0.125 A  
HETATM   30  O   UNL     1     -13.343  14.488  70.092  1.00  0.00     0.075 OA 
ENDBRANCH   8  22
ENDBRANCH   3   5
ENDBRANCH   2   3
TORSDOF 7
ENDMDL
MODEL      184
REMARK 921   NORMALIZED FREE ENERGY PREDICTED BY IDOCK:   -2.41 KCAL/MOL
REMARK 922        TOTAL FREE ENERGY PREDICTED BY IDOCK:   -4.45 KCAL/MOL
REMARK 923 INTER-LIGAND FREE ENERGY PREDICTED BY IDOCK:   -4.07 KCAL/MOL
REMARK 924 INTRA-LIGAND FREE ENERGY PREDICTED BY IDOCK:   -0.37 KCAL/MOL
REMARK 927      BINDING AFFINITY PREDICTED BY RF-SCORE:    0.00 PKD
ROOT
HETATM    1  C   UNL     1      -9.297   8.667  71.692  1.00  0.00    -0.263 C  
HETATM    2  O   UNL     1      -8.934   8.914  70.326  1.00  0.00    -0.156 OA 
ENDROOT
BRANCH   2   3
HETATM    3  C   UNL     1      -9.897   8.574  69.431  1.00  0.00    -0.185 C  
HETATM    4  O   UNL     1     -10.918   7.961  69.683  1.00  0.00    -0.214 OA 
BRANCH   3   5
HETATM    5  C   UNL     1      -9.532   9.106  68.091  1.00  0.00    -0.155 C  
HETATM    6  C   UNL     1     -10.128  10.227  67.606  1.00  0.00    -0.191 C  
HETATM    7  N   UNL     1      -9.793  10.726  66.372  1.00  0.00    -0.201 NA 
HETATM    8  C   UNL     1      -8.495   8.324  67.269  1.00  0.00    -0.124 C  
HETATM    9  C   UNL     1      -8.904  10.087  65.510  1.00  0.00    -0.165 C  
HETATM   10  C   UNL     1      -8.696  10.780  64.183  1.00  0.00    -0.076 C  
HETATM   11  C   UNL     1      -8.275   8.931  65.874  1.00  0.00    -0.119 C  
BRANCH   6  12
HETATM   12  C   UNL     1     -11.314  10.831  68.340  1.00  0.00    -0.302 C  
HETATM   13  N   UNL     1     -12.298  11.332  68.949  1.00  0.00    -0.522 NA 
HETATM   14  H2  UNL     1     -12.647  10.445  68.585  1.00  0.00     0.000 HD 
HETATM   15  H1  UNL     1     -13.094  11.737  69.442  1.00  0.00     0.000 HD 
ENDBRANCH   6  12
BRANCH  11  16
HETATM   16  C   UNL     1      -7.412   8.227  64.875  1.00  0.00    -0.092 C  
HETATM   17  O   UNL     1      -7.851   7.391  64.099  1.00  0.00    -0.122 OA 
BRANCH  16  18
HETATM   18  O   UNL     1      -6.100   8.606  64.907  1.00  0.00    -0.059 OA 
BRANCH  18  19
HETATM   19  C   UNL     1      -5.181   7.513  65.182  1.00  0.00    -0.029 C  
HETATM   20  C   UNL     1      -5.180   7.211  66.678  1.00  0.00    -0.022 C  
HETATM   21  C   UNL     1      -5.580   6.268  64.396  1.00  0.00    -0.022 C  
ENDBRANCH  18  19
ENDBRANCH  16  18
ENDBRANCH  11  16
BRANCH   8  22
HETATM   22  C   UNL     1      -8.815   6.813  67.220  1.00  0.00    -0.118 A  
HETATM   23  C   UNL     1      -8.054   5.915  67.999  1.00  0.00    -0.105 A  
HETATM   24  C   UNL     1      -9.826   6.283  66.399  1.00  0.00    -0.128 A  
HETATM   25  C   UNL     1     -10.054   4.901  66.339  1.00  0.00    -0.286 A  
HETATM   26  C   UNL     1      -8.264   4.527  67.904  1.00  0.00    -0.095 A  
HETATM   27  O   UNL     1      -6.511   4.098  69.365  1.00  0.00    -0.031 OA 
HETATM   28  N   UNL     1      -7.386   3.603  68.640  1.00  0.00    -0.053 N  
HETATM   29  C   UNL     1      -9.269   4.017  67.080  1.00  0.00    -0.186 A  
HETATM   30  O   UNL     1      -7.564   2.385  68.479  1.00  0.00    -0.050 OA 
ENDBRANCH   8  22
ENDBRANCH   3   5
ENDBRANCH   2   3
TORSDOF 7
ENDMDL
MODEL      185
REMARK 921   NORMALIZED FREE ENERGY PREDICTED BY IDOCK:   -2.40 KCAL/MOL
REMARK 922        TOTAL FREE ENERGY PREDICTED BY IDOCK:   -4.43 KCAL/MOL
REMARK 923 INTER-LIGAND FREE ENERGY PREDICTED BY IDOCK:   -5.13 KCAL/MOL
REMARK 924 INTRA-LIGAND FREE ENERGY PREDICTED BY IDOCK:    0.70 KCAL/MOL
REMARK 927      BINDING AFFINITY PREDICTED BY RF-SCORE:    0.00 PKD
ROOT
HETATM    1  C   UNL     1     -11.463  10.152  69.599  1.00  0.00    -0.198 C  
HETATM    2  O   UNL     1     -10.162  10.698  69.862  1.00  0.00    -0.148 OA 
ENDROOT
BRANCH   2   3
HETATM    3  C   UNL     1      -9.173  10.148  69.113  1.00  0.00    -0.197 C  
HETATM    4  O   UNL     1      -8.224   9.516  69.540  1.00  0.00    -0.110 OA 
BRANCH   3   5
HETATM    5  C   UNL     1      -9.449  10.399  67.673  1.00  0.00    -0.165 C  
HETATM    6  C   UNL     1      -9.459   9.374  66.781  1.00  0.00    -0.165 C  
HETATM    7  N   UNL     1      -9.718   9.598  65.452  1.00  0.00    -0.310 NA 
HETATM    8  C   UNL     1      -9.681  11.854  67.233  1.00  0.00    -0.191 C  
HETATM    9  C   UNL     1      -9.897  10.872  64.918  1.00  0.00    -0.284 C  
HETATM   10  C   UNL     1     -10.136  10.908  63.425  1.00  0.00    -0.398 C  
HETATM   11  C   UNL     1      -9.867  11.982  65.712  1.00  0.00    -0.263 C  
BRANCH   6  12
HETATM   12  C   UNL     1      -8.991   7.994  67.211  1.00  0.00    -0.138 C  
HETATM   13  N   UNL     1      -8.602   6.848  67.567  1.00  0.00    -0.121 NA 
HETATM   14  H2  UNL     1      -8.336   6.914  66.584  1.00  0.00     0.000 HD 
HETATM   15  H1  UNL     1      -8.288   5.921  67.856  1.00  0.00     0.000 HD 
ENDBRANCH   6  12
BRANCH  11  16
HETATM   16  C   UNL     1      -9.960  13.334  65.077  1.00  0.00    -0.145 C  
HETATM   17  O   UNL     1      -9.170  14.233  65.326  1.00  0.00     0.393 OA 
BRANCH  16  18
HETATM   18  O   UNL     1     -10.998  13.467  64.199  1.00  0.00    -0.367 OA 
BRANCH  18  19
HETATM   19  C   UNL     1     -11.999  14.435  64.618  1.00  0.00    -0.464 C  
HETATM   20  C   UNL     1     -12.544  14.044  65.989  1.00  0.00    -0.452 C  
HETATM   21  C   UNL     1     -11.400  15.836  64.672  1.00  0.00    -0.343 C  
ENDBRANCH  18  19
ENDBRANCH  16  18
ENDBRANCH  11  16
BRANCH   8  22
HETATM   22  C   UNL     1      -8.596  12.806  67.784  1.00  0.00    -0.184 A  
HETATM   23  C   UNL     1      -8.982  14.009  68.414  1.00  0.00    -0.189 A  
HETATM   24  C   UNL     1      -7.222  12.537  67.659  1.00  0.00    -0.136 A  
HETATM   25  C   UNL     1      -6.264  13.449  68.124  1.00  0.00    -0.111 A  
HETATM   26  C   UNL     1      -8.015  14.936  68.843  1.00  0.00    -0.163 A  
HETATM   27  O   UNL     1      -9.656  16.438  69.505  1.00  0.00    -0.184 OA 
HETATM   28  N   UNL     1      -8.439  16.233  69.395  1.00  0.00    -0.133 N  
HETATM   29  C   UNL     1      -6.654  14.655  68.706  1.00  0.00    -0.090 A  
HETATM   30  O   UNL     1      -7.555  17.048  69.703  1.00  0.00     0.124 OA 
ENDBRANCH   8  22
ENDBRANCH   3   5
ENDBRANCH   2   3
TORSDOF 7
ENDMDL
MODEL      186
REMARK 921   NORMALIZED FREE ENERGY PREDICTED BY IDOCK:   -2.28 KCAL/MOL
REMARK 922        TOTAL FREE ENERGY PREDICTED BY IDOCK:   -4.26 KCAL/MOL
REMARK 923 INTER-LIGAND FREE ENERGY PREDICTED BY IDOCK:   -4.23 KCAL/MOL
REMARK 924 INTRA-LIGAND FREE ENERGY PREDICTED BY IDOCK:   -0.03 KCAL/MOL
REMARK 927      BINDING AFFINITY PREDICTED BY RF-SCORE:    0.00 PKD
ROOT
HETATM    1  C   UNL     1      -6.187   9.317  62.644  1.00  0.00    -0.093 C  
HETATM    2  O   UNL     1      -6.551   9.713  63.974  1.00  0.00    -0.101 OA 
ENDROOT
BRANCH   2   3
HETATM    3  C   UNL     1      -7.838   9.428  64.301  1.00  0.00    -0.124 C  
HETATM    4  O   UNL     1      -8.827   9.840  63.723  1.00  0.00    -0.205 OA 
BRANCH   3   5
HETATM    5  C   UNL     1      -7.855   8.492  65.456  1.00  0.00    -0.104 C  
HETATM    6  C   UNL     1      -7.931   7.150  65.259  1.00  0.00    -0.127 C  
HETATM    7  N   UNL     1      -7.943   6.280  66.321  1.00  0.00    -0.107 NA 
HETATM    8  C   UNL     1      -7.826   9.100  66.869  1.00  0.00    -0.098 C  
HETATM    9  C   UNL     1      -7.968   6.704  67.648  1.00  0.00    -0.115 C  
HETATM   10  C   UNL     1      -8.015   5.590  68.670  1.00  0.00    -0.092 C  
HETATM   11  C   UNL     1      -7.938   8.030  67.968  1.00  0.00    -0.128 C  
BRANCH   6  12
HETATM   12  C   UNL     1      -8.199   6.605  63.866  1.00  0.00     0.071 C  
HETATM   13  N   UNL     1      -8.422   6.153  62.710  1.00  0.00    -0.320 NA 
HETATM   14  H2  UNL     1      -7.787   6.938  62.560  1.00  0.00     0.000 HD 
HETATM   15  H1  UNL     1      -8.602   5.787  61.775  1.00  0.00     0.000 HD 
ENDBRANCH   6  12
BRANCH  11  16
HETATM   16  C   UNL     1      -8.072   8.437  69.401  1.00  0.00    -0.114 C  
HETATM   17  O   UNL     1      -7.116   8.789  70.078  1.00  0.00    -0.044 OA 
BRANCH  16  18
HETATM   18  O   UNL     1      -9.351   8.383  69.879  1.00  0.00    -0.154 OA 
BRANCH  18  19
HETATM   19  C   UNL     1      -9.469   7.715  71.164  1.00  0.00    -0.154 C  
HETATM   20  C   UNL     1     -10.320   6.457  71.009  1.00  0.00    -0.247 C  
HETATM   21  C   UNL     1      -8.091   7.352  71.708  1.00  0.00    -0.105 C  
ENDBRANCH  18  19
ENDBRANCH  16  18
ENDBRANCH  11  16
BRANCH   8  22
HETATM   22  C   UNL     1      -8.862  10.235  67.033  1.00  0.00    -0.143 A  
HETATM   23  C   UNL     1      -8.420  11.538  67.350  1.00  0.00    -0.147 A  
HETATM   24  C   UNL     1     -10.244  10.018  66.907  1.00  0.00    -0.299 A  
HETATM   25  C   UNL     1     -11.159  11.060  67.115  1.00  0.00    -0.333 A  
HETATM   26  C   UNL     1      -9.345  12.569  67.594  1.00  0.00    -0.189 A  
HETATM   27  O   UNL     1      -7.644  14.057  68.124  1.00  0.00    -0.116 OA 
HETATM   28  N   UNL     1      -8.869  13.891  68.033  1.00  0.00    -0.175 N  
HETATM   29  C   UNL     1     -10.717  12.335  67.470  1.00  0.00    -0.255 A  
HETATM   30  O   UNL     1      -9.721  14.754  68.299  1.00  0.00    -0.207 OA 
ENDBRANCH   8  22
ENDBRANCH   3   5
ENDBRANCH   2   3
TORSDOF 7
ENDMDL
MODEL      187
REMARK 921   NORMALIZED FREE ENERGY PREDICTED BY IDOCK:   -2.27 KCAL/MOL
REMARK 922        TOTAL FREE ENERGY PREDICTED BY IDOCK:   -4.25 KCAL/MOL
REMARK 923 INTER-LIGAND FREE ENERGY PREDICTED BY IDOCK:   -4.24 KCAL/MOL
REMARK 924 INTRA-LIGAND FREE ENERGY PREDICTED BY IDOCK:   -0.01 KCAL/MOL
REMARK 927      BINDING AFFINITY PREDICTED BY RF-SCORE:    0.00 PKD
ROOT
HETATM    1  C   UNL     1      -6.874   9.219  65.070  1.00  0.00    -0.086 C  
HETATM    2  O   UNL     1      -7.606   9.430  66.287  1.00  0.00    -0.095 OA 
ENDROOT
BRANCH   2   3
HETATM    3  C   UNL     1      -8.913   9.071  66.212  1.00  0.00    -0.162 C  
HETATM    4  O   UNL     1      -9.499   8.725  65.203  1.00  0.00     0.001 OA 
BRANCH   3   5
HETATM    5  C   UNL     1      -9.515   9.125  67.570  1.00  0.00    -0.169 C  
HETATM    6  C   UNL     1      -9.564  10.294  68.260  1.00  0.00    -0.142 C  
HETATM    7  N   UNL     1     -10.123  10.352  69.513  1.00  0.00    -0.233 NA 
HETATM    8  C   UNL     1     -10.039   7.810  68.173  1.00  0.00    -0.220 C  
HETATM    9  C   UNL     1     -10.590   9.226  70.188  1.00  0.00    -0.231 C  
HETATM   10  C   UNL     1     -11.137   9.496  71.572  1.00  0.00    -0.406 C  
HETATM   11  C   UNL     1     -10.554   7.990  69.610  1.00  0.00    -0.223 C  
BRANCH   6  12
HETATM   12  C   UNL     1      -8.825  11.513  67.734  1.00  0.00    -0.153 C  
HETATM   13  N   UNL     1      -8.212  12.526  67.299  1.00  0.00    -0.179 NA 
HETATM   14  H2  UNL     1      -8.562  12.813  68.213  1.00  0.00     0.000 HD 
HETATM   15  H1  UNL     1      -7.715  13.344  66.946  1.00  0.00     0.000 HD 
ENDBRANCH   6  12
BRANCH  11  16
HETATM   16  C   UNL     1     -10.969   6.798  70.414  1.00  0.00    -0.283 C  
HETATM   17  O   UNL     1     -12.044   6.239  70.255  1.00  0.00    -0.180 OA 
BRANCH  16  18
HETATM   18  O   UNL     1     -10.041   6.394  71.331  1.00  0.00    -0.188 OA 
BRANCH  18  19
HETATM   19  C   UNL     1     -10.399   5.167  72.026  1.00  0.00    -0.214 C  
HETATM   20  C   UNL     1      -9.160   4.581  72.698  1.00  0.00    -0.137 C  
HETATM   21  C   UNL     1     -11.482   5.437  73.065  1.00  0.00    -0.324 C  
ENDBRANCH  18  19
ENDBRANCH  16  18
ENDBRANCH  11  16
BRANCH   8  22
HETATM   22  C   UNL     1      -9.010   6.664  68.046  1.00  0.00    -0.117 A  
HETATM   23  C   UNL     1      -8.099   6.429  69.097  1.00  0.00    -0.111 A  
HETATM   24  C   UNL     1      -8.922   5.853  66.901  1.00  0.00    -0.115 A  
HETATM   25  C   UNL     1      -7.942   4.856  66.798  1.00  0.00    -0.103 A  
HETATM   26  C   UNL     1      -7.094   5.453  68.971  1.00  0.00    -0.057 A  
HETATM   27  O   UNL     1      -6.194   6.019  71.034  1.00  0.00    -0.036 OA 
HETATM   28  N   UNL     1      -6.085   5.299  70.031  1.00  0.00    -0.018 N  
HETATM   29  C   UNL     1      -7.017   4.659  67.824  1.00  0.00    -0.060 A  
HETATM   30  O   UNL     1      -5.178   4.471  69.852  1.00  0.00     0.000 OA 
ENDBRANCH   8  22
ENDBRANCH   3   5
ENDBRANCH   2   3
TORSDOF 7
ENDMDL
MODEL      188
REMARK 921   NORMALIZED FREE ENERGY PREDICTED BY IDOCK:   -2.26 KCAL/MOL
REMARK 922        TOTAL FREE ENERGY PREDICTED BY IDOCK:   -4.24 KCAL/MOL
REMARK 923 INTER-LIGAND FREE ENERGY PREDICTED BY IDOCK:   -3.72 KCAL/MOL
REMARK 924 INTRA-LIGAND FREE ENERGY PREDICTED BY IDOCK:   -0.52 KCAL/MOL
REMARK 927      BINDING AFFINITY PREDICTED BY RF-SCORE:    0.00 PKD
ROOT
HETATM    1  C   UNL     1     -11.284   6.562  68.659  1.00  0.00    -0.216 C  
HETATM    2  O   UNL     1     -10.452   7.151  67.649  1.00  0.00    -0.196 OA 
ENDROOT
BRANCH   2   3
HETATM    3  C   UNL     1      -9.287   7.662  68.124  1.00  0.00    -0.144 C  
HETATM    4  O   UNL     1      -8.391   8.136  67.451  1.00  0.00    -0.120 OA 
BRANCH   3   5
HETATM    5  C   UNL     1      -9.290   7.593  69.610  1.00  0.00    -0.156 C  
HETATM    6  C   UNL     1      -9.558   8.698  70.353  1.00  0.00    -0.173 C  
HETATM    7  N   UNL     1      -9.568   8.640  71.725  1.00  0.00    -0.264 NA 
HETATM    8  C   UNL     1      -8.942   6.245  70.263  1.00  0.00    -0.154 C  
HETATM    9  C   UNL     1      -9.224   7.493  72.438  1.00  0.00    -0.147 C  
HETATM   10  C   UNL     1      -9.262   7.645  73.943  1.00  0.00    -0.303 C  
HETATM   11  C   UNL     1      -8.895   6.334  71.798  1.00  0.00    -0.137 C  
BRANCH   6  12
HETATM   12  C   UNL     1      -9.660  10.056  69.680  1.00  0.00    -0.226 C  
HETATM   13  N   UNL     1      -9.745  11.183  69.120  1.00  0.00    -0.407 NA 
HETATM   14  H2  UNL     1     -10.047  10.520  68.406  1.00  0.00     0.000 HD 
HETATM   15  H1  UNL     1      -9.814  12.095  68.668  1.00  0.00     0.000 HD 
ENDBRANCH   6  12
BRANCH  11  16
HETATM   16  C   UNL     1      -8.432   5.163  72.605  1.00  0.00    -0.117 C  
HETATM   17  O   UNL     1      -7.295   5.078  73.048  1.00  0.00    -0.083 OA 
BRANCH  16  18
HETATM   18  O   UNL     1      -9.388   4.208  72.802  1.00  0.00    -0.117 OA 
BRANCH  18  19
HETATM   19  C   UNL     1      -8.976   2.873  72.399  1.00  0.00    -0.082 C  
HETATM   20  C   UNL     1      -9.515   1.850  73.395  1.00  0.00    -0.092 C  
HETATM   21  C   UNL     1      -9.484   2.557  70.996  1.00  0.00    -0.222 C  
ENDBRANCH  18  19
ENDBRANCH  16  18
ENDBRANCH  11  16
BRANCH   8  22
HETATM   22  C   UNL     1      -7.661   5.623  69.662  1.00  0.00    -0.083 A  
HETATM   23  C   UNL     1      -7.752   4.427  68.918  1.00  0.00    -0.066 A  
HETATM   24  C   UNL     1      -6.388   6.189  69.849  1.00  0.00    -0.035 A  
HETATM   25  C   UNL     1      -5.241   5.569  69.334  1.00  0.00    -0.004 A  
HETATM   26  C   UNL     1      -6.594   3.792  68.437  1.00  0.00    -0.045 A  
HETATM   27  O   UNL     1      -7.836   2.019  67.599  1.00  0.00    -0.059 OA 
HETATM   28  N   UNL     1      -6.701   2.488  67.762  1.00  0.00    -0.039 N  
HETATM   29  C   UNL     1      -5.336   4.364  68.637  1.00  0.00    -0.011 A  
HETATM   30  O   UNL     1      -5.649   1.931  67.409  1.00  0.00    -0.017 OA 
ENDBRANCH   8  22
ENDBRANCH   3   5
ENDBRANCH   2   3
TORSDOF 7
ENDMDL
MODEL      189
REMARK 921   NORMALIZED FREE ENERGY PREDICTED BY IDOCK:   -2.03 KCAL/MOL
REMARK 922        TOTAL FREE ENERGY PREDICTED BY IDOCK:   -3.91 KCAL/MOL
REMARK 923 INTER-LIGAND FREE ENERGY PREDICTED BY IDOCK:   -3.88 KCAL/MOL
REMARK 924 INTRA-LIGAND FREE ENERGY PREDICTED BY IDOCK:   -0.03 KCAL/MOL
REMARK 927      BINDING AFFINITY PREDICTED BY RF-SCORE:    0.00 PKD
ROOT
HETATM    1  C   UNL     1     -12.279   7.425  71.684  1.00  0.00    -0.330 C  
HETATM    2  O   UNL     1     -11.367   6.955  70.681  1.00  0.00    -0.283 OA 
ENDROOT
BRANCH   2   3
HETATM    3  C   UNL     1     -10.483   7.893  70.257  1.00  0.00    -0.225 C  
HETATM    4  O   UNL     1     -10.552   9.088  70.481  1.00  0.00    -0.203 OA 
BRANCH   3   5
HETATM    5  C   UNL     1      -9.384   7.230  69.506  1.00  0.00    -0.152 C  
HETATM    6  C   UNL     1      -8.668   6.224  70.073  1.00  0.00    -0.141 C  
HETATM    7  N   UNL     1      -7.655   5.604  69.383  1.00  0.00    -0.081 NA 
HETATM    8  C   UNL     1      -9.068   7.750  68.094  1.00  0.00    -0.129 C  
HETATM    9  C   UNL     1      -7.239   6.011  68.117  1.00  0.00    -0.080 C  
HETATM   10  C   UNL     1      -6.084   5.221  67.543  1.00  0.00    -0.030 C  
HETATM   11  C   UNL     1      -7.858   7.039  67.466  1.00  0.00    -0.112 C  
BRANCH   6  12
HETATM   12  C   UNL     1      -8.850   5.903  71.546  1.00  0.00    -0.136 C  
HETATM   13  N   UNL     1      -9.001   5.637  72.770  1.00  0.00    -0.125 NA 
HETATM   14  H2  UNL     1      -8.012   5.869  72.679  1.00  0.00     0.000 HD 
HETATM   15  H1  UNL     1      -9.123   5.422  73.760  1.00  0.00     0.000 HD 
ENDBRANCH   6  12
BRANCH  11  16
HETATM   16  C   UNL     1      -7.308   7.506  66.156  1.00  0.00    -0.082 C  
HETATM   17  O   UNL     1      -6.113   7.478  65.896  1.00  0.00    -0.037 OA 
BRANCH  16  18
HETATM   18  O   UNL     1      -8.256   7.957  65.282  1.00  0.00    -0.135 OA 
BRANCH  18  19
HETATM   19  C   UNL     1      -7.743   8.891  64.292  1.00  0.00    -0.122 C  
HETATM   20  C   UNL     1      -8.875   9.321  63.362  1.00  0.00    -0.150 C  
HETATM   21  C   UNL     1      -7.132  10.111  64.973  1.00  0.00    -0.135 C  
ENDBRANCH  18  19
ENDBRANCH  16  18
ENDBRANCH  11  16
BRANCH   8  22
HETATM   22  C   UNL     1      -8.941   9.289  68.058  1.00  0.00    -0.128 A  
HETATM   23  C   UNL     1      -7.865   9.914  68.725  1.00  0.00    -0.091 A  
HETATM   24  C   UNL     1      -9.877  10.108  67.404  1.00  0.00    -0.225 A  
HETATM   25  C   UNL     1      -9.759  11.505  67.437  1.00  0.00    -0.191 A  
HETATM   26  C   UNL     1      -7.775  11.316  68.785  1.00  0.00    -0.138 A  
HETATM   27  O   UNL     1      -5.890  11.201  70.135  1.00  0.00    -0.092 OA 
HETATM   28  N   UNL     1      -6.709  11.947  69.580  1.00  0.00    -0.092 N  
HETATM   29  C   UNL     1      -8.717  12.115  68.135  1.00  0.00    -0.185 A  
HETATM   30  O   UNL     1      -6.702  13.186  69.659  1.00  0.00    -0.045 OA 
ENDBRANCH   8  22
ENDBRANCH   3   5
ENDBRANCH   2   3
TORSDOF 7
ENDMDL
MODEL      190
REMARK 921   NORMALIZED FREE ENERGY PREDICTED BY IDOCK:   -2.01 KCAL/MOL
REMARK 922        TOTAL FREE ENERGY PREDICTED BY IDOCK:   -3.88 KCAL/MOL
REMARK 923 INTER-LIGAND FREE ENERGY PREDICTED BY IDOCK:   -3.93 KCAL/MOL
REMARK 924 INTRA-LIGAND FREE ENERGY PREDICTED BY IDOCK:    0.05 KCAL/MOL
REMARK 927      BINDING AFFINITY PREDICTED BY RF-SCORE:    0.00 PKD
ROOT
HETATM    1  C   UNL     1     -12.125  12.489  70.563  1.00  0.00    -0.274 C  
HETATM    2  O   UNL     1     -11.206  11.547  69.991  1.00  0.00    -0.186 OA 
ENDROOT
BRANCH   2   3
HETATM    3  C   UNL     1     -11.806  10.542  69.303  1.00  0.00    -0.170 C  
HETATM    4  O   UNL     1     -12.977  10.505  68.974  1.00  0.00     0.358 OA 
BRANCH   3   5
HETATM    5  C   UNL     1     -10.795   9.503  68.970  1.00  0.00    -0.184 C  
HETATM    6  C   UNL     1     -10.568   8.464  69.814  1.00  0.00    -0.221 C  
HETATM    7  N   UNL     1      -9.640   7.498  69.511  1.00  0.00    -0.156 NA 
HETATM    8  C   UNL     1      -9.998   9.673  67.666  1.00  0.00    -0.218 C  
HETATM    9  C   UNL     1      -8.820   7.560  68.386  1.00  0.00    -0.126 C  
HETATM   10  C   UNL     1      -7.839   6.417  68.251  1.00  0.00    -0.105 C  
HETATM   11  C   UNL     1      -8.929   8.581  67.488  1.00  0.00    -0.142 C  
BRANCH   6  12
HETATM   12  C   UNL     1     -11.199   8.460  71.197  1.00  0.00    -0.263 C  
HETATM   13  N   UNL     1     -11.723   8.458  72.344  1.00  0.00    -0.386 NA 
HETATM   14  H2  UNL     1     -11.407   9.419  72.209  1.00  0.00     0.000 HD 
HETATM   15  H1  UNL     1     -12.147   8.456  73.272  1.00  0.00     0.000 HD 
ENDBRANCH   6  12
BRANCH  11  16
HETATM   16  C   UNL     1      -7.957   8.660  66.353  1.00  0.00    -0.099 C  
HETATM   17  O   UNL     1      -8.307   8.609  65.182  1.00  0.00    -0.150 OA 
BRANCH  16  18
HETATM   18  O   UNL     1      -6.655   8.797  66.743  1.00  0.00    -0.059 OA 
BRANCH  18  19
HETATM   19  C   UNL     1      -5.807   9.424  65.742  1.00  0.00    -0.054 C  
HETATM   20  C   UNL     1      -6.040   8.759  64.388  1.00  0.00    -0.066 C  
HETATM   21  C   UNL     1      -6.101  10.917  65.650  1.00  0.00    -0.040 C  
ENDBRANCH  18  19
ENDBRANCH  16  18
ENDBRANCH  11  16
BRANCH   8  22
HETATM   22  C   UNL     1      -9.424  11.100  67.519  1.00  0.00    -0.178 A  
HETATM   23  C   UNL     1      -8.367  11.514  68.358  1.00  0.00    -0.154 A  
HETATM   24  C   UNL     1      -9.934  12.026  66.593  1.00  0.00    -0.219 A  
HETATM   25  C   UNL     1      -9.424  13.330  66.523  1.00  0.00    -0.251 A  
HETATM   26  C   UNL     1      -7.887  12.835  68.308  1.00  0.00    -0.141 A  
HETATM   27  O   UNL     1      -6.422  12.437  70.064  1.00  0.00    -0.063 OA 
HETATM   28  N   UNL     1      -6.862  13.278  69.267  1.00  0.00    -0.074 N  
HETATM   29  C   UNL     1      -8.409  13.745  67.386  1.00  0.00    -0.201 A  
HETATM   30  O   UNL     1      -6.512  14.469  69.231  1.00  0.00    -0.107 OA 
ENDBRANCH   8  22
ENDBRANCH   3   5
ENDBRANCH   2   3
TORSDOF 7
ENDMDL
MODEL      191
REMARK 921   NORMALIZED FREE ENERGY PREDICTED BY IDOCK:   -1.92 KCAL/MOL
REMARK 922        TOTAL FREE ENERGY PREDICTED BY IDOCK:   -3.76 KCAL/MOL
REMARK 923 INTER-LIGAND FREE ENERGY PREDICTED BY IDOCK:   -2.91 KCAL/MOL
REMARK 924 INTRA-LIGAND FREE ENERGY PREDICTED BY IDOCK:   -0.86 KCAL/MOL
REMARK 927      BINDING AFFINITY PREDICTED BY RF-SCORE:    0.00 PKD
ROOT
HETATM    1  C   UNL     1      -9.529   1.595  68.555  1.00  0.00    -0.177 C  
HETATM    2  O   UNL     1      -9.293   2.966  68.202  1.00  0.00    -0.191 OA 
ENDROOT
BRANCH   2   3
HETATM    3  C   UNL     1      -7.980   3.285  68.078  1.00  0.00    -0.070 C  
HETATM    4  O   UNL     1      -7.042   2.566  68.371  1.00  0.00    -0.047 OA 
BRANCH   3   5
HETATM    5  C   UNL     1      -7.857   4.643  67.483  1.00  0.00    -0.090 C  
HETATM    6  C   UNL     1      -7.196   4.828  66.311  1.00  0.00    -0.077 C  
HETATM    7  N   UNL     1      -7.083   6.078  65.754  1.00  0.00    -0.071 NA 
HETATM    8  C   UNL     1      -8.468   5.821  68.260  1.00  0.00    -0.113 C  
HETATM    9  C   UNL     1      -7.551   7.232  66.380  1.00  0.00    -0.092 C  
HETATM   10  C   UNL     1      -7.298   8.514  65.619  1.00  0.00    -0.084 C  
HETATM   11  C   UNL     1      -8.195   7.173  67.581  1.00  0.00    -0.114 C  
BRANCH   6  12
HETATM   12  C   UNL     1      -6.405   3.683  65.701  1.00  0.00    -0.032 C  
HETATM   13  N   UNL     1      -5.748   2.733  65.194  1.00  0.00    -0.017 NA 
HETATM   14  H2  UNL     1      -5.043   3.324  65.636  1.00  0.00     0.000 HD 
HETATM   15  H1  UNL     1      -5.217   1.964  64.784  1.00  0.00     0.000 HD 
ENDBRANCH   6  12
BRANCH  11  16
HETATM   16  C   UNL     1      -8.584   8.448  68.262  1.00  0.00    -0.139 C  
HETATM   17  O   UNL     1      -7.762   9.278  68.623  1.00  0.00    -0.083 OA 
BRANCH  16  18
HETATM   18  O   UNL     1      -9.930   8.599  68.435  1.00  0.00    -0.172 OA 
BRANCH  18  19
HETATM   19  C   UNL     1     -10.296   9.151  69.730  1.00  0.00    -0.215 C  
HETATM   20  C   UNL     1     -10.174  10.672  69.688  1.00  0.00    -0.156 C  
HETATM   21  C   UNL     1     -11.719   8.749  70.101  1.00  0.00     0.157 C  
ENDBRANCH  18  19
ENDBRANCH  16  18
ENDBRANCH  11  16
BRANCH   8  22
HETATM   22  C   UNL     1      -8.058   5.807  69.750  1.00  0.00    -0.104 A  
HETATM   23  C   UNL     1      -9.053   5.681  70.744  1.00  0.00    -0.164 A  
HETATM   24  C   UNL     1      -6.722   5.945  70.166  1.00  0.00    -0.048 A  
HETATM   25  C   UNL     1      -6.392   5.981  71.528  1.00  0.00    -0.048 A  
HETATM   26  C   UNL     1      -8.718   5.757  72.108  1.00  0.00    -0.133 A  
HETATM   27  O   UNL     1     -10.948   5.602  72.730  1.00  0.00    -0.240 OA 
HETATM   28  N   UNL     1      -9.781   5.737  73.125  1.00  0.00    -0.153 N  
HETATM   29  C   UNL     1      -7.386   5.900  72.504  1.00  0.00    -0.095 A  
HETATM   30  O   UNL     1      -9.448   5.870  74.313  1.00  0.00    -0.137 OA 
ENDBRANCH   8  22
ENDBRANCH   3   5
ENDBRANCH   2   3
TORSDOF 7
ENDMDL
MODEL      192
REMARK 921   NORMALIZED FREE ENERGY PREDICTED BY IDOCK:   -1.78 KCAL/MOL
REMARK 922        TOTAL FREE ENERGY PREDICTED BY IDOCK:   -3.56 KCAL/MOL
REMARK 923 INTER-LIGAND FREE ENERGY PREDICTED BY IDOCK:   -3.62 KCAL/MOL
REMARK 924 INTRA-LIGAND FREE ENERGY PREDICTED BY IDOCK:    0.06 KCAL/MOL
REMARK 927      BINDING AFFINITY PREDICTED BY RF-SCORE:    0.00 PKD
ROOT
HETATM    1  C   UNL     1     -11.461   9.751  71.066  1.00  0.00    -0.383 C  
HETATM    2  O   UNL     1     -10.611  10.607  70.290  1.00  0.00    -0.147 OA 
ENDROOT
BRANCH   2   3
HETATM    3  C   UNL     1     -11.283  11.444  69.459  1.00  0.00    -0.256 C  
HETATM    4  O   UNL     1     -12.318  11.186  68.873  1.00  0.00    -0.512 OA 
BRANCH   3   5
HETATM    5  C   UNL     1     -10.580  12.754  69.407  1.00  0.00     0.241 C  
HETATM    6  C   UNL     1     -11.068  13.829  70.078  1.00  0.00     0.187 C  
HETATM    7  N   UNL     1     -10.421  15.039  70.037  1.00  0.00    -0.167 NA 
HETATM    8  C   UNL     1      -9.314  12.851  68.539  1.00  0.00    -0.075 C  
HETATM    9  C   UNL     1      -9.293  15.271  69.252  1.00  0.00    -0.239 C  
HETATM   10  C   UNL     1      -8.751  16.681  69.319  1.00  0.00    -0.025 C  
HETATM   11  C   UNL     1      -8.738  14.276  68.502  1.00  0.00    -0.175 C  
BRANCH   6  12
HETATM   12  C   UNL     1     -12.442  13.757  70.724  1.00  0.00    -0.370 C  
HETATM   13  N   UNL     1     -13.581  13.698  71.260  1.00  0.00    -0.139 NA 
HETATM   14  H2  UNL     1     -13.293  14.669  71.380  1.00  0.00     0.000 HD 
HETATM   15  H1  UNL     1     -14.504  13.650  71.694  1.00  0.00     0.000 HD 
ENDBRANCH   6  12
BRANCH  11  16
HETATM   16  C   UNL     1      -7.592  14.600  67.596  1.00  0.00    -0.180 C  
HETATM   17  O   UNL     1      -7.650  14.451  66.384  1.00  0.00     0.808 OA 
BRANCH  16  18
HETATM   18  O   UNL     1      -6.488  15.079  68.243  1.00  0.00    -0.098 OA 
BRANCH  18  19
HETATM   19  C   UNL     1      -5.696  14.046  68.891  1.00  0.00    -0.082 C  
HETATM   20  C   UNL     1      -6.154  13.886  70.339  1.00  0.00    -0.143 C  
HETATM   21  C   UNL     1      -5.832  12.721  68.149  1.00  0.00    -0.083 C  
ENDBRANCH  18  19
ENDBRANCH  16  18
ENDBRANCH  11  16
BRANCH   8  22
HETATM   22  C   UNL     1      -9.531  12.258  67.128  1.00  0.00    -0.196 A  
HETATM   23  C   UNL     1      -8.585  11.353  66.601  1.00  0.00    -0.170 A  
HETATM   24  C   UNL     1     -10.630  12.608  66.325  1.00  0.00    -0.274 A  
HETATM   25  C   UNL     1     -10.768  12.091  65.029  1.00  0.00    -0.341 A  
HETATM   26  C   UNL     1      -8.711  10.869  65.286  1.00  0.00    -0.139 A  
HETATM   27  O   UNL     1      -6.705   9.713  65.452  1.00  0.00    -0.081 OA 
HETATM   28  N   UNL     1      -7.656  10.015  64.717  1.00  0.00    -0.140 N  
HETATM   29  C   UNL     1      -9.806  11.231  64.499  1.00  0.00    -0.317 A  
HETATM   30  O   UNL     1      -7.773   9.662  63.533  1.00  0.00    -0.119 OA 
ENDBRANCH   8  22
ENDBRANCH   3   5
ENDBRANCH   2   3
TORSDOF 7
ENDMDL
MODEL      193
REMARK 921   NORMALIZED FREE ENERGY PREDICTED BY IDOCK:   -1.74 KCAL/MOL
REMARK 922        TOTAL FREE ENERGY PREDICTED BY IDOCK:   -3.50 KCAL/MOL
REMARK 923 INTER-LIGAND FREE ENERGY PREDICTED BY IDOCK:   -3.08 KCAL/MOL
REMARK 924 INTRA-LIGAND FREE ENERGY PREDICTED BY IDOCK:   -0.42 KCAL/MOL
REMARK 927      BINDING AFFINITY PREDICTED BY RF-SCORE:    0.00 PKD
ROOT
HETATM    1  C   UNL     1     -10.705  15.389  70.738  1.00  0.00    -0.162 C  
HETATM    2  O   UNL     1      -9.675  14.547  70.201  1.00  0.00     0.533 OA 
ENDROOT
BRANCH   2   3
HETATM    3  C   UNL     1      -8.967  15.119  69.194  1.00  0.00    -0.219 C  
HETATM    4  O   UNL     1      -7.885  15.665  69.306  1.00  0.00    -0.202 OA 
BRANCH   3   5
HETATM    5  C   UNL     1      -9.700  14.937  67.913  1.00  0.00    -0.206 C  
HETATM    6  C   UNL     1     -10.420  15.957  67.377  1.00  0.00    -0.306 C  
HETATM    7  N   UNL     1     -11.095  15.798  66.192  1.00  0.00    -0.160 NA 
HETATM    8  C   UNL     1      -9.643  13.553  67.246  1.00  0.00    -0.235 C  
HETATM    9  C   UNL     1     -11.162  14.582  65.514  1.00  0.00    -0.335 C  
HETATM   10  C   UNL     1     -11.984  14.607  64.245  1.00  0.00    -0.406 C  
HETATM   11  C   UNL     1     -10.512  13.477  65.980  1.00  0.00    -0.299 C  
BRANCH   6  12
HETATM   12  C   UNL     1     -10.647  17.226  68.181  1.00  0.00    -0.386 C  
HETATM   13  N   UNL     1     -10.836  18.280  68.849  1.00  0.00    -0.087 NA 
HETATM   14  H2  UNL     1     -11.744  17.816  68.841  1.00  0.00     0.000 HD 
HETATM   15  H1  UNL     1     -10.988  19.132  69.389  1.00  0.00     0.000 HD 
ENDBRANCH   6  12
BRANCH  11  16
HETATM   16  C   UNL     1     -10.700  12.171  65.275  1.00  0.00    -0.288 C  
HETATM   17  O   UNL     1     -11.795  11.642  65.150  1.00  0.00    -0.130 OA 
BRANCH  16  18
HETATM   18  O   UNL     1      -9.545  11.631  64.783  1.00  0.00    -0.217 OA 
BRANCH  18  19
HETATM   19  C   UNL     1      -9.623  10.199  64.544  1.00  0.00    -0.311 C  
HETATM   20  C   UNL     1      -8.561   9.793  63.526  1.00  0.00    -0.204 C  
HETATM   21  C   UNL     1      -9.426   9.427  65.844  1.00  0.00    -0.315 C  
ENDBRANCH  18  19
ENDBRANCH  16  18
ENDBRANCH  11  16
BRANCH   8  22
HETATM   22  C   UNL     1      -9.946  12.415  68.248  1.00  0.00    -0.224 A  
HETATM   23  C   UNL     1     -11.261  12.249  68.733  1.00  0.00    -0.312 A  
HETATM   24  C   UNL     1      -8.951  11.544  68.723  1.00  0.00    -0.053 A  
HETATM   25  C   UNL     1      -9.252  10.556  69.672  1.00  0.00     0.008 A  
HETATM   26  C   UNL     1     -11.547  11.281  69.713  1.00  0.00    -0.333 A  
HETATM   27  O   UNL     1     -13.760  11.970  69.841  1.00  0.00     2.525 OA 
HETATM   28  N   UNL     1     -12.899  11.198  70.288  1.00  0.00    -0.135 N  
HETATM   29  C   UNL     1     -10.545  10.427  70.180  1.00  0.00    -0.245 A  
HETATM   30  O   UNL     1     -13.093  10.373  71.195  1.00  0.00    -0.379 OA 
ENDBRANCH   8  22
ENDBRANCH   3   5
ENDBRANCH   2   3
TORSDOF 7
ENDMDL
MODEL      194
REMARK 921   NORMALIZED FREE ENERGY PREDICTED BY IDOCK:   -1.66 KCAL/MOL
REMARK 922        TOTAL FREE ENERGY PREDICTED BY IDOCK:   -3.38 KCAL/MOL
REMARK 923 INTER-LIGAND FREE ENERGY PREDICTED BY IDOCK:   -4.27 KCAL/MOL
REMARK 924 INTRA-LIGAND FREE ENERGY PREDICTED BY IDOCK:    0.89 KCAL/MOL
REMARK 927      BINDING AFFINITY PREDICTED BY RF-SCORE:    0.00 PKD
ROOT
HETATM    1  C   UNL     1     -10.350  17.271  69.258  1.00  0.00    -0.237 C  
HETATM    2  O   UNL     1     -10.864  16.223  70.092  1.00  0.00    -0.334 OA 
ENDROOT
BRANCH   2   3
HETATM    3  C   UNL     1     -12.078  15.757  69.704  1.00  0.00    -0.264 C  
HETATM    4  O   UNL     1     -12.858  16.330  68.965  1.00  0.00     0.708 OA 
BRANCH   3   5
HETATM    5  C   UNL     1     -12.297  14.408  70.290  1.00  0.00    -0.410 C  
HETATM    6  C   UNL     1     -12.501  14.257  71.625  1.00  0.00    -0.339 C  
HETATM    7  N   UNL     1     -12.708  13.015  72.171  1.00  0.00    -0.081 NA 
HETATM    8  C   UNL     1     -12.242  13.199  69.341  1.00  0.00    -0.189 C  
HETATM    9  C   UNL     1     -12.637  11.838  71.429  1.00  0.00    -0.262 C  
HETATM   10  C   UNL     1     -12.860  10.571  72.223  1.00  0.00    -0.087 C  
HETATM   11  C   UNL     1     -12.395  11.862  70.086  1.00  0.00    -0.247 C  
BRANCH   6  12
HETATM   12  C   UNL     1     -12.309  15.442  72.557  1.00  0.00    -0.384 C  
HETATM   13  N   UNL     1     -12.150  16.424  73.331  1.00  0.00    -0.486 NA 
HETATM   14  H2  UNL     1     -11.539  15.700  73.709  1.00  0.00     0.000 HD 
HETATM   15  H1  UNL     1     -12.021  17.220  73.957  1.00  0.00     0.000 HD 
ENDBRANCH   6  12
BRANCH  11  16
HETATM   16  C   UNL     1     -12.224  10.570  69.353  1.00  0.00    -0.023 C  
HETATM   17  O   UNL     1     -12.148  10.509  68.134  1.00  0.00    -0.279 OA 
BRANCH  16  18
HETATM   18  O   UNL     1     -12.157   9.473  70.165  1.00  0.00    -0.026 OA 
BRANCH  18  19
HETATM   19  C   UNL     1     -10.904   8.743  70.061  1.00  0.00    -0.223 C  
HETATM   20  C   UNL     1     -10.758   8.178  68.651  1.00  0.00    -0.065 C  
HETATM   21  C   UNL     1      -9.725   9.655  70.385  1.00  0.00    -0.304 C  
ENDBRANCH  18  19
ENDBRANCH  16  18
ENDBRANCH  11  16
BRANCH   8  22
HETATM   22  C   UNL     1     -10.995  13.234  68.428  1.00  0.00    -0.289 A  
HETATM   23  C   UNL     1     -11.159  13.350  67.031  1.00  0.00    -0.310 A  
HETATM   24  C   UNL     1      -9.688  13.126  68.934  1.00  0.00     0.165 A  
HETATM   25  C   UNL     1      -8.582  13.109  68.072  1.00  0.00    -0.182 A  
HETATM   26  C   UNL     1     -10.048  13.293  66.172  1.00  0.00    -0.293 A  
HETATM   27  O   UNL     1     -11.411  13.411  64.296  1.00  0.00    -0.375 OA 
HETATM   28  N   UNL     1     -10.249  13.303  64.714  1.00  0.00    -0.333 N  
HETATM   29  C   UNL     1      -8.756  13.180  66.690  1.00  0.00    -0.018 A  
HETATM   30  O   UNL     1      -9.247  13.187  63.990  1.00  0.00     0.892 OA 
ENDBRANCH   8  22
ENDBRANCH   3   5
ENDBRANCH   2   3
TORSDOF 7
ENDMDL
MODEL      195
REMARK 921   NORMALIZED FREE ENERGY PREDICTED BY IDOCK:   -1.66 KCAL/MOL
REMARK 922        TOTAL FREE ENERGY PREDICTED BY IDOCK:   -3.38 KCAL/MOL
REMARK 923 INTER-LIGAND FREE ENERGY PREDICTED BY IDOCK:   -3.32 KCAL/MOL
REMARK 924 INTRA-LIGAND FREE ENERGY PREDICTED BY IDOCK:   -0.06 KCAL/MOL
REMARK 927      BINDING AFFINITY PREDICTED BY RF-SCORE:    0.00 PKD
ROOT
HETATM    1  C   UNL     1      -6.846  18.638  68.734  1.00  0.00    -0.278 C  
HETATM    2  O   UNL     1      -7.913  17.740  68.393  1.00  0.00    -0.273 OA 
ENDROOT
BRANCH   2   3
HETATM    3  C   UNL     1      -7.787  17.179  67.163  1.00  0.00    -0.184 C  
HETATM    4  O   UNL     1      -6.824  17.286  66.427  1.00  0.00    -0.224 OA 
BRANCH   3   5
HETATM    5  C   UNL     1      -8.999  16.369  66.867  1.00  0.00    -0.240 C  
HETATM    6  C   UNL     1     -10.240  16.886  67.060  1.00  0.00    -0.297 C  
HETATM    7  N   UNL     1     -11.364  16.146  66.784  1.00  0.00     0.172 NA 
HETATM    8  C   UNL     1      -8.792  14.927  66.375  1.00  0.00    -0.196 C  
HETATM    9  C   UNL     1     -11.313  14.813  66.379  1.00  0.00    -0.339 C  
HETATM   10  C   UNL     1     -12.662  14.165  66.159  1.00  0.00    -0.251 C  
HETATM   11  C   UNL     1     -10.121  14.176  66.191  1.00  0.00    -0.324 C  
BRANCH   6  12
HETATM   12  C   UNL     1     -10.402  18.220  67.769  1.00  0.00    -0.401 C  
HETATM   13  N   UNL     1     -10.537  19.327  68.358  1.00  0.00    -0.421 NA 
HETATM   14  H2  UNL     1     -10.488  19.568  67.367  1.00  0.00     0.000 HD 
HETATM   15  H1  UNL     1     -10.646  20.223  68.834  1.00  0.00     0.000 HD 
ENDBRANCH   6  12
BRANCH  11  16
HETATM   16  C   UNL     1     -10.121  12.717  65.858  1.00  0.00    -0.276 C  
HETATM   17  O   UNL     1      -9.939  12.302  64.723  1.00  0.00    -0.259 OA 
BRANCH  16  18
HETATM   18  O   UNL     1     -10.335  11.900  66.932  1.00  0.00    -0.206 OA 
BRANCH  18  19
HETATM   19  C   UNL     1     -10.161  10.487  66.636  1.00  0.00    -0.222 C  
HETATM   20  C   UNL     1      -8.700  10.098  66.849  1.00  0.00    -0.135 C  
HETATM   21  C   UNL     1     -11.064   9.639  67.526  1.00  0.00    -0.035 C  
ENDBRANCH  18  19
ENDBRANCH  16  18
ENDBRANCH  11  16
BRANCH   8  22
HETATM   22  C   UNL     1      -7.787  14.153  67.257  1.00  0.00    -0.154 A  
HETATM   23  C   UNL     1      -7.612  14.528  68.606  1.00  0.00    -0.131 A  
HETATM   24  C   UNL     1      -7.007  13.095  66.760  1.00  0.00     0.980 A  
HETATM   25  C   UNL     1      -6.065  12.449  67.574  1.00  0.00    -0.148 A  
HETATM   26  C   UNL     1      -6.640  13.901  69.406  1.00  0.00    -0.114 A  
HETATM   27  O   UNL     1      -7.106  15.309  71.191  1.00  0.00     1.011 OA 
HETATM   28  N   UNL     1      -6.396  14.383  70.775  1.00  0.00    -0.125 N  
HETATM   29  C   UNL     1      -5.868  12.855  68.894  1.00  0.00    -0.075 A  
HETATM   30  O   UNL     1      -5.485  13.844  71.425  1.00  0.00    -0.177 OA 
ENDBRANCH   8  22
ENDBRANCH   3   5
ENDBRANCH   2   3
TORSDOF 7
ENDMDL
MODEL      196
REMARK 921   NORMALIZED FREE ENERGY PREDICTED BY IDOCK:   -1.63 KCAL/MOL
REMARK 922        TOTAL FREE ENERGY PREDICTED BY IDOCK:   -3.35 KCAL/MOL
REMARK 923 INTER-LIGAND FREE ENERGY PREDICTED BY IDOCK:   -5.94 KCAL/MOL
REMARK 924 INTRA-LIGAND FREE ENERGY PREDICTED BY IDOCK:    2.59 KCAL/MOL
REMARK 927      BINDING AFFINITY PREDICTED BY RF-SCORE:    0.00 PKD
ROOT
HETATM    1  C   UNL     1     -13.692   7.576  71.699  1.00  0.00    -0.377 C  
HETATM    2  O   UNL     1     -12.695   7.111  70.778  1.00  0.00    -0.260 OA 
ENDROOT
BRANCH   2   3
HETATM    3  C   UNL     1     -11.472   7.668  70.964  1.00  0.00    -0.276 C  
HETATM    4  O   UNL     1     -11.257   8.802  71.352  1.00  0.00    -0.252 OA 
BRANCH   3   5
HETATM    5  C   UNL     1     -10.421   6.660  70.660  1.00  0.00    -0.253 C  
HETATM    6  C   UNL     1      -9.642   6.154  71.650  1.00  0.00    -0.151 C  
HETATM    7  N   UNL     1      -8.673   5.219  71.377  1.00  0.00    -0.128 NA 
HETATM    8  C   UNL     1     -10.228   6.250  69.191  1.00  0.00    -0.229 C  
HETATM    9  C   UNL     1      -8.367   4.799  70.085  1.00  0.00    -0.075 C  
HETATM   10  C   UNL     1      -7.244   3.790  69.993  1.00  0.00    -0.042 C  
HETATM   11  C   UNL     1      -9.056   5.272  69.006  1.00  0.00    -0.141 C  
BRANCH   6  12
HETATM   12  C   UNL     1      -9.701   6.758  73.043  1.00  0.00    -0.162 C  
HETATM   13  N   UNL     1      -9.750   7.259  74.199  1.00  0.00    -0.422 NA 
HETATM   14  H2  UNL     1      -9.912   6.262  74.346  1.00  0.00     0.000 HD 
HETATM   15  H1  UNL     1      -9.789   7.665  75.135  1.00  0.00     0.000 HD 
ENDBRANCH   6  12
BRANCH  11  16
HETATM   16  C   UNL     1      -8.621   4.871  67.632  1.00  0.00    -0.103 C  
HETATM   17  O   UNL     1      -7.468   4.996  67.244  1.00  0.00    -0.081 OA 
BRANCH  16  18
HETATM   18  O   UNL     1      -9.621   4.352  66.859  1.00  0.00    -0.170 OA 
BRANCH  18  19
HETATM   19  C   UNL     1      -9.407   2.966  66.477  1.00  0.00    -0.047 C  
HETATM   20  C   UNL     1      -8.198   2.873  65.550  1.00  0.00    -0.088 C  
HETATM   21  C   UNL     1      -9.189   2.098  67.712  1.00  0.00    -0.217 C  
ENDBRANCH  18  19
ENDBRANCH  16  18
ENDBRANCH  11  16
BRANCH   8  22
HETATM   22  C   UNL     1     -10.137   7.475  68.253  1.00  0.00    -0.209 A  
HETATM   23  C   UNL     1     -10.865   8.644  68.564  1.00  0.00     0.003 A  
HETATM   24  C   UNL     1      -9.371   7.467  67.075  1.00  0.00    -0.186 A  
HETATM   25  C   UNL     1      -9.353   8.579  66.220  1.00  0.00    -0.287 A  
HETATM   26  C   UNL     1     -10.871   9.740  67.683  1.00  0.00    -0.239 A  
HETATM   27  O   UNL     1     -12.379  10.889  69.022  1.00  0.00    -0.464 OA 
HETATM   28  N   UNL     1     -11.725  10.904  67.970  1.00  0.00    -0.221 N  
HETATM   29  C   UNL     1     -10.110   9.714  66.512  1.00  0.00    -0.314 A  
HETATM   30  O   UNL     1     -11.751  11.823  67.135  1.00  0.00    -0.547 OA 
ENDBRANCH   8  22
ENDBRANCH   3   5
ENDBRANCH   2   3
TORSDOF 7
ENDMDL
MODEL      197
REMARK 921   NORMALIZED FREE ENERGY PREDICTED BY IDOCK:   -1.56 KCAL/MOL
REMARK 922        TOTAL FREE ENERGY PREDICTED BY IDOCK:   -3.25 KCAL/MOL
REMARK 923 INTER-LIGAND FREE ENERGY PREDICTED BY IDOCK:   -5.08 KCAL/MOL
REMARK 924 INTRA-LIGAND FREE ENERGY PREDICTED BY IDOCK:    1.82 KCAL/MOL
REMARK 927      BINDING AFFINITY PREDICTED BY RF-SCORE:    0.00 PKD
ROOT
HETATM    1  C   UNL     1      -7.729   9.889  66.557  1.00  0.00    -0.107 C  
HETATM    2  O   UNL     1      -6.564  10.432  67.196  1.00  0.00    -0.070 OA 
ENDROOT
BRANCH   2   3
HETATM    3  C   UNL     1      -6.821  11.043  68.381  1.00  0.00    -0.065 C  
HETATM    4  O   UNL     1      -6.142  11.913  68.895  1.00  0.00    -0.055 OA 
BRANCH   3   5
HETATM    5  C   UNL     1      -8.094  10.515  68.940  1.00  0.00    -0.138 C  
HETATM    6  C   UNL     1      -8.237   9.190  69.203  1.00  0.00    -0.117 C  
HETATM    7  N   UNL     1      -9.408   8.696  69.724  1.00  0.00    -0.163 NA 
HETATM    8  C   UNL     1      -9.242  11.512  69.169  1.00  0.00     0.230 C  
HETATM    9  C   UNL     1     -10.537   9.485  69.933  1.00  0.00    -0.241 C  
HETATM   10  C   UNL     1     -11.737   8.745  70.480  1.00  0.00    -0.115 C  
HETATM   11  C   UNL     1     -10.524  10.823  69.665  1.00  0.00    -0.183 C  
BRANCH   6  12
HETATM   12  C   UNL     1      -7.173   8.208  68.742  1.00  0.00    -0.083 C  
HETATM   13  N   UNL     1      -6.290   7.393  68.359  1.00  0.00    -0.039 NA 
HETATM   14  H2  UNL     1      -6.671   6.977  69.209  1.00  0.00     0.000 HD 
HETATM   15  H1  UNL     1      -5.575   6.734  68.050  1.00  0.00     0.000 HD 
ENDBRANCH   6  12
BRANCH  11  16
HETATM   16  C   UNL     1     -11.791  11.606  69.806  1.00  0.00    -0.357 C  
HETATM   17  O   UNL     1     -12.834  11.274  69.260  1.00  0.00    -0.067 OA 
BRANCH  16  18
HETATM   18  O   UNL     1     -11.678  12.713  70.598  1.00  0.00    -0.079 OA 
BRANCH  18  19
HETATM   19  C   UNL     1     -12.942  13.386  70.849  1.00  0.00    -0.123 C  
HETATM   20  C   UNL     1     -13.592  12.803  72.101  1.00  0.00    -0.547 C  
HETATM   21  C   UNL     1     -12.726  14.886  71.021  1.00  0.00    -0.412 C  
ENDBRANCH  18  19
ENDBRANCH  16  18
ENDBRANCH  11  16
BRANCH   8  22
HETATM   22  C   UNL     1      -9.486  12.409  67.934  1.00  0.00    -0.198 A  
HETATM   23  C   UNL     1      -9.903  11.822  66.720  1.00  0.00    -0.218 A  
HETATM   24  C   UNL     1      -9.280  13.799  67.960  1.00  0.00    -0.195 A  
HETATM   25  C   UNL     1      -9.460  14.575  66.806  1.00  0.00    -0.284 A  
HETATM   26  C   UNL     1     -10.044  12.601  65.558  1.00  0.00    -0.265 A  
HETATM   27  O   UNL     1     -10.558  10.728  64.287  1.00  0.00    -0.350 OA 
HETATM   28  N   UNL     1     -10.371  11.953  64.277  1.00  0.00    -0.297 N  
HETATM   29  C   UNL     1      -9.830  13.981  65.599  1.00  0.00    -0.255 A  
HETATM   30  O   UNL     1     -10.423  12.668  63.264  1.00  0.00    -0.286 OA 
ENDBRANCH   8  22
ENDBRANCH   3   5
ENDBRANCH   2   3
TORSDOF 7
ENDMDL
MODEL      198
REMARK 921   NORMALIZED FREE ENERGY PREDICTED BY IDOCK:   -1.55 KCAL/MOL
REMARK 922        TOTAL FREE ENERGY PREDICTED BY IDOCK:   -3.24 KCAL/MOL
REMARK 923 INTER-LIGAND FREE ENERGY PREDICTED BY IDOCK:   -4.48 KCAL/MOL
REMARK 924 INTRA-LIGAND FREE ENERGY PREDICTED BY IDOCK:    1.24 KCAL/MOL
REMARK 927      BINDING AFFINITY PREDICTED BY RF-SCORE:    0.00 PKD
ROOT
HETATM    1  C   UNL     1      -9.618   1.469  68.253  1.00  0.00    -0.139 C  
HETATM    2  O   UNL     1      -9.578   2.902  68.323  1.00  0.00    -0.184 OA 
ENDROOT
BRANCH   2   3
HETATM    3  C   UNL     1      -9.546   3.511  67.111  1.00  0.00    -0.118 C  
HETATM    4  O   UNL     1      -9.348   2.962  66.043  1.00  0.00    -0.133 OA 
BRANCH   3   5
HETATM    5  C   UNL     1      -9.833   4.960  67.282  1.00  0.00    -0.214 C  
HETATM    6  C   UNL     1      -9.841   5.795  66.210  1.00  0.00    -0.098 C  
HETATM    7  N   UNL     1     -10.110   7.133  66.360  1.00  0.00    -0.061 NA 
HETATM    8  C   UNL     1     -10.079   5.477  68.709  1.00  0.00    -0.256 C  
HETATM    9  C   UNL     1     -10.303   7.734  67.603  1.00  0.00    -0.239 C  
HETATM   10  C   UNL     1     -10.552   9.225  67.556  1.00  0.00    -0.329 C  
HETATM   11  C   UNL     1     -10.276   7.001  68.754  1.00  0.00    -0.181 C  
BRANCH   6  12
HETATM   12  C   UNL     1      -9.360   5.295  64.859  1.00  0.00     0.166 C  
HETATM   13  N   UNL     1      -8.961   4.880  63.736  1.00  0.00    -0.306 NA 
HETATM   14  H2  UNL     1      -9.250   5.844  63.565  1.00  0.00     0.000 HD 
HETATM   15  H1  UNL     1      -8.638   4.544  62.828  1.00  0.00     0.000 HD 
ENDBRANCH   6  12
BRANCH  11  16
HETATM   16  C   UNL     1     -10.383   7.707  70.069  1.00  0.00    -0.223 C  
HETATM   17  O   UNL     1      -9.411   7.931  70.776  1.00  0.00    -0.156 OA 
BRANCH  16  18
HETATM   18  O   UNL     1     -11.654   8.080  70.399  1.00  0.00    -0.203 OA 
BRANCH  18  19
HETATM   19  C   UNL     1     -12.108   7.549  71.675  1.00  0.00    -0.311 C  
HETATM   20  C   UNL     1     -11.593   8.433  72.808  1.00  0.00    -0.244 C  
HETATM   21  C   UNL     1     -13.631   7.478  71.715  1.00  0.00    -0.397 C  
ENDBRANCH  18  19
ENDBRANCH  16  18
ENDBRANCH  11  16
BRANCH   8  22
HETATM   22  C   UNL     1      -8.997   4.986  69.698  1.00  0.00    -0.133 A  
HETATM   23  C   UNL     1      -9.367   4.155  70.777  1.00  0.00    -0.223 A  
HETATM   24  C   UNL     1      -7.646   5.358  69.583  1.00  0.00    -0.070 A  
HETATM   25  C   UNL     1      -6.701   4.936  70.529  1.00  0.00    -0.036 A  
HETATM   26  C   UNL     1      -8.420   3.767  71.742  1.00  0.00    -0.089 A  
HETATM   27  O   UNL     1     -10.043   2.670  72.987  1.00  0.00    -0.115 OA 
HETATM   28  N   UNL     1      -8.848   2.995  72.919  1.00  0.00    -0.083 N  
HETATM   29  C   UNL     1      -7.083   4.151  71.617  1.00  0.00    -0.046 A  
HETATM   30  O   UNL     1      -7.994   2.728  73.779  1.00  0.00    -0.058 OA 
ENDBRANCH   8  22
ENDBRANCH   3   5
ENDBRANCH   2   3
TORSDOF 7
ENDMDL
MODEL      199
REMARK 921   NORMALIZED FREE ENERGY PREDICTED BY IDOCK:   -1.54 KCAL/MOL
REMARK 922        TOTAL FREE ENERGY PREDICTED BY IDOCK:   -3.22 KCAL/MOL
REMARK 923 INTER-LIGAND FREE ENERGY PREDICTED BY IDOCK:   -6.91 KCAL/MOL
REMARK 924 INTRA-LIGAND FREE ENERGY PREDICTED BY IDOCK:    3.69 KCAL/MOL
REMARK 927      BINDING AFFINITY PREDICTED BY RF-SCORE:    0.00 PKD
ROOT
HETATM    1  C   UNL     1     -10.697  16.627  69.846  1.00  0.00    -0.202 C  
HETATM    2  O   UNL     1      -9.789  15.520  69.956  1.00  0.00    -0.283 OA 
ENDROOT
BRANCH   2   3
HETATM    3  C   UNL     1      -8.868  15.463  68.962  1.00  0.00    -0.231 C  
HETATM    4  O   UNL     1      -8.184  16.391  68.570  1.00  0.00    -0.181 OA 
BRANCH   3   5
HETATM    5  C   UNL     1      -8.786  14.070  68.446  1.00  0.00    -0.180 C  
HETATM    6  C   UNL     1      -7.667  13.325  68.640  1.00  0.00    -0.080 C  
HETATM    7  N   UNL     1      -7.588  12.037  68.171  1.00  0.00    -0.111 NA 
HETATM    8  C   UNL     1      -9.991  13.528  67.659  1.00  0.00    -0.229 C  
HETATM    9  C   UNL     1      -8.589  11.445  67.404  1.00  0.00    -0.142 C  
HETATM   10  C   UNL     1      -8.295  10.032  66.955  1.00  0.00    -0.125 C  
HETATM   11  C   UNL     1      -9.742  12.114  67.110  1.00  0.00    -0.203 C  
BRANCH   6  12
HETATM   12  C   UNL     1      -6.416  13.973  69.208  1.00  0.00    -0.114 C  
HETATM   13  N   UNL     1      -5.377  14.511  69.678  1.00  0.00    -0.091 NA 
HETATM   14  H2  UNL     1      -5.280  14.610  68.668  1.00  0.00     0.000 HD 
HETATM   15  H1  UNL     1      -4.537  14.947  70.060  1.00  0.00     0.000 HD 
ENDBRANCH   6  12
BRANCH  11  16
HETATM   16  C   UNL     1     -10.741  11.475  66.197  1.00  0.00    -0.274 C  
HETATM   17  O   UNL     1     -11.947  11.625  66.333  1.00  0.00    -0.433 OA 
BRANCH  16  18
HETATM   18  O   UNL     1     -10.185  10.721  65.202  1.00  0.00    -0.280 OA 
BRANCH  18  19
HETATM   19  C   UNL     1     -10.316  11.309  63.879  1.00  0.00    -0.381 C  
HETATM   20  C   UNL     1      -9.679  10.385  62.845  1.00  0.00    -0.266 C  
HETATM   21  C   UNL     1     -11.784  11.543  63.539  1.00  0.00    -0.248 C  
ENDBRANCH  18  19
ENDBRANCH  16  18
ENDBRANCH  11  16
BRANCH   8  22
HETATM   22  C   UNL     1     -10.465  14.517  66.570  1.00  0.00    -0.285 A  
HETATM   23  C   UNL     1     -10.140  15.885  66.685  1.00  0.00    -0.287 A  
HETATM   24  C   UNL     1     -11.239  14.111  65.470  1.00  0.00    -0.317 A  
HETATM   25  C   UNL     1     -11.696  15.045  64.528  1.00  0.00    -0.372 A  
HETATM   26  C   UNL     1     -10.634  16.820  65.758  1.00  0.00    -0.250 A  
HETATM   27  O   UNL     1      -9.682  18.583  66.930  1.00  0.00    -0.298 OA 
HETATM   28  N   UNL     1     -10.377  18.256  65.958  1.00  0.00    -0.401 N  
HETATM   29  C   UNL     1     -11.408  16.402  64.673  1.00  0.00    -0.166 A  
HETATM   30  O   UNL     1     -10.885  19.052  65.153  1.00  0.00    -0.478 OA 
ENDBRANCH   8  22
ENDBRANCH   3   5
ENDBRANCH   2   3
TORSDOF 7
ENDMDL
MODEL      200
REMARK 921   NORMALIZED FREE ENERGY PREDICTED BY IDOCK:   -1.48 KCAL/MOL
REMARK 922        TOTAL FREE ENERGY PREDICTED BY IDOCK:   -3.14 KCAL/MOL
REMARK 923 INTER-LIGAND FREE ENERGY PREDICTED BY IDOCK:   -5.67 KCAL/MOL
REMARK 924 INTRA-LIGAND FREE ENERGY PREDICTED BY IDOCK:    2.54 KCAL/MOL
REMARK 927      BINDING AFFINITY PREDICTED BY RF-SCORE:    0.00 PKD
ROOT
HETATM    1  C   UNL     1      -9.598  12.896  68.818  1.00  0.00     0.100 C  
HETATM    2  O   UNL     1      -8.955  11.721  68.303  1.00  0.00    -0.171 OA 
ENDROOT
BRANCH   2   3
HETATM    3  C   UNL     1      -9.298  10.578  68.949  1.00  0.00    -0.187 C  
HETATM    4  O   UNL     1     -10.162  10.474  69.801  1.00  0.00    -0.213 OA 
BRANCH   3   5
HETATM    5  C   UNL     1      -8.480   9.453  68.426  1.00  0.00    -0.120 C  
HETATM    6  C   UNL     1      -7.279   9.151  68.985  1.00  0.00    -0.072 C  
HETATM    7  N   UNL     1      -6.521   8.109  68.510  1.00  0.00    -0.053 NA 
HETATM    8  C   UNL     1      -9.022   8.679  67.212  1.00  0.00    -0.145 C  
HETATM    9  C   UNL     1      -6.877   7.362  67.389  1.00  0.00    -0.078 C  
HETATM   10  C   UNL     1      -5.889   6.282  67.006  1.00  0.00    -0.020 C  
HETATM   11  C   UNL     1      -8.041   7.602  66.719  1.00  0.00    -0.115 C  
BRANCH   6  12
HETATM   12  C   UNL     1      -6.672  10.083  70.020  1.00  0.00    -0.112 C  
HETATM   13  N   UNL     1      -6.167  10.856  70.879  1.00  0.00    -0.378 NA 
HETATM   14  H2  UNL     1      -5.868   9.924  71.168  1.00  0.00     0.000 HD 
HETATM   15  H1  UNL     1      -5.758  11.482  71.573  1.00  0.00     0.000 HD 
ENDBRANCH   6  12
BRANCH  11  16
HETATM   16  C   UNL     1      -8.327   6.844  65.462  1.00  0.00    -0.137 C  
HETATM   17  O   UNL     1      -7.868   7.172  64.377  1.00  0.00    -0.112 OA 
BRANCH  16  18
HETATM   18  O   UNL     1      -9.138   5.759  65.637  1.00  0.00    -0.149 OA 
BRANCH  18  19
HETATM   19  C   UNL     1      -9.641   5.616  66.994  1.00  0.00    -0.136 C  
HETATM   20  C   UNL     1     -11.132   5.941  67.023  1.00  0.00    -0.166 C  
HETATM   21  C   UNL     1      -9.402   4.200  67.508  1.00  0.00    -0.204 C  
ENDBRANCH  18  19
ENDBRANCH  16  18
ENDBRANCH  11  16
BRANCH   8  22
HETATM   22  C   UNL     1      -9.488   9.625  66.082  1.00  0.00    -0.274 A  
HETATM   23  C   UNL     1     -10.391  10.669  66.378  1.00  0.00    -0.291 A  
HETATM   24  C   UNL     1      -9.068   9.471  64.750  1.00  0.00    -0.271 A  
HETATM   25  C   UNL     1      -9.552  10.316  63.741  1.00  0.00    -0.344 A  
HETATM   26  C   UNL     1     -10.901  11.487  65.354  1.00  0.00    -0.259 A  
HETATM   27  O   UNL     1     -12.268  12.617  66.851  1.00  0.00    -0.489 OA 
HETATM   28  N   UNL     1     -11.926  12.496  65.666  1.00  0.00    -0.440 N  
HETATM   29  C   UNL     1     -10.478  11.317  64.034  1.00  0.00    -0.440 A  
HETATM   30  O   UNL     1     -12.397  13.154  64.724  1.00  0.00    -0.400 OA 
ENDBRANCH   8  22
ENDBRANCH   3   5
ENDBRANCH   2   3
TORSDOF 7
ENDMDL
MODEL      201
REMARK 921   NORMALIZED FREE ENERGY PREDICTED BY IDOCK:   -1.44 KCAL/MOL
REMARK 922        TOTAL FREE ENERGY PREDICTED BY IDOCK:   -3.08 KCAL/MOL
REMARK 923 INTER-LIGAND FREE ENERGY PREDICTED BY IDOCK:   -3.89 KCAL/MOL
REMARK 924 INTRA-LIGAND FREE ENERGY PREDICTED BY IDOCK:    0.81 KCAL/MOL
REMARK 927      BINDING AFFINITY PREDICTED BY RF-SCORE:    0.00 PKD
ROOT
HETATM    1  C   UNL     1      -5.973  11.953  68.851  1.00  0.00    -0.055 C  
HETATM    2  O   UNL     1      -6.377  10.882  67.985  1.00  0.00    -0.056 OA 
ENDROOT
BRANCH   2   3
HETATM    3  C   UNL     1      -6.832   9.785  68.642  1.00  0.00    -0.051 C  
HETATM    4  O   UNL     1      -6.236   8.731  68.765  1.00  0.00    -0.044 OA 
BRANCH   3   5
HETATM    5  C   UNL     1      -8.164  10.083  69.231  1.00  0.00    -0.147 C  
HETATM    6  C   UNL     1      -8.604   9.407  70.325  1.00  0.00    -0.221 C  
HETATM    7  N   UNL     1      -9.831   9.680  70.877  1.00  0.00    -0.191 NA 
HETATM    8  C   UNL     1      -9.032  11.146  68.537  1.00  0.00    -0.168 C  
HETATM    9  C   UNL     1     -10.730  10.585  70.317  1.00  0.00    -0.100 C  
HETATM   10  C   UNL     1     -12.043  10.717  71.057  1.00  0.00    -0.452 C  
HETATM   11  C   UNL     1     -10.414  11.293  69.193  1.00  0.00    -0.191 C  
BRANCH   6  12
HETATM   12  C   UNL     1      -7.826   8.205  70.834  1.00  0.00    -0.091 C  
HETATM   13  N   UNL     1      -7.180   7.208  71.257  1.00  0.00    -0.073 NA 
HETATM   14  H2  UNL     1      -7.961   6.805  70.737  1.00  0.00     0.000 HD 
HETATM   15  H1  UNL     1      -6.658   6.400  71.599  1.00  0.00     0.000 HD 
ENDBRANCH   6  12
BRANCH  11  16
HETATM   16  C   UNL     1     -11.452  12.173  68.572  1.00  0.00    -0.300 C  
HETATM   17  O   UNL     1     -12.497  11.734  68.112  1.00  0.00    -0.190 OA 
BRANCH  16  18
HETATM   18  O   UNL     1     -11.129  13.500  68.570  1.00  0.00    -0.249 OA 
BRANCH  18  19
HETATM   19  C   UNL     1     -10.768  14.017  69.880  1.00  0.00     0.305 C  
HETATM   20  C   UNL     1     -10.020  15.337  69.719  1.00  0.00    -0.210 C  
HETATM   21  C   UNL     1     -12.013  14.220  70.738  1.00  0.00    -0.390 C  
ENDBRANCH  18  19
ENDBRANCH  16  18
ENDBRANCH  11  16
BRANCH   8  22
HETATM   22  C   UNL     1      -9.116  10.918  67.011  1.00  0.00    -0.158 A  
HETATM   23  C   UNL     1      -8.909   9.623  66.488  1.00  0.00    -0.158 A  
HETATM   24  C   UNL     1      -9.367  11.964  66.105  1.00  0.00    -0.228 A  
HETATM   25  C   UNL     1      -9.385  11.731  64.723  1.00  0.00     0.071 A  
HETATM   26  C   UNL     1      -8.890   9.405  65.099  1.00  0.00    -0.195 A  
HETATM   27  O   UNL     1      -8.357   7.165  65.393  1.00  0.00    -0.136 OA 
HETATM   28  N   UNL     1      -8.561   8.071  64.572  1.00  0.00     0.051 N  
HETATM   29  C   UNL     1      -9.135  10.456  64.213  1.00  0.00    -0.270 A  
HETATM   30  O   UNL     1      -8.493   7.935  63.340  1.00  0.00     0.010 OA 
ENDBRANCH   8  22
ENDBRANCH   3   5
ENDBRANCH   2   3
TORSDOF 7
ENDMDL
MODEL      202
REMARK 921   NORMALIZED FREE ENERGY PREDICTED BY IDOCK:   -1.28 KCAL/MOL
REMARK 922        TOTAL FREE ENERGY PREDICTED BY IDOCK:   -2.85 KCAL/MOL
REMARK 923 INTER-LIGAND FREE ENERGY PREDICTED BY IDOCK:   -3.83 KCAL/MOL
REMARK 924 INTRA-LIGAND FREE ENERGY PREDICTED BY IDOCK:    0.98 KCAL/MOL
REMARK 927      BINDING AFFINITY PREDICTED BY RF-SCORE:    0.00 PKD
ROOT
HETATM    1  C   UNL     1      -7.345  18.520  68.862  1.00  0.00    -0.266 C  
HETATM    2  O   UNL     1      -8.215  17.658  68.113  1.00  0.00    -0.240 OA 
ENDROOT
BRANCH   2   3
HETATM    3  C   UNL     1      -7.902  17.571  66.795  1.00  0.00    -0.230 C  
HETATM    4  O   UNL     1      -6.868  17.957  66.282  1.00  0.00    -0.212 OA 
BRANCH   3   5
HETATM    5  C   UNL     1      -9.007  16.888  66.072  1.00  0.00    -0.198 C  
HETATM    6  C   UNL     1     -10.139  17.562  65.741  1.00  0.00    -0.105 C  
HETATM    7  N   UNL     1     -11.162  16.938  65.069  1.00  0.00    -0.404 NA 
HETATM    8  C   UNL     1      -8.836  15.393  65.752  1.00  0.00     0.298 C  
HETATM    9  C   UNL     1     -11.150  15.578  64.763  1.00  0.00    -0.407 C  
HETATM   10  C   UNL     1     -12.386  15.077  64.051  1.00  0.00    -0.051 C  
HETATM   11  C   UNL     1     -10.082  14.791  65.084  1.00  0.00    -0.358 C  
BRANCH   6  12
HETATM   12  C   UNL     1     -10.370  18.963  66.282  1.00  0.00    -0.453 C  
HETATM   13  N   UNL     1     -10.562  20.126  66.731  1.00  0.00    -0.325 NA 
HETATM   14  H2  UNL     1     -10.100  20.271  65.833  1.00  0.00     0.000 HD 
HETATM   15  H1  UNL     1     -10.717  21.066  67.094  1.00  0.00     0.000 HD 
ENDBRANCH   6  12
BRANCH  11  16
HETATM   16  C   UNL     1     -10.162  13.319  64.829  1.00  0.00    -0.304 C  
HETATM   17  O   UNL     1      -9.956  12.830  63.727  1.00  0.00    -0.346 OA 
BRANCH  16  18
HETATM   18  O   UNL     1     -10.477  12.578  65.932  1.00  0.00    -0.255 OA 
BRANCH  18  19
HETATM   19  C   UNL     1     -10.924  11.229  65.624  1.00  0.00    -0.134 C  
HETATM   20  C   UNL     1     -10.133  10.689  64.435  1.00  0.00    -0.418 C  
HETATM   21  C   UNL     1     -10.744  10.316  66.832  1.00  0.00    -0.252 C  
ENDBRANCH  18  19
ENDBRANCH  16  18
ENDBRANCH  11  16
BRANCH   8  22
HETATM   22  C   UNL     1      -8.371  14.586  66.985  1.00  0.00    -0.195 A  
HETATM   23  C   UNL     1      -7.347  13.625  66.842  1.00  0.00     0.628 A  
HETATM   24  C   UNL     1      -8.950  14.750  68.255  1.00  0.00    -0.181 A  
HETATM   25  C   UNL     1      -8.540  13.964  69.341  1.00  0.00     0.660 A  
HETATM   26  C   UNL     1      -6.968  12.814  67.927  1.00  0.00    -0.116 A  
HETATM   27  O   UNL     1      -5.475  11.629  66.601  1.00  0.00    -0.131 OA 
HETATM   28  N   UNL     1      -5.979  11.742  67.728  1.00  0.00    -0.051 N  
HETATM   29  C   UNL     1      -7.558  12.986  69.181  1.00  0.00     0.254 A  
HETATM   30  O   UNL     1      -5.719  11.008  68.695  1.00  0.00    -0.044 OA 
ENDBRANCH   8  22
ENDBRANCH   3   5
ENDBRANCH   2   3
TORSDOF 7
ENDMDL
MODEL      203
REMARK 921   NORMALIZED FREE ENERGY PREDICTED BY IDOCK:   -0.19 KCAL/MOL
REMARK 922        TOTAL FREE ENERGY PREDICTED BY IDOCK:   -1.32 KCAL/MOL
REMARK 923 INTER-LIGAND FREE ENERGY PREDICTED BY IDOCK:   -2.27 KCAL/MOL
REMARK 924 INTRA-LIGAND FREE ENERGY PREDICTED BY IDOCK:    0.95 KCAL/MOL
REMARK 927      BINDING AFFINITY PREDICTED BY RF-SCORE:    0.00 PKD
ROOT
HETATM    1  C   UNL     1     -10.370  19.104  67.539  1.00  0.00    -0.432 C  
HETATM    2  O   UNL     1     -10.082  17.829  68.130  1.00  0.00    -0.321 OA 
ENDROOT
BRANCH   2   3
HETATM    3  C   UNL     1      -9.224  17.067  67.406  1.00  0.00    -0.234 C  
HETATM    4  O   UNL     1      -8.029  17.265  67.281  1.00  0.00    -0.180 OA 
BRANCH   3   5
HETATM    5  C   UNL     1      -9.962  15.919  66.817  1.00  0.00    -0.255 C  
HETATM    6  C   UNL     1     -10.648  16.062  65.653  1.00  0.00    -0.377 C  
HETATM    7  N   UNL     1     -11.328  15.004  65.100  1.00  0.00    -0.372 NA 
HETATM    8  C   UNL     1      -9.952  14.590  67.590  1.00  0.00    -0.224 C  
HETATM    9  C   UNL     1     -11.436  13.763  65.724  1.00  0.00    -0.318 C  
HETATM   10  C   UNL     1     -12.258  12.742  64.969  1.00  0.00    -0.527 C  
HETATM   11  C   UNL     1     -10.824  13.516  66.918  1.00  0.00    -0.286 C  
BRANCH   6  12
HETATM   12  C   UNL     1     -10.832  17.443  65.048  1.00  0.00     0.285 C  
HETATM   13  N   UNL     1     -10.985  18.590  64.546  1.00  0.00     0.837 NA 
HETATM   14  H2  UNL     1     -11.257  18.700  65.523  1.00  0.00     0.000 HD 
HETATM   15  H1  UNL     1     -11.108  19.518  64.140  1.00  0.00     0.000 HD 
ENDBRANCH   6  12
BRANCH  11  16
HETATM   16  C   UNL     1     -11.056  12.203  67.597  1.00  0.00    -0.268 C  
HETATM   17  O   UNL     1     -12.175  11.751  67.791  1.00  0.00    -0.536 OA 
BRANCH  16  18
HETATM   18  O   UNL     1      -9.911  11.560  67.973  1.00  0.00    -0.176 OA 
BRANCH  18  19
HETATM   19  C   UNL     1      -9.410  10.626  66.978  1.00  0.00    -0.155 C  
HETATM   20  C   UNL     1     -10.568  10.124  66.120  1.00  0.00    -0.099 C  
HETATM   21  C   UNL     1      -8.357  11.293  66.099  1.00  0.00    -0.111 C  
ENDBRANCH  18  19
ENDBRANCH  16  18
ENDBRANCH  11  16
BRANCH   8  22
HETATM   22  C   UNL     1     -10.294  14.786  69.084  1.00  0.00    -0.237 A  
HETATM   23  C   UNL     1     -11.637  14.700  69.508  1.00  0.00    -0.350 A  
HETATM   24  C   UNL     1      -9.314  15.079  70.049  1.00  0.00     0.305 A  
HETATM   25  C   UNL     1      -9.666  15.303  71.388  1.00  0.00     2.329 A  
HETATM   26  C   UNL     1     -11.986  14.963  70.845  1.00  0.00    -0.316 A  
HETATM   27  O   UNL     1     -14.244  14.705  70.374  1.00  0.00     0.650 OA 
HETATM   28  N   UNL     1     -13.403  14.978  71.242  1.00  0.00    -0.406 N  
HETATM   29  C   UNL     1     -11.001  15.259  71.790  1.00  0.00    -0.066 A  
HETATM   30  O   UNL     1     -13.673  15.278  72.416  1.00  0.00    -0.430 OA 
ENDBRANCH   8  22
ENDBRANCH   3   5
ENDBRANCH   2   3
TORSDOF 7
ENDMDL
MODEL      204
REMARK 921   NORMALIZED FREE ENERGY PREDICTED BY IDOCK:   -0.10 KCAL/MOL
REMARK 922        TOTAL FREE ENERGY PREDICTED BY IDOCK:   -1.19 KCAL/MOL
REMARK 923 INTER-LIGAND FREE ENERGY PREDICTED BY IDOCK:   -4.43 KCAL/MOL
REMARK 924 INTRA-LIGAND FREE ENERGY PREDICTED BY IDOCK:    3.24 KCAL/MOL
REMARK 927      BINDING AFFINITY PREDICTED BY RF-SCORE:    0.00 PKD
ROOT
HETATM    1  C   UNL     1     -11.729  10.170  68.306  1.00  0.00     0.390 C  
HETATM    2  O   UNL     1     -10.698  10.855  67.580  1.00  0.00    -0.217 OA 
ENDROOT
BRANCH   2   3
HETATM    3  C   UNL     1     -11.117  11.395  66.407  1.00  0.00    -0.240 C  
HETATM    4  O   UNL     1     -11.637  10.787  65.489  1.00  0.00     0.441 OA 
BRANCH   3   5
HETATM    5  C   UNL     1     -10.881  12.863  66.431  1.00  0.00    -0.293 C  
HETATM    6  C   UNL     1     -11.417  13.665  65.474  1.00  0.00    -0.305 C  
HETATM    7  N   UNL     1     -11.207  15.022  65.492  1.00  0.00    -0.350 NA 
HETATM    8  C   UNL     1      -9.983  13.425  67.545  1.00  0.00    -0.230 C  
HETATM    9  C   UNL     1     -10.377  15.649  66.419  1.00  0.00    -0.296 C  
HETATM   10  C   UNL     1     -10.250  17.146  66.247  1.00  0.00    -0.340 C  
HETATM   11  C   UNL     1      -9.751  14.939  67.401  1.00  0.00    -0.217 C  
BRANCH   6  12
HETATM   12  C   UNL     1     -12.094  13.047  64.262  1.00  0.00    -0.414 C  
HETATM   13  N   UNL     1     -12.656  12.535  63.256  1.00  0.00    -0.781 NA 
HETATM   14  H2  UNL     1     -12.022  13.234  62.867  1.00  0.00     0.000 HD 
HETATM   15  H1  UNL     1     -13.110  12.121  62.442  1.00  0.00     0.000 HD 
ENDBRANCH   6  12
BRANCH  11  16
HETATM   16  C   UNL     1      -8.788  15.640  68.306  1.00  0.00    -0.180 C  
HETATM   17  O   UNL     1      -7.970  16.451  67.894  1.00  0.00    -0.150 OA 
BRANCH  16  18
HETATM   18  O   UNL     1      -8.909  15.298  69.623  1.00  0.00    -0.233 OA 
BRANCH  18  19
HETATM   19  C   UNL     1     -10.141  15.764  70.238  1.00  0.00     0.045 C  
HETATM   20  C   UNL     1     -10.515  17.127  69.663  1.00  0.00    -0.022 C  
HETATM   21  C   UNL     1     -11.270  14.766  69.998  1.00  0.00    -0.274 C  
ENDBRANCH  18  19
ENDBRANCH  16  18
ENDBRANCH  11  16
BRANCH   8  22
HETATM   22  C   UNL     1      -8.665  12.630  67.685  1.00  0.00    -0.179 A  
HETATM   23  C   UNL     1      -8.614  11.516  68.549  1.00  0.00    -0.140 A  
HETATM   24  C   UNL     1      -7.492  12.989  67.000  1.00  0.00     0.131 A  
HETATM   25  C   UNL     1      -6.300  12.276  67.191  1.00  0.00    -0.117 A  
HETATM   26  C   UNL     1      -7.406  10.829  68.764  1.00  0.00    -0.104 A  
HETATM   27  O   UNL     1      -8.400   9.438  70.334  1.00  0.00    -0.174 OA 
HETATM   28  N   UNL     1      -7.348   9.742  69.754  1.00  0.00    -0.099 N  
HETATM   29  C   UNL     1      -6.247  11.203  68.080  1.00  0.00    -0.049 A  
HETATM   30  O   UNL     1      -6.248   9.204  69.960  1.00  0.00    -0.036 OA 
ENDBRANCH   8  22
ENDBRANCH   3   5
ENDBRANCH   2   3
TORSDOF 7
ENDMDL
MODEL      205
REMARK 921   NORMALIZED FREE ENERGY PREDICTED BY IDOCK:   -0.01 KCAL/MOL
REMARK 922        TOTAL FREE ENERGY PREDICTED BY IDOCK:   -1.06 KCAL/MOL
REMARK 923 INTER-LIGAND FREE ENERGY PREDICTED BY IDOCK:   -2.06 KCAL/MOL
REMARK 924 INTRA-LIGAND FREE ENERGY PREDICTED BY IDOCK:    1.00 KCAL/MOL
REMARK 927      BINDING AFFINITY PREDICTED BY RF-SCORE:    0.00 PKD
ROOT
HETATM    1  C   UNL     1      -8.223   9.003  70.633  1.00  0.00    -0.181 C  
HETATM    2  O   UNL     1      -7.280   8.687  71.667  1.00  0.00    -0.091 OA 
ENDROOT
BRANCH   2   3
HETATM    3  C   UNL     1      -6.279   7.863  71.266  1.00  0.00    -0.034 C  
HETATM    4  O   UNL     1      -5.710   7.041  71.962  1.00  0.00    -0.037 OA 
BRANCH   3   5
HETATM    5  C   UNL     1      -6.007   8.086  69.821  1.00  0.00    -0.023 C  
HETATM    6  C   UNL     1      -5.569   9.293  69.378  1.00  0.00    -0.035 C  
HETATM    7  N   UNL     1      -5.312   9.505  68.045  1.00  0.00    -0.040 NA 
HETATM    8  C   UNL     1      -6.279   6.922  68.854  1.00  0.00    -0.027 C  
HETATM    9  C   UNL     1      -5.561   8.548  67.063  1.00  0.00    -0.038 C  
HETATM   10  C   UNL     1      -5.244   8.989  65.652  1.00  0.00    -0.037 C  
HETATM   11  C   UNL     1      -6.042   7.313  67.386  1.00  0.00    -0.045 C  
BRANCH   6  12
HETATM   12  C   UNL     1      -5.543  10.482  70.323  1.00  0.00    -0.071 C  
HETATM   13  N   UNL     1      -5.522  11.469  71.108  1.00  0.00    -0.329 NA 
HETATM   14  H2  UNL     1      -5.288  11.863  70.196  1.00  0.00     0.000 HD 
HETATM   15  H1  UNL     1      -5.505  12.268  71.743  1.00  0.00     0.000 HD 
ENDBRANCH   6  12
BRANCH  11  16
HETATM   16  C   UNL     1      -6.392   6.359  66.288  1.00  0.00    -0.042 C  
HETATM   17  O   UNL     1      -7.221   6.621  65.428  1.00  0.00    -0.068 OA 
BRANCH  16  18
HETATM   18  O   UNL     1      -5.702   5.181  66.332  1.00  0.00    -0.017 OA 
BRANCH  18  19
HETATM   19  C   UNL     1      -6.302   4.120  65.539  1.00  0.00    -0.032 C  
HETATM   20  C   UNL     1      -5.233   3.098  65.161  1.00  0.00    -0.009 C  
HETATM   21  C   UNL     1      -7.426   3.441  66.315  1.00  0.00    -0.077 C  
ENDBRANCH  18  19
ENDBRANCH  16  18
ENDBRANCH  11  16
BRANCH   8  22
HETATM   22  C   UNL     1      -7.669   6.287  69.086  1.00  0.00    -0.100 A  
HETATM   23  C   UNL     1      -7.795   5.193  69.968  1.00  0.00    -0.078 A  
HETATM   24  C   UNL     1      -8.824   6.742  68.427  1.00  0.00    -0.122 A  
HETATM   25  C   UNL     1     -10.060   6.109  68.621  1.00  0.00    -0.196 A  
HETATM   26  C   UNL     1      -9.030   4.540  70.128  1.00  0.00    -0.090 A  
HETATM   27  O   UNL     1      -8.085   2.961  71.544  1.00  0.00    -0.055 OA 
HETATM   28  N   UNL     1      -9.117   3.332  70.965  1.00  0.00    -0.102 N  
HETATM   29  C   UNL     1     -10.168   5.000  69.461  1.00  0.00    -0.286 A  
HETATM   30  O   UNL     1     -10.211   2.749  71.029  1.00  0.00     0.196 OA 
ENDBRANCH   8  22
ENDBRANCH   3   5
ENDBRANCH   2   3
TORSDOF 7
ENDMDL
MODEL      206
REMARK 921   NORMALIZED FREE ENERGY PREDICTED BY IDOCK:    0.23 KCAL/MOL
REMARK 922        TOTAL FREE ENERGY PREDICTED BY IDOCK:   -0.73 KCAL/MOL
REMARK 923 INTER-LIGAND FREE ENERGY PREDICTED BY IDOCK:   -2.49 KCAL/MOL
REMARK 924 INTRA-LIGAND FREE ENERGY PREDICTED BY IDOCK:    1.76 KCAL/MOL
REMARK 927      BINDING AFFINITY PREDICTED BY RF-SCORE:    0.00 PKD
ROOT
HETATM    1  C   UNL     1      -8.694  11.025  65.868  1.00  0.00    -0.178 C  
HETATM    2  O   UNL     1      -8.656  11.877  67.023  1.00  0.00    -0.164 OA 
ENDROOT
BRANCH   2   3
HETATM    3  C   UNL     1      -9.689  11.684  67.883  1.00  0.00    -0.179 C  
HETATM    4  O   UNL     1     -10.797  12.178  67.786  1.00  0.00    -0.210 OA 
BRANCH   3   5
HETATM    5  C   UNL     1      -9.270  10.734  68.948  1.00  0.00    -0.180 C  
HETATM    6  C   UNL     1     -10.158  10.311  69.885  1.00  0.00    -0.171 C  
HETATM    7  N   UNL     1      -9.779   9.431  70.869  1.00  0.00    -0.273 NA 
HETATM    8  C   UNL     1      -7.799  10.288  68.970  1.00  0.00    -0.114 C  
HETATM    9  C   UNL     1      -8.468   8.988  71.027  1.00  0.00    -0.203 C  
HETATM   10  C   UNL     1      -8.250   8.049  72.192  1.00  0.00    -0.178 C  
HETATM   11  C   UNL     1      -7.481   9.380  70.169  1.00  0.00    -0.120 C  
BRANCH   6  12
HETATM   12  C   UNL     1     -11.530  10.957  69.973  1.00  0.00    -0.329 C  
HETATM   13  N   UNL     1     -12.670  11.492  70.045  1.00  0.00     0.009 NA 
HETATM   14  H2  UNL     1     -12.846  10.497  70.188  1.00  0.00     0.000 HD 
HETATM   15  H1  UNL     1     -13.592  11.925  70.104  1.00  0.00     0.000 HD 
ENDBRANCH   6  12
BRANCH  11  16
HETATM   16  C   UNL     1      -6.071   8.961  70.443  1.00  0.00    -0.035 C  
HETATM   17  O   UNL     1      -5.292   9.652  71.085  1.00  0.00    -0.046 OA 
BRANCH  16  18
HETATM   18  O   UNL     1      -5.738   7.745  69.917  1.00  0.00    -0.023 OA 
BRANCH  18  19
HETATM   19  C   UNL     1      -6.756   7.187  69.043  1.00  0.00    -0.056 C  
HETATM   20  C   UNL     1      -6.457   7.577  67.598  1.00  0.00    -0.057 C  
HETATM   21  C   UNL     1      -6.802   5.668  69.176  1.00  0.00    -0.062 C  
ENDBRANCH  18  19
ENDBRANCH  16  18
ENDBRANCH  11  16
BRANCH   8  22
HETATM   22  C   UNL     1      -6.828  11.485  68.853  1.00  0.00    -0.095 A  
HETATM   23  C   UNL     1      -6.776  12.441  69.890  1.00  0.00     0.221 A  
HETATM   24  C   UNL     1      -6.003  11.680  67.732  1.00  0.00    -0.052 A  
HETATM   25  C   UNL     1      -5.173  12.805  67.636  1.00  0.00    -0.101 A  
HETATM   26  C   UNL     1      -5.969  13.587  69.769  1.00  0.00    -0.123 A  
HETATM   27  O   UNL     1      -6.741  14.423  71.792  1.00  0.00     0.628 OA 
HETATM   28  N   UNL     1      -6.014  14.627  70.809  1.00  0.00    -0.165 N  
HETATM   29  C   UNL     1      -5.160  13.769  68.645  1.00  0.00    -0.084 A  
HETATM   30  O   UNL     1      -5.336  15.651  70.634  1.00  0.00    -0.151 OA 
ENDBRANCH   8  22
ENDBRANCH   3   5
ENDBRANCH   2   3
TORSDOF 7
ENDMDL
MODEL      207
REMARK 921   NORMALIZED FREE ENERGY PREDICTED BY IDOCK:    0.23 KCAL/MOL
REMARK 922        TOTAL FREE ENERGY PREDICTED BY IDOCK:   -0.72 KCAL/MOL
REMARK 923 INTER-LIGAND FREE ENERGY PREDICTED BY IDOCK:   -2.00 KCAL/MOL
REMARK 924 INTRA-LIGAND FREE ENERGY PREDICTED BY IDOCK:    1.28 KCAL/MOL
REMARK 927      BINDING AFFINITY PREDICTED BY RF-SCORE:    0.00 PKD
ROOT
HETATM    1  C   UNL     1     -10.899   7.559  68.555  1.00  0.00     0.015 C  
HETATM    2  O   UNL     1     -10.915   7.526  67.120  1.00  0.00    -0.293 OA 
ENDROOT
BRANCH   2   3
HETATM    3  C   UNL     1      -9.703   7.749  66.551  1.00  0.00    -0.195 C  
HETATM    4  O   UNL     1      -9.470   7.770  65.356  1.00  0.00     0.332 OA 
BRANCH   3   5
HETATM    5  C   UNL     1      -8.700   8.009  67.618  1.00  0.00    -0.126 C  
HETATM    6  C   UNL     1      -8.264   9.272  67.865  1.00  0.00    -0.115 C  
HETATM    7  N   UNL     1      -7.341   9.520  68.851  1.00  0.00    -0.072 NA 
HETATM    8  C   UNL     1      -8.152   6.800  68.394  1.00  0.00    -0.119 C  
HETATM    9  C   UNL     1      -6.734   8.509  69.593  1.00  0.00    -0.040 C  
HETATM   10  C   UNL     1      -5.719   8.988  70.607  1.00  0.00    -0.034 C  
HETATM   11  C   UNL     1      -7.061   7.198  69.403  1.00  0.00    -0.075 C  
BRANCH   6  12
HETATM   12  C   UNL     1      -8.646  10.401  66.923  1.00  0.00    -0.127 C  
HETATM   13  N   UNL     1      -8.963  11.338  66.141  1.00  0.00    -0.199 NA 
HETATM   14  H2  UNL     1      -8.724  10.561  65.524  1.00  0.00     0.000 HD 
HETATM   15  H1  UNL     1      -9.220  12.097  65.508  1.00  0.00     0.000 HD 
ENDBRANCH   6  12
BRANCH  11  16
HETATM   16  C   UNL     1      -6.306   6.144  70.148  1.00  0.00    -0.032 C  
HETATM   17  O   UNL     1      -5.127   5.902  69.932  1.00  0.00    -0.004 OA 
BRANCH  16  18
HETATM   18  O   UNL     1      -7.048   5.486  71.088  1.00  0.00    -0.062 OA 
BRANCH  18  19
HETATM   19  C   UNL     1      -7.147   4.053  70.859  1.00  0.00    -0.033 C  
HETATM   20  C   UNL     1      -7.074   3.317  72.194  1.00  0.00    -0.038 C  
HETATM   21  C   UNL     1      -8.451   3.715  70.143  1.00  0.00    -0.095 C  
ENDBRANCH  18  19
ENDBRANCH  16  18
ENDBRANCH  11  16
BRANCH   8  22
HETATM   22  C   UNL     1      -7.705   5.660  67.451  1.00  0.00    -0.100 A  
HETATM   23  C   UNL     1      -8.663   5.010  66.645  1.00  0.00    -0.108 A  
HETATM   24  C   UNL     1      -6.372   5.218  67.381  1.00  0.00    -0.040 A  
HETATM   25  C   UNL     1      -6.012   4.146  66.553  1.00  0.00    -0.027 A  
HETATM   26  C   UNL     1      -8.300   3.910  65.846  1.00  0.00    -0.109 A  
HETATM   27  O   UNL     1     -10.499   3.595  65.170  1.00  0.00     0.006 OA 
HETATM   28  N   UNL     1      -9.334   3.176  65.099  1.00  0.00    -0.150 N  
HETATM   29  C   UNL     1      -6.973   3.480  65.792  1.00  0.00    -0.058 A  
HETATM   30  O   UNL     1      -8.983   2.173  64.457  1.00  0.00    -0.107 OA 
ENDBRANCH   8  22
ENDBRANCH   3   5
ENDBRANCH   2   3
TORSDOF 7
ENDMDL
MODEL      208
REMARK 921   NORMALIZED FREE ENERGY PREDICTED BY IDOCK:    0.29 KCAL/MOL
REMARK 922        TOTAL FREE ENERGY PREDICTED BY IDOCK:   -0.65 KCAL/MOL
REMARK 923 INTER-LIGAND FREE ENERGY PREDICTED BY IDOCK:   -2.07 KCAL/MOL
REMARK 924 INTRA-LIGAND FREE ENERGY PREDICTED BY IDOCK:    1.42 KCAL/MOL
REMARK 927      BINDING AFFINITY PREDICTED BY RF-SCORE:    0.00 PKD
ROOT
HETATM    1  C   UNL     1      -5.671   9.433  65.662  1.00  0.00    -0.053 C  
HETATM    2  O   UNL     1      -6.574   9.822  66.707  1.00  0.00    -0.066 OA 
ENDROOT
BRANCH   2   3
HETATM    3  C   UNL     1      -7.882   9.787  66.345  1.00  0.00    -0.106 C  
HETATM    4  O   UNL     1      -8.445  10.599  65.633  1.00  0.00    -0.171 OA 
BRANCH   3   5
HETATM    5  C   UNL     1      -8.519   8.573  66.919  1.00  0.00    -0.113 C  
HETATM    6  C   UNL     1      -8.455   8.323  68.253  1.00  0.00    -0.136 C  
HETATM    7  N   UNL     1      -9.045   7.206  68.791  1.00  0.00    -0.135 NA 
HETATM    8  C   UNL     1      -9.210   7.601  65.948  1.00  0.00    -0.053 C  
HETATM    9  C   UNL     1      -9.660   6.225  68.015  1.00  0.00    -0.115 C  
HETATM   10  C   UNL     1     -10.218   5.055  68.795  1.00  0.00    -0.164 C  
HETATM   11  C   UNL     1      -9.748   6.348  66.659  1.00  0.00    -0.197 C  
BRANCH   6  12
HETATM   12  C   UNL     1      -7.563   9.176  69.140  1.00  0.00    -0.073 C  
HETATM   13  N   UNL     1      -6.823   9.884  69.876  1.00  0.00    -0.080 NA 
HETATM   14  H2  UNL     1      -6.901  10.413  69.007  1.00  0.00     0.000 HD 
HETATM   15  H1  UNL     1      -6.225  10.457  70.472  1.00  0.00     0.000 HD 
ENDBRANCH   6  12
BRANCH  11  16
HETATM   16  C   UNL     1     -10.324   5.220  65.862  1.00  0.00    -0.055 C  
HETATM   17  O   UNL     1     -11.526   5.084  65.689  1.00  0.00     0.177 OA 
BRANCH  16  18
HETATM   18  O   UNL     1      -9.389   4.368  65.345  1.00  0.00    -0.145 OA 
BRANCH  18  19
HETATM   19  C   UNL     1      -9.921   3.446  64.355  1.00  0.00    -0.167 C  
HETATM   20  C   UNL     1      -9.212   3.666  63.021  1.00  0.00    -0.101 C  
HETATM   21  C   UNL     1      -9.740   2.003  64.814  1.00  0.00     0.090 C  
ENDBRANCH  18  19
ENDBRANCH  16  18
ENDBRANCH  11  16
BRANCH   8  22
HETATM   22  C   UNL     1      -8.316   7.261  64.734  1.00  0.00     0.011 A  
HETATM   23  C   UNL     1      -7.637   6.024  64.695  1.00  0.00    -0.091 A  
HETATM   24  C   UNL     1      -8.125   8.154  63.666  1.00  0.00    -0.115 A  
HETATM   25  C   UNL     1      -7.266   7.834  62.605  1.00  0.00    -0.089 A  
HETATM   26  C   UNL     1      -6.748   5.727  63.647  1.00  0.00    -0.037 A  
HETATM   27  O   UNL     1      -6.163   3.708  64.630  1.00  0.00    -0.022 OA 
HETATM   28  N   UNL     1      -5.965   4.481  63.682  1.00  0.00    -0.017 N  
HETATM   29  C   UNL     1      -6.565   6.628  62.596  1.00  0.00    -0.039 A  
HETATM   30  O   UNL     1      -5.144   4.287  62.771  1.00  0.00    -0.005 OA 
ENDBRANCH   8  22
ENDBRANCH   3   5
ENDBRANCH   2   3
TORSDOF 7
ENDMDL
MODEL      209
REMARK 921   NORMALIZED FREE ENERGY PREDICTED BY IDOCK:    0.42 KCAL/MOL
REMARK 922        TOTAL FREE ENERGY PREDICTED BY IDOCK:   -0.46 KCAL/MOL
REMARK 923 INTER-LIGAND FREE ENERGY PREDICTED BY IDOCK:   -3.56 KCAL/MOL
REMARK 924 INTRA-LIGAND FREE ENERGY PREDICTED BY IDOCK:    3.10 KCAL/MOL
REMARK 927      BINDING AFFINITY PREDICTED BY RF-SCORE:    0.00 PKD
ROOT
HETATM    1  C   UNL     1     -12.751  11.471  65.065  1.00  0.00     1.865 C  
HETATM    2  O   UNL     1     -12.258  12.007  66.302  1.00  0.00    -0.548 OA 
ENDROOT
BRANCH   2   3
HETATM    3  C   UNL     1     -11.200  12.844  66.156  1.00  0.00    -0.292 C  
HETATM    4  O   UNL     1     -11.057  13.915  66.718  1.00  0.00    -0.296 OA 
BRANCH   3   5
HETATM    5  C   UNL     1     -10.212  12.231  65.230  1.00  0.00    -0.305 C  
HETATM    6  C   UNL     1     -10.256  12.493  63.898  1.00  0.00    -0.360 C  
HETATM    7  N   UNL     1      -9.343  11.934  63.038  1.00  0.00    -0.248 NA 
HETATM    8  C   UNL     1      -9.174  11.266  65.828  1.00  0.00    -0.236 C  
HETATM    9  C   UNL     1      -8.384  11.009  63.446  1.00  0.00     0.186 C  
HETATM   10  C   UNL     1      -7.497  10.484  62.339  1.00  0.00    -0.168 C  
HETATM   11  C   UNL     1      -8.273  10.636  64.754  1.00  0.00    -0.038 C  
BRANCH   6  12
HETATM   12  C   UNL     1     -11.435  13.255  63.316  1.00  0.00     0.137 C  
HETATM   13  N   UNL     1     -12.413  13.887  62.833  1.00  0.00    -0.877 NA 
HETATM   14  H2  UNL     1     -12.697  12.908  62.793  1.00  0.00     0.000 HD 
HETATM   15  H1  UNL     1     -13.205  14.399  62.443  1.00  0.00     0.000 HD 
ENDBRANCH   6  12
BRANCH  11  16
HETATM   16  C   UNL     1      -7.298   9.563  65.124  1.00  0.00    -0.109 C  
HETATM   17  O   UNL     1      -7.506   8.380  64.897  1.00  0.00    -0.084 OA 
BRANCH  16  18
HETATM   18  O   UNL     1      -6.164  10.025  65.730  1.00  0.00    -0.078 OA 
BRANCH  18  19
HETATM   19  C   UNL     1      -5.966   9.507  67.074  1.00  0.00    -0.056 C  
HETATM   20  C   UNL     1      -6.191  10.624  68.090  1.00  0.00    -0.057 C  
HETATM   21  C   UNL     1      -6.921   8.349  67.349  1.00  0.00    -0.071 C  
ENDBRANCH  18  19
ENDBRANCH  16  18
ENDBRANCH  11  16
BRANCH   8  22
HETATM   22  C   UNL     1      -9.827  10.213  66.752  1.00  0.00    -0.247 A  
HETATM   23  C   UNL     1     -10.366  10.615  67.993  1.00  0.00    -0.208 A  
HETATM   24  C   UNL     1      -9.884   8.849  66.417  1.00  0.00    -0.353 A  
HETATM   25  C   UNL     1     -10.437   7.913  67.303  1.00  0.00    -0.390 A  
HETATM   26  C   UNL     1     -10.884   9.665  68.891  1.00  0.00    -0.174 A  
HETATM   27  O   UNL     1     -11.287  11.300  70.489  1.00  0.00    -0.150 OA 
HETATM   28  N   UNL     1     -11.337  10.090  70.225  1.00  0.00    -0.286 N  
HETATM   29  C   UNL     1     -10.927   8.312  68.546  1.00  0.00     0.163 A  
HETATM   30  O   UNL     1     -11.728   9.212  71.012  1.00  0.00    -0.278 OA 
ENDBRANCH   8  22
ENDBRANCH   3   5
ENDBRANCH   2   3
TORSDOF 7
ENDMDL
MODEL      210
REMARK 921   NORMALIZED FREE ENERGY PREDICTED BY IDOCK:    0.45 KCAL/MOL
REMARK 922        TOTAL FREE ENERGY PREDICTED BY IDOCK:   -0.41 KCAL/MOL
REMARK 923 INTER-LIGAND FREE ENERGY PREDICTED BY IDOCK:   -5.08 KCAL/MOL
REMARK 924 INTRA-LIGAND FREE ENERGY PREDICTED BY IDOCK:    4.67 KCAL/MOL
REMARK 927      BINDING AFFINITY PREDICTED BY RF-SCORE:    0.00 PKD
ROOT
HETATM    1  C   UNL     1     -11.885  11.440  68.468  1.00  0.00    -0.294 C  
HETATM    2  O   UNL     1     -11.919  12.801  68.014  1.00  0.00    -0.346 OA 
ENDROOT
BRANCH   2   3
HETATM    3  C   UNL     1     -11.221  13.016  66.870  1.00  0.00    -0.295 C  
HETATM    4  O   UNL     1     -11.689  13.059  65.747  1.00  0.00    -0.343 OA 
BRANCH   3   5
HETATM    5  C   UNL     1      -9.788  13.237  67.203  1.00  0.00    -0.237 C  
HETATM    6  C   UNL     1      -9.356  14.453  67.628  1.00  0.00    -0.200 C  
HETATM    7  N   UNL     1      -8.035  14.662  67.942  1.00  0.00    -0.132 NA 
HETATM    8  C   UNL     1      -8.819  12.059  67.009  1.00  0.00    -0.197 C  
HETATM    9  C   UNL     1      -7.051  13.692  67.765  1.00  0.00    -0.161 C  
HETATM   10  C   UNL     1      -5.652  14.132  68.136  1.00  0.00    -0.123 C  
HETATM   11  C   UNL     1      -7.361  12.446  67.303  1.00  0.00    -0.127 C  
BRANCH   6  12
HETATM   12  C   UNL     1     -10.292  15.648  67.577  1.00  0.00    -0.277 C  
HETATM   13  N   UNL     1     -11.069  16.641  67.535  1.00  0.00    -0.139 NA 
HETATM   14  H2  UNL     1     -11.590  15.889  67.082  1.00  0.00     0.000 HD 
HETATM   15  H1  UNL     1     -11.698  17.443  67.500  1.00  0.00     0.000 HD 
ENDBRANCH   6  12
BRANCH  11  16
HETATM   16  C   UNL     1      -6.256  11.475  67.031  1.00  0.00    -0.134 C  
HETATM   17  O   UNL     1      -5.976  11.095  65.903  1.00  0.00    -0.123 OA 
BRANCH  16  18
HETATM   18  O   UNL     1      -5.591  11.059  68.150  1.00  0.00    -0.043 OA 
BRANCH  18  19
HETATM   19  C   UNL     1      -5.965   9.726  68.592  1.00  0.00    -0.042 C  
HETATM   20  C   UNL     1      -6.384   9.774  70.059  1.00  0.00    -0.064 C  
HETATM   21  C   UNL     1      -7.104   9.178  67.739  1.00  0.00    -0.079 C  
ENDBRANCH  18  19
ENDBRANCH  16  18
ENDBRANCH  11  16
BRANCH   8  22
HETATM   22  C   UNL     1      -8.992  11.388  65.627  1.00  0.00    -0.131 A  
HETATM   23  C   UNL     1      -8.141  10.323  65.260  1.00  0.00    -0.151 A  
HETATM   24  C   UNL     1      -9.953  11.817  64.695  1.00  0.00    -0.275 A  
HETATM   25  C   UNL     1     -10.046  11.220  63.430  1.00  0.00    -0.445 A  
HETATM   26  C   UNL     1      -8.216   9.755  63.976  1.00  0.00    -0.158 A  
HETATM   27  O   UNL     1      -6.419   8.355  64.420  1.00  0.00    -0.065 OA 
HETATM   28  N   UNL     1      -7.247   8.722  63.575  1.00  0.00    -0.093 N  
HETATM   29  C   UNL     1      -9.173  10.197  63.060  1.00  0.00    -0.317 A  
HETATM   30  O   UNL     1      -7.307   8.293  62.412  1.00  0.00    -0.093 OA 
ENDBRANCH   8  22
ENDBRANCH   3   5
ENDBRANCH   2   3
TORSDOF 7
ENDMDL
MODEL      211
REMARK 921   NORMALIZED FREE ENERGY PREDICTED BY IDOCK:    0.46 KCAL/MOL
REMARK 922        TOTAL FREE ENERGY PREDICTED BY IDOCK:   -0.41 KCAL/MOL
REMARK 923 INTER-LIGAND FREE ENERGY PREDICTED BY IDOCK:   -3.93 KCAL/MOL
REMARK 924 INTRA-LIGAND FREE ENERGY PREDICTED BY IDOCK:    3.52 KCAL/MOL
REMARK 927      BINDING AFFINITY PREDICTED BY RF-SCORE:    0.00 PKD
ROOT
HETATM    1  C   UNL     1      -8.267   7.921  71.913  1.00  0.00    -0.116 C  
HETATM    2  O   UNL     1      -8.260   7.309  70.615  1.00  0.00    -0.114 OA 
ENDROOT
BRANCH   2   3
HETATM    3  C   UNL     1      -7.282   7.770  69.795  1.00  0.00    -0.067 C  
HETATM    4  O   UNL     1      -6.089   7.766  70.037  1.00  0.00    -0.026 OA 
BRANCH   3   5
HETATM    5  C   UNL     1      -7.891   8.247  68.524  1.00  0.00    -0.121 C  
HETATM    6  C   UNL     1      -7.848   7.477  67.406  1.00  0.00    -0.118 C  
HETATM    7  N   UNL     1      -8.412   7.909  66.230  1.00  0.00    -0.128 NA 
HETATM    8  C   UNL     1      -8.527   9.646  68.518  1.00  0.00    -0.118 C  
HETATM    9  C   UNL     1      -8.977   9.174  66.080  1.00  0.00    -0.181 C  
HETATM   10  C   UNL     1      -9.513   9.470  64.697  1.00  0.00    -0.133 C  
HETATM   11  C   UNL     1      -9.039  10.050  67.125  1.00  0.00    -0.154 C  
BRANCH   6  12
HETATM   12  C   UNL     1      -7.005   6.213  67.389  1.00  0.00    -0.069 C  
HETATM   13  N   UNL     1      -6.306   5.163  67.375  1.00  0.00    -0.039 NA 
HETATM   14  H2  UNL     1      -7.257   4.835  67.546  1.00  0.00     0.000 HD 
HETATM   15  H1  UNL     1      -5.741   4.314  67.364  1.00  0.00     0.000 HD 
ENDBRANCH   6  12
BRANCH  11  16
HETATM   16  C   UNL     1      -9.559  11.432  66.886  1.00  0.00    -0.185 C  
HETATM   17  O   UNL     1      -8.823  12.380  66.649  1.00  0.00    -0.208 OA 
BRANCH  16  18
HETATM   18  O   UNL     1     -10.919  11.535  66.952  1.00  0.00    -0.269 OA 
BRANCH  18  19
HETATM   19  C   UNL     1     -11.401  12.153  68.177  1.00  0.00    -0.293 C  
HETATM   20  C   UNL     1     -11.604  11.080  69.244  1.00  0.00    -0.384 C  
HETATM   21  C   UNL     1     -10.412  13.204  68.672  1.00  0.00    -0.242 C  
ENDBRANCH  18  19
ENDBRANCH  16  18
ENDBRANCH  11  16
BRANCH   8  22
HETATM   22  C   UNL     1      -7.596  10.710  69.143  1.00  0.00    -0.131 A  
HETATM   23  C   UNL     1      -7.450  11.964  68.511  1.00  0.00    -0.117 A  
HETATM   24  C   UNL     1      -6.857  10.469  70.314  1.00  0.00    -0.097 A  
HETATM   25  C   UNL     1      -5.981  11.438  70.824  1.00  0.00     0.039 A  
HETATM   26  C   UNL     1      -6.542  12.915  69.008  1.00  0.00    -0.102 A  
HETATM   27  O   UNL     1      -6.996  14.361  67.250  1.00  0.00    -0.209 OA 
HETATM   28  N   UNL     1      -6.322  14.171  68.272  1.00  0.00    -0.105 N  
HETATM   29  C   UNL     1      -5.810  12.658  70.169  1.00  0.00    -0.158 A  
HETATM   30  O   UNL     1      -5.465  14.955  68.709  1.00  0.00    -0.084 OA 
ENDBRANCH   8  22
ENDBRANCH   3   5
ENDBRANCH   2   3
TORSDOF 7
ENDMDL
MODEL      212
REMARK 921   NORMALIZED FREE ENERGY PREDICTED BY IDOCK:    0.72 KCAL/MOL
REMARK 922        TOTAL FREE ENERGY PREDICTED BY IDOCK:   -0.03 KCAL/MOL
REMARK 923 INTER-LIGAND FREE ENERGY PREDICTED BY IDOCK:   -2.09 KCAL/MOL
REMARK 924 INTRA-LIGAND FREE ENERGY PREDICTED BY IDOCK:    2.06 KCAL/MOL
REMARK 927      BINDING AFFINITY PREDICTED BY RF-SCORE:    0.00 PKD
ROOT
HETATM    1  C   UNL     1      -7.080   9.681  67.321  1.00  0.00    -0.086 C  
HETATM    2  O   UNL     1      -6.410   8.413  67.352  1.00  0.00    -0.055 OA 
ENDROOT
BRANCH   2   3
HETATM    3  C   UNL     1      -6.358   7.848  68.585  1.00  0.00    -0.048 C  
HETATM    4  O   UNL     1      -5.419   7.222  69.042  1.00  0.00    -0.017 OA 
BRANCH   3   5
HETATM    5  C   UNL     1      -7.617   8.148  69.317  1.00  0.00    -0.095 C  
HETATM    6  C   UNL     1      -7.644   9.098  70.288  1.00  0.00    -0.108 C  
HETATM    7  N   UNL     1      -8.804   9.383  70.964  1.00  0.00    -0.275 NA 
HETATM    8  C   UNL     1      -8.864   7.321  68.963  1.00  0.00    -0.132 C  
HETATM    9  C   UNL     1      -9.989   8.675  70.771  1.00  0.00    -0.197 C  
HETATM   10  C   UNL     1     -11.144   9.120  71.639  1.00  0.00    -0.445 C  
HETATM   11  C   UNL     1     -10.070   7.670  69.851  1.00  0.00    -0.198 C  
BRANCH   6  12
HETATM   12  C   UNL     1      -6.345   9.720  70.772  1.00  0.00    -0.095 C  
HETATM   13  N   UNL     1      -5.267  10.237  71.174  1.00  0.00    -0.074 NA 
HETATM   14  H2  UNL     1      -5.073   9.955  70.213  1.00  0.00     0.000 HD 
HETATM   15  H1  UNL     1      -4.395  10.655  71.499  1.00  0.00     0.000 HD 
ENDBRANCH   6  12
BRANCH  11  16
HETATM   16  C   UNL     1     -11.331   6.871  69.755  1.00  0.00    -0.237 C  
HETATM   17  O   UNL     1     -11.468   5.951  68.961  1.00  0.00    -0.152 OA 
BRANCH  16  18
HETATM   18  O   UNL     1     -12.305   7.258  70.631  1.00  0.00    -0.226 OA 
BRANCH  18  19
HETATM   19  C   UNL     1     -12.352   6.459  71.845  1.00  0.00    -0.225 C  
HETATM   20  C   UNL     1     -13.800   6.091  72.157  1.00  0.00     0.758 C  
HETATM   21  C   UNL     1     -11.512   5.195  71.687  1.00  0.00     0.453 C  
ENDBRANCH  18  19
ENDBRANCH  16  18
ENDBRANCH  11  16
BRANCH   8  22
HETATM   22  C   UNL     1      -8.565   5.805  68.932  1.00  0.00    -0.106 A  
HETATM   23  C   UNL     1      -8.302   5.124  70.139  1.00  0.00    -0.093 A  
HETATM   24  C   UNL     1      -8.516   5.071  67.734  1.00  0.00    -0.104 A  
HETATM   25  C   UNL     1      -8.189   3.707  67.738  1.00  0.00    -0.092 A  
HETATM   26  C   UNL     1      -7.938   3.765  70.131  1.00  0.00    -0.047 A  
HETATM   27  O   UNL     1      -7.623   3.770  72.431  1.00  0.00    -0.063 OA 
HETATM   28  N   UNL     1      -7.558   3.102  71.389  1.00  0.00    -0.043 N  
HETATM   29  C   UNL     1      -7.887   3.051  68.932  1.00  0.00    -0.054 A  
HETATM   30  O   UNL     1      -7.182   1.921  71.330  1.00  0.00    -0.031 OA 
ENDBRANCH   8  22
ENDBRANCH   3   5
ENDBRANCH   2   3
TORSDOF 7
ENDMDL
MODEL      213
REMARK 921   NORMALIZED FREE ENERGY PREDICTED BY IDOCK:    0.96 KCAL/MOL
REMARK 922        TOTAL FREE ENERGY PREDICTED BY IDOCK:    0.30 KCAL/MOL
REMARK 923 INTER-LIGAND FREE ENERGY PREDICTED BY IDOCK:   -2.36 KCAL/MOL
REMARK 924 INTRA-LIGAND FREE ENERGY PREDICTED BY IDOCK:    2.65 KCAL/MOL
REMARK 927      BINDING AFFINITY PREDICTED BY RF-SCORE:    0.00 PKD
ROOT
HETATM    1  C   UNL     1      -8.098   9.008  70.475  1.00  0.00    -0.154 C  
HETATM    2  O   UNL     1      -6.844   8.498  70.954  1.00  0.00    -0.043 OA 
ENDROOT
BRANCH   2   3
HETATM    3  C   UNL     1      -6.055   7.976  69.981  1.00  0.00    -0.029 C  
HETATM    4  O   UNL     1      -5.125   7.209  70.153  1.00  0.00    -0.018 OA 
BRANCH   3   5
HETATM    5  C   UNL     1      -6.530   8.452  68.654  1.00  0.00    -0.054 C  
HETATM    6  C   UNL     1      -6.613   9.781  68.386  1.00  0.00    -0.056 C  
HETATM    7  N   UNL     1      -7.046  10.228  67.162  1.00  0.00    -0.088 NA 
HETATM    8  C   UNL     1      -6.957   7.393  67.625  1.00  0.00    -0.079 C  
HETATM    9  C   UNL     1      -7.505   9.374  66.161  1.00  0.00    -0.096 C  
HETATM   10  C   UNL     1      -7.971  10.065  64.900  1.00  0.00    -0.140 C  
HETATM   11  C   UNL     1      -7.508   8.020  66.334  1.00  0.00    -0.087 C  
BRANCH   6  12
HETATM   12  C   UNL     1      -6.414  10.792  69.502  1.00  0.00    -0.089 C  
HETATM   13  N   UNL     1      -6.248  11.631  70.430  1.00  0.00    -0.438 NA 
HETATM   14  H2  UNL     1      -6.201  10.724  70.894  1.00  0.00     0.000 HD 
HETATM   15  H1  UNL     1      -6.113  12.310  71.180  1.00  0.00     0.000 HD 
ENDBRANCH   6  12
BRANCH  11  16
HETATM   16  C   UNL     1      -8.107   7.152  65.273  1.00  0.00    -0.134 C  
HETATM   17  O   UNL     1      -9.259   7.287  64.885  1.00  0.00     0.619 OA 
BRANCH  16  18
HETATM   18  O   UNL     1      -7.254   6.207  64.778  1.00  0.00    -0.058 OA 
BRANCH  18  19
HETATM   19  C   UNL     1      -7.925   5.024  64.263  1.00  0.00    -0.104 C  
HETATM   20  C   UNL     1      -9.073   4.643  65.194  1.00  0.00    -0.155 C  
HETATM   21  C   UNL     1      -8.456   5.279  62.855  1.00  0.00    -0.096 C  
ENDBRANCH  18  19
ENDBRANCH  16  18
ENDBRANCH  11  16
BRANCH   8  22
HETATM   22  C   UNL     1      -7.914   6.344  68.235  1.00  0.00    -0.106 A  
HETATM   23  C   UNL     1      -7.470   5.016  68.409  1.00  0.00    -0.074 A  
HETATM   24  C   UNL     1      -9.235   6.653  68.603  1.00  0.00    -0.128 A  
HETATM   25  C   UNL     1     -10.093   5.664  69.104  1.00  0.00    -0.274 A  
HETATM   26  C   UNL     1      -8.349   4.022  68.877  1.00  0.00    -0.077 A  
HETATM   27  O   UNL     1      -6.727   2.380  68.627  1.00  0.00    -0.032 OA 
HETATM   28  N   UNL     1      -7.900   2.622  68.946  1.00  0.00    -0.049 N  
HETATM   29  C   UNL     1      -9.660   4.345  69.233  1.00  0.00    -0.261 A  
HETATM   30  O   UNL     1      -8.725   1.766  69.303  1.00  0.00    -0.055 OA 
ENDBRANCH   8  22
ENDBRANCH   3   5
ENDBRANCH   2   3
TORSDOF 7
ENDMDL
MODEL      214
REMARK 921   NORMALIZED FREE ENERGY PREDICTED BY IDOCK:    1.27 KCAL/MOL
REMARK 922        TOTAL FREE ENERGY PREDICTED BY IDOCK:    0.74 KCAL/MOL
REMARK 923 INTER-LIGAND FREE ENERGY PREDICTED BY IDOCK:   -2.08 KCAL/MOL
REMARK 924 INTRA-LIGAND FREE ENERGY PREDICTED BY IDOCK:    2.82 KCAL/MOL
REMARK 927      BINDING AFFINITY PREDICTED BY RF-SCORE:    0.00 PKD
ROOT
HETATM    1  C   UNL     1      -6.674   6.121  67.305  1.00  0.00    -0.061 C  
HETATM    2  O   UNL     1      -5.652   7.074  67.631  1.00  0.00    -0.018 OA 
ENDROOT
BRANCH   2   3
HETATM    3  C   UNL     1      -6.020   8.365  67.433  1.00  0.00    -0.047 C  
HETATM    4  O   UNL     1      -5.313   9.246  66.977  1.00  0.00    -0.039 OA 
BRANCH   3   5
HETATM    5  C   UNL     1      -7.446   8.535  67.820  1.00  0.00    -0.097 C  
HETATM    6  C   UNL     1      -8.178   9.570  67.332  1.00  0.00    -0.114 C  
HETATM    7  N   UNL     1      -9.496   9.729  67.681  1.00  0.00    -0.143 NA 
HETATM    8  C   UNL     1      -8.041   7.525  68.816  1.00  0.00    -0.128 C  
HETATM    9  C   UNL     1     -10.139   8.912  68.609  1.00  0.00    -0.188 C  
HETATM   10  C   UNL     1     -11.581   9.275  68.883  1.00  0.00     0.637 C  
HETATM   11  C   UNL     1      -9.491   7.865  69.197  1.00  0.00    -0.155 C  
BRANCH   6  12
HETATM   12  C   UNL     1      -7.493  10.675  66.546  1.00  0.00    -0.134 C  
HETATM   13  N   UNL     1      -6.925  11.593  65.894  1.00  0.00    -0.086 NA 
HETATM   14  H2  UNL     1      -7.682  12.063  66.389  1.00  0.00     0.000 HD 
HETATM   15  H1  UNL     1      -6.465  12.336  65.366  1.00  0.00     0.000 HD 
ENDBRANCH   6  12
BRANCH  11  16
HETATM   16  C   UNL     1     -10.191   7.083  70.264  1.00  0.00    -0.193 C  
HETATM   17  O   UNL     1     -11.057   6.257  70.012  1.00  0.00    -0.319 OA 
BRANCH  16  18
HETATM   18  O   UNL     1      -9.772   7.370  71.532  1.00  0.00    -0.160 OA 
BRANCH  18  19
HETATM   19  C   UNL     1     -10.028   6.305  72.488  1.00  0.00    -0.171 C  
HETATM   20  C   UNL     1      -9.775   4.953  71.826  1.00  0.00    -0.223 C  
HETATM   21  C   UNL     1      -9.137   6.463  73.716  1.00  0.00    -0.143 C  
ENDBRANCH  18  19
ENDBRANCH  16  18
ENDBRANCH  11  16
BRANCH   8  22
HETATM   22  C   UNL     1      -7.131   7.322  70.048  1.00  0.00    -0.066 A  
HETATM   23  C   UNL     1      -6.818   6.013  70.473  1.00  0.00    -0.054 A  
HETATM   24  C   UNL     1      -6.618   8.398  70.792  1.00  0.00    -0.039 A  
HETATM   25  C   UNL     1      -5.838   8.177  71.936  1.00  0.00    -0.038 A  
HETATM   26  C   UNL     1      -6.068   5.799  71.643  1.00  0.00    -0.038 A  
HETATM   27  O   UNL     1      -6.301   3.497  71.449  1.00  0.00    -0.014 OA 
HETATM   28  N   UNL     1      -5.847   4.427  72.131  1.00  0.00    -0.011 N  
HETATM   29  C   UNL     1      -5.570   6.880  72.374  1.00  0.00    -0.038 A  
HETATM   30  O   UNL     1      -5.235   4.285  73.201  1.00  0.00    -0.003 OA 
ENDBRANCH   8  22
ENDBRANCH   3   5
ENDBRANCH   2   3
TORSDOF 7
ENDMDL
MODEL      215
REMARK 921   NORMALIZED FREE ENERGY PREDICTED BY IDOCK:    1.38 KCAL/MOL
REMARK 922        TOTAL FREE ENERGY PREDICTED BY IDOCK:    0.90 KCAL/MOL
REMARK 923 INTER-LIGAND FREE ENERGY PREDICTED BY IDOCK:    0.09 KCAL/MOL
REMARK 924 INTRA-LIGAND FREE ENERGY PREDICTED BY IDOCK:    0.81 KCAL/MOL
REMARK 927      BINDING AFFINITY PREDICTED BY RF-SCORE:    0.00 PKD
ROOT
HETATM    1  C   UNL     1     -11.490   8.781  69.416  1.00  0.00     0.472 C  
HETATM    2  O   UNL     1     -10.853   7.595  69.914  1.00  0.00    -0.249 OA 
ENDROOT
BRANCH   2   3
HETATM    3  C   UNL     1      -9.497   7.647  69.888  1.00  0.00    -0.160 C  
HETATM    4  O   UNL     1      -8.806   8.488  70.433  1.00  0.00    -0.138 OA 
BRANCH   3   5
HETATM    5  C   UNL     1      -8.976   6.484  69.120  1.00  0.00    -0.130 C  
HETATM    6  C   UNL     1      -8.839   5.270  69.713  1.00  0.00    -0.104 C  
HETATM    7  N   UNL     1      -8.363   4.191  69.009  1.00  0.00    -0.076 NA 
HETATM    8  C   UNL     1      -8.565   6.720  67.657  1.00  0.00    -0.121 C  
HETATM    9  C   UNL     1      -7.913   4.282  67.693  1.00  0.00    -0.091 C  
HETATM   10  C   UNL     1      -7.394   2.988  67.108  1.00  0.00    -0.062 C  
HETATM   11  C   UNL     1      -7.963   5.462  67.009  1.00  0.00    -0.101 C  
BRANCH   6  12
HETATM   12  C   UNL     1      -9.027   5.135  71.215  1.00  0.00    -0.139 C  
HETATM   13  N   UNL     1      -9.184   5.024  72.461  1.00  0.00    -0.132 NA 
HETATM   14  H2  UNL     1     -10.073   5.395  72.124  1.00  0.00     0.000 HD 
HETATM   15  H1  UNL     1      -9.311   4.933  73.470  1.00  0.00     0.000 HD 
ENDBRANCH   6  12
BRANCH  11  16
HETATM   16  C   UNL     1      -7.372   5.533  65.637  1.00  0.00    -0.073 C  
HETATM   17  O   UNL     1      -7.893   5.001  64.668  1.00  0.00    -0.085 OA 
BRANCH  16  18
HETATM   18  O   UNL     1      -6.209   6.246  65.567  1.00  0.00    -0.035 OA 
BRANCH  18  19
HETATM   19  C   UNL     1      -6.270   7.381  64.660  1.00  0.00    -0.038 C  
HETATM   20  C   UNL     1      -5.221   7.216  63.564  1.00  0.00    -0.033 C  
HETATM   21  C   UNL     1      -7.660   7.497  64.042  1.00  0.00    -0.114 C  
ENDBRANCH  18  19
ENDBRANCH  16  18
ENDBRANCH  11  16
BRANCH   8  22
HETATM   22  C   UNL     1      -7.660   7.963  67.502  1.00  0.00    -0.105 A  
HETATM   23  C   UNL     1      -8.143   9.092  66.807  1.00  0.00    -0.111 A  
HETATM   24  C   UNL     1      -6.348   8.008  68.006  1.00  0.00    -0.051 A  
HETATM   25  C   UNL     1      -5.537   9.132  67.801  1.00  0.00    -0.034 A  
HETATM   26  C   UNL     1      -7.310  10.201  66.573  1.00  0.00    -0.108 A  
HETATM   27  O   UNL     1      -8.959  11.259  65.330  1.00  0.00    -0.169 OA 
HETATM   28  N   UNL     1      -7.795  11.320  65.751  1.00  0.00     0.089 N  
HETATM   29  C   UNL     1      -6.007  10.227  67.076  1.00  0.00    -0.051 A  
HETATM   30  O   UNL     1      -7.007  12.250  65.515  1.00  0.00     2.040 OA 
ENDBRANCH   8  22
ENDBRANCH   3   5
ENDBRANCH   2   3
TORSDOF 7
ENDMDL
MODEL      216
REMARK 921   NORMALIZED FREE ENERGY PREDICTED BY IDOCK:    1.74 KCAL/MOL
REMARK 922        TOTAL FREE ENERGY PREDICTED BY IDOCK:    1.40 KCAL/MOL
REMARK 923 INTER-LIGAND FREE ENERGY PREDICTED BY IDOCK:   -4.00 KCAL/MOL
REMARK 924 INTRA-LIGAND FREE ENERGY PREDICTED BY IDOCK:    5.40 KCAL/MOL
REMARK 927      BINDING AFFINITY PREDICTED BY RF-SCORE:    0.00 PKD
ROOT
HETATM    1  C   UNL     1     -13.734   7.578  71.728  1.00  0.00    -0.327 C  
HETATM    2  O   UNL     1     -12.570   7.467  70.896  1.00  0.00    -0.257 OA 
ENDROOT
BRANCH   2   3
HETATM    3  C   UNL     1     -11.530   8.240  71.299  1.00  0.00    -0.274 C  
HETATM    4  O   UNL     1     -11.618   9.283  71.922  1.00  0.00    -0.372 OA 
BRANCH   3   5
HETATM    5  C   UNL     1     -10.252   7.593  70.898  1.00  0.00    -0.202 C  
HETATM    6  C   UNL     1      -9.406   7.093  71.836  1.00  0.00    -0.138 C  
HETATM    7  N   UNL     1      -8.227   6.490  71.472  1.00  0.00    -0.116 NA 
HETATM    8  C   UNL     1      -9.913   7.550  69.399  1.00  0.00    -0.178 C  
HETATM    9  C   UNL     1      -7.782   6.429  70.153  1.00  0.00    -0.098 C  
HETATM   10  C   UNL     1      -6.441   5.755  69.966  1.00  0.00    -0.038 C  
HETATM   11  C   UNL     1      -8.529   6.936  69.130  1.00  0.00    -0.129 C  
BRANCH   6  12
HETATM   12  C   UNL     1      -9.662   7.368  73.308  1.00  0.00    -0.251 C  
HETATM   13  N   UNL     1      -9.873   7.595  74.530  1.00  0.00     0.017 NA 
HETATM   14  H2  UNL     1      -9.789   6.580  74.470  1.00  0.00     0.000 HD 
HETATM   15  H1  UNL     1     -10.045   7.779  75.519  1.00  0.00     0.000 HD 
ENDBRANCH   6  12
BRANCH  11  16
HETATM   16  C   UNL     1      -7.960   6.940  67.746  1.00  0.00    -0.114 C  
HETATM   17  O   UNL     1      -7.073   7.708  67.402  1.00  0.00    -0.081 OA 
BRANCH  16  18
HETATM   18  O   UNL     1      -8.516   6.012  66.913  1.00  0.00    -0.109 OA 
BRANCH  18  19
HETATM   19  C   UNL     1      -9.342   6.587  65.863  1.00  0.00     0.074 C  
HETATM   20  C   UNL     1     -10.593   7.206  66.481  1.00  0.00     0.023 C  
HETATM   21  C   UNL     1      -8.563   7.643  65.086  1.00  0.00     0.000 C  
ENDBRANCH  18  19
ENDBRANCH  16  18
ENDBRANCH  11  16
BRANCH   8  22
HETATM   22  C   UNL     1     -10.096   8.928  68.723  1.00  0.00    -0.215 A  
HETATM   23  C   UNL     1     -10.992   9.863  69.283  1.00  0.00    -0.244 A  
HETATM   24  C   UNL     1      -9.420   9.285  67.543  1.00  0.00    -0.160 A  
HETATM   25  C   UNL     1      -9.650  10.523  66.928  1.00  0.00    -0.206 A  
HETATM   26  C   UNL     1     -11.246  11.088  68.640  1.00  0.00    -0.263 A  
HETATM   27  O   UNL     1     -12.837  11.666  70.228  1.00  0.00    -0.017 OA 
HETATM   28  N   UNL     1     -12.266  12.001  69.180  1.00  0.00    -0.146 N  
HETATM   29  C   UNL     1     -10.571  11.424  67.464  1.00  0.00    -0.252 A  
HETATM   30  O   UNL     1     -12.505  13.041  68.547  1.00  0.00     0.072 OA 
ENDBRANCH   8  22
ENDBRANCH   3   5
ENDBRANCH   2   3
TORSDOF 7
ENDMDL
MODEL      217
REMARK 921   NORMALIZED FREE ENERGY PREDICTED BY IDOCK:    1.94 KCAL/MOL
REMARK 922        TOTAL FREE ENERGY PREDICTED BY IDOCK:    1.69 KCAL/MOL
REMARK 923 INTER-LIGAND FREE ENERGY PREDICTED BY IDOCK:   -4.93 KCAL/MOL
REMARK 924 INTRA-LIGAND FREE ENERGY PREDICTED BY IDOCK:    6.61 KCAL/MOL
REMARK 927      BINDING AFFINITY PREDICTED BY RF-SCORE:    0.00 PKD
ROOT
HETATM    1  C   UNL     1     -10.154   6.510  66.286  1.00  0.00     0.107 C  
HETATM    2  O   UNL     1      -8.732   6.597  66.454  1.00  0.00    -0.130 OA 
ENDROOT
BRANCH   2   3
HETATM    3  C   UNL     1      -8.350   7.272  67.568  1.00  0.00    -0.116 C  
HETATM    4  O   UNL     1      -7.281   7.832  67.729  1.00  0.00    -0.088 OA 
BRANCH   3   5
HETATM    5  C   UNL     1      -9.462   7.260  68.555  1.00  0.00    -0.140 C  
HETATM    6  C   UNL     1      -9.966   6.086  69.016  1.00  0.00    -0.158 C  
HETATM    7  N   UNL     1     -10.989   6.068  69.931  1.00  0.00    -0.362 NA 
HETATM    8  C   UNL     1     -10.039   8.615  68.997  1.00  0.00    -0.207 C  
HETATM    9  C   UNL     1     -11.630   7.223  70.376  1.00  0.00    -0.219 C  
HETATM   10  C   UNL     1     -12.756   6.987  71.356  1.00  0.00    -0.421 C  
HETATM   11  C   UNL     1     -11.237   8.458  69.948  1.00  0.00    -0.029 C  
BRANCH   6  12
HETATM   12  C   UNL     1      -9.534   4.776  68.379  1.00  0.00    -0.144 C  
HETATM   13  N   UNL     1      -9.176   3.689  67.849  1.00  0.00    -0.160 NA 
HETATM   14  H2  UNL     1      -9.483   4.266  67.066  1.00  0.00     0.000 HD 
HETATM   15  H1  UNL     1      -8.886   2.809  67.421  1.00  0.00     0.000 HD 
ENDBRANCH   6  12
BRANCH  11  16
HETATM   16  C   UNL     1     -12.023   9.659  70.372  1.00  0.00    -0.106 C  
HETATM   17  O   UNL     1     -13.210   9.794  70.111  1.00  0.00     0.249 OA 
BRANCH  16  18
HETATM   18  O   UNL     1     -11.299  10.579  71.075  1.00  0.00    -0.257 OA 
BRANCH  18  19
HETATM   19  C   UNL     1     -12.011  11.824  71.315  1.00  0.00     0.468 C  
HETATM   20  C   UNL     1     -12.206  12.563  69.994  1.00  0.00    -0.262 C  
HETATM   21  C   UNL     1     -13.362  11.552  71.968  1.00  0.00    -0.397 C  
ENDBRANCH  18  19
ENDBRANCH  16  18
ENDBRANCH  11  16
BRANCH   8  22
HETATM   22  C   UNL     1     -10.349   9.534  67.794  1.00  0.00    -0.291 A  
HETATM   23  C   UNL     1      -9.797   9.233  66.530  1.00  0.00    -0.331 A  
HETATM   24  C   UNL     1     -11.144  10.687  67.911  1.00  0.00    -0.371 A  
HETATM   25  C   UNL     1     -11.361  11.527  66.809  1.00  0.00    -0.309 A  
HETATM   26  C   UNL     1      -9.988  10.101  65.439  1.00  0.00    -0.307 A  
HETATM   27  O   UNL     1      -8.628   8.798  64.082  1.00  0.00    -0.158 OA 
HETATM   28  N   UNL     1      -9.313   9.828  64.160  1.00  0.00    -0.239 N  
HETATM   29  C   UNL     1     -10.776  11.246  65.574  1.00  0.00    -0.283 A  
HETATM   30  O   UNL     1      -9.456  10.652  63.243  1.00  0.00    -0.266 OA 
ENDBRANCH   8  22
ENDBRANCH   3   5
ENDBRANCH   2   3
TORSDOF 7
ENDMDL
MODEL      218
REMARK 921   NORMALIZED FREE ENERGY PREDICTED BY IDOCK:    2.28 KCAL/MOL
REMARK 922        TOTAL FREE ENERGY PREDICTED BY IDOCK:    2.17 KCAL/MOL
REMARK 923 INTER-LIGAND FREE ENERGY PREDICTED BY IDOCK:   -2.08 KCAL/MOL
REMARK 924 INTRA-LIGAND FREE ENERGY PREDICTED BY IDOCK:    4.25 KCAL/MOL
REMARK 927      BINDING AFFINITY PREDICTED BY RF-SCORE:    0.00 PKD
ROOT
HETATM    1  C   UNL     1      -6.407  16.999  70.746  1.00  0.00     1.269 C  
HETATM    2  O   UNL     1      -6.701  16.471  69.445  1.00  0.00    -0.203 OA 
ENDROOT
BRANCH   2   3
HETATM    3  C   UNL     1      -7.694  15.546  69.437  1.00  0.00    -0.227 C  
HETATM    4  O   UNL     1      -8.779  15.662  69.978  1.00  0.00     0.041 OA 
BRANCH   3   5
HETATM    5  C   UNL     1      -7.269  14.376  68.624  1.00  0.00    -0.123 C  
HETATM    6  C   UNL     1      -6.235  14.479  67.749  1.00  0.00    -0.136 C  
HETATM    7  N   UNL     1      -5.835  13.401  66.999  1.00  0.00     0.033 NA 
HETATM    8  C   UNL     1      -8.064  13.069  68.783  1.00  0.00     0.086 C  
HETATM    9  C   UNL     1      -6.500  12.176  67.016  1.00  0.00    -0.087 C  
HETATM   10  C   UNL     1      -5.923  11.128  66.091  1.00  0.00    -0.103 C  
HETATM   11  C   UNL     1      -7.579  11.969  67.825  1.00  0.00    -0.130 C  
BRANCH   6  12
HETATM   12  C   UNL     1      -5.634  15.842  67.447  1.00  0.00     0.007 C  
HETATM   13  N   UNL     1      -5.136  16.973  67.196  1.00  0.00    -0.135 NA 
HETATM   14  H2  UNL     1      -6.139  17.100  67.059  1.00  0.00     0.000 HD 
HETATM   15  H1  UNL     1      -4.733  17.888  66.993  1.00  0.00     0.000 HD 
ENDBRANCH   6  12
BRANCH  11  16
HETATM   16  C   UNL     1      -8.322  10.674  67.730  1.00  0.00    -0.115 C  
HETATM   17  O   UNL     1      -9.161  10.459  66.866  1.00  0.00    -0.149 OA 
BRANCH  16  18
HETATM   18  O   UNL     1      -7.976   9.760  68.684  1.00  0.00    -0.086 OA 
BRANCH  18  19
HETATM   19  C   UNL     1      -9.101   9.001  69.204  1.00  0.00    -0.140 C  
HETATM   20  C   UNL     1     -10.116   9.956  69.827  1.00  0.00    -0.274 C  
HETATM   21  C   UNL     1      -9.759   8.189  68.093  1.00  0.00    -0.180 C  
ENDBRANCH  18  19
ENDBRANCH  16  18
ENDBRANCH  11  16
BRANCH   8  22
HETATM   22  C   UNL     1      -9.589  13.304  68.698  1.00  0.00    -0.053 A  
HETATM   23  C   UNL     1     -10.245  13.999  69.738  1.00  0.00     0.570 A  
HETATM   24  C   UNL     1     -10.367  12.826  67.630  1.00  0.00    -0.221 A  
HETATM   25  C   UNL     1     -11.757  13.012  67.611  1.00  0.00    -0.415 A  
HETATM   26  C   UNL     1     -11.643  14.148  69.730  1.00  0.00    -0.290 A  
HETATM   27  O   UNL     1     -11.606  15.199  71.800  1.00  0.00    -0.377 OA 
HETATM   28  N   UNL     1     -12.318  14.776  70.878  1.00  0.00    -0.295 N  
HETATM   29  C   UNL     1     -12.402  13.662  68.664  1.00  0.00     0.003 A  
HETATM   30  O   UNL     1     -13.558  14.831  70.861  1.00  0.00    -0.351 OA 
ENDBRANCH   8  22
ENDBRANCH   3   5
ENDBRANCH   2   3
TORSDOF 7
ENDMDL
MODEL      219
REMARK 921   NORMALIZED FREE ENERGY PREDICTED BY IDOCK:    3.41 KCAL/MOL
REMARK 922        TOTAL FREE ENERGY PREDICTED BY IDOCK:    3.75 KCAL/MOL
REMARK 923 INTER-LIGAND FREE ENERGY PREDICTED BY IDOCK:    0.47 KCAL/MOL
REMARK 924 INTRA-LIGAND FREE ENERGY PREDICTED BY IDOCK:    3.28 KCAL/MOL
REMARK 927      BINDING AFFINITY PREDICTED BY RF-SCORE:    0.00 PKD
ROOT
HETATM    1  C   UNL     1      -7.854  19.098  66.545  1.00  0.00    -0.276 C  
HETATM    2  O   UNL     1      -8.129  18.312  65.375  1.00  0.00    -0.049 OA 
ENDROOT
BRANCH   2   3
HETATM    3  C   UNL     1      -8.849  17.189  65.623  1.00  0.00     0.482 C  
HETATM    4  O   UNL     1      -9.634  16.663  64.856  1.00  0.00     0.512 OA 
BRANCH   3   5
HETATM    5  C   UNL     1      -8.499  16.669  66.972  1.00  0.00    -0.225 C  
HETATM    6  C   UNL     1      -7.202  16.582  67.365  1.00  0.00    -0.149 C  
HETATM    7  N   UNL     1      -6.872  16.107  68.611  1.00  0.00    -0.125 NA 
HETATM    8  C   UNL     1      -9.650  16.200  67.878  1.00  0.00    -0.223 C  
HETATM    9  C   UNL     1      -7.815  15.608  69.506  1.00  0.00    -0.180 C  
HETATM   10  C   UNL     1      -7.246  15.099  70.812  1.00  0.00     0.970 C  
HETATM   11  C   UNL     1      -9.146  15.605  69.203  1.00  0.00    -0.256 C  
BRANCH   6  12
HETATM   12  C   UNL     1      -6.089  16.828  66.360  1.00  0.00     0.195 C  
HETATM   13  N   UNL     1      -5.166  17.031  65.525  1.00  0.00     0.339 NA 
HETATM   14  H2  UNL     1      -5.896  16.561  64.989  1.00  0.00     0.000 HD 
HETATM   15  H1  UNL     1      -4.419  17.196  64.850  1.00  0.00     0.000 HD 
ENDBRANCH   6  12
BRANCH  11  16
HETATM   16  C   UNL     1     -10.108  14.963  70.153  1.00  0.00     0.190 C  
HETATM   17  O   UNL     1     -10.183  15.286  71.330  1.00  0.00     0.397 OA 
BRANCH  16  18
HETATM   18  O   UNL     1     -10.889  13.997  69.587  1.00  0.00    -0.123 OA 
BRANCH  18  19
HETATM   19  C   UNL     1     -12.210  13.886  70.185  1.00  0.00    -0.358 C  
HETATM   20  C   UNL     1     -12.083  13.328  71.600  1.00  0.00     0.475 C  
HETATM   21  C   UNL     1     -12.899  15.246  70.217  1.00  0.00    -0.298 C  
ENDBRANCH  18  19
ENDBRANCH  16  18
ENDBRANCH  11  16
BRANCH   8  22
HETATM   22  C   UNL     1     -10.626  15.260  67.135  1.00  0.00    -0.302 A  
HETATM   23  C   UNL     1     -10.163  14.017  66.652  1.00  0.00    -0.275 A  
HETATM   24  C   UNL     1     -11.967  15.606  66.891  1.00  0.00     0.653 A  
HETATM   25  C   UNL     1     -12.811  14.751  66.167  1.00  0.00     0.592 A  
HETATM   26  C   UNL     1     -11.005  13.183  65.895  1.00  0.00    -0.271 A  
HETATM   27  O   UNL     1      -9.289  11.659  65.547  1.00  0.00    -0.222 OA 
HETATM   28  N   UNL     1     -10.471  11.945  65.306  1.00  0.00    -0.264 N  
HETATM   29  C   UNL     1     -12.333  13.545  65.656  1.00  0.00    -0.522 A  
HETATM   30  O   UNL     1     -11.228  11.269  64.591  1.00  0.00    -0.219 OA 
ENDBRANCH   8  22
ENDBRANCH   3   5
ENDBRANCH   2   3
TORSDOF 7
ENDMDL
MODEL      220
REMARK 921   NORMALIZED FREE ENERGY PREDICTED BY IDOCK:    3.63 KCAL/MOL
REMARK 922        TOTAL FREE ENERGY PREDICTED BY IDOCK:    4.07 KCAL/MOL
REMARK 923 INTER-LIGAND FREE ENERGY PREDICTED BY IDOCK:    1.78 KCAL/MOL
REMARK 924 INTRA-LIGAND FREE ENERGY PREDICTED BY IDOCK:    2.28 KCAL/MOL
REMARK 927      BINDING AFFINITY PREDICTED BY RF-SCORE:    0.00 PKD
ROOT
HETATM    1  C   UNL     1      -8.335  15.373  70.335  1.00  0.00     1.165 C  
HETATM    2  O   UNL     1      -9.534  15.421  69.548  1.00  0.00    -0.256 OA 
ENDROOT
BRANCH   2   3
HETATM    3  C   UNL     1     -10.076  16.661  69.445  1.00  0.00    -0.204 C  
HETATM    4  O   UNL     1     -11.200  16.978  69.790  1.00  0.00     0.097 OA 
BRANCH   3   5
HETATM    5  C   UNL     1      -9.064  17.594  68.881  1.00  0.00    -0.134 C  
HETATM    6  C   UNL     1      -8.817  18.789  69.477  1.00  0.00     0.511 C  
HETATM    7  N   UNL     1      -7.881  19.653  68.964  1.00  0.00    -0.304 NA 
HETATM    8  C   UNL     1      -8.347  17.173  67.587  1.00  0.00    -0.197 C  
HETATM    9  C   UNL     1      -7.197  19.412  67.774  1.00  0.00    -0.251 C  
HETATM   10  C   UNL     1      -6.234  20.503  67.362  1.00  0.00    -0.279 C  
HETATM   11  C   UNL     1      -7.395  18.263  67.065  1.00  0.00    -0.225 C  
BRANCH   6  12
HETATM   12  C   UNL     1      -9.711  19.269  70.608  1.00  0.00     1.780 C  
HETATM   13  N   UNL     1     -10.452  19.668  71.546  1.00  0.00     1.405 NA 
HETATM   14  H2  UNL     1      -9.705  20.362  71.499  1.00  0.00     0.000 HD 
HETATM   15  H1  UNL     1     -11.053  19.991  72.306  1.00  0.00     0.000 HD 
ENDBRANCH   6  12
BRANCH  11  16
HETATM   16  C   UNL     1      -6.717  18.098  65.742  1.00  0.00    -0.273 C  
HETATM   17  O   UNL     1      -7.155  17.365  64.866  1.00  0.00     1.382 OA 
BRANCH  16  18
HETATM   18  O   UNL     1      -5.578  18.838  65.603  1.00  0.00    -0.149 OA 
BRANCH  18  19
HETATM   19  C   UNL     1      -5.554  19.656  64.401  1.00  0.00    -0.237 C  
HETATM   20  C   UNL     1      -5.271  18.774  63.189  1.00  0.00    -0.124 C  
HETATM   21  C   UNL     1      -6.883  20.383  64.222  1.00  0.00     0.119 C  
ENDBRANCH  18  19
ENDBRANCH  16  18
ENDBRANCH  11  16
BRANCH   8  22
HETATM   22  C   UNL     1      -9.338  16.680  66.509  1.00  0.00    -0.290 A  
HETATM   23  C   UNL     1      -9.422  15.301  66.221  1.00  0.00    -0.341 A  
HETATM   24  C   UNL     1     -10.150  17.560  65.773  1.00  0.00    -0.119 A  
HETATM   25  C   UNL     1     -11.000  17.083  64.765  1.00  0.00     0.208 A  
HETATM   26  C   UNL     1     -10.249  14.835  65.182  1.00  0.00    -0.377 A  
HETATM   27  O   UNL     1      -9.521  12.653  65.497  1.00  0.00    -0.090 OA 
HETATM   28  N   UNL     1     -10.238  13.407  64.824  1.00  0.00    -0.349 N  
HETATM   29  C   UNL     1     -11.045  15.723  64.456  1.00  0.00    -0.293 A  
HETATM   30  O   UNL     1     -10.933  13.047  63.860  1.00  0.00    -0.395 OA 
ENDBRANCH   8  22
ENDBRANCH   3   5
ENDBRANCH   2   3
TORSDOF 7
ENDMDL
MODEL      221
REMARK 921   NORMALIZED FREE ENERGY PREDICTED BY IDOCK:    3.69 KCAL/MOL
REMARK 922        TOTAL FREE ENERGY PREDICTED BY IDOCK:    4.15 KCAL/MOL
REMARK 923 INTER-LIGAND FREE ENERGY PREDICTED BY IDOCK:   -0.38 KCAL/MOL
REMARK 924 INTRA-LIGAND FREE ENERGY PREDICTED BY IDOCK:    4.53 KCAL/MOL
REMARK 927      BINDING AFFINITY PREDICTED BY RF-SCORE:    0.00 PKD
ROOT
HETATM    1  C   UNL     1     -11.052   7.734  71.782  1.00  0.00    -0.245 C  
HETATM    2  O   UNL     1     -10.462   9.042  71.758  1.00  0.00    -0.332 OA 
ENDROOT
BRANCH   2   3
HETATM    3  C   UNL     1      -9.370   9.139  70.959  1.00  0.00    -0.263 C  
HETATM    4  O   UNL     1      -8.211   9.124  71.331  1.00  0.00    -0.316 OA 
BRANCH   3   5
HETATM    5  C   UNL     1      -9.806   9.223  69.539  1.00  0.00    -0.188 C  
HETATM    6  C   UNL     1     -10.053   8.095  68.824  1.00  0.00    -0.199 C  
HETATM    7  N   UNL     1     -10.461   8.166  67.514  1.00  0.00    -0.258 NA 
HETATM    8  C   UNL     1      -9.925  10.621  68.910  1.00  0.00    -0.213 C  
HETATM    9  C   UNL     1     -10.562   9.366  66.815  1.00  0.00    -0.139 C  
HETATM   10  C   UNL     1     -10.994   9.227  65.372  1.00  0.00     3.042 C  
HETATM   11  C   UNL     1     -10.298  10.561  67.419  1.00  0.00    -0.269 C  
BRANCH   6  12
HETATM   12  C   UNL     1      -9.695   6.737  69.404  1.00  0.00    -0.152 C  
HETATM   13  N   UNL     1      -9.397   5.610  69.885  1.00  0.00    -0.144 NA 
HETATM   14  H2  UNL     1      -8.638   5.819  69.236  1.00  0.00     0.000 HD 
HETATM   15  H1  UNL     1      -9.156   4.699  70.275  1.00  0.00     0.000 HD 
ENDBRANCH   6  12
BRANCH  11  16
HETATM   16  C   UNL     1     -10.318  11.812  66.599  1.00  0.00    -0.218 C  
HETATM   17  O   UNL     1     -11.309  12.522  66.507  1.00  0.00    -0.297 OA 
BRANCH  16  18
HETATM   18  O   UNL     1      -9.136  12.087  65.971  1.00  0.00    -0.191 OA 
BRANCH  18  19
HETATM   19  C   UNL     1      -9.286  12.443  64.570  1.00  0.00     0.481 C  
HETATM   20  C   UNL     1      -9.518  11.180  63.744  1.00  0.00    -0.258 C  
HETATM   21  C   UNL     1     -10.450  13.411  64.385  1.00  0.00    -0.403 C  
ENDBRANCH  18  19
ENDBRANCH  16  18
ENDBRANCH  11  16
BRANCH   8  22
HETATM   22  C   UNL     1      -8.673  11.486  69.178  1.00  0.00     0.255 A  
HETATM   23  C   UNL     1      -8.623  12.808  68.686  1.00  0.00     0.054 A  
HETATM   24  C   UNL     1      -7.555  10.998  69.877  1.00  0.00     0.366 A  
HETATM   25  C   UNL     1      -6.415  11.794  70.056  1.00  0.00    -0.022 A  
HETATM   26  C   UNL     1      -7.461  13.586  68.837  1.00  0.00    -0.017 A  
HETATM   27  O   UNL     1      -8.393  15.329  67.620  1.00  0.00    -0.149 OA 
HETATM   28  N   UNL     1      -7.388  14.920  68.220  1.00  0.00    -0.103 N  
HETATM   29  C   UNL     1      -6.357  13.084  69.529  1.00  0.00    -0.103 A  
HETATM   30  O   UNL     1      -6.323  15.548  68.322  1.00  0.00    -0.103 OA 
ENDBRANCH   8  22
ENDBRANCH   3   5
ENDBRANCH   2   3
TORSDOF 7
ENDMDL
MODEL      222
REMARK 921   NORMALIZED FREE ENERGY PREDICTED BY IDOCK:    4.07 KCAL/MOL
REMARK 922        TOTAL FREE ENERGY PREDICTED BY IDOCK:    4.68 KCAL/MOL
REMARK 923 INTER-LIGAND FREE ENERGY PREDICTED BY IDOCK:    3.32 KCAL/MOL
REMARK 924 INTRA-LIGAND FREE ENERGY PREDICTED BY IDOCK:    1.37 KCAL/MOL
REMARK 927      BINDING AFFINITY PREDICTED BY RF-SCORE:    0.00 PKD
ROOT
HETATM    1  C   UNL     1     -11.226   3.671  66.461  1.00  0.00     4.446 C  
HETATM    2  O   UNL     1      -9.970   3.544  65.779  1.00  0.00    -0.046 OA 
ENDROOT
BRANCH   2   3
HETATM    3  C   UNL     1      -9.850   4.349  64.693  1.00  0.00    -0.085 C  
HETATM    4  O   UNL     1     -10.580   4.345  63.719  1.00  0.00     0.040 OA 
BRANCH   3   5
HETATM    5  C   UNL     1      -8.705   5.277  64.894  1.00  0.00    -0.122 C  
HETATM    6  C   UNL     1      -7.447   4.913  64.530  1.00  0.00    -0.071 C  
HETATM    7  N   UNL     1      -6.387   5.767  64.708  1.00  0.00    -0.036 NA 
HETATM    8  C   UNL     1      -8.992   6.633  65.559  1.00  0.00     0.077 C  
HETATM    9  C   UNL     1      -6.505   7.003  65.340  1.00  0.00    -0.047 C  
HETATM   10  C   UNL     1      -5.213   7.777  65.470  1.00  0.00    -0.029 C  
HETATM   11  C   UNL     1      -7.713   7.456  65.786  1.00  0.00    -0.102 C  
BRANCH   6  12
HETATM   12  C   UNL     1      -7.168   3.483  64.101  1.00  0.00    -0.058 C  
HETATM   13  N   UNL     1      -6.936   2.295  63.745  1.00  0.00    -0.035 NA 
HETATM   14  H2  UNL     1      -6.293   2.859  63.189  1.00  0.00     0.000 HD 
HETATM   15  H1  UNL     1      -6.749   1.334  63.457  1.00  0.00     0.000 HD 
ENDBRANCH   6  12
BRANCH  11  16
HETATM   16  C   UNL     1      -7.771   8.740  66.551  1.00  0.00    -0.099 C  
HETATM   17  O   UNL     1      -6.932   9.048  67.385  1.00  0.00    -0.076 OA 
BRANCH  16  18
HETATM   18  O   UNL     1      -8.837   9.532  66.231  1.00  0.00    -0.141 OA 
BRANCH  18  19
HETATM   19  C   UNL     1      -8.511  10.947  66.146  1.00  0.00    -0.171 C  
HETATM   20  C   UNL     1      -9.647  11.691  65.449  1.00  0.00    -0.228 C  
HETATM   21  C   UNL     1      -8.280  11.528  67.537  1.00  0.00    -0.140 C  
ENDBRANCH  18  19
ENDBRANCH  16  18
ENDBRANCH  11  16
BRANCH   8  22
HETATM   22  C   UNL     1      -9.840   6.482  66.842  1.00  0.00    -0.211 A  
HETATM   23  C   UNL     1      -9.396   5.625  67.872  1.00  0.00    -0.112 A  
HETATM   24  C   UNL     1     -11.066   7.147  67.018  1.00  0.00    -0.159 A  
HETATM   25  C   UNL     1     -11.835   6.946  68.173  1.00  0.00     1.328 A  
HETATM   26  C   UNL     1     -10.191   5.399  69.009  1.00  0.00    -0.221 A  
HETATM   27  O   UNL     1      -8.672   3.854  69.843  1.00  0.00    -0.069 OA 
HETATM   28  N   UNL     1      -9.762   4.417  70.018  1.00  0.00    -0.204 N  
HETATM   29  C   UNL     1     -11.409   6.064  69.166  1.00  0.00    -0.196 A  
HETATM   30  O   UNL     1     -10.523   4.200  70.975  1.00  0.00     0.082 OA 
ENDBRANCH   8  22
ENDBRANCH   3   5
ENDBRANCH   2   3
TORSDOF 7
ENDMDL
MODEL      223
REMARK 921   NORMALIZED FREE ENERGY PREDICTED BY IDOCK:    4.88 KCAL/MOL
REMARK 922        TOTAL FREE ENERGY PREDICTED BY IDOCK:    5.83 KCAL/MOL
REMARK 923 INTER-LIGAND FREE ENERGY PREDICTED BY IDOCK:    1.44 KCAL/MOL
REMARK 924 INTRA-LIGAND FREE ENERGY PREDICTED BY IDOCK:    4.39 KCAL/MOL
REMARK 927      BINDING AFFINITY PREDICTED BY RF-SCORE:    0.00 PKD
ROOT
HETATM    1  C   UNL     1      -8.378  10.038  71.243  1.00  0.00     1.883 C  
HETATM    2  O   UNL     1      -9.110   9.588  70.093  1.00  0.00    -0.208 OA 
ENDROOT
BRANCH   2   3
HETATM    3  C   UNL     1      -8.334   9.036  69.127  1.00  0.00    -0.123 C  
HETATM    4  O   UNL     1      -7.136   9.210  68.990  1.00  0.00    -0.065 OA 
BRANCH   3   5
HETATM    5  C   UNL     1      -9.166   8.144  68.277  1.00  0.00    -0.134 C  
HETATM    6  C   UNL     1     -10.404   8.531  67.872  1.00  0.00    -0.223 C  
HETATM    7  N   UNL     1     -11.176   7.713  67.084  1.00  0.00     0.197 NA 
HETATM    8  C   UNL     1      -8.593   6.764  67.913  1.00  0.00    -0.122 C  
HETATM    9  C   UNL     1     -10.792   6.423  66.724  1.00  0.00    -0.291 C  
HETATM   10  C   UNL     1     -11.798   5.672  65.881  1.00  0.00     2.318 C  
HETATM   11  C   UNL     1      -9.587   5.911  67.109  1.00  0.00    -0.136 C  
BRANCH   6  12
HETATM   12  C   UNL     1     -11.028   9.791  68.447  1.00  0.00    -0.152 C  
HETATM   13  N   UNL     1     -11.546  10.837  68.925  1.00  0.00    -0.369 NA 
HETATM   14  H2  UNL     1     -12.295  10.145  68.953  1.00  0.00     0.000 HD 
HETATM   15  H1  UNL     1     -11.965  11.683  69.311  1.00  0.00     0.000 HD 
ENDBRANCH   6  12
BRANCH  11  16
HETATM   16  C   UNL     1      -9.266   4.485  66.787  1.00  0.00    -0.132 C  
HETATM   17  O   UNL     1      -9.851   3.546  67.307  1.00  0.00    -0.106 OA 
BRANCH  16  18
HETATM   18  O   UNL     1      -8.271   4.332  65.864  1.00  0.00    -0.108 OA 
BRANCH  18  19
HETATM   19  C   UNL     1      -7.735   5.589  65.367  1.00  0.00    -0.089 C  
HETATM   20  C   UNL     1      -6.923   5.332  64.100  1.00  0.00    -0.048 C  
HETATM   21  C   UNL     1      -8.862   6.575  65.076  1.00  0.00     0.252 C  
ENDBRANCH  18  19
ENDBRANCH  16  18
ENDBRANCH  11  16
BRANCH   8  22
HETATM   22  C   UNL     1      -8.035   6.024  69.150  1.00  0.00    -0.103 A  
HETATM   23  C   UNL     1      -8.832   5.907  70.309  1.00  0.00    -0.145 A  
HETATM   24  C   UNL     1      -6.740   5.478  69.181  1.00  0.00    -0.053 A  
HETATM   25  C   UNL     1      -6.247   4.859  70.339  1.00  0.00    -0.022 A  
HETATM   26  C   UNL     1      -8.317   5.319  71.478  1.00  0.00    -0.121 A  
HETATM   27  O   UNL     1     -10.267   5.785  72.649  1.00  0.00    -0.177 OA 
HETATM   28  N   UNL     1      -9.124   5.308  72.708  1.00  0.00    -0.133 N  
HETATM   29  C   UNL     1      -7.026   4.787  71.494  1.00  0.00    -0.044 A  
HETATM   30  O   UNL     1      -8.609   4.837  73.735  1.00  0.00    -0.104 OA 
ENDBRANCH   8  22
ENDBRANCH   3   5
ENDBRANCH   2   3
TORSDOF 7
ENDMDL
MODEL      224
REMARK 921   NORMALIZED FREE ENERGY PREDICTED BY IDOCK:    5.20 KCAL/MOL
REMARK 922        TOTAL FREE ENERGY PREDICTED BY IDOCK:    6.28 KCAL/MOL
REMARK 923 INTER-LIGAND FREE ENERGY PREDICTED BY IDOCK:    0.06 KCAL/MOL
REMARK 924 INTRA-LIGAND FREE ENERGY PREDICTED BY IDOCK:    6.22 KCAL/MOL
REMARK 927      BINDING AFFINITY PREDICTED BY RF-SCORE:    0.00 PKD
ROOT
HETATM    1  C   UNL     1      -8.582   4.349  65.013  1.00  0.00    -0.128 C  
HETATM    2  O   UNL     1      -9.105   5.547  65.605  1.00  0.00    -0.160 OA 
ENDROOT
BRANCH   2   3
HETATM    3  C   UNL     1      -8.303   6.632  65.453  1.00  0.00    -0.129 C  
HETATM    4  O   UNL     1      -8.101   7.228  64.411  1.00  0.00    -0.132 OA 
BRANCH   3   5
HETATM    5  C   UNL     1      -7.736   7.012  66.775  1.00  0.00    -0.098 C  
HETATM    6  C   UNL     1      -7.559   6.079  67.746  1.00  0.00    -0.096 C  
HETATM    7  N   UNL     1      -7.031   6.422  68.966  1.00  0.00    -0.069 NA 
HETATM    8  C   UNL     1      -7.401   8.494  67.009  1.00  0.00    -0.084 C  
HETATM    9  C   UNL     1      -6.730   7.736  69.320  1.00  0.00    -0.044 C  
HETATM   10  C   UNL     1      -6.192   7.908  70.723  1.00  0.00    -0.034 C  
HETATM   11  C   UNL     1      -6.907   8.763  68.440  1.00  0.00    -0.065 C  
BRANCH   6  12
HETATM   12  C   UNL     1      -8.122   4.680  67.562  1.00  0.00    -0.101 C  
HETATM   13  N   UNL     1      -8.591   3.518  67.410  1.00  0.00    -0.097 NA 
HETATM   14  H2  UNL     1      -9.326   4.028  67.899  1.00  0.00     0.000 HD 
HETATM   15  H1  UNL     1      -8.969   2.579  67.287  1.00  0.00     0.000 HD 
ENDBRANCH   6  12
BRANCH  11  16
HETATM   16  C   UNL     1      -6.669  10.166  68.901  1.00  0.00    -0.053 C  
HETATM   17  O   UNL     1      -5.551  10.656  68.969  1.00  0.00    -0.041 OA 
BRANCH  16  18
HETATM   18  O   UNL     1      -7.807  10.845  69.233  1.00  0.00    -0.144 OA 
BRANCH  18  19
HETATM   19  C   UNL     1      -7.568  12.209  69.677  1.00  0.00     0.827 C  
HETATM   20  C   UNL     1      -6.289  12.738  69.032  1.00  0.00    -0.096 C  
HETATM   21  C   UNL     1      -8.748  13.105  69.314  1.00  0.00     0.880 C  
ENDBRANCH  18  19
ENDBRANCH  16  18
ENDBRANCH  11  16
BRANCH   8  22
HETATM   22  C   UNL     1      -8.563   9.424  66.593  1.00  0.00    -0.138 A  
HETATM   23  C   UNL     1      -8.329  10.809  66.452  1.00  0.00    -0.153 A  
HETATM   24  C   UNL     1      -9.867   8.949  66.374  1.00  0.00    -0.353 A  
HETATM   25  C   UNL     1     -10.910   9.829  66.049  1.00  0.00     0.413 A  
HETATM   26  C   UNL     1      -9.387  11.689  66.164  1.00  0.00    -0.224 A  
HETATM   27  O   UNL     1      -7.982  13.531  66.318  1.00  0.00     0.924 OA 
HETATM   28  N   UNL     1      -9.143  13.141  66.133  1.00  0.00     0.015 N  
HETATM   29  C   UNL     1     -10.679  11.201  65.955  1.00  0.00    -0.261 A  
HETATM   30  O   UNL     1     -10.116  13.887  65.938  1.00  0.00    -0.300 OA 
ENDBRANCH   8  22
ENDBRANCH   3   5
ENDBRANCH   2   3
TORSDOF 7
ENDMDL
MODEL      225
REMARK 921   NORMALIZED FREE ENERGY PREDICTED BY IDOCK:    5.91 KCAL/MOL
REMARK 922        TOTAL FREE ENERGY PREDICTED BY IDOCK:    7.27 KCAL/MOL
REMARK 923 INTER-LIGAND FREE ENERGY PREDICTED BY IDOCK:    5.50 KCAL/MOL
REMARK 924 INTRA-LIGAND FREE ENERGY PREDICTED BY IDOCK:    1.77 KCAL/MOL
REMARK 927      BINDING AFFINITY PREDICTED BY RF-SCORE:    0.00 PKD
ROOT
HETATM    1  C   UNL     1      -9.780  14.663  64.781  1.00  0.00     0.578 C  
HETATM    2  O   UNL     1     -10.252  13.577  65.593  1.00  0.00    -0.287 OA 
ENDROOT
BRANCH   2   3
HETATM    3  C   UNL     1      -9.320  13.082  66.446  1.00  0.00    -0.182 C  
HETATM    4  O   UNL     1      -8.526  12.194  66.195  1.00  0.00     0.046 OA 
BRANCH   3   5
HETATM    5  C   UNL     1      -9.387  13.825  67.732  1.00  0.00    -0.213 C  
HETATM    6  C   UNL     1      -8.390  14.674  68.094  1.00  0.00    -0.144 C  
HETATM    7  N   UNL     1      -8.448  15.367  69.279  1.00  0.00    -0.246 NA 
HETATM    8  C   UNL     1     -10.598  13.567  68.645  1.00  0.00    -0.259 C  
HETATM    9  C   UNL     1      -9.466  15.187  70.213  1.00  0.00     0.524 C  
HETATM   10  C   UNL     1      -9.329  16.018  71.469  1.00  0.00     4.866 C  
HETATM   11  C   UNL     1     -10.500  14.328  69.977  1.00  0.00     0.419 C  
BRANCH   6  12
HETATM   12  C   UNL     1      -7.105  14.719  67.285  1.00  0.00    -0.033 C  
HETATM   13  N   UNL     1      -6.039  14.757  66.613  1.00  0.00     0.967 NA 
HETATM   14  H2  UNL     1      -6.350  13.788  66.543  1.00  0.00     0.000 HD 
HETATM   15  H1  UNL     1      -5.176  14.787  66.069  1.00  0.00     0.000 HD 
ENDBRANCH   6  12
BRANCH  11  16
HETATM   16  C   UNL     1     -11.510  14.092  71.054  1.00  0.00     0.248 C  
HETATM   17  O   UNL     1     -11.451  14.644  72.144  1.00  0.00    -0.091 OA 
BRANCH  16  18
HETATM   18  O   UNL     1     -12.499  13.215  70.709  1.00  0.00    -0.349 OA 
BRANCH  18  19
HETATM   19  C   UNL     1     -12.990  12.418  71.821  1.00  0.00    -0.316 C  
HETATM   20  C   UNL     1     -14.375  12.913  72.231  1.00  0.00     0.128 C  
HETATM   21  C   UNL     1     -13.053  10.943  71.438  1.00  0.00    -0.457 C  
ENDBRANCH  18  19
ENDBRANCH  16  18
ENDBRANCH  11  16
BRANCH   8  22
HETATM   22  C   UNL     1     -10.866  12.057  68.839  1.00  0.00    -0.252 A  
HETATM   23  C   UNL     1      -9.816  11.214  69.263  1.00  0.00    -0.000 A  
HETATM   24  C   UNL     1     -12.119  11.475  68.581  1.00  0.00    -0.197 A  
HETATM   25  C   UNL     1     -12.312  10.092  68.717  1.00  0.00     1.236 A  
HETATM   26  C   UNL     1     -10.008   9.824  69.360  1.00  0.00    -0.205 A  
HETATM   27  O   UNL     1      -7.782   9.492  69.929  1.00  0.00    -0.095 OA 
HETATM   28  N   UNL     1      -8.872   8.950  69.695  1.00  0.00    -0.138 N  
HETATM   29  C   UNL     1     -11.258   9.260  69.094  1.00  0.00     0.101 A  
HETATM   30  O   UNL     1      -9.068   7.724  69.708  1.00  0.00    -0.146 OA 
ENDBRANCH   8  22
ENDBRANCH   3   5
ENDBRANCH   2   3
TORSDOF 7
ENDMDL
MODEL      226
REMARK 921   NORMALIZED FREE ENERGY PREDICTED BY IDOCK:    6.90 KCAL/MOL
REMARK 922        TOTAL FREE ENERGY PREDICTED BY IDOCK:    8.68 KCAL/MOL
REMARK 923 INTER-LIGAND FREE ENERGY PREDICTED BY IDOCK:   -2.55 KCAL/MOL
REMARK 924 INTRA-LIGAND FREE ENERGY PREDICTED BY IDOCK:   11.23 KCAL/MOL
REMARK 927      BINDING AFFINITY PREDICTED BY RF-SCORE:    0.00 PKD
ROOT
HETATM    1  C   UNL     1      -6.024   9.328  65.603  1.00  0.00    -0.055 C  
HETATM    2  O   UNL     1      -6.683  10.251  66.482  1.00  0.00    -0.080 OA 
ENDROOT
BRANCH   2   3
HETATM    3  C   UNL     1      -7.807  10.803  65.958  1.00  0.00    -0.149 C  
HETATM    4  O   UNL     1      -7.874  11.423  64.912  1.00  0.00     0.610 OA 
BRANCH   3   5
HETATM    5  C   UNL     1      -8.963  10.497  66.841  1.00  0.00    -0.151 C  
HETATM    6  C   UNL     1      -9.979  11.387  66.984  1.00  0.00    -0.201 C  
HETATM    7  N   UNL     1     -11.053  11.108  67.794  1.00  0.00    -0.263 NA 
HETATM    8  C   UNL     1      -8.943   9.165  67.609  1.00  0.00    -0.130 C  
HETATM    9  C   UNL     1     -11.133   9.960  68.579  1.00  0.00    -0.129 C  
HETATM   10  C   UNL     1     -12.379   9.857  69.429  1.00  0.00     0.708 C  
HETATM   11  C   UNL     1     -10.150   9.013  68.550  1.00  0.00    -0.211 C  
BRANCH   6  12
HETATM   12  C   UNL     1      -9.849  12.784  66.401  1.00  0.00    -0.269 C  
HETATM   13  N   UNL     1      -9.740  13.944  65.918  1.00  0.00    -0.466 NA 
HETATM   14  H2  UNL     1      -9.571  14.066  66.916  1.00  0.00     0.000 HD 
HETATM   15  H1  UNL     1      -9.652  14.882  65.526  1.00  0.00     0.000 HD 
ENDBRANCH   6  12
BRANCH  11  16
HETATM   16  C   UNL     1     -10.231   7.851  69.488  1.00  0.00    -0.208 C  
HETATM   17  O   UNL     1     -11.185   7.086  69.506  1.00  0.00    -0.220 OA 
BRANCH  16  18
HETATM   18  O   UNL     1      -9.148   7.721  70.310  1.00  0.00    -0.151 OA 
BRANCH  18  19
HETATM   19  C   UNL     1      -9.192   6.538  71.155  1.00  0.00    -0.156 C  
HETATM   20  C   UNL     1      -7.944   5.693  70.914  1.00  0.00    -0.110 C  
HETATM   21  C   UNL     1      -9.283   6.932  72.625  1.00  0.00    -0.151 C  
ENDBRANCH  18  19
ENDBRANCH  16  18
ENDBRANCH  11  16
BRANCH   8  22
HETATM   22  C   UNL     1      -7.594   8.930  68.326  1.00  0.00    -0.092 A  
HETATM   23  C   UNL     1      -7.552   8.901  69.737  1.00  0.00    -0.069 A  
HETATM   24  C   UNL     1      -6.386   8.769  67.626  1.00  0.00    -0.057 A  
HETATM   25  C   UNL     1      -5.173   8.610  68.310  1.00  0.00    -0.034 A  
HETATM   26  C   UNL     1      -6.327   8.779  70.416  1.00  0.00    -0.040 A  
HETATM   27  O   UNL     1      -7.373   8.994  72.477  1.00  0.00    -0.333 OA 
HETATM   28  N   UNL     1      -6.292   8.864  71.885  1.00  0.00    -0.079 N  
HETATM   29  C   UNL     1      -5.134   8.626  69.705  1.00  0.00    -0.030 A  
HETATM   30  O   UNL     1      -5.184   8.817  72.442  1.00  0.00    -0.041 OA 
ENDBRANCH   8  22
ENDBRANCH   3   5
ENDBRANCH   2   3
TORSDOF 7
ENDMDL
MODEL      227
REMARK 921   NORMALIZED FREE ENERGY PREDICTED BY IDOCK:    7.85 KCAL/MOL
REMARK 922        TOTAL FREE ENERGY PREDICTED BY IDOCK:   10.01 KCAL/MOL
REMARK 923 INTER-LIGAND FREE ENERGY PREDICTED BY IDOCK:    7.32 KCAL/MOL
REMARK 924 INTRA-LIGAND FREE ENERGY PREDICTED BY IDOCK:    2.69 KCAL/MOL
REMARK 927      BINDING AFFINITY PREDICTED BY RF-SCORE:    0.00 PKD
ROOT
HETATM    1  C   UNL     1      -9.208  14.154  63.384  1.00  0.00     9.115 C  
HETATM    2  O   UNL     1      -8.866  13.010  64.180  1.00  0.00     1.800 OA 
ENDROOT
BRANCH   2   3
HETATM    3  C   UNL     1      -9.486  12.974  65.387  1.00  0.00     0.230 C  
HETATM    4  O   UNL     1     -10.622  13.350  65.615  1.00  0.00    -0.272 OA 
BRANCH   3   5
HETATM    5  C   UNL     1      -8.576  12.359  66.389  1.00  0.00     0.076 C  
HETATM    6  C   UNL     1      -8.435  11.010  66.460  1.00  0.00    -0.161 C  
HETATM    7  N   UNL     1      -7.592  10.436  67.380  1.00  0.00    -0.094 NA 
HETATM    8  C   UNL     1      -7.841  13.300  67.359  1.00  0.00    -0.159 C  
HETATM    9  C   UNL     1      -6.906  11.173  68.344  1.00  0.00    -0.066 C  
HETATM   10  C   UNL     1      -6.057  10.350  69.287  1.00  0.00    -0.038 C  
HETATM   11  C   UNL     1      -7.004  12.533  68.396  1.00  0.00    -0.096 C  
BRANCH   6  12
HETATM   12  C   UNL     1      -9.354  10.110  65.652  1.00  0.00    -0.199 C  
HETATM   13  N   UNL     1     -10.116   9.363  64.980  1.00  0.00    -0.160 NA 
HETATM   14  H2  UNL     1      -9.232   9.349  64.471  1.00  0.00     0.000 HD 
HETATM   15  H1  UNL     1     -10.734   8.758  64.437  1.00  0.00     0.000 HD 
ENDBRANCH   6  12
BRANCH  11  16
HETATM   16  C   UNL     1      -6.333  13.269  69.512  1.00  0.00    -0.104 C  
HETATM   17  O   UNL     1      -5.790  12.694  70.446  1.00  0.00    -0.166 OA 
BRANCH  16  18
HETATM   18  O   UNL     1      -6.377  14.628  69.390  1.00  0.00    -0.108 OA 
BRANCH  18  19
HETATM   19  C   UNL     1      -6.220  15.335  70.651  1.00  0.00     0.104 C  
HETATM   20  C   UNL     1      -5.878  14.338  71.756  1.00  0.00    -0.084 C  
HETATM   21  C   UNL     1      -5.125  16.391  70.541  1.00  0.00    -0.201 C  
ENDBRANCH  18  19
ENDBRANCH  16  18
ENDBRANCH  11  16
BRANCH   8  22
HETATM   22  C   UNL     1      -8.796  14.329  68.005  1.00  0.00    -0.178 A  
HETATM   23  C   UNL     1      -8.476  15.702  67.954  1.00  0.00    -0.153 A  
HETATM   24  C   UNL     1      -9.972  13.949  68.674  1.00  0.00    -0.189 A  
HETATM   25  C   UNL     1     -10.789  14.905  69.295  1.00  0.00    -0.272 A  
HETATM   26  C   UNL     1      -9.279  16.651  68.611  1.00  0.00    -0.248 A  
HETATM   27  O   UNL     1      -7.833  18.372  68.033  1.00  0.00    -0.259 OA 
HETATM   28  N   UNL     1      -8.868  18.064  68.641  1.00  0.00    -0.291 N  
HETATM   29  C   UNL     1     -10.442  16.256  69.277  1.00  0.00    -0.285 A  
HETATM   30  O   UNL     1      -9.571  18.858  69.286  1.00  0.00    -0.217 OA 
ENDBRANCH   8  22
ENDBRANCH   3   5
ENDBRANCH   2   3
TORSDOF 7
ENDMDL
MODEL      228
REMARK 921   NORMALIZED FREE ENERGY PREDICTED BY IDOCK:    8.28 KCAL/MOL
REMARK 922        TOTAL FREE ENERGY PREDICTED BY IDOCK:   10.62 KCAL/MOL
REMARK 923 INTER-LIGAND FREE ENERGY PREDICTED BY IDOCK:   -1.82 KCAL/MOL
REMARK 924 INTRA-LIGAND FREE ENERGY PREDICTED BY IDOCK:   12.44 KCAL/MOL
REMARK 927      BINDING AFFINITY PREDICTED BY RF-SCORE:    0.00 PKD
ROOT
HETATM    1  C   UNL     1      -6.532   6.146  67.005  1.00  0.00    -0.053 C  
HETATM    2  O   UNL     1      -5.458   7.086  66.850  1.00  0.00    -0.017 OA 
ENDROOT
BRANCH   2   3
HETATM    3  C   UNL     1      -5.857   8.313  66.428  1.00  0.00    -0.041 C  
HETATM    4  O   UNL     1      -5.213   9.067  65.722  1.00  0.00    -0.038 OA 
BRANCH   3   5
HETATM    5  C   UNL     1      -7.231   8.582  66.928  1.00  0.00    -0.075 C  
HETATM    6  C   UNL     1      -7.849   9.760  66.655  1.00  0.00    -0.109 C  
HETATM    7  N   UNL     1      -9.120  10.013  67.110  1.00  0.00    -0.138 NA 
HETATM    8  C   UNL     1      -7.902   7.500  67.792  1.00  0.00    -0.117 C  
HETATM    9  C   UNL     1      -9.817   9.137  67.939  1.00  0.00    -0.169 C  
HETATM   10  C   UNL     1     -11.188   9.616  68.359  1.00  0.00    -0.004 C  
HETATM   11  C   UNL     1      -9.279   7.940  68.315  1.00  0.00    -0.137 C  
BRANCH   6  12
HETATM   12  C   UNL     1      -7.067  10.891  66.007  1.00  0.00    -0.067 C  
HETATM   13  N   UNL     1      -6.419  11.830  65.470  1.00  0.00     0.478 NA 
HETATM   14  H2  UNL     1      -6.938  12.277  66.225  1.00  0.00     0.000 HD 
HETATM   15  H1  UNL     1      -5.894  12.589  65.035  1.00  0.00     0.000 HD 
ENDBRANCH   6  12
BRANCH  11  16
HETATM   16  C   UNL     1     -10.022   7.083  69.291  1.00  0.00    -0.162 C  
HETATM   17  O   UNL     1      -9.882   7.190  70.501  1.00  0.00    -0.180 OA 
BRANCH  16  18
HETATM   18  O   UNL     1     -10.867   6.181  68.709  1.00  0.00    -0.276 OA 
BRANCH  18  19
HETATM   19  C   UNL     1     -10.190   5.027  68.139  1.00  0.00    -0.074 C  
HETATM   20  C   UNL     1      -9.143   5.497  67.132  1.00  0.00    -0.111 C  
HETATM   21  C   UNL     1      -9.529   4.198  69.235  1.00  0.00    -0.258 C  
ENDBRANCH  18  19
ENDBRANCH  16  18
ENDBRANCH  11  16
BRANCH   8  22
HETATM   22  C   UNL     1      -6.969   6.996  68.917  1.00  0.00    -0.079 A  
HETATM   23  C   UNL     1      -6.761   5.610  69.078  1.00  0.00    -0.060 A  
HETATM   24  C   UNL     1      -6.333   7.869  69.816  1.00  0.00    -0.030 A  
HETATM   25  C   UNL     1      -5.536   7.374  70.858  1.00  0.00    -0.027 A  
HETATM   26  C   UNL     1      -5.991   5.120  70.148  1.00  0.00    -0.018 A  
HETATM   27  O   UNL     1      -6.440   2.922  69.549  1.00  0.00    -0.028 OA 
HETATM   28  N   UNL     1      -5.878   3.668  70.364  1.00  0.00    -0.017 N  
HETATM   29  C   UNL     1      -5.370   6.000  71.037  1.00  0.00    -0.017 A  
HETATM   30  O   UNL     1      -5.243   3.278  71.357  1.00  0.00    -0.003 OA 
ENDBRANCH   8  22
ENDBRANCH   3   5
ENDBRANCH   2   3
TORSDOF 7
ENDMDL
MODEL      229
REMARK 921   NORMALIZED FREE ENERGY PREDICTED BY IDOCK:    8.76 KCAL/MOL
REMARK 922        TOTAL FREE ENERGY PREDICTED BY IDOCK:   11.30 KCAL/MOL
REMARK 923 INTER-LIGAND FREE ENERGY PREDICTED BY IDOCK:   -2.27 KCAL/MOL
REMARK 924 INTRA-LIGAND FREE ENERGY PREDICTED BY IDOCK:   13.56 KCAL/MOL
REMARK 927      BINDING AFFINITY PREDICTED BY RF-SCORE:    0.00 PKD
ROOT
HETATM    1  C   UNL     1      -7.707  17.180  65.906  1.00  0.00     0.024 C  
HETATM    2  O   UNL     1      -9.057  17.628  65.711  1.00  0.00    -0.503 OA 
ENDROOT
BRANCH   2   3
HETATM    3  C   UNL     1      -9.950  16.622  65.534  1.00  0.00    -0.058 C  
HETATM    4  O   UNL     1     -10.964  16.680  64.863  1.00  0.00    -0.642 OA 
BRANCH   3   5
HETATM    5  C   UNL     1      -9.477  15.412  66.258  1.00  0.00    -0.342 C  
HETATM    6  C   UNL     1     -10.265  14.309  66.350  1.00  0.00    -0.291 C  
HETATM    7  N   UNL     1      -9.832  13.186  67.012  1.00  0.00    -0.238 NA 
HETATM    8  C   UNL     1      -8.093  15.473  66.925  1.00  0.00    -0.284 C  
HETATM    9  C   UNL     1      -8.620  13.130  67.698  1.00  0.00    -0.193 C  
HETATM   10  C   UNL     1      -8.344  11.815  68.393  1.00  0.00    -0.153 C  
HETATM   11  C   UNL     1      -7.765  14.193  67.711  1.00  0.00    -0.175 C  
BRANCH   6  12
HETATM   12  C   UNL     1     -11.711  14.371  65.888  1.00  0.00    -0.369 C  
HETATM   13  N   UNL     1     -12.911  14.423  65.504  1.00  0.00    -0.474 NA 
HETATM   14  H2  UNL     1     -12.382  14.859  64.748  1.00  0.00     0.000 HD 
HETATM   15  H1  UNL     1     -13.882  14.465  65.194  1.00  0.00     0.000 HD 
ENDBRANCH   6  12
BRANCH  11  16
HETATM   16  C   UNL     1      -6.526  14.121  68.547  1.00  0.00    -0.096 C  
HETATM   17  O   UNL     1      -5.996  15.114  69.023  1.00  0.00    -0.095 OA 
BRANCH  16  18
HETATM   18  O   UNL     1      -6.051  12.854  68.731  1.00  0.00    -0.067 OA 
BRANCH  18  19
HETATM   19  C   UNL     1      -6.225  12.354  70.085  1.00  0.00    -0.037 C  
HETATM   20  C   UNL     1      -5.251  11.205  70.334  1.00  0.00    -0.094 C  
HETATM   21  C   UNL     1      -5.993  13.467  71.101  1.00  0.00     0.023 C  
ENDBRANCH  18  19
ENDBRANCH  16  18
ENDBRANCH  11  16
BRANCH   8  22
HETATM   22  C   UNL     1      -7.913  16.755  67.770  1.00  0.00    -0.187 A  
HETATM   23  C   UNL     1      -8.967  17.194  68.600  1.00  0.00    -0.267 A  
HETATM   24  C   UNL     1      -6.741  17.528  67.726  1.00  0.00    -0.182 A  
HETATM   25  C   UNL     1      -6.632  18.714  68.466  1.00  0.00    -0.249 A  
HETATM   26  C   UNL     1      -8.865  18.404  69.309  1.00  0.00     0.254 A  
HETATM   27  O   UNL     1     -11.033  18.192  70.111  1.00  0.00     1.316 OA 
HETATM   28  N   UNL     1     -10.017  18.900  70.080  1.00  0.00     0.663 N  
HETATM   29  C   UNL     1      -7.695  19.164  69.250  1.00  0.00    -0.155 A  
HETATM   30  O   UNL     1      -9.907  20.003  70.639  1.00  0.00     0.605 OA 
ENDBRANCH   8  22
ENDBRANCH   3   5
ENDBRANCH   2   3
TORSDOF 7
ENDMDL
MODEL      230
REMARK 921   NORMALIZED FREE ENERGY PREDICTED BY IDOCK:    8.86 KCAL/MOL
REMARK 922        TOTAL FREE ENERGY PREDICTED BY IDOCK:   11.44 KCAL/MOL
REMARK 923 INTER-LIGAND FREE ENERGY PREDICTED BY IDOCK:   -1.62 KCAL/MOL
REMARK 924 INTRA-LIGAND FREE ENERGY PREDICTED BY IDOCK:   13.06 KCAL/MOL
REMARK 927      BINDING AFFINITY PREDICTED BY RF-SCORE:    0.00 PKD
ROOT
HETATM    1  C   UNL     1     -12.163  15.939  70.212  1.00  0.00    -0.237 C  
HETATM    2  O   UNL     1     -11.052  16.847  70.208  1.00  0.00    -0.095 OA 
ENDROOT
BRANCH   2   3
HETATM    3  C   UNL     1      -9.883  16.284  69.808  1.00  0.00     0.015 C  
HETATM    4  O   UNL     1      -8.801  16.434  70.345  1.00  0.00     1.569 OA 
BRANCH   3   5
HETATM    5  C   UNL     1     -10.135  15.414  68.629  1.00  0.00    -0.212 C  
HETATM    6  C   UNL     1     -10.344  15.956  67.401  1.00  0.00    -0.288 C  
HETATM    7  N   UNL     1     -10.572  15.158  66.307  1.00  0.00    -0.302 NA 
HETATM    8  C   UNL     1     -10.188  13.894  68.860  1.00  0.00    -0.135 C  
HETATM    9  C   UNL     1     -10.691  13.772  66.390  1.00  0.00    -0.281 C  
HETATM   10  C   UNL     1     -10.978  13.079  65.077  1.00  0.00    -0.320 C  
HETATM   11  C   UNL     1     -10.541  13.120  67.579  1.00  0.00    -0.240 C  
BRANCH   6  12
HETATM   12  C   UNL     1     -10.522  17.458  67.258  1.00  0.00    -0.321 C  
HETATM   13  N   UNL     1     -10.670  18.705  67.139  1.00  0.00    -0.413 NA 
HETATM   14  H2  UNL     1     -11.387  18.304  66.534  1.00  0.00     0.000 HD 
HETATM   15  H1  UNL     1     -10.790  19.714  67.043  1.00  0.00     0.000 HD 
ENDBRANCH   6  12
BRANCH  11  16
HETATM   16  C   UNL     1     -10.782  11.645  67.635  1.00  0.00    -0.207 C  
HETATM   17  O   UNL     1     -11.348  11.106  68.576  1.00  0.00    -0.233 OA 
BRANCH  16  18
HETATM   18  O   UNL     1     -10.319  10.962  66.546  1.00  0.00    -0.231 OA 
BRANCH  18  19
HETATM   19  C   UNL     1      -9.031  11.434  66.063  1.00  0.00    -0.197 C  
HETATM   20  C   UNL     1      -8.058  11.549  67.234  1.00  0.00    -0.153 C  
HETATM   21  C   UNL     1      -8.473  10.482  65.010  1.00  0.00    -0.166 C  
ENDBRANCH  18  19
ENDBRANCH  16  18
ENDBRANCH  11  16
BRANCH   8  22
HETATM   22  C   UNL     1     -11.096  13.521  70.053  1.00  0.00     0.225 A  
HETATM   23  C   UNL     1     -11.811  12.305  70.028  1.00  0.00    -0.372 A  
HETATM   24  C   UNL     1     -11.264  14.364  71.165  1.00  0.00     0.362 A  
HETATM   25  C   UNL     1     -12.137  14.017  72.206  1.00  0.00     0.233 A  
HETATM   26  C   UNL     1     -12.713  11.982  71.058  1.00  0.00    -0.241 A  
HETATM   27  O   UNL     1     -13.355  10.033  69.973  1.00  0.00     0.208 OA 
HETATM   28  N   UNL     1     -13.533  10.763  70.958  1.00  0.00     0.040 N  
HETATM   29  C   UNL     1     -12.874  12.834  72.153  1.00  0.00    -0.219 A  
HETATM   30  O   UNL     1     -14.363  10.548  71.856  1.00  0.00     0.590 OA 
ENDBRANCH   8  22
ENDBRANCH   3   5
ENDBRANCH   2   3
TORSDOF 7
ENDMDL
MODEL      231
REMARK 921   NORMALIZED FREE ENERGY PREDICTED BY IDOCK:    8.92 KCAL/MOL
REMARK 922        TOTAL FREE ENERGY PREDICTED BY IDOCK:   11.52 KCAL/MOL
REMARK 923 INTER-LIGAND FREE ENERGY PREDICTED BY IDOCK:    9.99 KCAL/MOL
REMARK 924 INTRA-LIGAND FREE ENERGY PREDICTED BY IDOCK:    1.53 KCAL/MOL
REMARK 927      BINDING AFFINITY PREDICTED BY RF-SCORE:    0.00 PKD
ROOT
HETATM    1  C   UNL     1      -5.374  13.496  71.668  1.00  0.00    -0.190 C  
HETATM    2  O   UNL     1      -5.131  14.571  70.749  1.00  0.00    -0.107 OA 
ENDROOT
BRANCH   2   3
HETATM    3  C   UNL     1      -5.765  14.430  69.557  1.00  0.00    -0.095 C  
HETATM    4  O   UNL     1      -5.227  14.212  68.487  1.00  0.00    -0.086 OA 
BRANCH   3   5
HETATM    5  C   UNL     1      -7.233  14.539  69.765  1.00  0.00    -0.005 C  
HETATM    6  C   UNL     1      -7.736  15.352  70.730  1.00  0.00     1.773 C  
HETATM    7  N   UNL     1      -9.092  15.462  70.924  1.00  0.00     1.758 NA 
HETATM    8  C   UNL     1      -8.147  13.674  68.881  1.00  0.00     0.093 C  
HETATM    9  C   UNL     1     -10.023  14.699  70.222  1.00  0.00     0.693 C  
HETATM   10  C   UNL     1     -11.464  14.942  70.608  1.00  0.00    -0.313 C  
HETATM   11  C   UNL     1      -9.631  13.817  69.257  1.00  0.00     0.461 C  
BRANCH   6  12
HETATM   12  C   UNL     1      -6.801  16.002  71.735  1.00  0.00     4.028 C  
HETATM   13  N   UNL     1      -6.024  16.541  72.570  1.00  0.00     2.116 NA 
HETATM   14  H2  UNL     1      -6.626  15.940  73.132  1.00  0.00     0.000 HD 
HETATM   15  H1  UNL     1      -5.396  16.978  73.245  1.00  0.00     0.000 HD 
ENDBRANCH   6  12
BRANCH  11  16
HETATM   16  C   UNL     1     -10.658  12.945  68.607  1.00  0.00    -0.234 C  
HETATM   17  O   UNL     1     -11.425  13.360  67.749  1.00  0.00    -0.280 OA 
BRANCH  16  18
HETATM   18  O   UNL     1     -10.657  11.654  69.052  1.00  0.00    -0.207 OA 
BRANCH  18  19
HETATM   19  C   UNL     1     -11.979  11.050  69.100  1.00  0.00    -0.324 C  
HETATM   20  C   UNL     1     -11.866   9.554  68.821  1.00  0.00     0.956 C  
HETATM   21  C   UNL     1     -12.624  11.282  70.462  1.00  0.00    -0.331 C  
ENDBRANCH  18  19
ENDBRANCH  16  18
ENDBRANCH  11  16
BRANCH   8  22
HETATM   22  C   UNL     1      -7.682  12.201  68.833  1.00  0.00     0.036 A  
HETATM   23  C   UNL     1      -7.100  11.694  67.652  1.00  0.00    -0.095 A  
HETATM   24  C   UNL     1      -7.840  11.325  69.921  1.00  0.00     0.873 A  
HETATM   25  C   UNL     1      -7.455   9.980  69.824  1.00  0.00    -0.152 A  
HETATM   26  C   UNL     1      -6.751  10.335  67.550  1.00  0.00    -0.071 A  
HETATM   27  O   UNL     1      -6.109  10.599  65.335  1.00  0.00    -0.130 OA 
HETATM   28  N   UNL     1      -6.250   9.801  66.273  1.00  0.00    -0.067 N  
HETATM   29  C   UNL     1      -6.921   9.476  68.638  1.00  0.00    -0.064 A  
HETATM   30  O   UNL     1      -6.015   8.584  66.207  1.00  0.00    -0.043 OA 
ENDBRANCH   8  22
ENDBRANCH   3   5
ENDBRANCH   2   3
TORSDOF 7
ENDMDL
MODEL      232
REMARK 921   NORMALIZED FREE ENERGY PREDICTED BY IDOCK:    9.19 KCAL/MOL
REMARK 922        TOTAL FREE ENERGY PREDICTED BY IDOCK:   11.90 KCAL/MOL
REMARK 923 INTER-LIGAND FREE ENERGY PREDICTED BY IDOCK:    6.68 KCAL/MOL
REMARK 924 INTRA-LIGAND FREE ENERGY PREDICTED BY IDOCK:    5.22 KCAL/MOL
REMARK 927      BINDING AFFINITY PREDICTED BY RF-SCORE:    0.00 PKD
ROOT
HETATM    1  C   UNL     1     -11.149  12.823  71.579  1.00  0.00     4.649 C  
HETATM    2  O   UNL     1     -12.109  13.339  70.645  1.00  0.00    -0.348 OA 
ENDROOT
BRANCH   2   3
HETATM    3  C   UNL     1     -11.598  13.596  69.415  1.00  0.00    -0.312 C  
HETATM    4  O   UNL     1     -11.448  12.782  68.522  1.00  0.00    -0.263 OA 
BRANCH   3   5
HETATM    5  C   UNL     1     -11.284  15.046  69.306  1.00  0.00    -0.297 C  
HETATM    6  C   UNL     1     -11.979  15.960  70.031  1.00  0.00    -0.281 C  
HETATM    7  N   UNL     1     -11.692  17.300  69.938  1.00  0.00     1.631 NA 
HETATM    8  C   UNL     1     -10.181  15.466  68.320  1.00  0.00    -0.229 C  
HETATM    9  C   UNL     1     -10.749  17.814  69.050  1.00  0.00     0.161 C  
HETATM   10  C   UNL     1     -10.606  19.319  69.076  1.00  0.00     0.345 C  
HETATM   11  C   UNL     1     -10.019  16.993  68.240  1.00  0.00    -0.285 C  
BRANCH   6  12
HETATM   12  C   UNL     1     -13.213  15.531  70.806  1.00  0.00    -0.337 C  
HETATM   13  N   UNL     1     -14.238  15.174  71.449  1.00  0.00    -0.612 NA 
HETATM   14  H2  UNL     1     -13.877  14.310  71.044  1.00  0.00     0.000 HD 
HETATM   15  H1  UNL     1     -15.066  14.885  71.970  1.00  0.00     0.000 HD 
ENDBRANCH   6  12
BRANCH  11  16
HETATM   16  C   UNL     1      -9.097  17.599  67.231  1.00  0.00    -0.237 C  
HETATM   17  O   UNL     1      -8.594  16.950  66.325  1.00  0.00    -0.273 OA 
BRANCH  16  18
HETATM   18  O   UNL     1      -8.873  18.935  67.410  1.00  0.00    -0.271 OA 
BRANCH  18  19
HETATM   19  C   UNL     1      -9.475  19.772  66.385  1.00  0.00    -0.403 C  
HETATM   20  C   UNL     1      -9.462  19.033  65.050  1.00  0.00     2.664 C  
HETATM   21  C   UNL     1     -10.905  20.142  66.766  1.00  0.00    -0.081 C  
ENDBRANCH  18  19
ENDBRANCH  16  18
ENDBRANCH  11  16
BRANCH   8  22
HETATM   22  C   UNL     1     -10.364  14.812  66.932  1.00  0.00    -0.267 A  
HETATM   23  C   UNL     1     -11.557  15.032  66.211  1.00  0.00    -0.160 A  
HETATM   24  C   UNL     1      -9.392  13.973  66.360  1.00  0.00    -0.242 A  
HETATM   25  C   UNL     1      -9.613  13.354  65.122  1.00  0.00     0.184 A  
HETATM   26  C   UNL     1     -11.788  14.377  64.988  1.00  0.00    -0.400 A  
HETATM   27  O   UNL     1     -13.917  15.287  64.828  1.00  0.00     1.605 OA 
HETATM   28  N   UNL     1     -13.083  14.532  64.308  1.00  0.00     0.658 N  
HETATM   29  C   UNL     1     -10.814  13.542  64.437  1.00  0.00    -0.403 A  
HETATM   30  O   UNL     1     -13.270  13.887  63.264  1.00  0.00     0.483 OA 
ENDBRANCH   8  22
ENDBRANCH   3   5
ENDBRANCH   2   3
TORSDOF 7
ENDMDL
MODEL      233
REMARK 921   NORMALIZED FREE ENERGY PREDICTED BY IDOCK:    9.63 KCAL/MOL
REMARK 922        TOTAL FREE ENERGY PREDICTED BY IDOCK:   12.53 KCAL/MOL
REMARK 923 INTER-LIGAND FREE ENERGY PREDICTED BY IDOCK:   11.20 KCAL/MOL
REMARK 924 INTRA-LIGAND FREE ENERGY PREDICTED BY IDOCK:    1.33 KCAL/MOL
REMARK 927      BINDING AFFINITY PREDICTED BY RF-SCORE:    0.00 PKD
ROOT
HETATM    1  C   UNL     1      -5.374  13.496  71.668  1.00  0.00    -0.190 C  
HETATM    2  O   UNL     1      -5.131  14.571  70.749  1.00  0.00    -0.107 OA 
ENDROOT
BRANCH   2   3
HETATM    3  C   UNL     1      -5.765  14.430  69.557  1.00  0.00    -0.095 C  
HETATM    4  O   UNL     1      -5.227  14.212  68.487  1.00  0.00    -0.086 OA 
BRANCH   3   5
HETATM    5  C   UNL     1      -7.233  14.539  69.765  1.00  0.00    -0.005 C  
HETATM    6  C   UNL     1      -7.736  15.352  70.730  1.00  0.00     1.773 C  
HETATM    7  N   UNL     1      -9.092  15.462  70.924  1.00  0.00     1.758 NA 
HETATM    8  C   UNL     1      -8.147  13.674  68.881  1.00  0.00     0.093 C  
HETATM    9  C   UNL     1     -10.023  14.699  70.222  1.00  0.00     0.693 C  
HETATM   10  C   UNL     1     -11.464  14.942  70.608  1.00  0.00    -0.313 C  
HETATM   11  C   UNL     1      -9.631  13.817  69.257  1.00  0.00     0.461 C  
BRANCH   6  12
HETATM   12  C   UNL     1      -6.801  16.002  71.735  1.00  0.00     4.028 C  
HETATM   13  N   UNL     1      -6.024  16.541  72.570  1.00  0.00     2.116 NA 
HETATM   14  H2  UNL     1      -6.626  15.940  73.132  1.00  0.00     0.000 HD 
HETATM   15  H1  UNL     1      -5.396  16.978  73.245  1.00  0.00     0.000 HD 
ENDBRANCH   6  12
BRANCH  11  16
HETATM   16  C   UNL     1     -10.658  12.945  68.607  1.00  0.00    -0.234 C  
HETATM   17  O   UNL     1     -11.425  13.360  67.749  1.00  0.00    -0.280 OA 
BRANCH  16  18
HETATM   18  O   UNL     1     -10.657  11.654  69.052  1.00  0.00    -0.207 OA 
BRANCH  18  19
HETATM   19  C   UNL     1     -11.979  11.050  69.100  1.00  0.00    -0.324 C  
HETATM   20  C   UNL     1     -11.866   9.554  68.821  1.00  0.00     0.956 C  
HETATM   21  C   UNL     1     -12.624  11.282  70.462  1.00  0.00    -0.331 C  
ENDBRANCH  18  19
ENDBRANCH  16  18
ENDBRANCH  11  16
BRANCH   8  22
HETATM   22  C   UNL     1      -7.682  12.201  68.833  1.00  0.00     0.036 A  
HETATM   23  C   UNL     1      -7.433  11.511  70.039  1.00  0.00     1.013 A  
HETATM   24  C   UNL     1      -7.466  11.518  67.624  1.00  0.00    -0.110 A  
HETATM   25  C   UNL     1      -6.993  10.198  67.618  1.00  0.00    -0.085 A  
HETATM   26  C   UNL     1      -6.923  10.201  70.024  1.00  0.00    -0.145 A  
HETATM   27  O   UNL     1      -6.776  10.162  72.340  1.00  0.00     0.893 OA 
HETATM   28  N   UNL     1      -6.564   9.540  71.289  1.00  0.00    -0.028 N  
HETATM   29  C   UNL     1      -6.708   9.538  68.814  1.00  0.00    -0.052 A  
HETATM   30  O   UNL     1      -6.057   8.409  71.228  1.00  0.00    -0.034 OA 
ENDBRANCH   8  22
ENDBRANCH   3   5
ENDBRANCH   2   3
TORSDOF 7
ENDMDL
MODEL      234
REMARK 921   NORMALIZED FREE ENERGY PREDICTED BY IDOCK:   10.19 KCAL/MOL
REMARK 922        TOTAL FREE ENERGY PREDICTED BY IDOCK:   13.30 KCAL/MOL
REMARK 923 INTER-LIGAND FREE ENERGY PREDICTED BY IDOCK:    1.28 KCAL/MOL
REMARK 924 INTRA-LIGAND FREE ENERGY PREDICTED BY IDOCK:   12.02 KCAL/MOL
REMARK 927      BINDING AFFINITY PREDICTED BY RF-SCORE:    0.00 PKD
ROOT
HETATM    1  C   UNL     1      -8.650  16.161  66.650  1.00  0.00    -0.276 C  
HETATM    2  O   UNL     1      -9.948  16.773  66.650  1.00  0.00    -0.268 OA 
ENDROOT
BRANCH   2   3
HETATM    3  C   UNL     1     -10.883  16.082  65.949  1.00  0.00    -0.207 C  
HETATM    4  O   UNL     1     -11.902  16.546  65.472  1.00  0.00     0.886 OA 
BRANCH   3   5
HETATM    5  C   UNL     1     -10.448  14.666  65.814  1.00  0.00    -0.338 C  
HETATM    6  C   UNL     1     -11.172  13.788  65.072  1.00  0.00    -0.335 C  
HETATM    7  N   UNL     1     -10.773  12.481  64.939  1.00  0.00    -0.284 NA 
HETATM    8  C   UNL     1      -9.183  14.231  66.572  1.00  0.00    -0.259 C  
HETATM    9  C   UNL     1      -9.674  11.951  65.611  1.00  0.00    -0.227 C  
HETATM   10  C   UNL     1      -9.423  10.481  65.358  1.00  0.00    -0.273 C  
HETATM   11  C   UNL     1      -8.896  12.729  66.418  1.00  0.00     0.035 C  
BRANCH   6  12
HETATM   12  C   UNL     1     -12.536  14.193  64.539  1.00  0.00    -0.322 C  
HETATM   13  N   UNL     1     -13.667  14.530  64.096  1.00  0.00     2.297 NA 
HETATM   14  H2  UNL     1     -13.061  15.319  63.873  1.00  0.00     0.000 HD 
HETATM   15  H1  UNL     1     -14.583  14.802  63.738  1.00  0.00     0.000 HD 
ENDBRANCH   6  12
BRANCH  11  16
HETATM   16  C   UNL     1      -7.792  12.090  67.199  1.00  0.00    -0.168 C  
HETATM   17  O   UNL     1      -7.402  12.533  68.271  1.00  0.00    -0.098 OA 
BRANCH  16  18
HETATM   18  O   UNL     1      -7.266  10.974  66.613  1.00  0.00    -0.129 OA 
BRANCH  18  19
HETATM   19  C   UNL     1      -7.646   9.734  67.269  1.00  0.00    -0.088 C  
HETATM   20  C   UNL     1      -6.712   8.613  66.822  1.00  0.00    -0.069 C  
HETATM   21  C   UNL     1      -7.588   9.890  68.786  1.00  0.00    -0.081 C  
ENDBRANCH  18  19
ENDBRANCH  16  18
ENDBRANCH  11  16
BRANCH   8  22
HETATM   22  C   UNL     1      -9.207  14.686  68.049  1.00  0.00    -0.197 A  
HETATM   23  C   UNL     1     -10.215  14.200  68.910  1.00  0.00    -0.181 A  
HETATM   24  C   UNL     1      -8.274  15.597  68.573  1.00  0.00    -0.153 A  
HETATM   25  C   UNL     1      -8.357  16.028  69.905  1.00  0.00     0.568 A  
HETATM   26  C   UNL     1     -10.315  14.667  70.233  1.00  0.00     0.394 A  
HETATM   27  O   UNL     1     -12.240  13.421  70.595  1.00  0.00    -0.356 OA 
HETATM   28  N   UNL     1     -11.439  14.233  71.079  1.00  0.00    -0.040 N  
HETATM   29  C   UNL     1      -9.383  15.576  70.736  1.00  0.00     1.648 A  
HETATM   30  O   UNL     1     -11.526  14.718  72.218  1.00  0.00    -0.195 OA 
ENDBRANCH   8  22
ENDBRANCH   3   5
ENDBRANCH   2   3
TORSDOF 7
ENDMDL
MODEL      235
REMARK 921   NORMALIZED FREE ENERGY PREDICTED BY IDOCK:   10.54 KCAL/MOL
REMARK 922        TOTAL FREE ENERGY PREDICTED BY IDOCK:   13.81 KCAL/MOL
REMARK 923 INTER-LIGAND FREE ENERGY PREDICTED BY IDOCK:   -0.80 KCAL/MOL
REMARK 924 INTRA-LIGAND FREE ENERGY PREDICTED BY IDOCK:   14.61 KCAL/MOL
REMARK 927      BINDING AFFINITY PREDICTED BY RF-SCORE:    0.00 PKD
ROOT
HETATM    1  C   UNL     1      -7.770  17.218  66.011  1.00  0.00    -0.188 C  
HETATM    2  O   UNL     1      -9.012  17.878  65.727  1.00  0.00    -0.492 OA 
ENDROOT
BRANCH   2   3
HETATM    3  C   UNL     1     -10.056  17.031  65.539  1.00  0.00    -0.010 C  
HETATM    4  O   UNL     1     -10.956  17.178  64.733  1.00  0.00    -0.898 OA 
BRANCH   3   5
HETATM    5  C   UNL     1      -9.909  15.862  66.447  1.00  0.00    -0.302 C  
HETATM    6  C   UNL     1     -10.882  14.917  66.521  1.00  0.00    -0.322 C  
HETATM    7  N   UNL     1     -10.751  13.832  67.353  1.00  0.00    -0.273 NA 
HETATM    8  C   UNL     1      -8.644  15.788  67.319  1.00  0.00    -0.209 C  
HETATM    9  C   UNL     1      -9.677  13.672  68.227  1.00  0.00    -0.231 C  
HETATM   10  C   UNL     1      -9.736  12.428  69.085  1.00  0.00     0.466 C  
HETATM   11  C   UNL     1      -8.660  14.581  68.271  1.00  0.00    -0.171 C  
BRANCH   6  12
HETATM   12  C   UNL     1     -12.214  15.148  65.828  1.00  0.00     0.359 C  
HETATM   13  N   UNL     1     -13.320  15.339  65.252  1.00  0.00     0.758 NA 
HETATM   14  H2  UNL     1     -12.621  15.588  64.552  1.00  0.00     0.000 HD 
HETATM   15  H1  UNL     1     -14.215  15.494  64.787  1.00  0.00     0.000 HD 
ENDBRANCH   6  12
BRANCH  11  16
HETATM   16  C   UNL     1      -7.585  14.420  69.299  1.00  0.00    -0.029 C  
HETATM   17  O   UNL     1      -6.912  15.360  69.699  1.00  0.00    -0.176 OA 
BRANCH  16  18
HETATM   18  O   UNL     1      -7.429  13.140  69.748  1.00  0.00     0.557 OA 
BRANCH  18  19
HETATM   19  C   UNL     1      -6.431  12.379  69.014  1.00  0.00    -0.097 C  
HETATM   20  C   UNL     1      -5.187  13.238  68.804  1.00  0.00    -0.071 C  
HETATM   21  C   UNL     1      -6.066  11.105  69.770  1.00  0.00    -0.107 C  
ENDBRANCH  18  19
ENDBRANCH  16  18
ENDBRANCH  11  16
BRANCH   8  22
HETATM   22  C   UNL     1      -8.365  17.121  68.049  1.00  0.00    -0.218 A  
HETATM   23  C   UNL     1      -7.672  18.151  67.377  1.00  0.00    -0.223 A  
HETATM   24  C   UNL     1      -8.752  17.346  69.382  1.00  0.00     0.411 A  
HETATM   25  C   UNL     1      -8.436  18.548  70.030  1.00  0.00     1.738 A  
HETATM   26  C   UNL     1      -7.326  19.338  68.046  1.00  0.00    -0.262 A  
HETATM   27  O   UNL     1      -6.189  20.132  66.184  1.00  0.00    -0.188 OA 
HETATM   28  N   UNL     1      -6.506  20.351  67.362  1.00  0.00    -0.219 N  
HETATM   29  C   UNL     1      -7.713  19.543  69.373  1.00  0.00    -0.089 A  
HETATM   30  O   UNL     1      -6.168  21.355  68.009  1.00  0.00    -0.317 OA 
ENDBRANCH   8  22
ENDBRANCH   3   5
ENDBRANCH   2   3
TORSDOF 7
ENDMDL
MODEL      236
REMARK 921   NORMALIZED FREE ENERGY PREDICTED BY IDOCK:   11.18 KCAL/MOL
REMARK 922        TOTAL FREE ENERGY PREDICTED BY IDOCK:   14.70 KCAL/MOL
REMARK 923 INTER-LIGAND FREE ENERGY PREDICTED BY IDOCK:    0.40 KCAL/MOL
REMARK 924 INTRA-LIGAND FREE ENERGY PREDICTED BY IDOCK:   14.31 KCAL/MOL
REMARK 927      BINDING AFFINITY PREDICTED BY RF-SCORE:    0.00 PKD
ROOT
HETATM    1  C   UNL     1      -6.825   9.648  62.798  1.00  0.00    -0.102 C  
HETATM    2  O   UNL     1      -7.183   9.537  64.183  1.00  0.00    -0.106 OA 
ENDROOT
BRANCH   2   3
HETATM    3  C   UNL     1      -7.407  10.730  64.791  1.00  0.00     0.276 C  
HETATM    4  O   UNL     1      -7.165  11.826  64.320  1.00  0.00     2.365 OA 
BRANCH   3   5
HETATM    5  C   UNL     1      -8.039  10.495  66.117  1.00  0.00    -0.145 C  
HETATM    6  C   UNL     1      -7.882  11.389  67.127  1.00  0.00    -0.156 C  
HETATM    7  N   UNL     1      -8.467  11.181  68.352  1.00  0.00    -0.145 NA 
HETATM    8  C   UNL     1      -8.834   9.193  66.309  1.00  0.00    -0.176 C  
HETATM    9  C   UNL     1      -9.172  10.022  68.668  1.00  0.00    -0.152 C  
HETATM   10  C   UNL     1      -9.708   9.970  70.081  1.00  0.00    -0.177 C  
HETATM   11  C   UNL     1      -9.359   9.033  67.745  1.00  0.00    -0.156 C  
BRANCH   6  12
HETATM   12  C   UNL     1      -6.897  12.536  66.974  1.00  0.00     0.054 C  
HETATM   13  N   UNL     1      -6.080  13.488  66.847  1.00  0.00    -0.024 NA 
HETATM   14  H2  UNL     1      -6.373  13.274  65.893  1.00  0.00     0.000 HD 
HETATM   15  H1  UNL     1      -5.419  14.259  66.745  1.00  0.00     0.000 HD 
ENDBRANCH   6  12
BRANCH  11  16
HETATM   16  C   UNL     1     -10.031   7.765  68.164  1.00  0.00    -0.178 C  
HETATM   17  O   UNL     1     -10.499   6.971  67.359  1.00  0.00    -0.210 OA 
BRANCH  16  18
HETATM   18  O   UNL     1     -10.070   7.573  69.516  1.00  0.00    -0.181 OA 
BRANCH  18  19
HETATM   19  C   UNL     1      -9.921   6.183  69.916  1.00  0.00    -0.172 C  
HETATM   20  C   UNL     1      -9.383   6.117  71.342  1.00  0.00    -0.163 C  
HETATM   21  C   UNL     1     -11.258   5.454  69.825  1.00  0.00     0.556 C  
ENDBRANCH  18  19
ENDBRANCH  16  18
ENDBRANCH  11  16
BRANCH   8  22
HETATM   22  C   UNL     1      -8.048   7.955  65.820  1.00  0.00    -0.123 A  
HETATM   23  C   UNL     1      -7.198   8.070  64.699  1.00  0.00    -0.079 A  
HETATM   24  C   UNL     1      -8.165   6.697  66.434  1.00  0.00    -0.117 A  
HETATM   25  C   UNL     1      -7.477   5.583  65.931  1.00  0.00    -0.082 A  
HETATM   26  C   UNL     1      -6.542   6.941  64.178  1.00  0.00    -0.042 A  
HETATM   27  O   UNL     1      -5.654   8.183  62.429  1.00  0.00    -0.068 OA 
HETATM   28  N   UNL     1      -5.750   7.059  62.943  1.00  0.00    -0.039 N  
HETATM   29  C   UNL     1      -6.673   5.696  64.797  1.00  0.00    -0.047 A  
HETATM   30  O   UNL     1      -5.239   6.026  62.481  1.00  0.00    -0.016 OA 
ENDBRANCH   8  22
ENDBRANCH   3   5
ENDBRANCH   2   3
TORSDOF 7
ENDMDL
MODEL      237
REMARK 921   NORMALIZED FREE ENERGY PREDICTED BY IDOCK:   12.49 KCAL/MOL
REMARK 922        TOTAL FREE ENERGY PREDICTED BY IDOCK:   16.55 KCAL/MOL
REMARK 923 INTER-LIGAND FREE ENERGY PREDICTED BY IDOCK:   11.81 KCAL/MOL
REMARK 924 INTRA-LIGAND FREE ENERGY PREDICTED BY IDOCK:    4.74 KCAL/MOL
REMARK 927      BINDING AFFINITY PREDICTED BY RF-SCORE:    0.00 PKD
ROOT
HETATM    1  C   UNL     1      -7.950  12.995  64.619  1.00  0.00     6.717 C  
HETATM    2  O   UNL     1      -8.761  11.819  64.759  1.00  0.00     0.420 OA 
ENDROOT
BRANCH   2   3
HETATM    3  C   UNL     1      -9.159  11.574  66.033  1.00  0.00    -0.198 C  
HETATM    4  O   UNL     1      -9.478  12.415  66.854  1.00  0.00    -0.207 OA 
BRANCH   3   5
HETATM    5  C   UNL     1      -9.188  10.105  66.264  1.00  0.00    -0.191 C  
HETATM    6  C   UNL     1     -10.334   9.398  66.080  1.00  0.00    -0.092 C  
HETATM    7  N   UNL     1     -10.367   8.041  66.287  1.00  0.00     0.085 NA 
HETATM    8  C   UNL     1      -7.895   9.432  66.754  1.00  0.00    -0.105 C  
HETATM    9  C   UNL     1      -9.278   7.322  66.775  1.00  0.00    -0.155 C  
HETATM   10  C   UNL     1      -9.528   5.843  66.968  1.00  0.00    -0.134 C  
HETATM   11  C   UNL     1      -8.086   7.933  67.037  1.00  0.00    -0.116 C  
BRANCH   6  12
HETATM   12  C   UNL     1     -11.642  10.130  65.831  1.00  0.00     2.397 C  
HETATM   13  N   UNL     1     -12.727  10.738  65.624  1.00  0.00     4.740 NA 
HETATM   14  H2  UNL     1     -12.066  11.474  65.873  1.00  0.00     0.000 HD 
HETATM   15  H1  UNL     1     -13.606  11.230  65.456  1.00  0.00     0.000 HD 
ENDBRANCH   6  12
BRANCH  11  16
HETATM   16  C   UNL     1      -6.981   7.139  67.658  1.00  0.00    -0.079 C  
HETATM   17  O   UNL     1      -5.855   7.589  67.816  1.00  0.00    -0.033 OA 
BRANCH  16  18
HETATM   18  O   UNL     1      -7.344   5.877  68.033  1.00  0.00    -0.077 OA 
BRANCH  18  19
HETATM   19  C   UNL     1      -7.604   5.741  69.457  1.00  0.00    -0.087 C  
HETATM   20  C   UNL     1      -8.886   6.488  69.816  1.00  0.00    -0.143 C  
HETATM   21  C   UNL     1      -7.731   4.270  69.841  1.00  0.00    -0.053 C  
ENDBRANCH  18  19
ENDBRANCH  16  18
ENDBRANCH  11  16
BRANCH   8  22
HETATM   22  C   UNL     1      -7.263  10.189  67.944  1.00  0.00    -0.086 A  
HETATM   23  C   UNL     1      -7.095  11.588  67.868  1.00  0.00    -0.076 A  
HETATM   24  C   UNL     1      -6.816   9.532  69.103  1.00  0.00    -0.050 A  
HETATM   25  C   UNL     1      -6.199  10.243  70.142  1.00  0.00    -0.099 A  
HETATM   26  C   UNL     1      -6.441  12.289  68.898  1.00  0.00    -0.089 A  
HETATM   27  O   UNL     1      -6.593  14.285  67.722  1.00  0.00    -0.154 OA 
HETATM   28  N   UNL     1      -6.177  13.729  68.749  1.00  0.00    -0.083 N  
HETATM   29  C   UNL     1      -5.998  11.620  70.040  1.00  0.00    -0.152 A  
HETATM   30  O   UNL     1      -5.541  14.297  69.651  1.00  0.00    -0.091 OA 
ENDBRANCH   8  22
ENDBRANCH   3   5
ENDBRANCH   2   3
TORSDOF 7
ENDMDL
MODEL      238
REMARK 921   NORMALIZED FREE ENERGY PREDICTED BY IDOCK:   20.70 KCAL/MOL
REMARK 922        TOTAL FREE ENERGY PREDICTED BY IDOCK:   28.11 KCAL/MOL
REMARK 923 INTER-LIGAND FREE ENERGY PREDICTED BY IDOCK:   20.67 KCAL/MOL
REMARK 924 INTRA-LIGAND FREE ENERGY PREDICTED BY IDOCK:    7.45 KCAL/MOL
REMARK 927      BINDING AFFINITY PREDICTED BY RF-SCORE:    0.00 PKD
ROOT
HETATM    1  C   UNL     1      -9.024  14.292  63.275  1.00  0.00    12.216 C  
HETATM    2  O   UNL     1      -8.478  13.187  64.009  1.00  0.00     3.777 OA 
ENDROOT
BRANCH   2   3
HETATM    3  C   UNL     1      -9.091  12.959  65.197  1.00  0.00     0.964 C  
HETATM    4  O   UNL     1     -10.280  13.094  65.423  1.00  0.00    -0.295 OA 
BRANCH   3   5
HETATM    5  C   UNL     1      -8.089  12.472  66.182  1.00  0.00     0.814 C  
HETATM    6  C   UNL     1      -7.702  11.170  66.191  1.00  0.00    -0.053 C  
HETATM    7  N   UNL     1      -6.774  10.715  67.094  1.00  0.00    -0.078 NA 
HETATM    8  C   UNL     1      -7.544  13.482  67.206  1.00  0.00    -0.074 C  
HETATM    9  C   UNL     1      -6.240  11.516  68.102  1.00  0.00    -0.045 C  
HETATM   10  C   UNL     1      -5.259  10.817  69.017  1.00  0.00    -0.041 C  
HETATM   11  C   UNL     1      -6.586  12.831  68.218  1.00  0.00    -0.085 C  
BRANCH   6  12
HETATM   12  C   UNL     1      -8.437  10.158  65.327  1.00  0.00    -0.158 C  
HETATM   13  N   UNL     1      -9.045   9.318  64.610  1.00  0.00    -0.407 NA 
HETATM   14  H2  UNL     1      -8.171   9.491  64.114  1.00  0.00     0.000 HD 
HETATM   15  H1  UNL     1      -9.538   8.638  64.030  1.00  0.00     0.000 HD 
ENDBRANCH   6  12
BRANCH  11  16
HETATM   16  C   UNL     1      -6.067  13.621  69.377  1.00  0.00    -0.104 C  
HETATM   17  O   UNL     1      -5.402  13.117  70.271  1.00  0.00    -0.095 OA 
BRANCH  16  18
HETATM   18  O   UNL     1      -6.398  14.946  69.342  1.00  0.00    -0.108 OA 
BRANCH  18  19
HETATM   19  C   UNL     1      -6.431  15.576  70.652  1.00  0.00     0.360 C  
HETATM   20  C   UNL     1      -7.828  15.436  71.251  1.00  0.00     3.281 C  
HETATM   21  C   UNL     1      -5.398  14.941  71.578  1.00  0.00    -0.072 C  
ENDBRANCH  18  19
ENDBRANCH  16  18
ENDBRANCH  11  16
BRANCH   8  22
HETATM   22  C   UNL     1      -8.675  14.286  67.887  1.00  0.00    -0.178 A  
HETATM   23  C   UNL     1     -10.003  13.813  67.816  1.00  0.00    -0.242 A  
HETATM   24  C   UNL     1      -8.440  15.498  68.558  1.00  0.00    -0.163 A  
HETATM   25  C   UNL     1      -9.498  16.227  69.119  1.00  0.00    -0.246 A  
HETATM   26  C   UNL     1     -11.063  14.569  68.348  1.00  0.00    -0.256 A  
HETATM   27  O   UNL     1     -12.627  13.035  67.580  1.00  0.00     0.078 OA 
HETATM   28  N   UNL     1     -12.450  14.113  68.165  1.00  0.00     0.040 N  
HETATM   29  C   UNL     1     -10.813  15.775  69.007  1.00  0.00    -0.248 A  
HETATM   30  O   UNL     1     -13.360  14.842  68.594  1.00  0.00     2.084 OA 
ENDBRANCH   8  22
ENDBRANCH   3   5
ENDBRANCH   2   3
TORSDOF 7
ENDMDL
MODEL      239
REMARK 921   NORMALIZED FREE ENERGY PREDICTED BY IDOCK:   21.13 KCAL/MOL
REMARK 922        TOTAL FREE ENERGY PREDICTED BY IDOCK:   28.73 KCAL/MOL
REMARK 923 INTER-LIGAND FREE ENERGY PREDICTED BY IDOCK:   19.86 KCAL/MOL
REMARK 924 INTRA-LIGAND FREE ENERGY PREDICTED BY IDOCK:    8.87 KCAL/MOL
REMARK 927      BINDING AFFINITY PREDICTED BY RF-SCORE:    0.00 PKD
ROOT
HETATM    1  C   UNL     1      -6.021   9.369  65.588  1.00  0.00    -0.059 C  
HETATM    2  O   UNL     1      -6.844  10.371  66.203  1.00  0.00    -0.109 OA 
ENDROOT
BRANCH   2   3
HETATM    3  C   UNL     1      -7.737  10.945  65.358  1.00  0.00     0.107 C  
HETATM    4  O   UNL     1      -7.469  11.717  64.455  1.00  0.00     1.667 OA 
BRANCH   3   5
HETATM    5  C   UNL     1      -9.103  10.451  65.677  1.00  0.00    -0.206 C  
HETATM    6  C   UNL     1     -10.181  11.269  65.555  1.00  0.00    -0.260 C  
HETATM    7  N   UNL     1     -11.445  10.818  65.843  1.00  0.00     0.313 NA 
HETATM    8  C   UNL     1      -9.240   9.006  66.183  1.00  0.00    -0.272 C  
HETATM    9  C   UNL     1     -11.699   9.547  66.355  1.00  0.00     3.819 C  
HETATM   10  C   UNL     1     -13.155   9.255  66.639  1.00  0.00    16.973 C  
HETATM   11  C   UNL     1     -10.689   8.652  66.559  1.00  0.00     0.222 C  
BRANCH   6  12
HETATM   12  C   UNL     1      -9.979  12.751  65.285  1.00  0.00    -0.185 C  
HETATM   13  N   UNL     1      -9.811  13.980  65.060  1.00  0.00    -0.588 NA 
HETATM   14  H2  UNL     1      -9.532  13.522  64.193  1.00  0.00     0.000 HD 
HETATM   15  H1  UNL     1      -9.676  14.975  64.879  1.00  0.00     0.000 HD 
ENDBRANCH   6  12
BRANCH  11  16
HETATM   16  C   UNL     1     -10.998   7.340  67.207  1.00  0.00    -0.214 C  
HETATM   17  O   UNL     1     -11.127   7.218  68.417  1.00  0.00    -0.029 OA 
BRANCH  16  18
HETATM   18  O   UNL     1     -11.128   6.301  66.329  1.00  0.00     0.085 OA 
BRANCH  18  19
HETATM   19  C   UNL     1     -10.049   5.329  66.409  1.00  0.00    -0.226 C  
HETATM   20  C   UNL     1      -8.873   5.802  65.557  1.00  0.00    -0.119 C  
HETATM   21  C   UNL     1      -9.605   5.139  67.855  1.00  0.00    -0.167 C  
ENDBRANCH  18  19
ENDBRANCH  16  18
ENDBRANCH  11  16
BRANCH   8  22
HETATM   22  C   UNL     1      -8.236   8.690  67.315  1.00  0.00    -0.105 A  
HETATM   23  C   UNL     1      -8.688   8.642  68.652  1.00  0.00    -0.138 A  
HETATM   24  C   UNL     1      -6.869   8.474  67.072  1.00  0.00    -0.067 A  
HETATM   25  C   UNL     1      -5.977   8.243  68.129  1.00  0.00    -0.042 A  
HETATM   26  C   UNL     1      -7.781   8.447  69.709  1.00  0.00    -0.093 A  
HETATM   27  O   UNL     1      -9.467   8.692  71.286  1.00  0.00    -0.180 OA 
HETATM   28  N   UNL     1      -8.255   8.512  71.101  1.00  0.00    -0.129 N  
HETATM   29  C   UNL     1      -6.424   8.240  69.450  1.00  0.00    -0.038 A  
HETATM   30  O   UNL     1      -7.412   8.399  72.005  1.00  0.00    -0.100 OA 
ENDBRANCH   8  22
ENDBRANCH   3   5
ENDBRANCH   2   3
TORSDOF 7
ENDMDL
MODEL      240
REMARK 921   NORMALIZED FREE ENERGY PREDICTED BY IDOCK:   21.48 KCAL/MOL
REMARK 922        TOTAL FREE ENERGY PREDICTED BY IDOCK:   29.22 KCAL/MOL
REMARK 923 INTER-LIGAND FREE ENERGY PREDICTED BY IDOCK:   24.52 KCAL/MOL
REMARK 924 INTRA-LIGAND FREE ENERGY PREDICTED BY IDOCK:    4.70 KCAL/MOL
REMARK 927      BINDING AFFINITY PREDICTED BY RF-SCORE:    0.00 PKD
ROOT
HETATM    1  C   UNL     1      -6.809  12.949  70.833  1.00  0.00     2.401 C  
HETATM    2  O   UNL     1      -6.363  11.685  70.320  1.00  0.00    -0.181 OA 
ENDROOT
BRANCH   2   3
HETATM    3  C   UNL     1      -6.195  10.733  71.272  1.00  0.00     0.574 C  
HETATM    4  O   UNL     1      -5.128  10.287  71.653  1.00  0.00    -0.081 OA 
BRANCH   3   5
HETATM    5  C   UNL     1      -7.523  10.343  71.817  1.00  0.00     3.511 C  
HETATM    6  C   UNL     1      -7.617   9.667  72.991  1.00  0.00     2.530 C  
HETATM    7  N   UNL     1      -8.841   9.308  73.502  1.00  0.00     1.419 NA 
HETATM    8  C   UNL     1      -8.768  10.697  70.987  1.00  0.00     3.733 C  
HETATM    9  C   UNL     1     -10.039   9.528  72.826  1.00  0.00     3.055 C  
HETATM   10  C   UNL     1     -11.273   9.027  73.542  1.00  0.00     3.839 C  
HETATM   11  C   UNL     1     -10.064  10.162  71.618  1.00  0.00     2.334 C  
BRANCH   6  12
HETATM   12  C   UNL     1      -6.362   9.128  73.657  1.00  0.00     0.255 C  
HETATM   13  N   UNL     1      -5.321   8.681  74.209  1.00  0.00    -0.097 NA 
HETATM   14  H2  UNL     1      -5.734   7.870  73.749  1.00  0.00     0.000 HD 
HETATM   15  H1  UNL     1      -4.478   8.319  74.656  1.00  0.00     0.000 HD 
ENDBRANCH   6  12
BRANCH  11  16
HETATM   16  C   UNL     1     -11.362  10.280  70.884  1.00  0.00    -0.295 C  
HETATM   17  O   UNL     1     -12.445  10.202  71.447  1.00  0.00    -0.357 OA 
BRANCH  16  18
HETATM   18  O   UNL     1     -11.227  10.486  69.541  1.00  0.00    -0.235 OA 
BRANCH  18  19
HETATM   19  C   UNL     1     -11.796  11.743  69.081  1.00  0.00    -0.326 C  
HETATM   20  C   UNL     1     -12.913  11.460  68.080  1.00  0.00     3.902 C  
HETATM   21  C   UNL     1     -12.337  12.548  70.257  1.00  0.00    -0.265 C  
ENDBRANCH  18  19
ENDBRANCH  16  18
ENDBRANCH  11  16
BRANCH   8  22
HETATM   22  C   UNL     1      -8.612  10.287  69.505  1.00  0.00    -0.153 A  
HETATM   23  C   UNL     1      -8.950   8.976  69.107  1.00  0.00    -0.140 A  
HETATM   24  C   UNL     1      -8.115  11.167  68.528  1.00  0.00    -0.146 A  
HETATM   25  C   UNL     1      -7.937  10.745  67.202  1.00  0.00    -0.124 A  
HETATM   26  C   UNL     1      -8.733   8.549  67.784  1.00  0.00    -0.137 A  
HETATM   27  O   UNL     1      -9.436   6.397  68.295  1.00  0.00    -0.123 OA 
HETATM   28  N   UNL     1      -8.987   7.147  67.417  1.00  0.00    -0.121 N  
HETATM   29  C   UNL     1      -8.232   9.434  66.827  1.00  0.00    -0.112 A  
HETATM   30  O   UNL     1      -8.722   6.795  66.256  1.00  0.00    -0.136 OA 
ENDBRANCH   8  22
ENDBRANCH   3   5
ENDBRANCH   2   3
TORSDOF 7
ENDMDL
MODEL      241
REMARK 921   NORMALIZED FREE ENERGY PREDICTED BY IDOCK:   23.93 KCAL/MOL
REMARK 922        TOTAL FREE ENERGY PREDICTED BY IDOCK:   32.67 KCAL/MOL
REMARK 923 INTER-LIGAND FREE ENERGY PREDICTED BY IDOCK:    5.15 KCAL/MOL
REMARK 924 INTRA-LIGAND FREE ENERGY PREDICTED BY IDOCK:   27.52 KCAL/MOL
REMARK 927      BINDING AFFINITY PREDICTED BY RF-SCORE:    0.00 PKD
ROOT
HETATM    1  C   UNL     1      -9.943   9.726  72.120  1.00  0.00     2.404 C  
HETATM    2  O   UNL     1      -9.924  10.684  71.052  1.00  0.00     1.388 OA 
ENDROOT
BRANCH   2   3
HETATM    3  C   UNL     1      -9.889  10.127  69.814  1.00  0.00    -0.208 C  
HETATM    4  O   UNL     1      -9.621   8.967  69.563  1.00  0.00    -0.166 OA 
BRANCH   3   5
HETATM    5  C   UNL     1     -10.274  11.149  68.805  1.00  0.00    -0.219 C  
HETATM    6  C   UNL     1     -11.423  11.860  68.942  1.00  0.00    -0.301 C  
HETATM    7  N   UNL     1     -11.782  12.808  68.016  1.00  0.00    -0.345 NA 
HETATM    8  C   UNL     1      -9.348  11.339  67.591  1.00  0.00    -0.162 C  
HETATM    9  C   UNL     1     -11.056  13.043  66.851  1.00  0.00    -0.277 C  
HETATM   10  C   UNL     1     -11.636  14.104  65.943  1.00  0.00    -0.349 C  
HETATM   11  C   UNL     1      -9.905  12.359  66.585  1.00  0.00    -0.231 C  
BRANCH   6  12
HETATM   12  C   UNL     1     -12.424  11.477  70.020  1.00  0.00    -0.122 C  
HETATM   13  N   UNL     1     -13.254  11.159  70.914  1.00  0.00    -0.032 NA 
HETATM   14  H2  UNL     1     -12.654  10.340  70.820  1.00  0.00     0.000 HD 
HETATM   15  H1  UNL     1     -13.926  10.902  71.638  1.00  0.00     0.000 HD 
ENDBRANCH   6  12
BRANCH  11  16
HETATM   16  C   UNL     1      -9.219  12.571  65.272  1.00  0.00     0.435 C  
HETATM   17  O   UNL     1      -9.820  12.562  64.207  1.00  0.00    -0.211 OA 
BRANCH  16  18
HETATM   18  O   UNL     1      -7.873  12.780  65.374  1.00  0.00     2.670 OA 
BRANCH  18  19
HETATM   19  C   UNL     1      -7.071  11.638  64.964  1.00  0.00     2.103 C  
HETATM   20  C   UNL     1      -6.087  11.281  66.075  1.00  0.00     0.027 C  
HETATM   21  C   UNL     1      -7.963  10.442  64.650  1.00  0.00    -0.092 C  
ENDBRANCH  18  19
ENDBRANCH  16  18
ENDBRANCH  11  16
BRANCH   8  22
HETATM   22  C   UNL     1      -8.974   9.992  66.932  1.00  0.00    -0.150 A  
HETATM   23  C   UNL     1      -8.136   9.984  65.796  1.00  0.00    -0.128 A  
HETATM   24  C   UNL     1      -9.460   8.761  67.404  1.00  0.00    -0.183 A  
HETATM   25  C   UNL     1      -9.142   7.563  66.749  1.00  0.00    -0.176 A  
HETATM   26  C   UNL     1      -7.853   8.782  65.122  1.00  0.00    -0.108 A  
HETATM   27  O   UNL     1      -6.645   9.906  63.490  1.00  0.00    -0.114 OA 
HETATM   28  N   UNL     1      -7.071   8.808  63.876  1.00  0.00    -0.090 N  
HETATM   29  C   UNL     1      -8.350   7.567  65.601  1.00  0.00    -0.144 A  
HETATM   30  O   UNL     1      -6.898   7.734  63.278  1.00  0.00    -0.069 OA 
ENDBRANCH   8  22
ENDBRANCH   3   5
ENDBRANCH   2   3
TORSDOF 7
ENDMDL
MODEL      242
REMARK 921   NORMALIZED FREE ENERGY PREDICTED BY IDOCK:   25.10 KCAL/MOL
REMARK 922        TOTAL FREE ENERGY PREDICTED BY IDOCK:   34.32 KCAL/MOL
REMARK 923 INTER-LIGAND FREE ENERGY PREDICTED BY IDOCK:   19.68 KCAL/MOL
REMARK 924 INTRA-LIGAND FREE ENERGY PREDICTED BY IDOCK:   14.64 KCAL/MOL
REMARK 927      BINDING AFFINITY PREDICTED BY RF-SCORE:    0.00 PKD
ROOT
HETATM    1  C   UNL     1      -7.490  10.572  63.423  1.00  0.00     0.030 C  
HETATM    2  O   UNL     1      -7.932  10.917  64.744  1.00  0.00     0.055 OA 
ENDROOT
BRANCH   2   3
HETATM    3  C   UNL     1      -8.064  12.252  64.949  1.00  0.00     2.820 C  
HETATM    4  O   UNL     1      -7.873  13.122  64.119  1.00  0.00     7.025 OA 
BRANCH   3   5
HETATM    5  C   UNL     1      -8.523  12.492  66.343  1.00  0.00     0.190 C  
HETATM    6  C   UNL     1      -8.187  13.636  66.994  1.00  0.00    -0.037 C  
HETATM    7  N   UNL     1      -8.611  13.866  68.280  1.00  0.00    -0.173 NA 
HETATM    8  C   UNL     1      -9.350  11.389  67.024  1.00  0.00    -0.183 C  
HETATM    9  C   UNL     1      -9.325  12.928  69.023  1.00  0.00     0.471 C  
HETATM   10  C   UNL     1      -9.667  13.360  70.431  1.00  0.00     3.983 C  
HETATM   11  C   UNL     1      -9.683  11.726  68.486  1.00  0.00    -0.181 C  
BRANCH   6  12
HETATM   12  C   UNL     1      -7.175  14.588  66.378  1.00  0.00     2.463 C  
HETATM   13  N   UNL     1      -6.336  15.378  65.867  1.00  0.00     3.491 NA 
HETATM   14  H2  UNL     1      -7.117  15.375  65.210  1.00  0.00     0.000 HD 
HETATM   15  H1  UNL     1      -5.657  16.017  65.453  1.00  0.00     0.000 HD 
ENDBRANCH   6  12
BRANCH  11  16
HETATM   16  C   UNL     1     -10.356  10.712  69.357  1.00  0.00    -0.208 C  
HETATM   17  O   UNL     1      -9.732   9.946  70.077  1.00  0.00    -0.236 OA 
BRANCH  16  18
HETATM   18  O   UNL     1     -11.719  10.725  69.276  1.00  0.00    -0.286 OA 
BRANCH  18  19
HETATM   19  C   UNL     1     -12.383  10.684  70.570  1.00  0.00    -0.359 C  
HETATM   20  C   UNL     1     -13.222   9.413  70.672  1.00  0.00     0.179 C  
HETATM   21  C   UNL     1     -11.359  10.729  71.699  1.00  0.00     1.505 C  
ENDBRANCH  18  19
ENDBRANCH  16  18
ENDBRANCH  11  16
BRANCH   8  22
HETATM   22  C   UNL     1      -8.699   9.996  66.865  1.00  0.00    -0.135 A  
HETATM   23  C   UNL     1      -7.998   9.687  65.680  1.00  0.00    -0.113 A  
HETATM   24  C   UNL     1      -8.800   9.000  67.852  1.00  0.00    -0.129 A  
HETATM   25  C   UNL     1      -8.243   7.729  67.652  1.00  0.00    -0.125 A  
HETATM   26  C   UNL     1      -7.475   8.398  65.471  1.00  0.00    -0.085 A  
HETATM   27  O   UNL     1      -6.760   8.964  63.337  1.00  0.00    -0.090 OA 
HETATM   28  N   UNL     1      -6.846   8.063  64.184  1.00  0.00    -0.065 N  
HETATM   29  C   UNL     1      -7.589   7.418  66.460  1.00  0.00    -0.092 A  
HETATM   30  O   UNL     1      -6.454   6.897  64.016  1.00  0.00    -0.038 OA 
ENDBRANCH   8  22
ENDBRANCH   3   5
ENDBRANCH   2   3
TORSDOF 7
ENDMDL
MODEL      243
REMARK 921   NORMALIZED FREE ENERGY PREDICTED BY IDOCK:   26.31 KCAL/MOL
REMARK 922        TOTAL FREE ENERGY PREDICTED BY IDOCK:   36.03 KCAL/MOL
REMARK 923 INTER-LIGAND FREE ENERGY PREDICTED BY IDOCK:   26.43 KCAL/MOL
REMARK 924 INTRA-LIGAND FREE ENERGY PREDICTED BY IDOCK:    9.59 KCAL/MOL
REMARK 927      BINDING AFFINITY PREDICTED BY RF-SCORE:    0.00 PKD
ROOT
HETATM    1  C   UNL     1     -10.194   6.453  66.209  1.00  0.00     0.120 C  
HETATM    2  O   UNL     1      -8.834   6.798  65.909  1.00  0.00    -0.156 OA 
ENDROOT
BRANCH   2   3
HETATM    3  C   UNL     1      -8.264   7.632  66.815  1.00  0.00    -0.124 C  
HETATM    4  O   UNL     1      -8.346   8.846  66.815  1.00  0.00    -0.110 OA 
BRANCH   3   5
HETATM    5  C   UNL     1      -7.553   6.827  67.844  1.00  0.00    -0.107 C  
HETATM    6  C   UNL     1      -6.653   5.878  67.479  1.00  0.00    -0.056 C  
HETATM    7  N   UNL     1      -5.989   5.135  68.424  1.00  0.00    -0.024 NA 
HETATM    8  C   UNL     1      -7.903   7.084  69.319  1.00  0.00    -0.114 C  
HETATM    9  C   UNL     1      -6.249   5.237  69.790  1.00  0.00    -0.026 C  
HETATM   10  C   UNL     1      -5.436   4.307  70.662  1.00  0.00    -0.011 C  
HETATM   11  C   UNL     1      -7.164   6.128  70.271  1.00  0.00    -0.083 C  
BRANCH   6  12
HETATM   12  C   UNL     1      -6.513   5.491  66.017  1.00  0.00    -0.040 C  
HETATM   13  N   UNL     1      -6.397   5.169  64.803  1.00  0.00    -0.033 NA 
HETATM   14  H2  UNL     1      -7.314   4.815  65.074  1.00  0.00     0.000 HD 
HETATM   15  H1  UNL     1      -6.303   4.909  63.820  1.00  0.00     0.000 HD 
ENDBRANCH   6  12
BRANCH  11  16
HETATM   16  C   UNL     1      -7.483   6.126  71.732  1.00  0.00    -0.095 C  
HETATM   17  O   UNL     1      -7.987   5.164  72.294  1.00  0.00    -0.105 OA 
BRANCH  16  18
HETATM   18  O   UNL     1      -7.157   7.286  72.376  1.00  0.00    -0.066 OA 
BRANCH  18  19
HETATM   19  C   UNL     1      -8.008   7.582  73.517  1.00  0.00    -0.125 C  
HETATM   20  C   UNL     1      -9.370   8.065  73.026  1.00  0.00    -0.344 C  
HETATM   21  C   UNL     1      -8.176   6.346  74.394  1.00  0.00    -0.131 C  
ENDBRANCH  18  19
ENDBRANCH  16  18
ENDBRANCH  11  16
BRANCH   8  22
HETATM   22  C   UNL     1      -9.429   7.101  69.558  1.00  0.00    -0.151 A  
HETATM   23  C   UNL     1     -10.305   7.193  68.455  1.00  0.00    -0.220 A  
HETATM   24  C   UNL     1      -9.992   7.056  70.846  1.00  0.00    -0.200 A  
HETATM   25  C   UNL     1     -11.380   7.127  71.028  1.00  0.00    -0.310 A  
HETATM   26  C   UNL     1     -11.694   7.302  68.648  1.00  0.00     1.085 A  
HETATM   27  O   UNL     1     -12.058   7.534  66.367  1.00  0.00     4.036 OA 
HETATM   28  N   UNL     1     -12.579   7.511  67.492  1.00  0.00     6.904 N  
HETATM   29  C   UNL     1     -12.236   7.263  69.935  1.00  0.00     0.487 A  
HETATM   30  O   UNL     1     -13.791   7.666  67.711  1.00  0.00    16.433 OA 
ENDBRANCH   8  22
ENDBRANCH   3   5
ENDBRANCH   2   3
TORSDOF 7
ENDMDL
MODEL      244
REMARK 921   NORMALIZED FREE ENERGY PREDICTED BY IDOCK:   26.85 KCAL/MOL
REMARK 922        TOTAL FREE ENERGY PREDICTED BY IDOCK:   36.79 KCAL/MOL
REMARK 923 INTER-LIGAND FREE ENERGY PREDICTED BY IDOCK:   36.71 KCAL/MOL
REMARK 924 INTRA-LIGAND FREE ENERGY PREDICTED BY IDOCK:    0.07 KCAL/MOL
REMARK 927      BINDING AFFINITY PREDICTED BY RF-SCORE:    0.00 PKD
ROOT
HETATM    1  C   UNL     1     -12.451  15.938  70.773  1.00  0.00    -0.267 C  
HETATM    2  O   UNL     1     -11.515  14.851  70.810  1.00  0.00    -0.282 OA 
ENDROOT
BRANCH   2   3
HETATM    3  C   UNL     1     -12.089  13.627  70.689  1.00  0.00    -0.323 C  
HETATM    4  O   UNL     1     -13.282  13.391  70.748  1.00  0.00    -0.047 OA 
BRANCH   3   5
HETATM    5  C   UNL     1     -11.032  12.613  70.430  1.00  0.00     1.452 C  
HETATM    6  C   UNL     1     -10.133  12.288  71.394  1.00  0.00    10.179 C  
HETATM    7  N   UNL     1      -9.158  11.349  71.163  1.00  0.00     6.786 NA 
HETATM    8  C   UNL     1     -10.975  11.984  69.027  1.00  0.00    -0.260 C  
HETATM    9  C   UNL     1      -8.969  10.741  69.923  1.00  0.00     0.664 C  
HETATM   10  C   UNL     1      -7.819   9.761  69.864  1.00  0.00    -0.168 C  
HETATM   11  C   UNL     1      -9.786  11.021  68.866  1.00  0.00    -0.189 C  
BRANCH   6  12
HETATM   12  C   UNL     1     -10.074  13.100  72.677  1.00  0.00    14.627 C  
HETATM   13  N   UNL     1     -10.024  13.774  73.742  1.00  0.00     7.518 NA 
HETATM   14  H2  UNL     1      -9.639  14.394  73.029  1.00  0.00     0.000 HD 
HETATM   15  H1  UNL     1      -9.985  14.319  74.604  1.00  0.00     0.000 HD 
ENDBRANCH   6  12
BRANCH  11  16
HETATM   16  C   UNL     1      -9.479  10.424  67.530  1.00  0.00    -0.149 C  
HETATM   17  O   UNL     1      -8.750  10.973  66.716  1.00  0.00    -0.144 OA 
BRANCH  16  18
HETATM   18  O   UNL     1     -10.079   9.217  67.307  1.00  0.00    -0.198 OA 
BRANCH  18  19
HETATM   19  C   UNL     1      -9.711   8.605  66.041  1.00  0.00    -0.168 C  
HETATM   20  C   UNL     1     -10.092   9.536  64.894  1.00  0.00     0.487 C  
HETATM   21  C   UNL     1      -8.214   8.311  66.003  1.00  0.00    -0.119 C  
ENDBRANCH  18  19
ENDBRANCH  16  18
ENDBRANCH  11  16
BRANCH   8  22
HETATM   22  C   UNL     1     -11.034  13.051  67.911  1.00  0.00    -0.264 A  
HETATM   23  C   UNL     1      -9.996  14.001  67.802  1.00  0.00    -0.236 A  
HETATM   24  C   UNL     1     -12.105  13.135  67.004  1.00  0.00    -0.366 A  
HETATM   25  C   UNL     1     -12.152  14.148  66.037  1.00  0.00    -0.449 A  
HETATM   26  C   UNL     1     -10.069  15.038  66.853  1.00  0.00    -0.249 A  
HETATM   27  O   UNL     1      -8.095  15.977  67.633  1.00  0.00    -0.141 OA 
HETATM   28  N   UNL     1      -9.033  16.083  66.830  1.00  0.00    -0.211 N  
HETATM   29  C   UNL     1     -11.144  15.110  65.964  1.00  0.00    -0.312 A  
HETATM   30  O   UNL     1      -9.169  17.014  66.021  1.00  0.00    -0.457 OA 
ENDBRANCH   8  22
ENDBRANCH   3   5
ENDBRANCH   2   3
TORSDOF 7
ENDMDL
MODEL      245
REMARK 921   NORMALIZED FREE ENERGY PREDICTED BY IDOCK:   28.09 KCAL/MOL
REMARK 922        TOTAL FREE ENERGY PREDICTED BY IDOCK:   38.54 KCAL/MOL
REMARK 923 INTER-LIGAND FREE ENERGY PREDICTED BY IDOCK:   31.13 KCAL/MOL
REMARK 924 INTRA-LIGAND FREE ENERGY PREDICTED BY IDOCK:    7.40 KCAL/MOL
REMARK 927      BINDING AFFINITY PREDICTED BY RF-SCORE:    0.00 PKD
ROOT
HETATM    1  C   UNL     1      -5.560  13.668  71.831  1.00  0.00    -0.096 C  
HETATM    2  O   UNL     1      -5.153  14.953  71.339  1.00  0.00    -0.139 OA 
ENDROOT
BRANCH   2   3
HETATM    3  C   UNL     1      -5.880  15.393  70.281  1.00  0.00    -0.137 C  
HETATM    4  O   UNL     1      -5.478  15.502  69.137  1.00  0.00    -0.096 OA 
BRANCH   3   5
HETATM    5  C   UNL     1      -7.269  15.683  70.726  1.00  0.00     1.490 C  
HETATM    6  C   UNL     1      -7.648  15.449  72.010  1.00  0.00     5.306 C  
HETATM    7  N   UNL     1      -8.927  15.719  72.429  1.00  0.00     8.079 NA 
HETATM    8  C   UNL     1      -8.260  16.215  69.677  1.00  0.00     0.221 C  
HETATM    9  C   UNL     1      -9.931  16.158  71.567  1.00  0.00     3.209 C  
HETATM   10  C   UNL     1     -11.281  16.364  72.217  1.00  0.00     0.497 C  
HETATM   11  C   UNL     1      -9.678  16.388  70.246  1.00  0.00     1.033 C  
BRANCH   6  12
HETATM   12  C   UNL     1      -6.715  14.703  72.949  1.00  0.00     2.381 C  
HETATM   13  N   UNL     1      -5.941  14.084  73.729  1.00  0.00    -0.426 NA 
HETATM   14  H2  UNL     1      -6.709  14.395  74.325  1.00  0.00     0.000 HD 
HETATM   15  H1  UNL     1      -5.315  13.582  74.360  1.00  0.00     0.000 HD 
ENDBRANCH   6  12
BRANCH  11  16
HETATM   16  C   UNL     1     -10.811  16.758  69.342  1.00  0.00    -0.250 C  
HETATM   17  O   UNL     1     -11.262  17.893  69.282  1.00  0.00     0.967 OA 
BRANCH  16  18
HETATM   18  O   UNL     1     -11.287  15.720  68.592  1.00  0.00    -0.328 OA 
BRANCH  18  19
HETATM   19  C   UNL     1     -12.669  15.886  68.171  1.00  0.00     1.883 C  
HETATM   20  C   UNL     1     -12.932  15.032  66.934  1.00  0.00     2.075 C  
HETATM   21  C   UNL     1     -13.621  15.490  69.295  1.00  0.00     2.653 C  
ENDBRANCH  18  19
ENDBRANCH  16  18
ENDBRANCH  11  16
BRANCH   8  22
HETATM   22  C   UNL     1      -8.236  15.375  68.380  1.00  0.00    -0.142 A  
HETATM   23  C   UNL     1      -8.501  13.990  68.443  1.00  0.00    -0.166 A  
HETATM   24  C   UNL     1      -7.930  15.933  67.126  1.00  0.00    -0.243 A  
HETATM   25  C   UNL     1      -7.866  15.132  65.978  1.00  0.00     1.951 A  
HETATM   26  C   UNL     1      -8.397  13.187  67.293  1.00  0.00    -0.179 A  
HETATM   27  O   UNL     1      -8.848  11.266  68.515  1.00  0.00    -0.154 OA 
HETATM   28  N   UNL     1      -8.567  11.729  67.401  1.00  0.00    -0.154 N  
HETATM   29  C   UNL     1      -8.086  13.757  66.056  1.00  0.00     2.050 A  
HETATM   30  O   UNL     1      -8.404  11.050  66.374  1.00  0.00    -0.156 OA 
ENDBRANCH   8  22
ENDBRANCH   3   5
ENDBRANCH   2   3
TORSDOF 7
ENDMDL
MODEL      246
REMARK 921   NORMALIZED FREE ENERGY PREDICTED BY IDOCK:   28.88 KCAL/MOL
REMARK 922        TOTAL FREE ENERGY PREDICTED BY IDOCK:   39.64 KCAL/MOL
REMARK 923 INTER-LIGAND FREE ENERGY PREDICTED BY IDOCK:    0.65 KCAL/MOL
REMARK 924 INTRA-LIGAND FREE ENERGY PREDICTED BY IDOCK:   38.99 KCAL/MOL
REMARK 927      BINDING AFFINITY PREDICTED BY RF-SCORE:    0.00 PKD
ROOT
HETATM    1  C   UNL     1     -11.349   8.796  69.170  1.00  0.00     0.452 C  
HETATM    2  O   UNL     1     -10.457   7.674  69.240  1.00  0.00    -0.215 OA 
ENDROOT
BRANCH   2   3
HETATM    3  C   UNL     1      -9.146   8.017  69.314  1.00  0.00    -0.148 C  
HETATM    4  O   UNL     1      -8.565   8.396  70.315  1.00  0.00    -0.121 OA 
BRANCH   3   5
HETATM    5  C   UNL     1      -8.509   7.816  67.986  1.00  0.00    -0.123 C  
HETATM    6  C   UNL     1      -8.181   6.570  67.556  1.00  0.00    -0.121 C  
HETATM    7  N   UNL     1      -7.598   6.377  66.328  1.00  0.00    -0.088 NA 
HETATM    8  C   UNL     1      -8.204   9.066  67.143  1.00  0.00    -0.110 C  
HETATM    9  C   UNL     1      -7.227   7.428  65.491  1.00  0.00    -0.066 C  
HETATM   10  C   UNL     1      -6.566   7.007  64.198  1.00  0.00    -0.039 C  
HETATM   11  C   UNL     1      -7.469   8.726  65.837  1.00  0.00    -0.089 C  
BRANCH   6  12
HETATM   12  C   UNL     1      -8.278   5.392  68.511  1.00  0.00    -0.094 C  
HETATM   13  N   UNL     1      -8.359   4.414  69.303  1.00  0.00    -0.073 NA 
HETATM   14  H2  UNL     1      -9.305   4.795  69.271  1.00  0.00     0.000 HD 
HETATM   15  H1  UNL     1      -8.424   3.623  69.944  1.00  0.00     0.000 HD 
ENDBRANCH   6  12
BRANCH  11  16
HETATM   16  C   UNL     1      -6.958   9.821  64.954  1.00  0.00    -0.124 C  
HETATM   17  O   UNL     1      -7.477  10.097  63.881  1.00  0.00    -0.142 OA 
BRANCH  16  18
HETATM   18  O   UNL     1      -5.873  10.481  65.456  1.00  0.00    -0.106 OA 
BRANCH  18  19
HETATM   19  C   UNL     1      -6.128  11.154  66.719  1.00  0.00    -0.119 C  
HETATM   20  C   UNL     1      -6.418  12.630  66.462  1.00  0.00     1.342 C  
HETATM   21  C   UNL     1      -7.305  10.507  67.442  1.00  0.00    -0.093 C  
ENDBRANCH  18  19
ENDBRANCH  16  18
ENDBRANCH  11  16
BRANCH   8  22
HETATM   22  C   UNL     1      -7.484  10.158  67.967  1.00  0.00    -0.087 A  
HETATM   23  C   UNL     1      -8.207  11.287  68.408  1.00  0.00    -0.149 A  
HETATM   24  C   UNL     1      -6.114  10.088  68.276  1.00  0.00    -0.045 A  
HETATM   25  C   UNL     1      -5.481  11.123  68.980  1.00  0.00    -0.040 A  
HETATM   26  C   UNL     1      -7.557  12.338  69.080  1.00  0.00     0.103 A  
HETATM   27  O   UNL     1      -9.514  13.584  69.157  1.00  0.00     0.214 OA 
HETATM   28  N   UNL     1      -8.305  13.555  69.431  1.00  0.00     0.671 N  
HETATM   29  C   UNL     1      -6.194  12.256  69.374  1.00  0.00    -0.110 A  
HETATM   30  O   UNL     1      -7.680  14.485  69.966  1.00  0.00     0.172 OA 
ENDBRANCH   8  22
ENDBRANCH   3   5
ENDBRANCH   2   3
TORSDOF 7
ENDMDL
MODEL      247
REMARK 921   NORMALIZED FREE ENERGY PREDICTED BY IDOCK:   28.89 KCAL/MOL
REMARK 922        TOTAL FREE ENERGY PREDICTED BY IDOCK:   39.66 KCAL/MOL
REMARK 923 INTER-LIGAND FREE ENERGY PREDICTED BY IDOCK:   30.70 KCAL/MOL
REMARK 924 INTRA-LIGAND FREE ENERGY PREDICTED BY IDOCK:    8.96 KCAL/MOL
REMARK 927      BINDING AFFINITY PREDICTED BY RF-SCORE:    0.00 PKD
ROOT
HETATM    1  C   UNL     1      -6.891  11.145  72.128  1.00  0.00     5.190 C  
HETATM    2  O   UNL     1      -8.003  10.980  71.236  1.00  0.00     3.679 OA 
ENDROOT
BRANCH   2   3
HETATM    3  C   UNL     1      -7.785  10.079  70.244  1.00  0.00    -0.073 C  
HETATM    4  O   UNL     1      -6.715   9.569  69.969  1.00  0.00    -0.054 OA 
BRANCH   3   5
HETATM    5  C   UNL     1      -9.073   9.774  69.566  1.00  0.00    -0.227 C  
HETATM    6  C   UNL     1     -10.061  10.704  69.507  1.00  0.00    -0.132 C  
HETATM    7  N   UNL     1     -11.251  10.431  68.878  1.00  0.00    -0.243 NA 
HETATM    8  C   UNL     1      -9.253   8.366  68.975  1.00  0.00    -0.147 C  
HETATM    9  C   UNL     1     -11.557   9.180  68.345  1.00  0.00     1.084 C  
HETATM   10  C   UNL     1     -12.933   9.073  67.726  1.00  0.00    11.988 C  
HETATM   11  C   UNL     1     -10.657   8.155  68.383  1.00  0.00    -0.148 C  
BRANCH   6  12
HETATM   12  C   UNL     1      -9.938  11.991  70.306  1.00  0.00     3.252 C  
HETATM   13  N   UNL     1      -9.835  13.059  70.969  1.00  0.00     6.566 NA 
HETATM   14  H2  UNL     1     -10.793  12.747  71.132  1.00  0.00     0.000 HD 
HETATM   15  H1  UNL     1      -9.752  13.923  71.505  1.00  0.00     0.000 HD 
ENDBRANCH   6  12
BRANCH  11  16
HETATM   16  C   UNL     1     -11.071   6.804  67.893  1.00  0.00    -0.175 C  
HETATM   17  O   UNL     1     -11.931   6.137  68.450  1.00  0.00     1.028 OA 
BRANCH  16  18
HETATM   18  O   UNL     1     -10.408   6.390  66.772  1.00  0.00    -0.207 OA 
BRANCH  18  19
HETATM   19  C   UNL     1      -9.282   7.236  66.412  1.00  0.00    -0.159 C  
HETATM   20  C   UNL     1      -9.168   7.314  64.891  1.00  0.00     0.993 C  
HETATM   21  C   UNL     1      -9.453   8.634  66.997  1.00  0.00    -0.221 C  
ENDBRANCH  18  19
ENDBRANCH  16  18
ENDBRANCH  11  16
BRANCH   8  22
HETATM   22  C   UNL     1      -8.858   7.261  69.981  1.00  0.00    -0.141 A  
HETATM   23  C   UNL     1      -9.344   7.319  71.305  1.00  0.00    -0.155 A  
HETATM   24  C   UNL     1      -8.001   6.201  69.638  1.00  0.00    -0.107 A  
HETATM   25  C   UNL     1      -7.621   5.245  70.590  1.00  0.00    -0.076 A  
HETATM   26  C   UNL     1      -8.928   6.378  72.263  1.00  0.00    -0.139 A  
HETATM   27  O   UNL     1     -10.123   7.457  73.935  1.00  0.00    -0.313 OA 
HETATM   28  N   UNL     1      -9.358   6.521  73.664  1.00  0.00    -0.132 N  
HETATM   29  C   UNL     1      -8.071   5.334  71.907  1.00  0.00    -0.114 A  
HETATM   30  O   UNL     1      -8.917   5.707  74.491  1.00  0.00    -0.119 OA 
ENDBRANCH   8  22
ENDBRANCH   3   5
ENDBRANCH   2   3
TORSDOF 7
ENDMDL
MODEL      248
REMARK 921   NORMALIZED FREE ENERGY PREDICTED BY IDOCK:   35.03 KCAL/MOL
REMARK 922        TOTAL FREE ENERGY PREDICTED BY IDOCK:   48.32 KCAL/MOL
REMARK 923 INTER-LIGAND FREE ENERGY PREDICTED BY IDOCK:   27.05 KCAL/MOL
REMARK 924 INTRA-LIGAND FREE ENERGY PREDICTED BY IDOCK:   21.27 KCAL/MOL
REMARK 927      BINDING AFFINITY PREDICTED BY RF-SCORE:    0.00 PKD
ROOT
HETATM    1  C   UNL     1      -6.813  16.789  71.030  1.00  0.00     3.017 C  
HETATM    2  O   UNL     1      -7.069  15.756  70.067  1.00  0.00    -0.049 OA 
ENDROOT
BRANCH   2   3
HETATM    3  C   UNL     1      -8.070  16.050  69.199  1.00  0.00    -0.238 C  
HETATM    4  O   UNL     1      -9.167  15.522  69.172  1.00  0.00    -0.211 OA 
BRANCH   3   5
HETATM    5  C   UNL     1      -7.636  17.156  68.304  1.00  0.00    -0.224 C  
HETATM    6  C   UNL     1      -7.453  18.410  68.792  1.00  0.00    -0.279 C  
HETATM    7  N   UNL     1      -7.047  19.434  67.972  1.00  0.00    -0.258 NA 
HETATM    8  C   UNL     1      -7.444  16.834  66.812  1.00  0.00    -0.279 C  
HETATM    9  C   UNL     1      -6.884  19.286  66.597  1.00  0.00    -0.194 C  
HETATM   10  C   UNL     1      -6.467  20.543  65.867  1.00  0.00    -0.264 C  
HETATM   11  C   UNL     1      -7.082  18.080  65.987  1.00  0.00    -0.330 C  
BRANCH   6  12
HETATM   12  C   UNL     1      -7.881  18.738  70.212  1.00  0.00     1.877 C  
HETATM   13  N   UNL     1      -8.237  19.010  71.391  1.00  0.00     5.071 NA 
HETATM   14  H2  UNL     1      -7.429  18.398  71.503  1.00  0.00     0.000 HD 
HETATM   15  H1  UNL     1      -8.525  19.231  72.345  1.00  0.00     0.000 HD 
ENDBRANCH   6  12
BRANCH  11  16
HETATM   16  C   UNL     1      -6.997  17.996  64.496  1.00  0.00     3.313 C  
HETATM   17  O   UNL     1      -7.912  17.564  63.809  1.00  0.00    10.462 OA 
BRANCH  16  18
HETATM   18  O   UNL     1      -5.817  18.448  63.978  1.00  0.00    -0.037 OA 
BRANCH  18  19
HETATM   19  C   UNL     1      -5.568  19.858  64.230  1.00  0.00    -0.223 C  
HETATM   20  C   UNL     1      -6.824  20.664  63.906  1.00  0.00     0.214 C  
HETATM   21  C   UNL     1      -5.164  20.079  65.684  1.00  0.00    -0.180 C  
ENDBRANCH  18  19
ENDBRANCH  16  18
ENDBRANCH  11  16
BRANCH   8  22
HETATM   22  C   UNL     1      -8.647  16.060  66.227  1.00  0.00    -0.363 A  
HETATM   23  C   UNL     1      -9.904  16.146  66.862  1.00  0.00    -0.247 A  
HETATM   24  C   UNL     1      -8.535  15.241  65.090  1.00  0.00     3.738 A  
HETATM   25  C   UNL     1      -9.634  14.511  64.617  1.00  0.00     1.196 A  
HETATM   26  C   UNL     1     -10.992  15.381  66.404  1.00  0.00    -0.277 A  
HETATM   27  O   UNL     1     -12.337  16.139  68.137  1.00  0.00     0.504 OA 
HETATM   28  N   UNL     1     -12.263  15.399  67.146  1.00  0.00     0.506 N  
HETATM   29  C   UNL     1     -10.863  14.567  65.277  1.00  0.00    -0.377 A  
HETATM   30  O   UNL     1     -13.178  14.661  66.746  1.00  0.00     1.182 OA 
ENDBRANCH   8  22
ENDBRANCH   3   5
ENDBRANCH   2   3
TORSDOF 7
ENDMDL
MODEL      249
REMARK 921   NORMALIZED FREE ENERGY PREDICTED BY IDOCK:   45.05 KCAL/MOL
REMARK 922        TOTAL FREE ENERGY PREDICTED BY IDOCK:   62.44 KCAL/MOL
REMARK 923 INTER-LIGAND FREE ENERGY PREDICTED BY IDOCK:   26.04 KCAL/MOL
REMARK 924 INTRA-LIGAND FREE ENERGY PREDICTED BY IDOCK:   36.40 KCAL/MOL
REMARK 927      BINDING AFFINITY PREDICTED BY RF-SCORE:    0.00 PKD
ROOT
HETATM    1  C   UNL     1     -12.252  12.584  67.567  1.00  0.00     0.188 C  
HETATM    2  O   UNL     1     -12.233  11.483  68.487  1.00  0.00    -0.524 OA 
ENDROOT
BRANCH   2   3
HETATM    3  C   UNL     1     -11.808  11.814  69.733  1.00  0.00    -0.349 C  
HETATM    4  O   UNL     1     -12.340  12.617  70.477  1.00  0.00    -0.337 OA 
BRANCH   3   5
HETATM    5  C   UNL     1     -10.604  11.008  70.072  1.00  0.00     0.168 C  
HETATM    6  C   UNL     1     -10.053  11.076  71.312  1.00  0.00     4.952 C  
HETATM    7  N   UNL     1      -8.945  10.331  71.633  1.00  0.00     3.043 NA 
HETATM    8  C   UNL     1      -9.992  10.137  68.963  1.00  0.00    -0.216 C  
HETATM    9  C   UNL     1      -8.269   9.539  70.707  1.00  0.00    -0.034 C  
HETATM   10  C   UNL     1      -7.051   8.826  71.250  1.00  0.00    -0.096 C  
HETATM   11  C   UNL     1      -8.707   9.427  69.419  1.00  0.00    -0.157 C  
BRANCH   6  12
HETATM   12  C   UNL     1     -10.540  12.123  72.299  1.00  0.00    12.437 C  
HETATM   13  N   UNL     1     -10.943  12.991  73.120  1.00  0.00     8.208 NA 
HETATM   14  H2  UNL     1     -10.945  12.120  73.650  1.00  0.00     0.000 HD 
HETATM   15  H1  UNL     1     -11.270  13.695  73.783  1.00  0.00     0.000 HD 
ENDBRANCH   6  12
BRANCH  11  16
HETATM   16  C   UNL     1      -7.888   8.650  68.437  1.00  0.00    -0.105 C  
HETATM   17  O   UNL     1      -7.566   7.485  68.625  1.00  0.00    -0.104 OA 
BRANCH  16  18
HETATM   18  O   UNL     1      -7.542   9.354  67.318  1.00  0.00    -0.091 OA 
BRANCH  18  19
HETATM   19  C   UNL     1      -8.582   9.388  66.303  1.00  0.00    -0.131 C  
HETATM   20  C   UNL     1      -9.863   8.774  66.863  1.00  0.00    -0.295 C  
HETATM   21  C   UNL     1      -8.842  10.822  65.851  1.00  0.00    -0.191 C  
ENDBRANCH  18  19
ENDBRANCH  16  18
ENDBRANCH  11  16
BRANCH   8  22
HETATM   22  C   UNL     1      -9.805  10.922  67.645  1.00  0.00    -0.192 A  
HETATM   23  C   UNL     1      -9.207  12.201  67.677  1.00  0.00    -0.181 A  
HETATM   24  C   UNL     1     -10.235  10.424  66.403  1.00  0.00    -0.292 A  
HETATM   25  C   UNL     1     -10.097  11.187  65.234  1.00  0.00    -0.329 A  
HETATM   26  C   UNL     1      -9.107  12.974  66.507  1.00  0.00    -0.127 A  
HETATM   27  O   UNL     1      -8.200  14.756  67.686  1.00  0.00    -0.150 OA 
HETATM   28  N   UNL     1      -8.584  14.348  66.580  1.00  0.00    -0.108 N  
HETATM   29  C   UNL     1      -9.545  12.467  65.281  1.00  0.00     0.028 A  
HETATM   30  O   UNL     1      -8.571  15.020  65.537  1.00  0.00     1.025 OA 
ENDBRANCH   8  22
ENDBRANCH   3   5
ENDBRANCH   2   3
TORSDOF 7
ENDMDL
MODEL      250
REMARK 921   NORMALIZED FREE ENERGY PREDICTED BY IDOCK:   46.76 KCAL/MOL
REMARK 922        TOTAL FREE ENERGY PREDICTED BY IDOCK:   64.84 KCAL/MOL
REMARK 923 INTER-LIGAND FREE ENERGY PREDICTED BY IDOCK:   58.11 KCAL/MOL
REMARK 924 INTRA-LIGAND FREE ENERGY PREDICTED BY IDOCK:    6.73 KCAL/MOL
REMARK 927      BINDING AFFINITY PREDICTED BY RF-SCORE:    0.00 PKD
ROOT
HETATM    1  C   UNL     1     -13.069  16.962  72.292  1.00  0.00     2.961 C  
HETATM    2  O   UNL     1     -12.207  16.253  73.194  1.00  0.00    -0.489 OA 
ENDROOT
BRANCH   2   3
HETATM    3  C   UNL     1     -11.841  15.022  72.752  1.00  0.00    -0.286 C  
HETATM    4  O   UNL     1     -11.590  14.060  73.454  1.00  0.00     1.011 OA 
BRANCH   3   5
HETATM    5  C   UNL     1     -11.835  15.016  71.265  1.00  0.00    -0.389 C  
HETATM    6  C   UNL     1     -12.405  13.994  70.575  1.00  0.00    -0.367 C  
HETATM    7  N   UNL     1     -12.407  13.984  69.202  1.00  0.00    -0.247 NA 
HETATM    8  C   UNL     1     -11.130  16.179  70.548  1.00  0.00    -0.338 C  
HETATM    9  C   UNL     1     -11.762  14.953  68.435  1.00  0.00    -0.309 C  
HETATM   10  C   UNL     1     -11.851  14.743  66.940  1.00  0.00    -0.279 C  
HETATM   11  C   UNL     1     -11.120  16.005  69.020  1.00  0.00    -0.320 C  
BRANCH   6  12
HETATM   12  C   UNL     1     -12.876  12.753  71.314  1.00  0.00    -0.262 C  
HETATM   13  N   UNL     1     -13.266  11.722  71.928  1.00  0.00    -0.450 NA 
HETATM   14  H2  UNL     1     -12.248  11.666  71.957  1.00  0.00     0.000 HD 
HETATM   15  H1  UNL     1     -13.582  10.889  72.424  1.00  0.00     0.000 HD 
ENDBRANCH   6  12
BRANCH  11  16
HETATM   16  C   UNL     1     -10.354  16.960  68.160  1.00  0.00    -0.336 C  
HETATM   17  O   UNL     1      -9.202  16.751  67.809  1.00  0.00    -0.218 OA 
BRANCH  16  18
HETATM   18  O   UNL     1     -11.058  18.075  67.802  1.00  0.00    -0.206 OA 
BRANCH  18  19
HETATM   19  C   UNL     1     -12.312  17.784  67.126  1.00  0.00     4.399 C  
HETATM   20  C   UNL     1     -12.113  16.617  66.162  1.00  0.00     2.617 C  
HETATM   21  C   UNL     1     -13.401  17.448  68.139  1.00  0.00     7.368 C  
ENDBRANCH  18  19
ENDBRANCH  16  18
ENDBRANCH  11  16
BRANCH   8  22
HETATM   22  C   UNL     1      -9.723  16.450  71.127  1.00  0.00     3.370 A  
HETATM   23  C   UNL     1      -8.617  15.723  70.636  1.00  0.00     2.200 A  
HETATM   24  C   UNL     1      -9.497  17.381  72.156  1.00  0.00    10.796 A  
HETATM   25  C   UNL     1      -8.215  17.563  72.694  1.00  0.00    16.083 A  
HETATM   26  C   UNL     1      -7.342  15.883  71.208  1.00  0.00     3.572 A  
HETATM   27  O   UNL     1      -6.451  14.231  69.841  1.00  0.00    -0.140 OA 
HETATM   28  N   UNL     1      -6.227  15.035  70.758  1.00  0.00     0.008 N  
HETATM   29  C   UNL     1      -7.136  16.809  72.233  1.00  0.00     8.515 A  
HETATM   30  O   UNL     1      -5.133  15.164  71.331  1.00  0.00    -0.152 OA 
ENDBRANCH   8  22
ENDBRANCH   3   5
ENDBRANCH   2   3
TORSDOF 7
ENDMDL
MODEL      251
REMARK 921   NORMALIZED FREE ENERGY PREDICTED BY IDOCK:   48.06 KCAL/MOL
REMARK 922        TOTAL FREE ENERGY PREDICTED BY IDOCK:   66.68 KCAL/MOL
REMARK 923 INTER-LIGAND FREE ENERGY PREDICTED BY IDOCK:   29.99 KCAL/MOL
REMARK 924 INTRA-LIGAND FREE ENERGY PREDICTED BY IDOCK:   36.69 KCAL/MOL
REMARK 927      BINDING AFFINITY PREDICTED BY RF-SCORE:    0.00 PKD
ROOT
HETATM    1  C   UNL     1     -12.252  12.584  67.567  1.00  0.00     0.188 C  
HETATM    2  O   UNL     1     -12.233  11.483  68.487  1.00  0.00    -0.524 OA 
ENDROOT
BRANCH   2   3
HETATM    3  C   UNL     1     -11.808  11.814  69.733  1.00  0.00    -0.349 C  
HETATM    4  O   UNL     1     -12.340  12.617  70.477  1.00  0.00    -0.337 OA 
BRANCH   3   5
HETATM    5  C   UNL     1     -10.604  11.008  70.072  1.00  0.00     0.168 C  
HETATM    6  C   UNL     1     -10.053  11.076  71.312  1.00  0.00     4.952 C  
HETATM    7  N   UNL     1      -8.945  10.331  71.633  1.00  0.00     3.043 NA 
HETATM    8  C   UNL     1      -9.992  10.137  68.963  1.00  0.00    -0.216 C  
HETATM    9  C   UNL     1      -8.269   9.539  70.707  1.00  0.00    -0.034 C  
HETATM   10  C   UNL     1      -7.051   8.826  71.250  1.00  0.00    -0.096 C  
HETATM   11  C   UNL     1      -8.707   9.427  69.419  1.00  0.00    -0.157 C  
BRANCH   6  12
HETATM   12  C   UNL     1     -10.540  12.123  72.299  1.00  0.00    12.437 C  
HETATM   13  N   UNL     1     -10.943  12.991  73.120  1.00  0.00     8.208 NA 
HETATM   14  H2  UNL     1     -10.945  12.120  73.650  1.00  0.00     0.000 HD 
HETATM   15  H1  UNL     1     -11.270  13.695  73.783  1.00  0.00     0.000 HD 
ENDBRANCH   6  12
BRANCH  11  16
HETATM   16  C   UNL     1      -7.888   8.650  68.437  1.00  0.00    -0.105 C  
HETATM   17  O   UNL     1      -7.566   7.485  68.625  1.00  0.00    -0.104 OA 
BRANCH  16  18
HETATM   18  O   UNL     1      -7.542   9.354  67.318  1.00  0.00    -0.091 OA 
BRANCH  18  19
HETATM   19  C   UNL     1      -8.582   9.388  66.303  1.00  0.00    -0.131 C  
HETATM   20  C   UNL     1      -9.863   8.774  66.863  1.00  0.00    -0.295 C  
HETATM   21  C   UNL     1      -8.842  10.822  65.851  1.00  0.00    -0.191 C  
ENDBRANCH  18  19
ENDBRANCH  16  18
ENDBRANCH  11  16
BRANCH   8  22
HETATM   22  C   UNL     1      -9.805  10.922  67.645  1.00  0.00    -0.192 A  
HETATM   23  C   UNL     1     -10.730  10.747  66.593  1.00  0.00    -0.268 A  
HETATM   24  C   UNL     1      -8.723  11.795  67.435  1.00  0.00    -0.162 A  
HETATM   25  C   UNL     1      -8.556  12.451  66.207  1.00  0.00     0.170 A  
HETATM   26  C   UNL     1     -10.534  11.379  65.353  1.00  0.00    -0.280 A  
HETATM   27  O   UNL     1     -12.400  10.332  64.452  1.00  0.00     4.473 OA 
HETATM   28  N   UNL     1     -11.448  11.095  64.234  1.00  0.00     0.064 N  
HETATM   29  C   UNL     1      -9.450  12.238  65.158  1.00  0.00     0.095 A  
HETATM   30  O   UNL     1     -11.203  11.624  63.138  1.00  0.00    -0.278 OA 
ENDBRANCH   8  22
ENDBRANCH   3   5
ENDBRANCH   2   3
TORSDOF 7
ENDMDL
MODEL      252
REMARK 921   NORMALIZED FREE ENERGY PREDICTED BY IDOCK:   57.99 KCAL/MOL
REMARK 922        TOTAL FREE ENERGY PREDICTED BY IDOCK:   80.67 KCAL/MOL
REMARK 923 INTER-LIGAND FREE ENERGY PREDICTED BY IDOCK:   17.80 KCAL/MOL
REMARK 924 INTRA-LIGAND FREE ENERGY PREDICTED BY IDOCK:   62.87 KCAL/MOL
REMARK 927      BINDING AFFINITY PREDICTED BY RF-SCORE:    0.00 PKD
ROOT
HETATM    1  C   UNL     1      -9.687  12.347  69.872  1.00  0.00     2.458 C  
HETATM    2  O   UNL     1      -8.535  11.544  70.169  1.00  0.00     1.627 OA 
ENDROOT
BRANCH   2   3
HETATM    3  C   UNL     1      -8.656  10.806  71.301  1.00  0.00     5.540 C  
HETATM    4  O   UNL     1      -9.365  11.074  72.254  1.00  0.00    10.005 OA 
BRANCH   3   5
HETATM    5  C   UNL     1      -7.816   9.584  71.183  1.00  0.00     0.207 C  
HETATM    6  C   UNL     1      -6.534   9.580  71.631  1.00  0.00     0.173 C  
HETATM    7  N   UNL     1      -5.754   8.455  71.530  1.00  0.00    -0.035 NA 
HETATM    8  C   UNL     1      -8.437   8.352  70.504  1.00  0.00    -0.133 C  
HETATM    9  C   UNL     1      -6.182   7.290  70.895  1.00  0.00    -0.036 C  
HETATM   10  C   UNL     1      -5.161   6.175  70.858  1.00  0.00    -0.013 C  
HETATM   11  C   UNL     1      -7.437   7.192  70.368  1.00  0.00    -0.084 C  
BRANCH   6  12
HETATM   12  C   UNL     1      -5.883  10.881  72.074  1.00  0.00     0.967 C  
HETATM   13  N   UNL     1      -5.343  11.959  72.441  1.00  0.00    -0.115 NA 
HETATM   14  H2  UNL     1      -4.932  11.249  73.047  1.00  0.00     0.000 HD 
HETATM   15  H1  UNL     1      -4.906  12.832  72.738  1.00  0.00     0.000 HD 
ENDBRANCH   6  12
BRANCH  11  16
HETATM   16  C   UNL     1      -7.812   5.962  69.605  1.00  0.00    -0.097 C  
HETATM   17  O   UNL     1      -7.296   4.873  69.817  1.00  0.00    -0.054 OA 
BRANCH  16  18
HETATM   18  O   UNL     1      -8.780   6.163  68.663  1.00  0.00    -0.113 OA 
BRANCH  18  19
HETATM   19  C   UNL     1      -9.359   7.497  68.693  1.00  0.00    -0.143 C  
HETATM   20  C   UNL     1      -9.435   8.052  67.273  1.00  0.00    -0.196 C  
HETATM   21  C   UNL     1     -10.749   7.463  69.319  1.00  0.00    -0.197 C  
ENDBRANCH  18  19
ENDBRANCH  16  18
ENDBRANCH  11  16
BRANCH   8  22
HETATM   22  C   UNL     1      -9.121   8.711  69.165  1.00  0.00    -0.142 A  
HETATM   23  C   UNL     1      -9.921   9.871  69.082  1.00  0.00    -0.205 A  
HETATM   24  C   UNL     1      -9.001   7.907  68.019  1.00  0.00    -0.127 A  
HETATM   25  C   UNL     1      -9.678   8.235  66.835  1.00  0.00    -0.291 A  
HETATM   26  C   UNL     1     -10.626  10.172  67.903  1.00  0.00    -0.249 A  
HETATM   27  O   UNL     1     -11.619  12.022  68.894  1.00  0.00    -0.270 OA 
HETATM   28  N   UNL     1     -11.543  11.324  67.873  1.00  0.00    -0.281 N  
HETATM   29  C   UNL     1     -10.502   9.359  66.775  1.00  0.00    -0.265 A  
HETATM   30  O   UNL     1     -12.195  11.518  66.835  1.00  0.00    -0.135 OA 
ENDBRANCH   8  22
ENDBRANCH   3   5
ENDBRANCH   2   3
TORSDOF 7
ENDMDL
