MODEL        1
REMARK 921   NORMALIZED FREE ENERGY PREDICTED BY IDOCK:   -6.18 KCAL/MOL
REMARK 922        TOTAL FREE ENERGY PREDICTED BY IDOCK:  -11.02 KCAL/MOL
REMARK 923 INTER-LIGAND FREE ENERGY PREDICTED BY IDOCK:   -9.44 KCAL/MOL
REMARK 924 INTRA-LIGAND FREE ENERGY PREDICTED BY IDOCK:   -1.58 KCAL/MOL
REMARK 927      BINDING AFFINITY PREDICTED BY RF-SCORE:    0.00 PKD
ROOT
HETATM    1  C   UNL     1     -10.756   8.971  71.722  1.00  0.00    -0.367 C  
HETATM    2  O   UNL     1      -9.355   9.196  71.671  1.00  0.00    -0.302 OA 
ENDROOT
BRANCH   2   3
HETATM    3  C   UNL     1      -8.955   9.709  70.399  1.00  0.00    -0.187 C  
BRANCH   3   4
HETATM    4  C   UNL     1     -10.212  10.079  69.642  1.00  0.00    -0.239 C  
BRANCH   4   5
HETATM    5  O   UNL     1     -10.137  11.363  69.011  1.00  0.00    -0.181 OA 
BRANCH   5   6
HETATM    6  C   UNL     1     -11.350  11.890  68.727  1.00  0.00    -0.274 C  
HETATM    7  O   UNL     1     -12.378  11.240  68.623  1.00  0.00    -0.534 OA 
BRANCH   6   8
HETATM    8  C   UNL     1     -11.277  13.357  68.497  1.00  0.00    -0.316 C  
HETATM    9  C   UNL     1     -11.819  14.271  69.342  1.00  0.00    -0.326 C  
HETATM   10  C   UNL     1     -12.705  14.051  70.548  1.00  0.00    -0.347 C  
HETATM   11  N   UNL     1     -11.547  15.608  69.145  1.00  0.00    -0.361 NA 
HETATM   12  C   UNL     1     -10.890  16.145  68.063  1.00  0.00    -0.333 C  
HETATM   13  C   UNL     1     -10.332  15.330  67.133  1.00  0.00    -0.265 C  
HETATM   14  C   UNL     1     -10.880  17.655  68.028  1.00  0.00    -0.240 C  
HETATM   15  C   UNL     1     -10.390  13.802  67.307  1.00  0.00    -0.253 C  
BRANCH  13  16
HETATM   16  C   UNL     1      -9.772  15.949  65.901  1.00  0.00    -0.351 C  
HETATM   17  O   UNL     1     -10.466  16.448  65.028  1.00  0.00    -0.642 OA 
BRANCH  16  18
HETATM   18  O   UNL     1      -8.416  15.874  65.839  1.00  0.00    -0.166 OA 
BRANCH  18  19
HETATM   19  C   UNL     1      -7.743  16.741  66.782  1.00  0.00    -0.250 C  
HETATM   20  C   UNL     1      -6.758  15.925  67.615  1.00  0.00    -0.195 C  
HETATM   21  C   UNL     1      -7.023  17.842  66.015  1.00  0.00    -0.346 C  
ENDBRANCH  18  19
ENDBRANCH  16  18
ENDBRANCH  13  16
BRANCH  15  22
HETATM   22  C   UNL     1     -10.825  13.090  66.020  1.00  0.00    -0.290 A  
HETATM   23  C   UNL     1     -12.115  13.304  65.498  1.00  0.00    -0.480 A  
HETATM   24  C   UNL     1      -9.951  12.233  65.335  1.00  0.00    -0.264 A  
HETATM   25  C   UNL     1     -12.527  12.676  64.321  1.00  0.00    -0.494 A  
HETATM   26  O   UNL     1      -8.318  10.550  63.924  1.00  0.00    -0.161 OA 
HETATM   27  O   UNL     1      -9.851  10.176  62.402  1.00  0.00    -0.129 OA 
HETATM   28  C   UNL     1     -10.371  11.604  64.155  1.00  0.00    -0.337 A  
HETATM   29  N   UNL     1      -9.444  10.714  63.444  1.00  0.00    -0.288 N  
HETATM   30  C   UNL     1     -11.656  11.822  63.645  1.00  0.00    -0.521 A  
ENDBRANCH  15  22
ENDBRANCH   6   8
ENDBRANCH   5   6
ENDBRANCH   4   5
ENDBRANCH   3   4
ENDBRANCH   2   3
TORSDOF 9
ENDMDL
MODEL        2
REMARK 921   NORMALIZED FREE ENERGY PREDICTED BY IDOCK:   -6.09 KCAL/MOL
REMARK 922        TOTAL FREE ENERGY PREDICTED BY IDOCK:  -10.87 KCAL/MOL
REMARK 923 INTER-LIGAND FREE ENERGY PREDICTED BY IDOCK:   -9.38 KCAL/MOL
REMARK 924 INTRA-LIGAND FREE ENERGY PREDICTED BY IDOCK:   -1.50 KCAL/MOL
REMARK 927      BINDING AFFINITY PREDICTED BY RF-SCORE:    0.00 PKD
ROOT
HETATM    1  C   UNL     1     -11.947   8.069  72.416  1.00  0.00    -0.350 C  
HETATM    2  O   UNL     1     -12.961   8.681  71.634  1.00  0.00    -0.325 OA 
ENDROOT
BRANCH   2   3
HETATM    3  C   UNL     1     -13.148  10.049  72.001  1.00  0.00    -0.441 C  
BRANCH   3   4
HETATM    4  C   UNL     1     -12.410  10.897  70.988  1.00  0.00    -0.393 C  
BRANCH   4   5
HETATM    5  O   UNL     1     -12.240  10.248  69.722  1.00  0.00    -0.147 OA 
BRANCH   5   6
HETATM    6  C   UNL     1     -10.970  10.309  69.257  1.00  0.00    -0.241 C  
HETATM    7  O   UNL     1      -9.976  10.111  69.937  1.00  0.00    -0.242 OA 
BRANCH   6   8
HETATM    8  C   UNL     1     -10.923  10.703  67.824  1.00  0.00    -0.364 C  
HETATM    9  C   UNL     1     -10.438   9.897  66.846  1.00  0.00    -0.215 C  
HETATM   10  C   UNL     1      -9.729   8.566  66.966  1.00  0.00    -0.266 C  
HETATM   11  N   UNL     1     -10.600  10.271  65.529  1.00  0.00    -0.066 NA 
HETATM   12  C   UNL     1     -11.080  11.482  65.089  1.00  0.00    -0.194 C  
HETATM   13  C   UNL     1     -11.563  12.385  65.979  1.00  0.00    -0.455 C  
HETATM   14  C   UNL     1     -10.992  11.681  63.595  1.00  0.00    -0.507 C  
HETATM   15  C   UNL     1     -11.622  12.042  67.477  1.00  0.00    -0.401 C  
BRANCH  13  16
HETATM   16  C   UNL     1     -11.923  13.740  65.480  1.00  0.00    -0.384 C  
HETATM   17  O   UNL     1     -13.068  14.170  65.478  1.00  0.00    -0.691 OA 
BRANCH  16  18
HETATM   18  O   UNL     1     -10.855  14.432  65.002  1.00  0.00    -0.359 OA 
BRANCH  18  19
HETATM   19  C   UNL     1     -10.650  15.707  65.655  1.00  0.00    -0.378 C  
HETATM   20  C   UNL     1      -9.167  15.892  65.962  1.00  0.00    -0.372 C  
HETATM   21  C   UNL     1     -11.158  16.816  64.744  1.00  0.00    -0.025 C  
ENDBRANCH  18  19
ENDBRANCH  16  18
ENDBRANCH  13  16
BRANCH  15  22
HETATM   22  C   UNL     1     -11.071  13.175  68.352  1.00  0.00    -0.298 A  
HETATM   23  C   UNL     1      -9.707  13.516  68.287  1.00  0.00    -0.224 A  
HETATM   24  C   UNL     1     -11.909  13.898  69.215  1.00  0.00    -0.394 A  
HETATM   25  C   UNL     1      -9.187  14.552  69.065  1.00  0.00    -0.059 A  
HETATM   26  O   UNL     1     -13.463  15.370  70.920  1.00  0.00    -0.460 OA 
HETATM   27  O   UNL     1     -11.767  16.602  71.562  1.00  0.00    -0.287 OA 
HETATM   28  C   UNL     1     -11.381  14.936  69.994  1.00  0.00    -0.274 A  
HETATM   29  N   UNL     1     -12.270  15.689  70.888  1.00  0.00    -0.391 N  
HETATM   30  C   UNL     1     -10.023  15.265  69.923  1.00  0.00    -0.176 A  
ENDBRANCH  15  22
ENDBRANCH   6   8
ENDBRANCH   5   6
ENDBRANCH   4   5
ENDBRANCH   3   4
ENDBRANCH   2   3
TORSDOF 9
ENDMDL
MODEL        3
REMARK 921   NORMALIZED FREE ENERGY PREDICTED BY IDOCK:   -5.97 KCAL/MOL
REMARK 922        TOTAL FREE ENERGY PREDICTED BY IDOCK:  -10.70 KCAL/MOL
REMARK 923 INTER-LIGAND FREE ENERGY PREDICTED BY IDOCK:   -9.26 KCAL/MOL
REMARK 924 INTRA-LIGAND FREE ENERGY PREDICTED BY IDOCK:   -1.44 KCAL/MOL
REMARK 927      BINDING AFFINITY PREDICTED BY RF-SCORE:    0.00 PKD
ROOT
HETATM    1  C   UNL     1     -12.183  14.815  64.154  1.00  0.00    -0.295 C  
HETATM    2  O   UNL     1     -12.578  13.818  63.224  1.00  0.00    -0.830 OA 
ENDROOT
BRANCH   2   3
HETATM    3  C   UNL     1     -12.459  12.508  63.781  1.00  0.00    -0.455 C  
BRANCH   3   4
HETATM    4  C   UNL     1     -12.475  12.651  65.288  1.00  0.00    -0.416 C  
BRANCH   4   5
HETATM    5  O   UNL     1     -11.718  11.638  65.961  1.00  0.00    -0.382 OA 
BRANCH   5   6
HETATM    6  C   UNL     1     -10.801  12.140  66.822  1.00  0.00    -0.248 C  
HETATM    7  O   UNL     1      -9.665  12.459  66.511  1.00  0.00    -0.228 OA 
BRANCH   6   8
HETATM    8  C   UNL     1     -11.324  12.204  68.212  1.00  0.00    -0.343 C  
HETATM    9  C   UNL     1     -11.553  13.370  68.867  1.00  0.00    -0.314 C  
HETATM   10  C   UNL     1     -11.213  14.785  68.452  1.00  0.00    -0.298 C  
HETATM   11  N   UNL     1     -12.207  13.339  70.081  1.00  0.00    -0.328 NA 
HETATM   12  C   UNL     1     -12.526  12.207  70.794  1.00  0.00    -0.271 C  
HETATM   13  C   UNL     1     -12.312  10.981  70.255  1.00  0.00    -0.410 C  
HETATM   14  C   UNL     1     -13.089  12.476  72.168  1.00  0.00    -0.428 C  
HETATM   15  C   UNL     1     -11.757  10.849  68.825  1.00  0.00    -0.355 C  
BRANCH  13  16
HETATM   16  C   UNL     1     -12.522   9.786  71.118  1.00  0.00    -0.350 C  
HETATM   17  O   UNL     1     -13.611   9.250  71.264  1.00  0.00    -0.341 OA 
BRANCH  16  18
HETATM   18  O   UNL     1     -11.388   9.378  71.743  1.00  0.00    -0.379 OA 
BRANCH  18  19
HETATM   19  C   UNL     1     -11.477   8.042  72.294  1.00  0.00    -0.360 C  
HETATM   20  C   UNL     1     -11.572   7.026  71.160  1.00  0.00    -0.351 C  
HETATM   21  C   UNL     1     -10.251   7.780  73.158  1.00  0.00    -0.398 C  
ENDBRANCH  18  19
ENDBRANCH  16  18
ENDBRANCH  13  16
BRANCH  15  22
HETATM   22  C   UNL     1     -10.611   9.833  68.742  1.00  0.00    -0.244 A  
HETATM   23  C   UNL     1     -10.769   8.651  67.993  1.00  0.00    -0.137 A  
HETATM   24  C   UNL     1      -9.388  10.066  69.389  1.00  0.00    -0.237 A  
HETATM   25  C   UNL     1      -9.734   7.720  67.894  1.00  0.00    -0.181 A  
HETATM   26  O   UNL     1      -6.966  10.433  70.610  1.00  0.00    -0.324 OA 
HETATM   27  O   UNL     1      -6.183   8.530  69.850  1.00  0.00    -0.031 OA 
HETATM   28  C   UNL     1      -8.353   9.126  69.287  1.00  0.00    -0.123 A  
HETATM   29  N   UNL     1      -7.077   9.385  69.964  1.00  0.00    -0.071 N  
HETATM   30  C   UNL     1      -8.522   7.953  68.542  1.00  0.00    -0.128 A  
ENDBRANCH  15  22
ENDBRANCH   6   8
ENDBRANCH   5   6
ENDBRANCH   4   5
ENDBRANCH   3   4
ENDBRANCH   2   3
TORSDOF 9
ENDMDL
MODEL        4
REMARK 921   NORMALIZED FREE ENERGY PREDICTED BY IDOCK:   -5.97 KCAL/MOL
REMARK 922        TOTAL FREE ENERGY PREDICTED BY IDOCK:  -10.68 KCAL/MOL
REMARK 923 INTER-LIGAND FREE ENERGY PREDICTED BY IDOCK:   -9.26 KCAL/MOL
REMARK 924 INTRA-LIGAND FREE ENERGY PREDICTED BY IDOCK:   -1.42 KCAL/MOL
REMARK 927      BINDING AFFINITY PREDICTED BY RF-SCORE:    0.00 PKD
ROOT
HETATM    1  C   UNL     1     -11.876  15.069  64.490  1.00  0.00    -0.371 C  
HETATM    2  O   UNL     1     -12.717  13.925  64.506  1.00  0.00    -0.649 OA 
ENDROOT
BRANCH   2   3
HETATM    3  C   UNL     1     -12.189  12.879  63.690  1.00  0.00    -0.499 C  
BRANCH   3   4
HETATM    4  C   UNL     1     -11.316  12.011  64.571  1.00  0.00    -0.330 C  
BRANCH   4   5
HETATM    5  O   UNL     1     -11.759  11.958  65.932  1.00  0.00    -0.424 OA 
BRANCH   5   6
HETATM    6  C   UNL     1     -10.818  12.365  66.816  1.00  0.00    -0.248 C  
HETATM    7  O   UNL     1      -9.659  12.615  66.524  1.00  0.00    -0.239 OA 
BRANCH   6   8
HETATM    8  C   UNL     1     -11.348  12.418  68.204  1.00  0.00    -0.341 C  
HETATM    9  C   UNL     1     -11.596  13.580  68.861  1.00  0.00    -0.323 C  
HETATM   10  C   UNL     1     -11.272  14.999  68.452  1.00  0.00    -0.303 C  
HETATM   11  N   UNL     1     -12.255  13.536  70.072  1.00  0.00    -0.329 NA 
HETATM   12  C   UNL     1     -12.562  12.398  70.780  1.00  0.00    -0.211 C  
HETATM   13  C   UNL     1     -12.330  11.176  70.238  1.00  0.00    -0.397 C  
HETATM   14  C   UNL     1     -13.136  12.655  72.153  1.00  0.00    -0.438 C  
HETATM   15  C   UNL     1     -11.767  11.056  68.811  1.00  0.00    -0.383 C  
BRANCH  13  16
HETATM   16  C   UNL     1     -12.529   9.977  71.096  1.00  0.00    -0.379 C  
HETATM   17  O   UNL     1     -13.626   9.484  71.314  1.00  0.00    -0.360 OA 
BRANCH  16  18
HETATM   18  O   UNL     1     -11.371   9.510  71.632  1.00  0.00    -0.383 OA 
BRANCH  18  19
HETATM   19  C   UNL     1     -11.480   8.173  72.175  1.00  0.00    -0.350 C  
HETATM   20  C   UNL     1     -11.516   7.159  71.034  1.00  0.00    -0.331 C  
HETATM   21  C   UNL     1     -10.293   7.913  73.094  1.00  0.00    -0.357 C  
ENDBRANCH  18  19
ENDBRANCH  16  18
ENDBRANCH  13  16
BRANCH  15  22
HETATM   22  C   UNL     1     -10.607  10.056  68.730  1.00  0.00    -0.241 A  
HETATM   23  C   UNL     1      -9.387  10.337  69.375  1.00  0.00    -0.217 A  
HETATM   24  C   UNL     1     -10.741   8.845  68.033  1.00  0.00    -0.168 A  
HETATM   25  C   UNL     1      -8.323   9.435  69.324  1.00  0.00    -0.131 A  
HETATM   26  O   UNL     1     -10.907   6.457  66.706  1.00  0.00    -0.326 OA 
HETATM   27  O   UNL     1      -8.852   5.905  67.238  1.00  0.00    -0.109 OA 
HETATM   28  C   UNL     1      -9.668   7.944  67.985  1.00  0.00    -0.159 A  
HETATM   29  N   UNL     1      -9.823   6.678  67.258  1.00  0.00    -0.137 N  
HETATM   30  C   UNL     1      -8.459   8.235  68.628  1.00  0.00    -0.125 A  
ENDBRANCH  15  22
ENDBRANCH   6   8
ENDBRANCH   5   6
ENDBRANCH   4   5
ENDBRANCH   3   4
ENDBRANCH   2   3
TORSDOF 9
ENDMDL
MODEL        5
REMARK 921   NORMALIZED FREE ENERGY PREDICTED BY IDOCK:   -5.93 KCAL/MOL
REMARK 922        TOTAL FREE ENERGY PREDICTED BY IDOCK:  -10.63 KCAL/MOL
REMARK 923 INTER-LIGAND FREE ENERGY PREDICTED BY IDOCK:   -9.03 KCAL/MOL
REMARK 924 INTRA-LIGAND FREE ENERGY PREDICTED BY IDOCK:   -1.60 KCAL/MOL
REMARK 927      BINDING AFFINITY PREDICTED BY RF-SCORE:    0.00 PKD
ROOT
HETATM    1  C   UNL     1     -14.356  15.358  72.407  1.00  0.00    -0.398 C  
HETATM    2  O   UNL     1     -13.420  14.581  73.139  1.00  0.00    -0.609 OA 
ENDROOT
BRANCH   2   3
HETATM    3  C   UNL     1     -12.157  15.241  73.235  1.00  0.00    -0.437 C  
BRANCH   3   4
HETATM    4  C   UNL     1     -11.864  15.861  71.886  1.00  0.00    -0.506 C  
BRANCH   4   5
HETATM    5  O   UNL     1     -11.190  14.971  70.987  1.00  0.00    -0.289 OA 
BRANCH   5   6
HETATM    6  C   UNL     1     -11.878  14.746  69.844  1.00  0.00    -0.316 C  
HETATM    7  O   UNL     1     -12.725  15.498  69.388  1.00  0.00     0.001 OA 
BRANCH   6   8
HETATM    8  C   UNL     1     -11.521  13.439  69.231  1.00  0.00    -0.345 C  
HETATM    9  C   UNL     1     -11.865  12.244  69.776  1.00  0.00    -0.318 C  
HETATM   10  C   UNL     1     -12.503  11.950  71.116  1.00  0.00    -0.365 C  
HETATM   11  N   UNL     1     -11.652  11.092  69.049  1.00  0.00    -0.296 NA 
HETATM   12  C   UNL     1     -10.968  11.005  67.859  1.00  0.00    -0.264 C  
HETATM   13  C   UNL     1     -10.546  12.133  67.235  1.00  0.00    -0.255 C  
HETATM   14  C   UNL     1     -10.744   9.594  67.372  1.00  0.00    -0.308 C  
HETATM   15  C   UNL     1     -10.869  13.515  67.828  1.00  0.00    -0.267 C  
BRANCH  13  16
HETATM   16  C   UNL     1      -9.675  11.989  66.036  1.00  0.00    -0.239 C  
HETATM   17  O   UNL     1      -8.579  11.448  66.067  1.00  0.00    -0.169 OA 
BRANCH  16  18
HETATM   18  O   UNL     1     -10.212  12.545  64.919  1.00  0.00    -0.288 OA 
BRANCH  18  19
HETATM   19  C   UNL     1     -10.920  11.600  64.083  1.00  0.00    -0.376 C  
HETATM   20  C   UNL     1     -12.181  12.255  63.524  1.00  0.00    -0.669 C  
HETATM   21  C   UNL     1      -9.999  11.148  62.958  1.00  0.00    -0.347 C  
ENDBRANCH  18  19
ENDBRANCH  16  18
ENDBRANCH  13  16
BRANCH  15  22
HETATM   22  C   UNL     1      -9.641  14.433  67.859  1.00  0.00    -0.219 A  
HETATM   23  C   UNL     1      -8.502  14.062  68.601  1.00  0.00    -0.103 A  
HETATM   24  C   UNL     1      -9.619  15.640  67.144  1.00  0.00    -0.224 A  
HETATM   25  C   UNL     1      -7.369  14.877  68.633  1.00  0.00    -0.120 A  
HETATM   26  O   UNL     1      -9.477  18.007  65.778  1.00  0.00    -0.495 OA 
HETATM   27  O   UNL     1      -7.438  18.405  66.479  1.00  0.00    -0.216 OA 
HETATM   28  C   UNL     1      -8.478  16.453  67.181  1.00  0.00    -0.183 A  
HETATM   29  N   UNL     1      -8.466  17.711  66.423  1.00  0.00    -0.259 N  
HETATM   30  C   UNL     1      -7.353  16.077  67.923  1.00  0.00    -0.145 A  
ENDBRANCH  15  22
ENDBRANCH   6   8
ENDBRANCH   5   6
ENDBRANCH   4   5
ENDBRANCH   3   4
ENDBRANCH   2   3
TORSDOF 9
ENDMDL
MODEL        6
REMARK 921   NORMALIZED FREE ENERGY PREDICTED BY IDOCK:   -5.85 KCAL/MOL
REMARK 922        TOTAL FREE ENERGY PREDICTED BY IDOCK:  -10.50 KCAL/MOL
REMARK 923 INTER-LIGAND FREE ENERGY PREDICTED BY IDOCK:   -9.34 KCAL/MOL
REMARK 924 INTRA-LIGAND FREE ENERGY PREDICTED BY IDOCK:   -1.17 KCAL/MOL
REMARK 927      BINDING AFFINITY PREDICTED BY RF-SCORE:    0.00 PKD
ROOT
HETATM    1  C   UNL     1      -8.418   9.091  62.431  1.00  0.00    -0.211 C  
HETATM    2  O   UNL     1      -9.576   9.884  62.647  1.00  0.00    -0.225 OA 
ENDROOT
BRANCH   2   3
HETATM    3  C   UNL     1      -9.324  10.930  63.586  1.00  0.00    -0.262 C  
BRANCH   3   4
HETATM    4  C   UNL     1      -8.418  10.369  64.660  1.00  0.00    -0.173 C  
BRANCH   4   5
HETATM    5  O   UNL     1      -9.126   9.919  65.821  1.00  0.00    -0.150 OA 
BRANCH   5   6
HETATM    6  C   UNL     1      -8.717  10.521  66.963  1.00  0.00    -0.130 C  
HETATM    7  O   UNL     1      -7.566  10.858  67.191  1.00  0.00    -0.100 OA 
BRANCH   6   8
HETATM    8  C   UNL     1      -9.829  10.673  67.937  1.00  0.00    -0.181 C  
HETATM    9  C   UNL     1     -10.465   9.621  68.512  1.00  0.00    -0.212 C  
HETATM   10  C   UNL     1     -10.332   8.143  68.214  1.00  0.00    -0.241 C  
HETATM   11  N   UNL     1     -11.357   9.856  69.537  1.00  0.00    -0.173 NA 
HETATM   12  C   UNL     1     -11.801  11.090  69.950  1.00  0.00    -0.353 C  
HETATM   13  C   UNL     1     -11.262  12.217  69.423  1.00  0.00    -0.243 C  
HETATM   14  C   UNL     1     -12.903  11.041  70.981  1.00  0.00    -0.442 C  
HETATM   15  C   UNL     1     -10.119  12.124  68.397  1.00  0.00    -0.210 C  
BRANCH  13  16
HETATM   16  C   UNL     1     -11.878  13.525  69.780  1.00  0.00    -0.329 C  
HETATM   17  O   UNL     1     -12.528  14.195  68.990  1.00  0.00    -0.211 OA 
BRANCH  16  18
HETATM   18  O   UNL     1     -11.617  13.904  71.058  1.00  0.00    -0.068 OA 
BRANCH  18  19
HETATM   19  C   UNL     1     -12.605  14.808  71.608  1.00  0.00    -0.328 C  
HETATM   20  C   UNL     1     -13.465  14.066  72.628  1.00  0.00    -0.650 C  
HETATM   21  C   UNL     1     -11.891  15.986  72.256  1.00  0.00    -0.628 C  
ENDBRANCH  18  19
ENDBRANCH  16  18
ENDBRANCH  13  16
BRANCH  15  22
HETATM   22  C   UNL     1     -10.356  13.032  67.184  1.00  0.00    -0.243 A  
HETATM   23  C   UNL     1      -9.594  14.205  67.021  1.00  0.00    -0.264 A  
HETATM   24  C   UNL     1     -11.315  12.708  66.212  1.00  0.00    -0.376 A  
HETATM   25  C   UNL     1      -9.785  15.039  65.918  1.00  0.00    -0.376 A  
HETATM   26  O   UNL     1     -13.155  12.158  64.263  1.00  0.00    -0.723 OA 
HETATM   27  O   UNL     1     -12.643  13.965  63.130  1.00  0.00    -0.775 OA 
HETATM   28  C   UNL     1     -11.503  13.550  65.108  1.00  0.00    -0.301 A  
HETATM   29  N   UNL     1     -12.506  13.195  64.095  1.00  0.00    -0.311 N  
HETATM   30  C   UNL     1     -10.742  14.714  64.957  1.00  0.00    -0.448 A  
ENDBRANCH  15  22
ENDBRANCH   6   8
ENDBRANCH   5   6
ENDBRANCH   4   5
ENDBRANCH   3   4
ENDBRANCH   2   3
TORSDOF 9
ENDMDL
MODEL        7
REMARK 921   NORMALIZED FREE ENERGY PREDICTED BY IDOCK:   -5.77 KCAL/MOL
REMARK 922        TOTAL FREE ENERGY PREDICTED BY IDOCK:  -10.39 KCAL/MOL
REMARK 923 INTER-LIGAND FREE ENERGY PREDICTED BY IDOCK:   -8.83 KCAL/MOL
REMARK 924 INTRA-LIGAND FREE ENERGY PREDICTED BY IDOCK:   -1.56 KCAL/MOL
REMARK 927      BINDING AFFINITY PREDICTED BY RF-SCORE:    0.00 PKD
ROOT
HETATM    1  C   UNL     1      -6.909  10.181  62.810  1.00  0.00    -0.132 C  
HETATM    2  O   UNL     1      -7.760   9.055  62.658  1.00  0.00    -0.111 OA 
ENDROOT
BRANCH   2   3
HETATM    3  C   UNL     1      -9.136   9.430  62.727  1.00  0.00    -0.096 C  
BRANCH   3   4
HETATM    4  C   UNL     1      -9.249  10.570  63.716  1.00  0.00    -0.263 C  
BRANCH   4   5
HETATM    5  O   UNL     1      -9.795  10.173  64.979  1.00  0.00    -0.296 OA 
BRANCH   5   6
HETATM    6  C   UNL     1      -9.086  10.633  66.036  1.00  0.00    -0.180 C  
HETATM    7  O   UNL     1      -7.902  10.931  65.996  1.00  0.00    -0.159 OA 
BRANCH   6   8
HETATM    8  C   UNL     1      -9.906  10.682  67.275  1.00  0.00    -0.206 C  
HETATM    9  C   UNL     1     -10.201   9.584  68.015  1.00  0.00    -0.201 C  
HETATM   10  C   UNL     1      -9.936   8.125  67.713  1.00  0.00    -0.230 C  
HETATM   11  N   UNL     1     -10.811   9.747  69.241  1.00  0.00    -0.223 NA 
HETATM   12  C   UNL     1     -11.306  10.928  69.743  1.00  0.00    -0.301 C  
HETATM   13  C   UNL     1     -11.101  12.090  69.074  1.00  0.00    -0.291 C  
HETATM   14  C   UNL     1     -12.071  10.782  71.036  1.00  0.00    -0.452 C  
HETATM   15  C   UNL     1     -10.274  12.102  67.776  1.00  0.00    -0.207 C  
BRANCH  13  16
HETATM   16  C   UNL     1     -11.786  13.316  69.567  1.00  0.00    -0.322 C  
HETATM   17  O   UNL     1     -12.999  13.458  69.545  1.00  0.00     0.486 OA 
BRANCH  16  18
HETATM   18  O   UNL     1     -10.921  14.264  70.012  1.00  0.00    -0.102 OA 
BRANCH  18  19
HETATM   19  C   UNL     1     -11.499  15.590  70.082  1.00  0.00    -0.327 C  
HETATM   20  C   UNL     1     -11.730  15.971  71.542  1.00  0.00    -0.554 C  
HETATM   21  C   UNL     1     -10.556  16.576  69.406  1.00  0.00    -0.329 C  
ENDBRANCH  18  19
ENDBRANCH  16  18
ENDBRANCH  13  16
BRANCH  15  22
HETATM   22  C   UNL     1     -10.959  12.901  66.662  1.00  0.00    -0.302 A  
HETATM   23  C   UNL     1     -12.046  12.345  65.961  1.00  0.00    -0.327 A  
HETATM   24  C   UNL     1     -10.532  14.197  66.331  1.00  0.00    -0.283 A  
HETATM   25  C   UNL     1     -12.692  13.061  64.950  1.00  0.00    -0.456 A  
HETATM   26  O   UNL     1      -9.779  16.730  65.620  1.00  0.00    -0.539 OA 
HETATM   27  O   UNL     1     -11.334  16.867  64.080  1.00  0.00    -1.208 OA 
HETATM   28  C   UNL     1     -11.184  14.909  65.315  1.00  0.00    -0.369 A  
HETATM   29  N   UNL     1     -10.731  16.266  64.984  1.00  0.00    -0.372 N  
HETATM   30  C   UNL     1     -12.262  14.346  64.624  1.00  0.00    -0.479 A  
ENDBRANCH  15  22
ENDBRANCH   6   8
ENDBRANCH   5   6
ENDBRANCH   4   5
ENDBRANCH   3   4
ENDBRANCH   2   3
TORSDOF 9
ENDMDL
MODEL        8
REMARK 921   NORMALIZED FREE ENERGY PREDICTED BY IDOCK:   -5.75 KCAL/MOL
REMARK 922        TOTAL FREE ENERGY PREDICTED BY IDOCK:  -10.35 KCAL/MOL
REMARK 923 INTER-LIGAND FREE ENERGY PREDICTED BY IDOCK:   -8.51 KCAL/MOL
REMARK 924 INTRA-LIGAND FREE ENERGY PREDICTED BY IDOCK:   -1.84 KCAL/MOL
REMARK 927      BINDING AFFINITY PREDICTED BY RF-SCORE:    0.00 PKD
ROOT
HETATM    1  C   UNL     1     -10.002   9.605  65.823  1.00  0.00    -0.272 C  
HETATM    2  O   UNL     1      -9.592   9.838  64.484  1.00  0.00    -0.273 OA 
ENDROOT
BRANCH   2   3
HETATM    3  C   UNL     1     -10.284  10.950  63.914  1.00  0.00    -0.354 C  
BRANCH   3   4
HETATM    4  C   UNL     1     -11.063  11.621  65.025  1.00  0.00    -0.249 C  
BRANCH   4   5
HETATM    5  O   UNL     1     -11.138  13.045  64.885  1.00  0.00    -0.286 OA 
BRANCH   5   6
HETATM    6  C   UNL     1     -12.104  13.606  65.649  1.00  0.00    -0.425 C  
HETATM    7  O   UNL     1     -13.278  13.270  65.635  1.00  0.00    -0.380 OA 
BRANCH   6   8
HETATM    8  C   UNL     1     -11.577  14.725  66.473  1.00  0.00    -0.306 C  
HETATM    9  C   UNL     1     -11.132  15.893  65.944  1.00  0.00    -0.053 C  
HETATM   10  C   UNL     1     -10.920  16.268  64.494  1.00  0.00    -0.087 C  
HETATM   11  N   UNL     1     -10.833  16.941  66.790  1.00  0.00    -0.090 NA 
HETATM   12  C   UNL     1     -10.790  16.879  68.163  1.00  0.00    -0.351 C  
HETATM   13  C   UNL     1     -11.181  15.750  68.805  1.00  0.00    -0.342 C  
HETATM   14  C   UNL     1     -10.271  18.132  68.825  1.00  0.00    -0.353 C  
HETATM   15  C   UNL     1     -11.720  14.550  68.006  1.00  0.00    -0.373 C  
BRANCH  13  16
HETATM   16  C   UNL     1     -10.970  15.669  70.276  1.00  0.00    -0.348 C  
HETATM   17  O   UNL     1      -9.935  15.260  70.781  1.00  0.00     0.226 OA 
BRANCH  16  18
HETATM   18  O   UNL     1     -12.054  16.067  70.991  1.00  0.00    -0.408 OA 
BRANCH  18  19
HETATM   19  C   UNL     1     -12.526  15.073  71.932  1.00  0.00    -0.339 C  
HETATM   20  C   UNL     1     -12.644  15.697  73.320  1.00  0.00    -0.619 C  
HETATM   21  C   UNL     1     -13.873  14.543  71.459  1.00  0.00    -0.477 C  
ENDBRANCH  18  19
ENDBRANCH  16  18
ENDBRANCH  13  16
BRANCH  15  22
HETATM   22  C   UNL     1     -11.088  13.227  68.454  1.00  0.00    -0.299 A  
HETATM   23  C   UNL     1      -9.743  12.949  68.147  1.00  0.00    -0.227 A  
HETATM   24  C   UNL     1     -11.825  12.282  69.185  1.00  0.00    -0.355 A  
HETATM   25  C   UNL     1      -9.144  11.755  68.556  1.00  0.00    -0.144 A  
HETATM   26  O   UNL     1     -13.176  10.383  70.619  1.00  0.00    -0.350 OA 
HETATM   27  O   UNL     1     -11.429   9.061  70.704  1.00  0.00    -0.263 OA 
HETATM   28  C   UNL     1     -11.219  11.086  69.591  1.00  0.00    -0.278 A  
HETATM   29  N   UNL     1     -11.999  10.109  70.361  1.00  0.00    -0.274 N  
HETATM   30  C   UNL     1      -9.881  10.818  69.279  1.00  0.00    -0.160 A  
ENDBRANCH  15  22
ENDBRANCH   6   8
ENDBRANCH   5   6
ENDBRANCH   4   5
ENDBRANCH   3   4
ENDBRANCH   2   3
TORSDOF 9
ENDMDL
MODEL        9
REMARK 921   NORMALIZED FREE ENERGY PREDICTED BY IDOCK:   -5.74 KCAL/MOL
REMARK 922        TOTAL FREE ENERGY PREDICTED BY IDOCK:  -10.34 KCAL/MOL
REMARK 923 INTER-LIGAND FREE ENERGY PREDICTED BY IDOCK:   -8.48 KCAL/MOL
REMARK 924 INTRA-LIGAND FREE ENERGY PREDICTED BY IDOCK:   -1.86 KCAL/MOL
REMARK 927      BINDING AFFINITY PREDICTED BY RF-SCORE:    0.00 PKD
ROOT
HETATM    1  C   UNL     1     -12.466  11.855  63.393  1.00  0.00    -0.463 C  
HETATM    2  O   UNL     1     -13.279  12.460  64.386  1.00  0.00    -0.816 OA 
ENDROOT
BRANCH   2   3
HETATM    3  C   UNL     1     -12.509  13.293  65.254  1.00  0.00    -0.489 C  
BRANCH   3   4
HETATM    4  C   UNL     1     -11.640  12.389  66.101  1.00  0.00    -0.396 C  
BRANCH   4   5
HETATM    5  O   UNL     1     -12.261  11.996  67.331  1.00  0.00    -0.491 OA 
BRANCH   5   6
HETATM    6  C   UNL     1     -11.554  12.359  68.426  1.00  0.00    -0.324 C  
HETATM    7  O   UNL     1     -10.920  13.398  68.525  1.00  0.00    -0.249 OA 
BRANCH   6   8
HETATM    8  C   UNL     1     -11.592  11.314  69.482  1.00  0.00    -0.398 C  
HETATM    9  C   UNL     1     -12.201  11.490  70.682  1.00  0.00    -0.378 C  
HETATM   10  C   UNL     1     -12.807  12.744  71.273  1.00  0.00    -0.355 C  
HETATM   11  N   UNL     1     -12.344  10.409  71.526  1.00  0.00    -0.381 NA 
HETATM   12  C   UNL     1     -11.784   9.166  71.343  1.00  0.00    -0.343 C  
HETATM   13  C   UNL     1     -11.121   8.881  70.194  1.00  0.00    -0.217 C  
HETATM   14  C   UNL     1     -11.968   8.224  72.508  1.00  0.00    -0.420 C  
HETATM   15  C   UNL     1     -11.033   9.928  69.070  1.00  0.00    -0.223 C  
BRANCH  13  16
HETATM   16  C   UNL     1     -10.397   7.584  70.103  1.00  0.00    -0.216 C  
HETATM   17  O   UNL     1      -9.321   7.380  70.647  1.00  0.00    -0.160 OA 
BRANCH  16  18
HETATM   18  O   UNL     1     -11.040   6.670  69.331  1.00  0.00    -0.288 OA 
BRANCH  18  19
HETATM   19  C   UNL     1     -10.237   6.165  68.238  1.00  0.00    -0.175 C  
HETATM   20  C   UNL     1     -10.024   4.663  68.411  1.00  0.00    -0.134 C  
HETATM   21  C   UNL     1     -10.945   6.465  66.924  1.00  0.00    -0.413 C  
ENDBRANCH  18  19
ENDBRANCH  16  18
ENDBRANCH  13  16
BRANCH  15  22
HETATM   22  C   UNL     1      -9.608  10.069  68.521  1.00  0.00    -0.157 A  
HETATM   23  C   UNL     1      -8.557  10.447  69.378  1.00  0.00    -0.143 A  
HETATM   24  C   UNL     1      -9.322   9.811  67.172  1.00  0.00    -0.169 A  
HETATM   25  C   UNL     1      -7.250  10.568  68.902  1.00  0.00    -0.086 A  
HETATM   26  O   UNL     1      -8.663   9.323  64.561  1.00  0.00    -0.189 OA 
HETATM   27  O   UNL     1      -6.546   9.777  64.906  1.00  0.00    -0.094 OA 
HETATM   28  C   UNL     1      -8.008   9.936  66.700  1.00  0.00    -0.113 A  
HETATM   29  N   UNL     1      -7.721   9.657  65.287  1.00  0.00    -0.111 N  
HETATM   30  C   UNL     1      -6.971  10.314  67.560  1.00  0.00    -0.085 A  
ENDBRANCH  15  22
ENDBRANCH   6   8
ENDBRANCH   5   6
ENDBRANCH   4   5
ENDBRANCH   3   4
ENDBRANCH   2   3
TORSDOF 9
ENDMDL
MODEL       10
REMARK 921   NORMALIZED FREE ENERGY PREDICTED BY IDOCK:   -5.70 KCAL/MOL
REMARK 922        TOTAL FREE ENERGY PREDICTED BY IDOCK:  -10.28 KCAL/MOL
REMARK 923 INTER-LIGAND FREE ENERGY PREDICTED BY IDOCK:   -8.70 KCAL/MOL
REMARK 924 INTRA-LIGAND FREE ENERGY PREDICTED BY IDOCK:   -1.58 KCAL/MOL
REMARK 927      BINDING AFFINITY PREDICTED BY RF-SCORE:    0.00 PKD
ROOT
HETATM    1  C   UNL     1      -7.465  10.210  69.668  1.00  0.00    -0.147 C  
HETATM    2  O   UNL     1      -7.414  11.546  69.191  1.00  0.00    -0.100 OA 
ENDROOT
BRANCH   2   3
HETATM    3  C   UNL     1      -6.376  12.289  69.832  1.00  0.00    -0.060 C  
BRANCH   3   4
HETATM    4  C   UNL     1      -6.498  13.727  69.379  1.00  0.00    -0.111 C  
BRANCH   4   5
HETATM    5  O   UNL     1      -7.531  13.930  68.406  1.00  0.00    -0.101 OA 
BRANCH   5   6
HETATM    6  C   UNL     1      -8.298  15.015  68.660  1.00  0.00    -0.166 C  
HETATM    7  O   UNL     1      -8.265  15.657  69.698  1.00  0.00    -0.213 OA 
BRANCH   6   8
HETATM    8  C   UNL     1      -9.234  15.305  67.542  1.00  0.00    -0.202 C  
HETATM    9  C   UNL     1      -9.118  16.392  66.738  1.00  0.00    -0.234 C  
HETATM   10  C   UNL     1      -8.186  17.578  66.858  1.00  0.00    -0.253 C  
HETATM   11  N   UNL     1      -9.918  16.485  65.618  1.00  0.00    -0.549 NA 
HETATM   12  C   UNL     1     -10.960  15.644  65.302  1.00  0.00    -0.364 C  
HETATM   13  C   UNL     1     -11.194  14.540  66.053  1.00  0.00    -0.337 C  
HETATM   14  C   UNL     1     -11.769  16.081  64.104  1.00  0.00     0.043 C  
HETATM   15  C   UNL     1     -10.270  14.195  67.234  1.00  0.00    -0.256 C  
BRANCH  13  16
HETATM   16  C   UNL     1     -12.422  13.746  65.772  1.00  0.00    -0.485 C  
HETATM   17  O   UNL     1     -13.531  14.247  65.659  1.00  0.00    -0.502 OA 
BRANCH  16  18
HETATM   18  O   UNL     1     -12.183  12.411  65.686  1.00  0.00    -0.599 OA 
BRANCH  18  19
HETATM   19  C   UNL     1     -11.171  12.064  64.712  1.00  0.00    -0.318 C  
HETATM   20  C   UNL     1     -10.448  10.795  65.155  1.00  0.00    -0.299 C  
HETATM   21  C   UNL     1     -11.837  11.865  63.357  1.00  0.00    -0.512 C  
ENDBRANCH  18  19
ENDBRANCH  16  18
ENDBRANCH  13  16
BRANCH  15  22
HETATM   22  C   UNL     1     -11.058  13.833  68.498  1.00  0.00    -0.292 A  
HETATM   23  C   UNL     1     -11.759  14.831  69.202  1.00  0.00    -0.344 A  
HETATM   24  C   UNL     1     -11.111  12.511  68.967  1.00  0.00    -0.287 A  
HETATM   25  C   UNL     1     -12.493  14.522  70.349  1.00  0.00    -0.407 A  
HETATM   26  O   UNL     1     -11.279   9.964  69.954  1.00  0.00    -0.242 OA 
HETATM   27  O   UNL     1     -12.565  10.588  71.618  1.00  0.00    -0.394 OA 
HETATM   28  C   UNL     1     -11.849  12.208  70.119  1.00  0.00    -0.287 A  
HETATM   29  N   UNL     1     -11.900  10.819  70.595  1.00  0.00    -0.342 N  
HETATM   30  C   UNL     1     -12.539  13.208  70.812  1.00  0.00    -0.338 A  
ENDBRANCH  15  22
ENDBRANCH   6   8
ENDBRANCH   5   6
ENDBRANCH   4   5
ENDBRANCH   3   4
ENDBRANCH   2   3
TORSDOF 9
ENDMDL
MODEL       11
REMARK 921   NORMALIZED FREE ENERGY PREDICTED BY IDOCK:   -5.69 KCAL/MOL
REMARK 922        TOTAL FREE ENERGY PREDICTED BY IDOCK:  -10.26 KCAL/MOL
REMARK 923 INTER-LIGAND FREE ENERGY PREDICTED BY IDOCK:   -9.18 KCAL/MOL
REMARK 924 INTRA-LIGAND FREE ENERGY PREDICTED BY IDOCK:   -1.08 KCAL/MOL
REMARK 927      BINDING AFFINITY PREDICTED BY RF-SCORE:    0.00 PKD
ROOT
HETATM    1  C   UNL     1      -6.029  10.142  63.702  1.00  0.00    -0.139 C  
HETATM    2  O   UNL     1      -5.858   9.681  65.034  1.00  0.00    -0.063 OA 
ENDROOT
BRANCH   2   3
HETATM    3  C   UNL     1      -5.704  10.769  65.946  1.00  0.00    -0.145 C  
BRANCH   3   4
HETATM    4  C   UNL     1      -6.878  10.734  66.900  1.00  0.00    -0.101 C  
BRANCH   4   5
HETATM    5  O   UNL     1      -8.006  11.489  66.439  1.00  0.00    -0.139 OA 
BRANCH   5   6
HETATM    6  C   UNL     1      -9.118  10.736  66.270  1.00  0.00    -0.175 C  
HETATM    7  O   UNL     1      -9.391  10.128  65.247  1.00  0.00    -0.187 OA 
BRANCH   6   8
HETATM    8  C   UNL     1     -10.005  10.783  67.462  1.00  0.00    -0.203 C  
HETATM    9  C   UNL     1     -10.333   9.685  68.188  1.00  0.00    -0.209 C  
HETATM   10  C   UNL     1     -10.043   8.227  67.905  1.00  0.00    -0.252 C  
HETATM   11  N   UNL     1     -11.010   9.847  69.379  1.00  0.00    -0.236 NA 
HETATM   12  C   UNL     1     -11.538  11.027  69.850  1.00  0.00    -0.337 C  
HETATM   13  C   UNL     1     -11.303  12.188  69.190  1.00  0.00    -0.333 C  
HETATM   14  C   UNL     1     -12.372  10.879  71.100  1.00  0.00    -0.479 C  
HETATM   15  C   UNL     1     -10.407  12.202  67.939  1.00  0.00    -0.216 C  
BRANCH  13  16
HETATM   16  C   UNL     1     -12.022  13.411  69.641  1.00  0.00    -0.324 C  
HETATM   17  O   UNL     1     -12.876  13.971  68.970  1.00  0.00     0.374 OA 
BRANCH  16  18
HETATM   18  O   UNL     1     -11.606  13.852  70.857  1.00  0.00    -0.121 OA 
BRANCH  18  19
HETATM   19  C   UNL     1     -12.569  14.700  71.527  1.00  0.00    -0.343 C  
HETATM   20  C   UNL     1     -13.337  13.884  72.563  1.00  0.00    -0.656 C  
HETATM   21  C   UNL     1     -11.833  15.859  72.186  1.00  0.00    -0.615 C  
ENDBRANCH  18  19
ENDBRANCH  16  18
ENDBRANCH  13  16
BRANCH  15  22
HETATM   22  C   UNL     1     -11.035  12.995  66.786  1.00  0.00    -0.299 A  
HETATM   23  C   UNL     1     -12.074  12.427  66.024  1.00  0.00    -0.327 A  
HETATM   24  C   UNL     1     -10.604  14.294  66.481  1.00  0.00    -0.286 A  
HETATM   25  C   UNL     1     -12.668  13.136  64.978  1.00  0.00    -0.456 A  
HETATM   26  O   UNL     1      -9.837  16.835  65.813  1.00  0.00    -0.505 OA 
HETATM   27  O   UNL     1     -11.302  16.957  64.186  1.00  0.00    -1.208 OA 
HETATM   28  C   UNL     1     -11.204  15.000  65.429  1.00  0.00    -0.356 A  
HETATM   29  N   UNL     1     -10.747  16.362  65.124  1.00  0.00    -0.360 N  
HETATM   30  C   UNL     1     -12.234  14.426  64.676  1.00  0.00    -0.479 A  
ENDBRANCH  15  22
ENDBRANCH   6   8
ENDBRANCH   5   6
ENDBRANCH   4   5
ENDBRANCH   3   4
ENDBRANCH   2   3
TORSDOF 9
ENDMDL
MODEL       12
REMARK 921   NORMALIZED FREE ENERGY PREDICTED BY IDOCK:   -5.65 KCAL/MOL
REMARK 922        TOTAL FREE ENERGY PREDICTED BY IDOCK:  -10.20 KCAL/MOL
REMARK 923 INTER-LIGAND FREE ENERGY PREDICTED BY IDOCK:   -8.51 KCAL/MOL
REMARK 924 INTRA-LIGAND FREE ENERGY PREDICTED BY IDOCK:   -1.69 KCAL/MOL
REMARK 927      BINDING AFFINITY PREDICTED BY RF-SCORE:    0.00 PKD
ROOT
HETATM    1  C   UNL     1     -11.194   6.778  71.833  1.00  0.00    -0.260 C  
HETATM    2  O   UNL     1     -10.913   7.858  72.710  1.00  0.00    -0.344 OA 
ENDROOT
BRANCH   2   3
HETATM    3  C   UNL     1      -9.673   8.486  72.383  1.00  0.00    -0.287 C  
BRANCH   3   4
HETATM    4  C   UNL     1      -9.491   8.380  70.885  1.00  0.00    -0.169 C  
BRANCH   4   5
HETATM    5  O   UNL     1      -9.508   9.649  70.220  1.00  0.00    -0.242 OA 
BRANCH   5   6
HETATM    6  C   UNL     1     -10.606   9.834  69.451  1.00  0.00    -0.228 C  
HETATM    7  O   UNL     1     -11.014   9.031  68.626  1.00  0.00    -0.078 OA 
BRANCH   6   8
HETATM    8  C   UNL     1     -11.232  11.162  69.687  1.00  0.00    -0.333 C  
HETATM    9  C   UNL     1     -12.263  11.355  70.548  1.00  0.00    -0.386 C  
HETATM   10  C   UNL     1     -13.085  10.334  71.303  1.00  0.00    -0.492 C  
HETATM   11  N   UNL     1     -12.658  12.644  70.840  1.00  0.00    -0.309 NA 
HETATM   12  C   UNL     1     -12.207  13.784  70.218  1.00  0.00    -0.359 C  
HETATM   13  C   UNL     1     -11.199  13.712  69.314  1.00  0.00    -0.284 C  
HETATM   14  C   UNL     1     -12.934  15.043  70.624  1.00  0.00    -0.394 C  
HETATM   15  C   UNL     1     -10.522  12.363  69.013  1.00  0.00    -0.033 C  
BRANCH  13  16
HETATM   16  C   UNL     1     -10.849  14.941  68.550  1.00  0.00    -0.247 C  
HETATM   17  O   UNL     1     -11.512  15.355  67.610  1.00  0.00    -0.326 OA 
BRANCH  16  18
HETATM   18  O   UNL     1      -9.706  15.530  68.987  1.00  0.00    -0.207 OA 
BRANCH  18  19
HETATM   19  C   UNL     1      -8.594  15.392  68.071  1.00  0.00    -0.151 C  
HETATM   20  C   UNL     1      -8.073  16.774  67.686  1.00  0.00    -0.188 C  
HETATM   21  C   UNL     1      -7.502  14.567  68.739  1.00  0.00    -0.132 C  
ENDBRANCH  18  19
ENDBRANCH  16  18
ENDBRANCH  13  16
BRANCH  15  22
HETATM   22  C   UNL     1     -10.368  12.116  67.507  1.00  0.00    -0.219 A  
HETATM   23  C   UNL     1      -9.138  11.669  66.988  1.00  0.00    -0.179 A  
HETATM   24  C   UNL     1     -11.444  12.312  66.627  1.00  0.00    -0.431 A  
HETATM   25  C   UNL     1      -8.980  11.426  65.622  1.00  0.00    -0.131 A  
HETATM   26  O   UNL     1     -13.481  12.658  64.833  1.00  0.00    -0.599 OA 
HETATM   27  O   UNL     1     -12.230  12.043  63.141  1.00  0.00    -0.444 OA 
HETATM   28  C   UNL     1     -11.278  12.067  65.257  1.00  0.00    -0.322 A  
HETATM   29  N   UNL     1     -12.413  12.270  64.348  1.00  0.00    -0.428 N  
HETATM   30  C   UNL     1     -10.051  11.626  64.751  1.00  0.00    -0.304 A  
ENDBRANCH  15  22
ENDBRANCH   6   8
ENDBRANCH   5   6
ENDBRANCH   4   5
ENDBRANCH   3   4
ENDBRANCH   2   3
TORSDOF 9
ENDMDL
MODEL       13
REMARK 921   NORMALIZED FREE ENERGY PREDICTED BY IDOCK:   -5.62 KCAL/MOL
REMARK 922        TOTAL FREE ENERGY PREDICTED BY IDOCK:  -10.16 KCAL/MOL
REMARK 923 INTER-LIGAND FREE ENERGY PREDICTED BY IDOCK:   -8.23 KCAL/MOL
REMARK 924 INTRA-LIGAND FREE ENERGY PREDICTED BY IDOCK:   -1.93 KCAL/MOL
REMARK 927      BINDING AFFINITY PREDICTED BY RF-SCORE:    0.00 PKD
ROOT
HETATM    1  C   UNL     1     -12.250  14.866  64.316  1.00  0.00    -0.344 C  
HETATM    2  O   UNL     1     -12.580  13.916  63.315  1.00  0.00    -0.824 OA 
ENDROOT
BRANCH   2   3
HETATM    3  C   UNL     1     -12.408  12.580  63.788  1.00  0.00    -0.502 C  
BRANCH   3   4
HETATM    4  C   UNL     1     -12.404  12.629  65.300  1.00  0.00    -0.466 C  
BRANCH   4   5
HETATM    5  O   UNL     1     -11.162  12.207  65.878  1.00  0.00    -0.312 OA 
BRANCH   5   6
HETATM    6  C   UNL     1     -11.217  12.076  67.224  1.00  0.00    -0.311 C  
HETATM    7  O   UNL     1     -12.245  12.122  67.881  1.00  0.00    -0.438 OA 
BRANCH   6   8
HETATM    8  C   UNL     1      -9.864  11.924  67.821  1.00  0.00    -0.187 C  
HETATM    9  C   UNL     1      -9.448  10.793  68.445  1.00  0.00    -0.174 C  
HETATM   10  C   UNL     1     -10.238   9.556  68.810  1.00  0.00    -0.215 C  
HETATM   11  N   UNL     1      -8.123  10.676  68.806  1.00  0.00    -0.130 NA 
HETATM   12  C   UNL     1      -7.179  11.675  68.738  1.00  0.00    -0.116 C  
HETATM   13  C   UNL     1      -7.488  12.864  68.163  1.00  0.00    -0.126 C  
HETATM   14  C   UNL     1      -5.849  11.316  69.356  1.00  0.00    -0.057 C  
HETATM   15  C   UNL     1      -8.878  13.087  67.542  1.00  0.00    -0.195 C  
BRANCH  13  16
HETATM   16  C   UNL     1      -6.493  13.967  68.252  1.00  0.00    -0.116 C  
HETATM   17  O   UNL     1      -5.722  14.246  67.345  1.00  0.00    -0.344 OA 
BRANCH  16  18
HETATM   18  O   UNL     1      -6.514  14.606  69.451  1.00  0.00    -0.112 OA 
BRANCH  18  19
HETATM   19  C   UNL     1      -5.857  15.895  69.433  1.00  0.00    -0.127 C  
HETATM   20  C   UNL     1      -6.858  16.974  69.030  1.00  0.00    -0.229 C  
HETATM   21  C   UNL     1      -5.282  16.177  70.815  1.00  0.00    -0.162 C  
ENDBRANCH  18  19
ENDBRANCH  16  18
ENDBRANCH  13  16
BRANCH  15  22
HETATM   22  C   UNL     1      -9.494  14.424  67.970  1.00  0.00    -0.209 A  
HETATM   23  C   UNL     1      -9.877  14.627  69.310  1.00  0.00    -0.076 A  
HETATM   24  C   UNL     1      -9.673  15.468  67.050  1.00  0.00    -0.230 A  
HETATM   25  C   UNL     1     -10.429  15.842  69.724  1.00  0.00    -0.318 A  
HETATM   26  O   UNL     1     -10.055  17.565  65.332  1.00  0.00    -0.526 OA 
HETATM   27  O   UNL     1     -10.898  18.833  66.910  1.00  0.00    -0.379 OA 
HETATM   28  C   UNL     1     -10.229  16.684  67.472  1.00  0.00    -0.289 A  
HETATM   29  N   UNL     1     -10.404  17.770  66.499  1.00  0.00    -0.355 N  
HETATM   30  C   UNL     1     -10.607  16.875  68.805  1.00  0.00    -0.355 A  
ENDBRANCH  15  22
ENDBRANCH   6   8
ENDBRANCH   5   6
ENDBRANCH   4   5
ENDBRANCH   3   4
ENDBRANCH   2   3
TORSDOF 9
ENDMDL
MODEL       14
REMARK 921   NORMALIZED FREE ENERGY PREDICTED BY IDOCK:   -5.61 KCAL/MOL
REMARK 922        TOTAL FREE ENERGY PREDICTED BY IDOCK:  -10.14 KCAL/MOL
REMARK 923 INTER-LIGAND FREE ENERGY PREDICTED BY IDOCK:   -8.36 KCAL/MOL
REMARK 924 INTRA-LIGAND FREE ENERGY PREDICTED BY IDOCK:   -1.78 KCAL/MOL
REMARK 927      BINDING AFFINITY PREDICTED BY RF-SCORE:    0.00 PKD
ROOT
HETATM    1  C   UNL     1     -13.160  15.451  71.066  1.00  0.00    -0.501 C  
HETATM    2  O   UNL     1     -12.586  14.278  71.622  1.00  0.00    -0.329 OA 
ENDROOT
BRANCH   2   3
HETATM    3  C   UNL     1     -13.579  13.447  72.224  1.00  0.00    -0.605 C  
BRANCH   3   4
HETATM    4  C   UNL     1     -13.203  12.009  71.940  1.00  0.00    -0.364 C  
BRANCH   4   5
HETATM    5  O   UNL     1     -12.183  11.876  70.942  1.00  0.00    -0.357 OA 
BRANCH   5   6
HETATM    6  C   UNL     1     -12.410  10.858  70.080  1.00  0.00    -0.322 C  
HETATM    7  O   UNL     1     -13.510  10.382  69.848  1.00  0.00     0.139 OA 
BRANCH   6   8
HETATM    8  C   UNL     1     -11.148  10.344  69.486  1.00  0.00    -0.314 C  
HETATM    9  C   UNL     1     -10.304   9.507  70.141  1.00  0.00    -0.255 C  
HETATM   10  C   UNL     1     -10.338   9.048  71.582  1.00  0.00    -0.420 C  
HETATM   11  N   UNL     1      -9.254   8.939  69.450  1.00  0.00    -0.145 NA 
HETATM   12  C   UNL     1      -8.868   9.257  68.169  1.00  0.00    -0.129 C  
HETATM   13  C   UNL     1      -9.617  10.109  67.425  1.00  0.00    -0.180 C  
HETATM   14  C   UNL     1      -7.584   8.599  67.725  1.00  0.00    -0.098 C  
HETATM   15  C   UNL     1     -10.926  10.688  67.991  1.00  0.00    -0.336 C  
BRANCH  13  16
HETATM   16  C   UNL     1      -9.082  10.548  66.108  1.00  0.00    -0.162 C  
HETATM   17  O   UNL     1      -8.094  11.258  65.990  1.00  0.00    -0.119 OA 
BRANCH  16  18
HETATM   18  O   UNL     1      -9.823  10.104  65.059  1.00  0.00    -0.296 OA 
BRANCH  18  19
HETATM   19  C   UNL     1      -9.813  10.998  63.921  1.00  0.00    -0.317 C  
HETATM   20  C   UNL     1      -9.311  10.251  62.688  1.00  0.00    -0.335 C  
HETATM   21  C   UNL     1     -11.222  11.529  63.697  1.00  0.00    -0.451 C  
ENDBRANCH  18  19
ENDBRANCH  16  18
ENDBRANCH  13  16
BRANCH  15  22
HETATM   22  C   UNL     1     -11.032  12.201  67.770  1.00  0.00    -0.278 A  
HETATM   23  C   UNL     1     -12.015  12.720  66.905  1.00  0.00    -0.380 A  
HETATM   24  C   UNL     1     -10.172  13.093  68.429  1.00  0.00    -0.247 A  
HETATM   25  C   UNL     1     -12.138  14.096  66.699  1.00  0.00    -0.480 A  
HETATM   26  O   UNL     1      -8.548  14.911  69.673  1.00  0.00    -0.074 OA 
HETATM   27  O   UNL     1      -9.540  16.610  68.705  1.00  0.00    -0.231 OA 
HETATM   28  C   UNL     1     -10.300  14.473  68.216  1.00  0.00    -0.236 A  
HETATM   29  N   UNL     1      -9.397  15.395  68.917  1.00  0.00    -0.204 N  
HETATM   30  C   UNL     1     -11.278  14.977  67.353  1.00  0.00    -0.337 A  
ENDBRANCH  15  22
ENDBRANCH   6   8
ENDBRANCH   5   6
ENDBRANCH   4   5
ENDBRANCH   3   4
ENDBRANCH   2   3
TORSDOF 9
ENDMDL
MODEL       15
REMARK 921   NORMALIZED FREE ENERGY PREDICTED BY IDOCK:   -5.61 KCAL/MOL
REMARK 922        TOTAL FREE ENERGY PREDICTED BY IDOCK:  -10.14 KCAL/MOL
REMARK 923 INTER-LIGAND FREE ENERGY PREDICTED BY IDOCK:   -8.39 KCAL/MOL
REMARK 924 INTRA-LIGAND FREE ENERGY PREDICTED BY IDOCK:   -1.75 KCAL/MOL
REMARK 927      BINDING AFFINITY PREDICTED BY RF-SCORE:    0.00 PKD
ROOT
HETATM    1  C   UNL     1     -10.519  18.379  66.316  1.00  0.00    -0.393 C  
HETATM    2  O   UNL     1     -10.410  17.269  65.438  1.00  0.00    -0.626 OA 
ENDROOT
BRANCH   2   3
HETATM    3  C   UNL     1      -9.472  16.308  65.927  1.00  0.00    -0.283 C  
BRANCH   3   4
HETATM    4  C   UNL     1      -9.956  14.940  65.498  1.00  0.00    -0.358 C  
BRANCH   4   5
HETATM    5  O   UNL     1     -10.139  14.034  66.593  1.00  0.00    -0.264 OA 
BRANCH   5   6
HETATM    6  C   UNL     1     -11.422  13.630  66.743  1.00  0.00    -0.346 C  
HETATM    7  O   UNL     1     -12.211  13.484  65.823  1.00  0.00    -0.407 OA 
BRANCH   6   8
HETATM    8  C   UNL     1     -11.778  13.438  68.174  1.00  0.00    -0.397 C  
HETATM    9  C   UNL     1     -12.024  14.466  69.024  1.00  0.00    -0.307 C  
HETATM   10  C   UNL     1     -11.855  15.953  68.802  1.00  0.00    -0.277 C  
HETATM   11  N   UNL     1     -12.523  14.192  70.280  1.00  0.00    -0.356 NA 
HETATM   12  C   UNL     1     -12.660  12.942  70.836  1.00  0.00    -0.270 C  
HETATM   13  C   UNL     1     -12.411  11.836  70.091  1.00  0.00    -0.272 C  
HETATM   14  C   UNL     1     -13.076  12.949  72.287  1.00  0.00    -0.421 C  
HETATM   15  C   UNL     1     -12.021  11.970  68.609  1.00  0.00    -0.290 C  
BRANCH  13  16
HETATM   16  C   UNL     1     -12.416  10.513  70.774  1.00  0.00    -0.378 C  
HETATM   17  O   UNL     1     -13.365   9.743  70.733  1.00  0.00    -0.260 OA 
BRANCH  16  18
HETATM   18  O   UNL     1     -11.273  10.268  71.466  1.00  0.00    -0.036 OA 
BRANCH  18  19
HETATM   19  C   UNL     1     -10.808   8.902  71.355  1.00  0.00    -0.307 C  
HETATM   20  C   UNL     1      -9.291   8.890  71.185  1.00  0.00    -0.326 C  
HETATM   21  C   UNL     1     -11.220   8.136  72.604  1.00  0.00    -0.447 C  
ENDBRANCH  18  19
ENDBRANCH  16  18
ENDBRANCH  13  16
BRANCH  15  22
HETATM   22  C   UNL     1     -10.812  11.099  68.247  1.00  0.00    -0.258 A  
HETATM   23  C   UNL     1     -10.998   9.892  67.546  1.00  0.00    -0.239 A  
HETATM   24  C   UNL     1      -9.509  11.489  68.590  1.00  0.00    -0.146 A  
HETATM   25  C   UNL     1      -9.910   9.089  67.196  1.00  0.00    -0.262 A  
HETATM   26  O   UNL     1      -6.930  12.167  69.206  1.00  0.00    -0.088 OA 
HETATM   27  O   UNL     1      -6.124  10.358  68.265  1.00  0.00    -0.044 OA 
HETATM   28  C   UNL     1      -8.421  10.678  68.236  1.00  0.00    -0.127 A  
HETATM   29  N   UNL     1      -7.062  11.101  68.595  1.00  0.00    -0.082 N  
HETATM   30  C   UNL     1      -8.617   9.480  67.541  1.00  0.00    -0.126 A  
ENDBRANCH  15  22
ENDBRANCH   6   8
ENDBRANCH   5   6
ENDBRANCH   4   5
ENDBRANCH   3   4
ENDBRANCH   2   3
TORSDOF 9
ENDMDL
MODEL       16
REMARK 921   NORMALIZED FREE ENERGY PREDICTED BY IDOCK:   -5.60 KCAL/MOL
REMARK 922        TOTAL FREE ENERGY PREDICTED BY IDOCK:  -10.12 KCAL/MOL
REMARK 923 INTER-LIGAND FREE ENERGY PREDICTED BY IDOCK:   -8.34 KCAL/MOL
REMARK 924 INTRA-LIGAND FREE ENERGY PREDICTED BY IDOCK:   -1.78 KCAL/MOL
REMARK 927      BINDING AFFINITY PREDICTED BY RF-SCORE:    0.00 PKD
ROOT
HETATM    1  C   UNL     1      -8.106  10.392  66.783  1.00  0.00    -0.120 C  
HETATM    2  O   UNL     1      -7.536  11.692  66.759  1.00  0.00    -0.142 OA 
ENDROOT
BRANCH   2   3
HETATM    3  C   UNL     1      -6.505  11.826  67.739  1.00  0.00    -0.075 C  
BRANCH   3   4
HETATM    4  C   UNL     1      -6.957  12.872  68.735  1.00  0.00    -0.103 C  
BRANCH   4   5
HETATM    5  O   UNL     1      -7.137  14.169  68.153  1.00  0.00    -0.100 OA 
BRANCH   5   6
HETATM    6  C   UNL     1      -8.229  14.817  68.620  1.00  0.00    -0.159 C  
HETATM    7  O   UNL     1      -8.429  15.074  69.797  1.00  0.00    -0.102 OA 
BRANCH   6   8
HETATM    8  C   UNL     1      -9.193  15.133  67.533  1.00  0.00    -0.188 C  
HETATM    9  C   UNL     1      -9.185  16.305  66.849  1.00  0.00    -0.218 C  
HETATM   10  C   UNL     1      -8.371  17.555  67.102  1.00  0.00    -0.232 C  
HETATM   11  N   UNL     1      -9.995  16.439  65.741  1.00  0.00    -0.478 NA 
HETATM   12  C   UNL     1     -10.951  15.540  65.329  1.00  0.00    -0.380 C  
HETATM   13  C   UNL     1     -11.074  14.344  65.957  1.00  0.00    -0.324 C  
HETATM   14  C   UNL     1     -11.802  16.021  64.180  1.00  0.00     0.114 C  
HETATM   15  C   UNL     1     -10.117  13.966  67.101  1.00  0.00    -0.252 C  
BRANCH  13  16
HETATM   16  C   UNL     1     -12.220  13.470  65.586  1.00  0.00    -0.458 C  
HETATM   17  O   UNL     1     -13.385  13.836  65.640  1.00  0.00    -0.561 OA 
BRANCH  16  18
HETATM   18  O   UNL     1     -11.836  12.221  65.212  1.00  0.00    -0.376 OA 
BRANCH  18  19
HETATM   19  C   UNL     1     -11.435  12.128  63.825  1.00  0.00    -0.465 C  
HETATM   20  C   UNL     1     -10.316  11.100  63.684  1.00  0.00    -0.449 C  
HETATM   21  C   UNL     1     -12.644  11.733  62.986  1.00  0.00    -0.049 C  
ENDBRANCH  18  19
ENDBRANCH  16  18
ENDBRANCH  13  16
BRANCH  15  22
HETATM   22  C   UNL     1     -10.862  13.398  68.315  1.00  0.00    -0.275 A  
HETATM   23  C   UNL     1     -10.719  12.039  68.657  1.00  0.00    -0.266 A  
HETATM   24  C   UNL     1     -11.680  14.214  69.111  1.00  0.00    -0.368 A  
HETATM   25  C   UNL     1     -11.379  11.504  69.765  1.00  0.00    -0.303 A  
HETATM   26  O   UNL     1     -13.292  15.725  70.727  1.00  0.00    -0.539 OA 
HETATM   27  O   UNL     1     -13.757  14.020  72.025  1.00  0.00    -0.398 OA 
HETATM   28  C   UNL     1     -12.341  13.670  70.221  1.00  0.00    -0.322 A  
HETATM   29  N   UNL     1     -13.189  14.536  71.049  1.00  0.00    -0.367 N  
HETATM   30  C   UNL     1     -12.194  12.318  70.551  1.00  0.00    -0.387 A  
ENDBRANCH  15  22
ENDBRANCH   6   8
ENDBRANCH   5   6
ENDBRANCH   4   5
ENDBRANCH   3   4
ENDBRANCH   2   3
TORSDOF 9
ENDMDL
MODEL       17
REMARK 921   NORMALIZED FREE ENERGY PREDICTED BY IDOCK:   -5.59 KCAL/MOL
REMARK 922        TOTAL FREE ENERGY PREDICTED BY IDOCK:  -10.11 KCAL/MOL
REMARK 923 INTER-LIGAND FREE ENERGY PREDICTED BY IDOCK:   -8.62 KCAL/MOL
REMARK 924 INTRA-LIGAND FREE ENERGY PREDICTED BY IDOCK:   -1.49 KCAL/MOL
REMARK 927      BINDING AFFINITY PREDICTED BY RF-SCORE:    0.00 PKD
ROOT
HETATM    1  C   UNL     1     -10.652  18.395  65.726  1.00  0.00    -0.210 C  
HETATM    2  O   UNL     1     -11.047  17.432  64.761  1.00  0.00    -0.973 OA 
ENDROOT
BRANCH   2   3
HETATM    3  C   UNL     1     -10.554  16.132  65.089  1.00  0.00    -0.343 C  
BRANCH   3   4
HETATM    4  C   UNL     1     -11.610  15.128  64.680  1.00  0.00    -0.357 C  
BRANCH   4   5
HETATM    5  O   UNL     1     -12.048  14.295  65.760  1.00  0.00    -0.395 OA 
BRANCH   5   6
HETATM    6  C   UNL     1     -12.109  12.983  65.431  1.00  0.00    -0.444 C  
HETATM    7  O   UNL     1     -13.120  12.413  65.051  1.00  0.00    -0.678 OA 
BRANCH   6   8
HETATM    8  C   UNL     1     -10.807  12.297  65.643  1.00  0.00    -0.321 C  
HETATM    9  C   UNL     1     -10.218  11.515  64.704  1.00  0.00    -0.285 C  
HETATM   10  C   UNL     1     -10.760  11.042  63.373  1.00  0.00    -0.175 C  
HETATM   11  N   UNL     1      -8.931  11.068  64.917  1.00  0.00    -0.149 NA 
HETATM   12  C   UNL     1      -8.213  11.208  66.082  1.00  0.00    -0.128 C  
HETATM   13  C   UNL     1      -8.714  11.944  67.105  1.00  0.00    -0.176 C  
HETATM   14  C   UNL     1      -6.892  10.477  66.090  1.00  0.00    -0.131 C  
HETATM   15  C   UNL     1     -10.066  12.664  66.953  1.00  0.00    -0.234 C  
BRANCH  13  16
HETATM   16  C   UNL     1      -7.981  11.939  68.400  1.00  0.00    -0.154 C  
HETATM   17  O   UNL     1      -7.806  10.928  69.066  1.00  0.00    -0.132 OA 
BRANCH  16  18
HETATM   18  O   UNL     1      -7.557  13.174  68.775  1.00  0.00    -0.110 OA 
BRANCH  18  19
HETATM   19  C   UNL     1      -6.678  13.803  67.813  1.00  0.00    -0.172 C  
HETATM   20  C   UNL     1      -7.161  15.223  67.530  1.00  0.00    -0.224 C  
HETATM   21  C   UNL     1      -5.261  13.813  68.370  1.00  0.00    -0.100 C  
ENDBRANCH  18  19
ENDBRANCH  16  18
ENDBRANCH  13  16
BRANCH  15  22
HETATM   22  C   UNL     1     -10.979  12.442  68.164  1.00  0.00    -0.263 A  
HETATM   23  C   UNL     1     -11.438  11.147  68.473  1.00  0.00    -0.371 A  
HETATM   24  C   UNL     1     -11.359  13.509  68.992  1.00  0.00    -0.336 A  
HETATM   25  C   UNL     1     -12.261  10.920  69.578  1.00  0.00    -0.331 A  
HETATM   26  O   UNL     1     -12.149  15.524  70.668  1.00  0.00    -0.328 OA 
HETATM   27  O   UNL     1     -13.303  14.154  71.933  1.00  0.00    -0.340 OA 
HETATM   28  C   UNL     1     -12.186  13.275  70.099  1.00  0.00    -0.306 A  
HETATM   29  N   UNL     1     -12.571  14.400  70.960  1.00  0.00    -0.326 N  
HETATM   30  C   UNL     1     -12.638  11.985  70.395  1.00  0.00    -0.128 A  
ENDBRANCH  15  22
ENDBRANCH   6   8
ENDBRANCH   5   6
ENDBRANCH   4   5
ENDBRANCH   3   4
ENDBRANCH   2   3
TORSDOF 9
ENDMDL
MODEL       18
REMARK 921   NORMALIZED FREE ENERGY PREDICTED BY IDOCK:   -5.59 KCAL/MOL
REMARK 922        TOTAL FREE ENERGY PREDICTED BY IDOCK:  -10.11 KCAL/MOL
REMARK 923 INTER-LIGAND FREE ENERGY PREDICTED BY IDOCK:   -8.17 KCAL/MOL
REMARK 924 INTRA-LIGAND FREE ENERGY PREDICTED BY IDOCK:   -1.94 KCAL/MOL
REMARK 927      BINDING AFFINITY PREDICTED BY RF-SCORE:    0.00 PKD
ROOT
HETATM    1  C   UNL     1     -12.172  12.222  63.629  1.00  0.00    -0.567 C  
HETATM    2  O   UNL     1     -12.899  13.358  64.073  1.00  0.00    -0.621 OA 
ENDROOT
BRANCH   2   3
HETATM    3  C   UNL     1     -12.517  13.736  65.397  1.00  0.00    -0.500 C  
BRANCH   3   4
HETATM    4  C   UNL     1     -11.652  12.627  65.955  1.00  0.00    -0.393 C  
BRANCH   4   5
HETATM    5  O   UNL     1     -12.148  12.087  67.186  1.00  0.00    -0.587 OA 
BRANCH   5   6
HETATM    6  C   UNL     1     -11.358  12.366  68.249  1.00  0.00    -0.284 C  
HETATM    7  O   UNL     1     -10.532  13.265  68.277  1.00  0.00    -0.237 OA 
BRANCH   6   8
HETATM    8  C   UNL     1     -11.574  11.410  69.367  1.00  0.00    -0.391 C  
HETATM    9  C   UNL     1     -12.146  11.761  70.546  1.00  0.00    -0.347 C  
HETATM   10  C   UNL     1     -12.532  13.134  71.052  1.00  0.00    -0.406 C  
HETATM   11  N   UNL     1     -12.471  10.774  71.452  1.00  0.00    -0.378 NA 
HETATM   12  C   UNL     1     -12.128   9.446  71.353  1.00  0.00    -0.363 C  
HETATM   13  C   UNL     1     -11.522   8.982  70.232  1.00  0.00    -0.147 C  
HETATM   14  C   UNL     1     -12.471   8.622  72.571  1.00  0.00    -0.372 C  
HETATM   15  C   UNL     1     -11.257   9.928  69.047  1.00  0.00    -0.131 C  
BRANCH  13  16
HETATM   16  C   UNL     1     -11.027   7.579  70.229  1.00  0.00    -0.250 C  
HETATM   17  O   UNL     1     -11.646   6.652  69.726  1.00  0.00    -0.351 OA 
BRANCH  16  18
HETATM   18  O   UNL     1      -9.836   7.434  70.867  1.00  0.00    -0.178 OA 
BRANCH  18  19
HETATM   19  C   UNL     1      -9.111   6.243  70.480  1.00  0.00    -0.154 C  
HETATM   20  C   UNL     1      -7.793   6.638  69.820  1.00  0.00    -0.115 C  
HETATM   21  C   UNL     1      -8.864   5.391  71.718  1.00  0.00    -0.142 C  
ENDBRANCH  18  19
ENDBRANCH  16  18
ENDBRANCH  13  16
BRANCH  15  22
HETATM   22  C   UNL     1      -9.827   9.791  68.507  1.00  0.00    -0.169 A  
HETATM   23  C   UNL     1      -9.602   9.209  67.246  1.00  0.00    -0.200 A  
HETATM   24  C   UNL     1      -8.727  10.255  69.245  1.00  0.00    -0.182 A  
HETATM   25  C   UNL     1      -8.310   9.086  66.730  1.00  0.00    -0.115 A  
HETATM   26  O   UNL     1      -6.520  11.133  70.604  1.00  0.00    -0.309 OA 
HETATM   27  O   UNL     1      -5.159  10.493  69.007  1.00  0.00    -0.042 OA 
HETATM   28  C   UNL     1      -7.432  10.127  68.723  1.00  0.00    -0.086 A  
HETATM   29  N   UNL     1      -6.291  10.622  69.502  1.00  0.00    -0.059 N  
HETATM   30  C   UNL     1      -7.220   9.545  67.469  1.00  0.00    -0.090 A  
ENDBRANCH  15  22
ENDBRANCH   6   8
ENDBRANCH   5   6
ENDBRANCH   4   5
ENDBRANCH   3   4
ENDBRANCH   2   3
TORSDOF 9
ENDMDL
MODEL       19
REMARK 921   NORMALIZED FREE ENERGY PREDICTED BY IDOCK:   -5.58 KCAL/MOL
REMARK 922        TOTAL FREE ENERGY PREDICTED BY IDOCK:  -10.10 KCAL/MOL
REMARK 923 INTER-LIGAND FREE ENERGY PREDICTED BY IDOCK:   -9.36 KCAL/MOL
REMARK 924 INTRA-LIGAND FREE ENERGY PREDICTED BY IDOCK:   -0.74 KCAL/MOL
REMARK 927      BINDING AFFINITY PREDICTED BY RF-SCORE:    0.00 PKD
ROOT
HETATM    1  C   UNL     1     -10.274  18.220  66.560  1.00  0.00    -0.394 C  
HETATM    2  O   UNL     1      -9.402  17.490  65.710  1.00  0.00    -0.515 OA 
ENDROOT
BRANCH   2   3
HETATM    3  C   UNL     1      -9.501  16.085  65.946  1.00  0.00    -0.316 C  
BRANCH   3   4
HETATM    4  C   UNL     1     -10.840  15.627  65.409  1.00  0.00    -0.381 C  
BRANCH   4   5
HETATM    5  O   UNL     1     -11.629  14.926  66.379  1.00  0.00    -0.330 OA 
BRANCH   5   6
HETATM    6  C   UNL     1     -12.300  13.871  65.859  1.00  0.00    -0.483 C  
HETATM    7  O   UNL     1     -13.486  13.881  65.571  1.00  0.00    -0.657 OA 
BRANCH   6   8
HETATM    8  C   UNL     1     -11.432  12.671  65.732  1.00  0.00    -0.399 C  
HETATM    9  C   UNL     1     -11.380  11.906  64.612  1.00  0.00    -0.293 C  
HETATM   10  C   UNL     1     -12.238  11.970  63.368  1.00  0.00    -0.627 C  
HETATM   11  N   UNL     1     -10.417  10.923  64.516  1.00  0.00    -0.349 NA 
HETATM   12  C   UNL     1      -9.575  10.521  65.526  1.00  0.00    -0.230 C  
HETATM   13  C   UNL     1      -9.559  11.191  66.705  1.00  0.00    -0.215 C  
HETATM   14  C   UNL     1      -8.736   9.312  65.191  1.00  0.00    -0.216 C  
HETATM   15  C   UNL     1     -10.447  12.432  66.904  1.00  0.00    -0.243 C  
BRANCH  13  16
HETATM   16  C   UNL     1      -8.752  10.629  67.823  1.00  0.00    -0.129 C  
HETATM   17  O   UNL     1      -7.769  11.190  68.285  1.00  0.00    -0.103 OA 
BRANCH  16  18
HETATM   18  O   UNL     1      -9.203   9.421  68.249  1.00  0.00    -0.131 OA 
BRANCH  18  19
HETATM   19  C   UNL     1      -8.544   8.944  69.445  1.00  0.00    -0.133 C  
HETATM   20  C   UNL     1      -9.405   9.262  70.665  1.00  0.00    -0.329 C  
HETATM   21  C   UNL     1      -8.315   7.444  69.320  1.00  0.00    -0.132 C  
ENDBRANCH  18  19
ENDBRANCH  16  18
ENDBRANCH  13  16
BRANCH  15  22
HETATM   22  C   UNL     1     -11.204  12.393  68.237  1.00  0.00    -0.309 A  
HETATM   23  C   UNL     1     -11.849  11.210  68.648  1.00  0.00    -0.357 A  
HETATM   24  C   UNL     1     -11.257  13.517  69.075  1.00  0.00    -0.314 A  
HETATM   25  C   UNL     1     -12.533  11.149  69.864  1.00  0.00    -0.257 A  
HETATM   26  O   UNL     1     -11.409  15.654  70.778  1.00  0.00    -0.309 OA 
HETATM   27  O   UNL     1     -12.607  14.535  72.235  1.00  0.00    -0.324 OA 
HETATM   28  C   UNL     1     -11.946  13.450  70.293  1.00  0.00    -0.308 A  
HETATM   29  N   UNL     1     -11.988  14.632  71.163  1.00  0.00    -0.337 N  
HETATM   30  C   UNL     1     -12.585  12.270  70.691  1.00  0.00    -0.241 A  
ENDBRANCH  15  22
ENDBRANCH   6   8
ENDBRANCH   5   6
ENDBRANCH   4   5
ENDBRANCH   3   4
ENDBRANCH   2   3
TORSDOF 9
ENDMDL
MODEL       20
REMARK 921   NORMALIZED FREE ENERGY PREDICTED BY IDOCK:   -5.57 KCAL/MOL
REMARK 922        TOTAL FREE ENERGY PREDICTED BY IDOCK:  -10.08 KCAL/MOL
REMARK 923 INTER-LIGAND FREE ENERGY PREDICTED BY IDOCK:   -8.40 KCAL/MOL
REMARK 924 INTRA-LIGAND FREE ENERGY PREDICTED BY IDOCK:   -1.68 KCAL/MOL
REMARK 927      BINDING AFFINITY PREDICTED BY RF-SCORE:    0.00 PKD
ROOT
HETATM    1  C   UNL     1     -12.217  10.907  70.329  1.00  0.00    -0.348 C  
HETATM    2  O   UNL     1     -11.032  11.312  69.661  1.00  0.00    -0.227 OA 
ENDROOT
BRANCH   2   3
HETATM    3  C   UNL     1     -10.888  10.648  68.405  1.00  0.00    -0.237 C  
BRANCH   3   4
HETATM    4  C   UNL     1      -9.423  10.693  68.030  1.00  0.00    -0.158 C  
BRANCH   4   5
HETATM    5  O   UNL     1      -8.683  11.685  68.753  1.00  0.00    -0.119 OA 
BRANCH   5   6
HETATM    6  C   UNL     1      -7.649  12.199  68.047  1.00  0.00    -0.123 C  
HETATM    7  O   UNL     1      -6.917  11.545  67.320  1.00  0.00    -0.104 OA 
BRANCH   6   8
HETATM    8  C   UNL     1      -7.469  13.651  68.306  1.00  0.00    -0.124 C  
HETATM    9  C   UNL     1      -6.717  14.138  69.327  1.00  0.00    -0.122 C  
HETATM   10  C   UNL     1      -6.057  13.396  70.468  1.00  0.00    -0.057 C  
HETATM   11  N   UNL     1      -6.460  15.491  69.382  1.00  0.00    -0.141 NA 
HETATM   12  C   UNL     1      -7.024  16.452  68.576  1.00  0.00    -0.154 C  
HETATM   13  C   UNL     1      -7.821  16.087  67.540  1.00  0.00    -0.170 C  
HETATM   14  C   UNL     1      -6.687  17.870  68.968  1.00  0.00    -0.248 C  
HETATM   15  C   UNL     1      -8.059  14.599  67.231  1.00  0.00    -0.230 C  
BRANCH  13  16
HETATM   16  C   UNL     1      -8.537  17.157  66.793  1.00  0.00    -0.243 C  
HETATM   17  O   UNL     1      -8.181  17.559  65.695  1.00  0.00    -0.505 OA 
BRANCH  16  18
HETATM   18  O   UNL     1      -9.602  17.657  67.472  1.00  0.00    -0.260 OA 
BRANCH  18  19
HETATM   19  C   UNL     1      -9.731  19.095  67.373  1.00  0.00    -0.320 C  
HETATM   20  C   UNL     1     -10.781  19.444  66.321  1.00  0.00    -0.508 C  
HETATM   21  C   UNL     1     -10.123  19.652  68.735  1.00  0.00    -0.532 C  
ENDBRANCH  18  19
ENDBRANCH  16  18
ENDBRANCH  13  16
BRANCH  15  22
HETATM   22  C   UNL     1      -9.543  14.287  67.001  1.00  0.00    -0.260 A  
HETATM   23  C   UNL     1     -10.488  14.572  68.005  1.00  0.00    -0.236 A  
HETATM   24  C   UNL     1      -9.987  13.731  65.792  1.00  0.00    -0.293 A  
HETATM   25  C   UNL     1     -11.845  14.308  67.811  1.00  0.00    -0.414 A  
HETATM   26  O   UNL     1     -10.952  12.654  63.467  1.00  0.00    -0.441 OA 
HETATM   27  O   UNL     1     -13.018  12.670  64.200  1.00  0.00    -0.717 OA 
HETATM   28  C   UNL     1     -11.351  13.466  65.604  1.00  0.00    -0.298 A  
HETATM   29  N   UNL     1     -11.803  12.890  64.331  1.00  0.00    -0.359 N  
HETATM   30  C   UNL     1     -12.281  13.752  66.609  1.00  0.00    -0.454 A  
ENDBRANCH  15  22
ENDBRANCH   6   8
ENDBRANCH   5   6
ENDBRANCH   4   5
ENDBRANCH   3   4
ENDBRANCH   2   3
TORSDOF 9
ENDMDL
MODEL       21
REMARK 921   NORMALIZED FREE ENERGY PREDICTED BY IDOCK:   -5.57 KCAL/MOL
REMARK 922        TOTAL FREE ENERGY PREDICTED BY IDOCK:  -10.08 KCAL/MOL
REMARK 923 INTER-LIGAND FREE ENERGY PREDICTED BY IDOCK:   -8.22 KCAL/MOL
REMARK 924 INTRA-LIGAND FREE ENERGY PREDICTED BY IDOCK:   -1.85 KCAL/MOL
REMARK 927      BINDING AFFINITY PREDICTED BY RF-SCORE:    0.00 PKD
ROOT
HETATM    1  C   UNL     1     -10.233  17.147  66.501  1.00  0.00    -0.322 C  
HETATM    2  O   UNL     1     -10.623  16.792  65.183  1.00  0.00    -0.663 OA 
ENDROOT
BRANCH   2   3
HETATM    3  C   UNL     1     -10.679  15.374  65.021  1.00  0.00    -0.438 C  
BRANCH   3   4
HETATM    4  C   UNL     1     -11.201  14.788  66.314  1.00  0.00    -0.343 C  
BRANCH   4   5
HETATM    5  O   UNL     1     -10.635  13.508  66.625  1.00  0.00    -0.276 OA 
BRANCH   5   6
HETATM    6  C   UNL     1     -11.562  12.528  66.738  1.00  0.00    -0.382 C  
HETATM    7  O   UNL     1     -12.479  12.352  65.952  1.00  0.00    -0.583 OA 
BRANCH   6   8
HETATM    8  C   UNL     1     -11.366  11.720  67.970  1.00  0.00    -0.355 C  
HETATM    9  C   UNL     1     -11.671  12.172  69.213  1.00  0.00    -0.328 C  
HETATM   10  C   UNL     1     -12.098  13.556  69.650  1.00  0.00    -0.365 C  
HETATM   11  N   UNL     1     -11.628  11.293  70.274  1.00  0.00    -0.304 NA 
HETATM   12  C   UNL     1     -11.148  10.005  70.233  1.00  0.00    -0.318 C  
HETATM   13  C   UNL     1     -10.782   9.453  69.050  1.00  0.00    -0.209 C  
HETATM   14  C   UNL     1     -11.067   9.328  71.581  1.00  0.00    -0.438 C  
HETATM   15  C   UNL     1     -10.945  10.246  67.741  1.00  0.00    -0.360 C  
BRANCH  13  16
HETATM   16  C   UNL     1     -10.122   8.119  69.070  1.00  0.00    -0.205 C  
HETATM   17  O   UNL     1     -10.690   7.087  68.745  1.00  0.00    -0.215 OA 
BRANCH  16  18
HETATM   18  O   UNL     1      -8.839   8.168  69.513  1.00  0.00    -0.141 OA 
BRANCH  18  19
HETATM   19  C   UNL     1      -8.002   7.110  68.988  1.00  0.00    -0.120 C  
HETATM   20  C   UNL     1      -6.824   7.717  68.231  1.00  0.00    -0.067 C  
HETATM   21  C   UNL     1      -7.517   6.244  70.143  1.00  0.00    -0.094 C  
ENDBRANCH  18  19
ENDBRANCH  16  18
ENDBRANCH  13  16
BRANCH  15  22
HETATM   22  C   UNL     1      -9.688  10.180  66.865  1.00  0.00    -0.233 A  
HETATM   23  C   UNL     1      -9.684   9.394  65.697  1.00  0.00    -0.336 A  
HETATM   24  C   UNL     1      -8.534  10.907  67.196  1.00  0.00    -0.128 A  
HETATM   25  C   UNL     1      -8.554   9.329  64.878  1.00  0.00    -0.204 A  
HETATM   26  O   UNL     1      -6.240  12.292  67.753  1.00  0.00    -0.075 OA 
HETATM   27  O   UNL     1      -5.223  11.521  65.969  1.00  0.00    -0.299 OA 
HETATM   28  C   UNL     1      -7.404  10.836  66.370  1.00  0.00    -0.142 A  
HETATM   29  N   UNL     1      -6.205  11.607  66.725  1.00  0.00    -0.144 N  
HETATM   30  C   UNL     1      -7.409  10.050  65.213  1.00  0.00    -0.137 A  
ENDBRANCH  15  22
ENDBRANCH   6   8
ENDBRANCH   5   6
ENDBRANCH   4   5
ENDBRANCH   3   4
ENDBRANCH   2   3
TORSDOF 9
ENDMDL
MODEL       22
REMARK 921   NORMALIZED FREE ENERGY PREDICTED BY IDOCK:   -5.54 KCAL/MOL
REMARK 922        TOTAL FREE ENERGY PREDICTED BY IDOCK:  -10.04 KCAL/MOL
REMARK 923 INTER-LIGAND FREE ENERGY PREDICTED BY IDOCK:   -8.26 KCAL/MOL
REMARK 924 INTRA-LIGAND FREE ENERGY PREDICTED BY IDOCK:   -1.78 KCAL/MOL
REMARK 927      BINDING AFFINITY PREDICTED BY RF-SCORE:    0.00 PKD
ROOT
HETATM    1  C   UNL     1     -12.388  12.466  63.490  1.00  0.00    -0.546 C  
HETATM    2  O   UNL     1     -12.025  13.258  64.612  1.00  0.00    -0.361 OA 
ENDROOT
BRANCH   2   3
HETATM    3  C   UNL     1     -12.391  14.625  64.424  1.00  0.00    -0.398 C  
BRANCH   3   4
HETATM    4  C   UNL     1     -11.185  15.471  64.769  1.00  0.00    -0.390 C  
BRANCH   4   5
HETATM    5  O   UNL     1     -10.077  14.705  65.260  1.00  0.00    -0.371 OA 
BRANCH   5   6
HETATM    6  C   UNL     1      -9.534  15.215  66.390  1.00  0.00    -0.296 C  
HETATM    7  O   UNL     1      -8.515  15.887  66.424  1.00  0.00    -0.291 OA 
BRANCH   6   8
HETATM    8  C   UNL     1     -10.296  14.812  67.601  1.00  0.00    -0.237 C  
HETATM    9  C   UNL     1     -10.709  15.693  68.548  1.00  0.00    -0.264 C  
HETATM   10  C   UNL     1     -10.388  17.165  68.691  1.00  0.00    -0.359 C  
HETATM   11  N   UNL     1     -11.563  15.259  69.540  1.00  0.00    -0.300 NA 
HETATM   12  C   UNL     1     -11.932  13.954  69.769  1.00  0.00    -0.338 C  
HETATM   13  C   UNL     1     -11.552  12.978  68.907  1.00  0.00    -0.355 C  
HETATM   14  C   UNL     1     -12.744  13.750  71.025  1.00  0.00    -0.416 C  
HETATM   15  C   UNL     1     -10.747  13.330  67.643  1.00  0.00    -0.250 C  
BRANCH  13  16
HETATM   16  C   UNL     1     -11.837  11.565  69.275  1.00  0.00    -0.348 C  
HETATM   17  O   UNL     1     -12.656  10.873  68.689  1.00  0.00    -0.255 OA 
BRANCH  16  18
HETATM   18  O   UNL     1     -11.114  11.138  70.344  1.00  0.00    -0.097 OA 
BRANCH  18  19
HETATM   19  C   UNL     1     -10.926   9.704  70.383  1.00  0.00    -0.299 C  
HETATM   20  C   UNL     1      -9.455   9.374  70.145  1.00  0.00    -0.276 C  
HETATM   21  C   UNL     1     -11.388   9.181  71.736  1.00  0.00    -0.451 C  
ENDBRANCH  18  19
ENDBRANCH  16  18
ENDBRANCH  13  16
BRANCH  15  22
HETATM   22  C   UNL     1      -9.544  12.400  67.447  1.00  0.00    -0.184 A  
HETATM   23  C   UNL     1      -8.462  12.447  68.346  1.00  0.00    -0.131 A  
HETATM   24  C   UNL     1      -9.503  11.481  66.387  1.00  0.00    -0.230 A  
HETATM   25  C   UNL     1      -7.362  11.601  68.193  1.00  0.00    -0.092 A  
HETATM   26  O   UNL     1      -9.335   9.652  64.358  1.00  0.00    -0.254 OA 
HETATM   27  O   UNL     1      -7.373   8.940  65.029  1.00  0.00    -0.092 OA 
HETATM   28  C   UNL     1      -8.396  10.635  66.238  1.00  0.00    -0.155 A  
HETATM   29  N   UNL     1      -8.369   9.673  65.129  1.00  0.00    -0.130 N  
HETATM   30  C   UNL     1      -7.325  10.692  67.137  1.00  0.00    -0.098 A  
ENDBRANCH  15  22
ENDBRANCH   6   8
ENDBRANCH   5   6
ENDBRANCH   4   5
ENDBRANCH   3   4
ENDBRANCH   2   3
TORSDOF 9
ENDMDL
MODEL       23
REMARK 921   NORMALIZED FREE ENERGY PREDICTED BY IDOCK:   -5.51 KCAL/MOL
REMARK 922        TOTAL FREE ENERGY PREDICTED BY IDOCK:   -9.99 KCAL/MOL
REMARK 923 INTER-LIGAND FREE ENERGY PREDICTED BY IDOCK:   -8.59 KCAL/MOL
REMARK 924 INTRA-LIGAND FREE ENERGY PREDICTED BY IDOCK:   -1.40 KCAL/MOL
REMARK 927      BINDING AFFINITY PREDICTED BY RF-SCORE:    0.00 PKD
ROOT
HETATM    1  C   UNL     1     -10.699   6.056  70.530  1.00  0.00    -0.284 C  
HETATM    2  O   UNL     1     -11.676   6.509  69.605  1.00  0.00    -0.357 OA 
ENDROOT
BRANCH   2   3
HETATM    3  C   UNL     1     -11.140   6.601  68.284  1.00  0.00    -0.198 C  
BRANCH   3   4
HETATM    4  C   UNL     1     -10.296   7.856  68.221  1.00  0.00    -0.197 C  
BRANCH   4   5
HETATM    5  O   UNL     1     -11.016   9.042  68.578  1.00  0.00    -0.073 OA 
BRANCH   5   6
HETATM    6  C   UNL     1     -10.349   9.829  69.454  1.00  0.00    -0.217 C  
HETATM    7  O   UNL     1      -9.356   9.482  70.075  1.00  0.00    -0.201 OA 
BRANCH   6   8
HETATM    8  C   UNL     1     -11.001  11.155  69.616  1.00  0.00    -0.254 C  
HETATM    9  C   UNL     1     -11.995  11.390  70.511  1.00  0.00    -0.356 C  
HETATM   10  C   UNL     1     -12.747  10.412  71.386  1.00  0.00    -0.551 C  
HETATM   11  N   UNL     1     -12.413  12.688  70.719  1.00  0.00    -0.324 NA 
HETATM   12  C   UNL     1     -12.027  13.786  69.986  1.00  0.00    -0.338 C  
HETATM   13  C   UNL     1     -11.063  13.667  69.040  1.00  0.00    -0.295 C  
HETATM   14  C   UNL     1     -12.772  15.054  70.328  1.00  0.00    -0.319 C  
HETATM   15  C   UNL     1     -10.362  12.316  68.813  1.00  0.00    -0.156 C  
BRANCH  13  16
HETATM   16  C   UNL     1     -10.788  14.838  68.165  1.00  0.00    -0.254 C  
HETATM   17  O   UNL     1     -11.557  15.216  67.292  1.00  0.00    -0.323 OA 
BRANCH  16  18
HETATM   18  O   UNL     1      -9.587  15.420  68.417  1.00  0.00    -0.194 OA 
BRANCH  18  19
HETATM   19  C   UNL     1      -8.691  15.420  67.280  1.00  0.00    -0.196 C  
HETATM   20  C   UNL     1      -8.287  16.854  66.947  1.00  0.00    -0.244 C  
HETATM   21  C   UNL     1      -7.469  14.575  67.614  1.00  0.00    -0.195 C  
ENDBRANCH  18  19
ENDBRANCH  16  18
ENDBRANCH  13  16
BRANCH  15  22
HETATM   22  C   UNL     1     -10.275  11.952  67.326  1.00  0.00    -0.220 A  
HETATM   23  C   UNL     1      -9.103  11.366  66.811  1.00  0.00    -0.181 A  
HETATM   24  C   UNL     1     -11.356  12.178  66.460  1.00  0.00    -0.405 A  
HETATM   25  C   UNL     1      -9.007  11.016  65.462  1.00  0.00    -0.208 A  
HETATM   26  O   UNL     1     -13.411  12.572  64.696  1.00  0.00    -0.804 OA 
HETATM   27  O   UNL     1     -12.266  11.735  63.022  1.00  0.00    -0.319 OA 
HETATM   28  C   UNL     1     -11.253  11.825  65.107  1.00  0.00    -0.250 A  
HETATM   29  N   UNL     1     -12.394  12.061  64.214  1.00  0.00    -0.338 N  
HETATM   30  C   UNL     1     -10.083  11.246  64.605  1.00  0.00    -0.343 A  
ENDBRANCH  15  22
ENDBRANCH   6   8
ENDBRANCH   5   6
ENDBRANCH   4   5
ENDBRANCH   3   4
ENDBRANCH   2   3
TORSDOF 9
ENDMDL
MODEL       24
REMARK 921   NORMALIZED FREE ENERGY PREDICTED BY IDOCK:   -5.49 KCAL/MOL
REMARK 922        TOTAL FREE ENERGY PREDICTED BY IDOCK:   -9.95 KCAL/MOL
REMARK 923 INTER-LIGAND FREE ENERGY PREDICTED BY IDOCK:   -8.39 KCAL/MOL
REMARK 924 INTRA-LIGAND FREE ENERGY PREDICTED BY IDOCK:   -1.57 KCAL/MOL
REMARK 927      BINDING AFFINITY PREDICTED BY RF-SCORE:    0.00 PKD
ROOT
HETATM    1  C   UNL     1      -5.430  10.517  70.937  1.00  0.00    -0.093 C  
HETATM    2  O   UNL     1      -6.827  10.441  70.698  1.00  0.00    -0.328 OA 
ENDROOT
BRANCH   2   3
HETATM    3  C   UNL     1      -7.326   9.125  70.940  1.00  0.00    -0.116 C  
BRANCH   3   4
HETATM    4  C   UNL     1      -8.755   9.081  70.446  1.00  0.00    -0.199 C  
BRANCH   4   5
HETATM    5  O   UNL     1      -9.106  10.203  69.626  1.00  0.00    -0.206 OA 
BRANCH   5   6
HETATM    6  C   UNL     1     -10.353  10.116  69.107  1.00  0.00    -0.219 C  
HETATM    7  O   UNL     1     -11.333   9.731  69.725  1.00  0.00    -0.228 OA 
BRANCH   6   8
HETATM    8  C   UNL     1     -10.381  10.492  67.669  1.00  0.00    -0.257 C  
HETATM    9  C   UNL     1      -9.869   9.710  66.685  1.00  0.00    -0.224 C  
HETATM   10  C   UNL     1      -9.060   8.437  66.797  1.00  0.00    -0.192 C  
HETATM   11  N   UNL     1     -10.101  10.052  65.369  1.00  0.00    -0.296 NA 
HETATM   12  C   UNL     1     -10.683  11.219  64.931  1.00  0.00    -0.271 C  
HETATM   13  C   UNL     1     -11.203  12.096  65.826  1.00  0.00    -0.384 C  
HETATM   14  C   UNL     1     -10.659  11.402  63.433  1.00  0.00    -0.435 C  
HETATM   15  C   UNL     1     -11.188  11.771  67.330  1.00  0.00    -0.364 C  
BRANCH  13  16
HETATM   16  C   UNL     1     -11.679  13.414  65.323  1.00  0.00    -0.323 C  
HETATM   17  O   UNL     1     -12.862  13.701  65.217  1.00  0.00    -0.672 OA 
BRANCH  16  18
HETATM   18  O   UNL     1     -10.664  14.245  64.969  1.00  0.00    -0.369 OA 
BRANCH  18  19
HETATM   19  C   UNL     1     -10.807  15.589  65.485  1.00  0.00    -0.361 C  
HETATM   20  C   UNL     1      -9.433  16.150  65.842  1.00  0.00    -0.337 C  
HETATM   21  C   UNL     1     -11.489  16.453  64.433  1.00  0.00    -0.000 C  
ENDBRANCH  18  19
ENDBRANCH  16  18
ENDBRANCH  13  16
BRANCH  15  22
HETATM   22  C   UNL     1     -10.695  12.953  68.172  1.00  0.00    -0.258 A  
HETATM   23  C   UNL     1      -9.359  13.385  68.067  1.00  0.00    -0.217 A  
HETATM   24  C   UNL     1     -11.560  13.634  69.043  1.00  0.00    -0.356 A  
HETATM   25  C   UNL     1      -8.892  14.467  68.816  1.00  0.00    -0.153 A  
HETATM   26  O   UNL     1     -13.169  15.028  70.763  1.00  0.00    -0.382 OA 
HETATM   27  O   UNL     1     -11.545  16.383  71.342  1.00  0.00    -0.418 OA 
HETATM   28  C   UNL     1     -11.084  14.719  69.793  1.00  0.00    -0.258 A  
HETATM   29  N   UNL     1     -12.001  15.426  70.696  1.00  0.00    -0.323 N  
HETATM   30  C   UNL     1      -9.754  15.138  69.683  1.00  0.00    -0.145 A  
ENDBRANCH  15  22
ENDBRANCH   6   8
ENDBRANCH   5   6
ENDBRANCH   4   5
ENDBRANCH   3   4
ENDBRANCH   2   3
TORSDOF 9
ENDMDL
MODEL       25
REMARK 921   NORMALIZED FREE ENERGY PREDICTED BY IDOCK:   -5.48 KCAL/MOL
REMARK 922        TOTAL FREE ENERGY PREDICTED BY IDOCK:   -9.94 KCAL/MOL
REMARK 923 INTER-LIGAND FREE ENERGY PREDICTED BY IDOCK:   -7.97 KCAL/MOL
REMARK 924 INTRA-LIGAND FREE ENERGY PREDICTED BY IDOCK:   -1.97 KCAL/MOL
REMARK 927      BINDING AFFINITY PREDICTED BY RF-SCORE:    0.00 PKD
ROOT
HETATM    1  C   UNL     1     -11.696  12.267  63.550  1.00  0.00    -0.499 C  
HETATM    2  O   UNL     1     -12.661  13.263  63.851  1.00  0.00    -0.667 OA 
ENDROOT
BRANCH   2   3
HETATM    3  C   UNL     1     -12.484  13.778  65.171  1.00  0.00    -0.450 C  
BRANCH   3   4
HETATM    4  C   UNL     1     -11.647  12.780  65.941  1.00  0.00    -0.382 C  
BRANCH   4   5
HETATM    5  O   UNL     1     -12.264  12.341  67.158  1.00  0.00    -0.506 OA 
BRANCH   5   6
HETATM    6  C   UNL     1     -11.574  12.699  68.266  1.00  0.00    -0.332 C  
HETATM    7  O   UNL     1     -10.960  13.747  68.388  1.00  0.00    -0.238 OA 
BRANCH   6   8
HETATM    8  C   UNL     1     -11.602  11.635  69.304  1.00  0.00    -0.385 C  
HETATM    9  C   UNL     1     -12.177  11.800  70.522  1.00  0.00    -0.347 C  
HETATM   10  C   UNL     1     -12.744  13.053  71.152  1.00  0.00    -0.372 C  
HETATM   11  N   UNL     1     -12.316  10.705  71.350  1.00  0.00    -0.364 NA 
HETATM   12  C   UNL     1     -11.783   9.457  71.130  1.00  0.00    -0.345 C  
HETATM   13  C   UNL     1     -11.156   9.182  69.959  1.00  0.00    -0.208 C  
HETATM   14  C   UNL     1     -11.953   8.497  72.282  1.00  0.00    -0.454 C  
HETATM   15  C   UNL     1     -11.079  10.248  68.852  1.00  0.00    -0.278 C  
BRANCH  13  16
HETATM   16  C   UNL     1     -10.457   7.875  69.825  1.00  0.00    -0.233 C  
HETATM   17  O   UNL     1     -10.907   6.939  69.181  1.00  0.00    -0.233 OA 
BRANCH  16  18
HETATM   18  O   UNL     1      -9.289   7.824  70.516  1.00  0.00    -0.162 OA 
BRANCH  18  19
HETATM   19  C   UNL     1      -8.405   6.761  70.087  1.00  0.00    -0.135 C  
HETATM   20  C   UNL     1      -7.286   7.342  69.227  1.00  0.00    -0.080 C  
HETATM   21  C   UNL     1      -7.839   6.062  71.315  1.00  0.00    -0.112 C  
ENDBRANCH  18  19
ENDBRANCH  16  18
ENDBRANCH  13  16
BRANCH  15  22
HETATM   22  C   UNL     1      -9.667  10.374  68.268  1.00  0.00    -0.162 A  
HETATM   23  C   UNL     1      -8.612  10.848  69.071  1.00  0.00    -0.110 A  
HETATM   24  C   UNL     1      -9.396  10.009  66.940  1.00  0.00    -0.188 A  
HETATM   25  C   UNL     1      -7.316  10.959  68.563  1.00  0.00    -0.098 A  
HETATM   26  O   UNL     1      -8.767   9.316  64.368  1.00  0.00    -0.193 OA 
HETATM   27  O   UNL     1      -6.656   9.847  64.636  1.00  0.00    -0.106 OA 
HETATM   28  C   UNL     1      -8.093  10.124  66.436  1.00  0.00    -0.122 A  
HETATM   29  N   UNL     1      -7.822   9.732  65.047  1.00  0.00    -0.122 N  
HETATM   30  C   UNL     1      -7.052  10.598  67.242  1.00  0.00    -0.089 A  
ENDBRANCH  15  22
ENDBRANCH   6   8
ENDBRANCH   5   6
ENDBRANCH   4   5
ENDBRANCH   3   4
ENDBRANCH   2   3
TORSDOF 9
ENDMDL
MODEL       26
REMARK 921   NORMALIZED FREE ENERGY PREDICTED BY IDOCK:   -5.47 KCAL/MOL
REMARK 922        TOTAL FREE ENERGY PREDICTED BY IDOCK:   -9.93 KCAL/MOL
REMARK 923 INTER-LIGAND FREE ENERGY PREDICTED BY IDOCK:   -8.57 KCAL/MOL
REMARK 924 INTRA-LIGAND FREE ENERGY PREDICTED BY IDOCK:   -1.36 KCAL/MOL
REMARK 927      BINDING AFFINITY PREDICTED BY RF-SCORE:    0.00 PKD
ROOT
HETATM    1  C   UNL     1     -12.297  15.709  73.156  1.00  0.00    -0.475 C  
HETATM    2  O   UNL     1     -13.634  15.671  72.678  1.00  0.00    -0.500 OA 
ENDROOT
BRANCH   2   3
HETATM    3  C   UNL     1     -13.685  15.288  71.303  1.00  0.00    -0.490 C  
BRANCH   3   4
HETATM    4  C   UNL     1     -12.811  14.064  71.138  1.00  0.00    -0.357 C  
BRANCH   4   5
HETATM    5  O   UNL     1     -12.637  13.672  69.771  1.00  0.00    -0.201 OA 
BRANCH   5   6
HETATM    6  C   UNL     1     -11.339  13.627  69.390  1.00  0.00    -0.245 C  
HETATM    7  O   UNL     1     -10.440  14.258  69.924  1.00  0.00     0.109 OA 
BRANCH   6   8
HETATM    8  C   UNL     1     -11.141  12.757  68.201  1.00  0.00    -0.288 C  
HETATM    9  C   UNL     1     -11.495  13.124  66.943  1.00  0.00    -0.341 C  
HETATM   10  C   UNL     1     -12.268  14.341  66.483  1.00  0.00    -0.419 C  
HETATM   11  N   UNL     1     -11.110  12.333  65.881  1.00  0.00    -0.308 NA 
HETATM   12  C   UNL     1     -10.518  11.095  65.973  1.00  0.00    -0.256 C  
HETATM   13  C   UNL     1     -10.147  10.608  67.183  1.00  0.00    -0.248 C  
HETATM   14  C   UNL     1     -10.358  10.384  64.651  1.00  0.00    -0.190 C  
HETATM   15  C   UNL     1     -10.342  11.454  68.453  1.00  0.00    -0.209 C  
BRANCH  13  16
HETATM   16  C   UNL     1      -9.657   9.204  67.255  1.00  0.00    -0.154 C  
HETATM   17  O   UNL     1      -8.471   8.907  67.228  1.00  0.00    -0.114 OA 
BRANCH  16  18
HETATM   18  O   UNL     1     -10.663   8.293  67.322  1.00  0.00    -0.289 OA 
BRANCH  18  19
HETATM   19  C   UNL     1     -10.251   7.011  67.853  1.00  0.00    -0.183 C  
HETATM   20  C   UNL     1     -11.088   6.674  69.084  1.00  0.00    -0.332 C  
HETATM   21  C   UNL     1     -10.422   5.951  66.774  1.00  0.00    -0.344 C  
ENDBRANCH  18  19
ENDBRANCH  16  18
ENDBRANCH  13  16
BRANCH  15  22
HETATM   22  C   UNL     1     -10.979  10.649  69.592  1.00  0.00    -0.331 A  
HETATM   23  C   UNL     1     -12.380  10.585  69.712  1.00  0.00    -0.200 A  
HETATM   24  C   UNL     1     -10.188   9.952  70.518  1.00  0.00    -0.257 A  
HETATM   25  C   UNL     1     -12.981   9.848  70.734  1.00  0.00    -0.277 A  
HETATM   26  O   UNL     1      -8.732   8.555  72.368  1.00  0.00    -0.246 OA 
HETATM   27  O   UNL     1     -10.533   7.842  73.395  1.00  0.00    -0.338 OA 
HETATM   28  C   UNL     1     -10.798   9.214  71.543  1.00  0.00    -0.366 A  
HETATM   29  N   UNL     1      -9.958   8.485  72.502  1.00  0.00    -0.284 N  
HETATM   30  C   UNL     1     -12.191   9.160  71.655  1.00  0.00    -0.433 A  
ENDBRANCH  15  22
ENDBRANCH   6   8
ENDBRANCH   5   6
ENDBRANCH   4   5
ENDBRANCH   3   4
ENDBRANCH   2   3
TORSDOF 9
ENDMDL
MODEL       27
REMARK 921   NORMALIZED FREE ENERGY PREDICTED BY IDOCK:   -5.45 KCAL/MOL
REMARK 922        TOTAL FREE ENERGY PREDICTED BY IDOCK:   -9.90 KCAL/MOL
REMARK 923 INTER-LIGAND FREE ENERGY PREDICTED BY IDOCK:   -8.32 KCAL/MOL
REMARK 924 INTRA-LIGAND FREE ENERGY PREDICTED BY IDOCK:   -1.59 KCAL/MOL
REMARK 927      BINDING AFFINITY PREDICTED BY RF-SCORE:    0.00 PKD
ROOT
HETATM    1  C   UNL     1     -10.627  17.555  65.642  1.00  0.00    -0.140 C  
HETATM    2  O   UNL     1     -10.564  16.347  64.899  1.00  0.00    -0.677 OA 
ENDROOT
BRANCH   2   3
HETATM    3  C   UNL     1      -9.629  15.432  65.471  1.00  0.00    -0.218 C  
BRANCH   3   4
HETATM    4  C   UNL     1     -10.188  14.037  65.291  1.00  0.00    -0.360 C  
BRANCH   4   5
HETATM    5  O   UNL     1     -10.199  13.270  66.501  1.00  0.00    -0.271 OA 
BRANCH   5   6
HETATM    6  C   UNL     1     -11.365  12.615  66.707  1.00  0.00    -0.320 C  
HETATM    7  O   UNL     1     -12.075  12.172  65.818  1.00  0.00    -0.572 OA 
BRANCH   6   8
HETATM    8  C   UNL     1     -11.714  12.548  68.151  1.00  0.00    -0.400 C  
HETATM    9  C   UNL     1     -12.017  13.642  68.895  1.00  0.00    -0.356 C  
HETATM   10  C   UNL     1     -11.926  15.106  68.526  1.00  0.00    -0.243 C  
HETATM   11  N   UNL     1     -12.503  13.467  70.174  1.00  0.00    -0.257 NA 
HETATM   12  C   UNL     1     -12.574  12.273  70.852  1.00  0.00    -0.241 C  
HETATM   13  C   UNL     1     -12.265  11.114  70.221  1.00  0.00    -0.436 C  
HETATM   14  C   UNL     1     -12.993  12.403  72.296  1.00  0.00    -0.180 C  
HETATM   15  C   UNL     1     -11.880  11.120  68.731  1.00  0.00    -0.388 C  
BRANCH  13  16
HETATM   16  C   UNL     1     -12.201   9.867  71.031  1.00  0.00    -0.353 C  
HETATM   17  O   UNL     1     -13.099   9.037  71.054  1.00  0.00    -0.180 OA 
BRANCH  16  18
HETATM   18  O   UNL     1     -11.060   9.766  71.762  1.00  0.00    -0.200 OA 
BRANCH  18  19
HETATM   19  C   UNL     1     -10.420   8.472  71.662  1.00  0.00    -0.275 C  
HETATM   20  C   UNL     1      -8.909   8.637  71.805  1.00  0.00    -0.281 C  
HETATM   21  C   UNL     1     -10.971   7.562  72.751  1.00  0.00    -0.410 C  
ENDBRANCH  18  19
ENDBRANCH  16  18
ENDBRANCH  13  16
BRANCH  15  22
HETATM   22  C   UNL     1     -10.626  10.283  68.454  1.00  0.00    -0.247 A  
HETATM   23  C   UNL     1      -9.357  10.767  68.828  1.00  0.00    -0.186 A  
HETATM   24  C   UNL     1     -10.716   9.022  67.844  1.00  0.00    -0.200 A  
HETATM   25  C   UNL     1      -8.204  10.015  68.597  1.00  0.00    -0.111 A  
HETATM   26  O   UNL     1     -10.789   6.552  66.667  1.00  0.00    -0.275 OA 
HETATM   27  O   UNL     1      -8.612   6.318  66.793  1.00  0.00    -0.113 OA 
HETATM   28  C   UNL     1      -9.553   8.273  67.614  1.00  0.00    -0.152 A  
HETATM   29  N   UNL     1      -9.663   6.953  66.980  1.00  0.00    -0.155 N  
HETATM   30  C   UNL     1      -8.298   8.764  67.987  1.00  0.00    -0.119 A  
ENDBRANCH  15  22
ENDBRANCH   6   8
ENDBRANCH   5   6
ENDBRANCH   4   5
ENDBRANCH   3   4
ENDBRANCH   2   3
TORSDOF 9
ENDMDL
MODEL       28
REMARK 921   NORMALIZED FREE ENERGY PREDICTED BY IDOCK:   -5.45 KCAL/MOL
REMARK 922        TOTAL FREE ENERGY PREDICTED BY IDOCK:   -9.90 KCAL/MOL
REMARK 923 INTER-LIGAND FREE ENERGY PREDICTED BY IDOCK:   -8.09 KCAL/MOL
REMARK 924 INTRA-LIGAND FREE ENERGY PREDICTED BY IDOCK:   -1.81 KCAL/MOL
REMARK 927      BINDING AFFINITY PREDICTED BY RF-SCORE:    0.00 PKD
ROOT
HETATM    1  C   UNL     1     -12.383  12.102  63.456  1.00  0.00    -0.574 C  
HETATM    2  O   UNL     1     -13.121  12.408  64.629  1.00  0.00    -0.825 OA 
ENDROOT
BRANCH   2   3
HETATM    3  C   UNL     1     -12.506  13.461  65.372  1.00  0.00    -0.494 C  
BRANCH   3   4
HETATM    4  C   UNL     1     -11.374  12.853  66.173  1.00  0.00    -0.317 C  
BRANCH   4   5
HETATM    5  O   UNL     1     -11.824  12.029  67.255  1.00  0.00    -0.556 OA 
BRANCH   5   6
HETATM    6  C   UNL     1     -11.043  12.120  68.356  1.00  0.00    -0.245 C  
HETATM    7  O   UNL     1      -9.976  12.712  68.398  1.00  0.00    -0.226 OA 
BRANCH   6   8
HETATM    8  C   UNL     1     -11.611  11.363  69.503  1.00  0.00    -0.399 C  
HETATM    9  C   UNL     1     -12.310  11.949  70.508  1.00  0.00    -0.284 C  
HETATM   10  C   UNL     1     -12.534  13.419  70.788  1.00  0.00    -0.418 C  
HETATM   11  N   UNL     1     -12.952  11.150  71.430  1.00  0.00    -0.424 NA 
HETATM   12  C   UNL     1     -12.833   9.784  71.534  1.00  0.00    -0.405 C  
HETATM   13  C   UNL     1     -12.131   9.091  70.603  1.00  0.00    -0.075 C  
HETATM   14  C   UNL     1     -13.518   9.190  72.741  1.00  0.00    -0.258 C  
HETATM   15  C   UNL     1     -11.505   9.821  69.402  1.00  0.00    -0.015 C  
BRANCH  13  16
HETATM   16  C   UNL     1     -11.893   7.641  70.838  1.00  0.00    -0.250 C  
HETATM   17  O   UNL     1     -12.532   6.760  70.282  1.00  0.00    -0.144 OA 
BRANCH  16  18
HETATM   18  O   UNL     1     -10.918   7.404  71.754  1.00  0.00    -0.230 OA 
BRANCH  18  19
HETATM   19  C   UNL     1     -10.469   6.028  71.782  1.00  0.00    -0.221 C  
HETATM   20  C   UNL     1      -8.976   5.970  71.472  1.00  0.00    -0.144 C  
HETATM   21  C   UNL     1     -10.761   5.441  73.157  1.00  0.00    -0.309 C  
ENDBRANCH  18  19
ENDBRANCH  16  18
ENDBRANCH  13  16
BRANCH  15  22
HETATM   22  C   UNL     1     -10.049   9.400  69.165  1.00  0.00    -0.200 A  
HETATM   23  C   UNL     1      -9.055   9.738  70.103  1.00  0.00    -0.240 A  
HETATM   24  C   UNL     1      -9.683   8.663  68.028  1.00  0.00    -0.184 A  
HETATM   25  C   UNL     1      -7.726   9.354  69.913  1.00  0.00    -0.114 A  
HETATM   26  O   UNL     1      -8.874   7.220  65.848  1.00  0.00    -0.158 OA 
HETATM   27  O   UNL     1      -6.787   7.186  66.521  1.00  0.00    -0.061 OA 
HETATM   28  C   UNL     1      -8.347   8.282  67.842  1.00  0.00    -0.128 A  
HETATM   29  N   UNL     1      -7.979   7.506  66.651  1.00  0.00    -0.108 N  
HETATM   30  C   UNL     1      -7.367   8.625  68.780  1.00  0.00    -0.083 A  
ENDBRANCH  15  22
ENDBRANCH   6   8
ENDBRANCH   5   6
ENDBRANCH   4   5
ENDBRANCH   3   4
ENDBRANCH   2   3
TORSDOF 9
ENDMDL
MODEL       29
REMARK 921   NORMALIZED FREE ENERGY PREDICTED BY IDOCK:   -5.40 KCAL/MOL
REMARK 922        TOTAL FREE ENERGY PREDICTED BY IDOCK:   -9.82 KCAL/MOL
REMARK 923 INTER-LIGAND FREE ENERGY PREDICTED BY IDOCK:   -7.92 KCAL/MOL
REMARK 924 INTRA-LIGAND FREE ENERGY PREDICTED BY IDOCK:   -1.91 KCAL/MOL
REMARK 927      BINDING AFFINITY PREDICTED BY RF-SCORE:    0.00 PKD
ROOT
HETATM    1  C   UNL     1     -10.170   6.471  74.205  1.00  0.00    -0.350 C  
HETATM    2  O   UNL     1     -10.871   5.438  73.530  1.00  0.00    -0.267 OA 
ENDROOT
BRANCH   2   3
HETATM    3  C   UNL     1     -11.481   5.919  72.331  1.00  0.00    -0.306 C  
BRANCH   3   4
HETATM    4  C   UNL     1     -11.496   7.430  72.404  1.00  0.00    -0.300 C  
BRANCH   4   5
HETATM    5  O   UNL     1     -11.297   8.061  71.132  1.00  0.00    -0.257 OA 
BRANCH   5   6
HETATM    6  C   UNL     1     -10.441   9.108  71.183  1.00  0.00    -0.315 C  
HETATM    7  O   UNL     1      -9.460   9.162  71.909  1.00  0.00    -0.332 OA 
BRANCH   6   8
HETATM    8  C   UNL     1     -10.866  10.216  70.288  1.00  0.00    -0.370 C  
HETATM    9  C   UNL     1     -11.923  11.024  70.556  1.00  0.00    -0.379 C  
HETATM   10  C   UNL     1     -12.956  10.917  71.655  1.00  0.00    -0.569 C  
HETATM   11  N   UNL     1     -12.132  12.135  69.766  1.00  0.00    -0.271 NA 
HETATM   12  C   UNL     1     -11.455  12.438  68.608  1.00  0.00    -0.303 C  
HETATM   13  C   UNL     1     -10.398  11.682  68.220  1.00  0.00    -0.212 C  
HETATM   14  C   UNL     1     -12.006  13.628  67.859  1.00  0.00    -0.382 C  
HETATM   15  C   UNL     1      -9.921  10.510  69.096  1.00  0.00    -0.236 C  
BRANCH  13  16
HETATM   16  C   UNL     1      -9.796  11.946  66.885  1.00  0.00    -0.202 C  
HETATM   17  O   UNL     1      -8.727  12.520  66.736  1.00  0.00    -0.200 OA 
BRANCH  16  18
HETATM   18  O   UNL     1     -10.571  11.512  65.857  1.00  0.00    -0.254 OA 
BRANCH  18  19
HETATM   19  C   UNL     1      -9.900  11.534  64.575  1.00  0.00    -0.241 C  
HETATM   20  C   UNL     1      -9.471  10.119  64.197  1.00  0.00    -0.353 C  
HETATM   21  C   UNL     1     -10.847  12.112  63.531  1.00  0.00    -0.518 C  
ENDBRANCH  18  19
ENDBRANCH  16  18
ENDBRANCH  13  16
BRANCH  15  22
HETATM   22  C   UNL     1      -9.682   9.236  68.277  1.00  0.00    -0.167 A  
HETATM   23  C   UNL     1     -10.766   8.574  67.670  1.00  0.00    -0.189 A  
HETATM   24  C   UNL     1      -8.390   8.717  68.103  1.00  0.00    -0.122 A  
HETATM   25  C   UNL     1     -10.570   7.420  66.909  1.00  0.00    -0.375 A  
HETATM   26  O   UNL     1      -5.909   7.633  67.701  1.00  0.00    -0.034 OA 
HETATM   27  O   UNL     1      -6.711   6.000  66.477  1.00  0.00    -0.056 OA 
HETATM   28  C   UNL     1      -8.199   7.557  67.339  1.00  0.00    -0.116 A  
HETATM   29  N   UNL     1      -6.841   7.029  67.160  1.00  0.00    -0.063 N  
HETATM   30  C   UNL     1      -9.284   6.906  66.742  1.00  0.00    -0.177 A  
ENDBRANCH  15  22
ENDBRANCH   6   8
ENDBRANCH   5   6
ENDBRANCH   4   5
ENDBRANCH   3   4
ENDBRANCH   2   3
TORSDOF 9
ENDMDL
MODEL       30
REMARK 921   NORMALIZED FREE ENERGY PREDICTED BY IDOCK:   -5.37 KCAL/MOL
REMARK 922        TOTAL FREE ENERGY PREDICTED BY IDOCK:   -9.77 KCAL/MOL
REMARK 923 INTER-LIGAND FREE ENERGY PREDICTED BY IDOCK:   -7.89 KCAL/MOL
REMARK 924 INTRA-LIGAND FREE ENERGY PREDICTED BY IDOCK:   -1.88 KCAL/MOL
REMARK 927      BINDING AFFINITY PREDICTED BY RF-SCORE:    0.00 PKD
ROOT
HETATM    1  C   UNL     1      -8.635   9.065  70.806  1.00  0.00    -0.217 C  
HETATM    2  O   UNL     1      -8.105  10.173  70.095  1.00  0.00    -0.146 OA 
ENDROOT
BRANCH   2   3
HETATM    3  C   UNL     1      -6.678  10.193  70.149  1.00  0.00    -0.138 C  
BRANCH   3   4
HETATM    4  C   UNL     1      -6.221  11.542  69.637  1.00  0.00    -0.124 C  
BRANCH   4   5
HETATM    5  O   UNL     1      -7.279  12.319  69.064  1.00  0.00    -0.097 OA 
BRANCH   5   6
HETATM    6  C   UNL     1      -7.127  12.530  67.736  1.00  0.00    -0.126 C  
HETATM    7  O   UNL     1      -6.329  11.936  67.029  1.00  0.00    -0.144 OA 
BRANCH   6   8
HETATM    8  C   UNL     1      -8.012  13.619  67.244  1.00  0.00    -0.129 C  
HETATM    9  C   UNL     1      -7.672  14.932  67.291  1.00  0.00    -0.197 C  
HETATM   10  C   UNL     1      -6.479  15.590  67.949  1.00  0.00    -0.171 C  
HETATM   11  N   UNL     1      -8.472  15.854  66.649  1.00  0.00    -0.261 NA 
HETATM   12  C   UNL     1      -9.696  15.597  66.077  1.00  0.00    -0.346 C  
HETATM   13  C   UNL     1     -10.157  14.324  66.001  1.00  0.00    -0.333 C  
HETATM   14  C   UNL     1     -10.426  16.827  65.592  1.00  0.00    -0.284 C  
HETATM   15  C   UNL     1      -9.295  13.155  66.509  1.00  0.00    -0.222 C  
BRANCH  13  16
HETATM   16  C   UNL     1     -11.550  14.108  65.521  1.00  0.00    -0.337 C  
HETATM   17  O   UNL     1     -12.533  14.257  66.232  1.00  0.00    -0.445 OA 
BRANCH  16  18
HETATM   18  O   UNL     1     -11.608  13.700  64.227  1.00  0.00    -0.380 OA 
BRANCH  18  19
HETATM   19  C   UNL     1     -11.607  12.261  64.070  1.00  0.00    -0.417 C  
HETATM   20  C   UNL     1     -12.906  11.818  63.403  1.00  0.00    -0.310 C  
HETATM   21  C   UNL     1     -10.401  11.856  63.233  1.00  0.00    -0.432 C  
ENDBRANCH  18  19
ENDBRANCH  16  18
ENDBRANCH  13  16
BRANCH  15  22
HETATM   22  C   UNL     1     -10.094  12.187  67.389  1.00  0.00    -0.208 A  
HETATM   23  C   UNL     1     -10.174  10.824  67.046  1.00  0.00    -0.261 A  
HETATM   24  C   UNL     1     -10.743  12.631  68.552  1.00  0.00    -0.271 A  
HETATM   25  C   UNL     1     -10.886   9.923  67.840  1.00  0.00    -0.312 A  
HETATM   26  O   UNL     1     -12.034  13.399  70.840  1.00  0.00    -0.259 OA 
HETATM   27  O   UNL     1     -12.748  11.364  71.239  1.00  0.00    -0.405 OA 
HETATM   28  C   UNL     1     -11.457  11.722  69.344  1.00  0.00    -0.307 A  
HETATM   29  N   UNL     1     -12.125  12.199  70.562  1.00  0.00    -0.355 N  
HETATM   30  C   UNL     1     -11.532  10.370  68.993  1.00  0.00    -0.258 A  
ENDBRANCH  15  22
ENDBRANCH   6   8
ENDBRANCH   5   6
ENDBRANCH   4   5
ENDBRANCH   3   4
ENDBRANCH   2   3
TORSDOF 9
ENDMDL
MODEL       31
REMARK 921   NORMALIZED FREE ENERGY PREDICTED BY IDOCK:   -5.35 KCAL/MOL
REMARK 922        TOTAL FREE ENERGY PREDICTED BY IDOCK:   -9.75 KCAL/MOL
REMARK 923 INTER-LIGAND FREE ENERGY PREDICTED BY IDOCK:   -8.07 KCAL/MOL
REMARK 924 INTRA-LIGAND FREE ENERGY PREDICTED BY IDOCK:   -1.68 KCAL/MOL
REMARK 927      BINDING AFFINITY PREDICTED BY RF-SCORE:    0.00 PKD
ROOT
HETATM    1  C   UNL     1     -10.569  18.093  67.530  1.00  0.00    -0.401 C  
HETATM    2  O   UNL     1     -10.692  16.818  68.142  1.00  0.00    -0.336 OA 
ENDROOT
BRANCH   2   3
HETATM    3  C   UNL     1     -10.587  15.767  67.181  1.00  0.00    -0.313 C  
BRANCH   3   4
HETATM    4  C   UNL     1      -9.142  15.319  67.153  1.00  0.00    -0.210 C  
BRANCH   4   5
HETATM    5  O   UNL     1      -8.817  14.387  68.192  1.00  0.00    -0.166 OA 
BRANCH   5   6
HETATM    6  C   UNL     1      -7.827  13.530  67.850  1.00  0.00    -0.159 C  
HETATM    7  O   UNL     1      -6.958  13.772  67.027  1.00  0.00    -0.011 OA 
BRANCH   6   8
HETATM    8  C   UNL     1      -7.953  12.228  68.557  1.00  0.00    -0.107 C  
HETATM    9  C   UNL     1      -6.972  11.708  69.338  1.00  0.00    -0.051 C  
HETATM   10  C   UNL     1      -5.554  12.193  69.545  1.00  0.00    -0.079 C  
HETATM   11  N   UNL     1      -7.244  10.589  70.097  1.00  0.00    -0.202 NA 
HETATM   12  C   UNL     1      -8.389   9.831  70.031  1.00  0.00    -0.192 C  
HETATM   13  C   UNL     1      -9.428  10.234  69.258  1.00  0.00    -0.230 C  
HETATM   14  C   UNL     1      -8.346   8.567  70.856  1.00  0.00    -0.166 C  
HETATM   15  C   UNL     1      -9.351  11.564  68.488  1.00  0.00    -0.171 C  
BRANCH  13  16
HETATM   16  C   UNL     1     -10.581   9.308  69.090  1.00  0.00    -0.212 C  
HETATM   17  O   UNL     1     -10.476   8.191  68.604  1.00  0.00    -0.207 OA 
BRANCH  16  18
HETATM   18  O   UNL     1     -11.758   9.845  69.504  1.00  0.00    -0.078 OA 
BRANCH  18  19
HETATM   19  C   UNL     1     -11.757  10.241  70.896  1.00  0.00    -0.379 C  
HETATM   20  C   UNL     1     -12.679  11.442  71.087  1.00  0.00    -0.479 C  
HETATM   21  C   UNL     1     -12.217   9.064  71.746  1.00  0.00    -0.434 C  
ENDBRANCH  18  19
ENDBRANCH  16  18
ENDBRANCH  13  16
BRANCH  15  22
HETATM   22  C   UNL     1      -9.800  11.415  67.029  1.00  0.00    -0.214 A  
HETATM   23  C   UNL     1      -9.062  10.606  66.144  1.00  0.00    -0.190 A  
HETATM   24  C   UNL     1     -10.952  12.061  66.555  1.00  0.00    -0.337 A  
HETATM   25  C   UNL     1      -9.460  10.447  64.815  1.00  0.00    -0.329 A  
HETATM   26  O   UNL     1     -13.186  13.274  65.540  1.00  0.00    -0.494 OA 
HETATM   27  O   UNL     1     -12.875  12.405  63.551  1.00  0.00    -0.749 OA 
HETATM   28  C   UNL     1     -11.345  11.898  65.220  1.00  0.00    -0.275 A  
HETATM   29  N   UNL     1     -12.557  12.574  64.739  1.00  0.00    -0.484 N  
HETATM   30  C   UNL     1     -10.604  11.093  64.348  1.00  0.00    -0.411 A  
ENDBRANCH  15  22
ENDBRANCH   6   8
ENDBRANCH   5   6
ENDBRANCH   4   5
ENDBRANCH   3   4
ENDBRANCH   2   3
TORSDOF 9
ENDMDL
MODEL       32
REMARK 921   NORMALIZED FREE ENERGY PREDICTED BY IDOCK:   -5.35 KCAL/MOL
REMARK 922        TOTAL FREE ENERGY PREDICTED BY IDOCK:   -9.74 KCAL/MOL
REMARK 923 INTER-LIGAND FREE ENERGY PREDICTED BY IDOCK:   -8.92 KCAL/MOL
REMARK 924 INTRA-LIGAND FREE ENERGY PREDICTED BY IDOCK:   -0.82 KCAL/MOL
REMARK 927      BINDING AFFINITY PREDICTED BY RF-SCORE:    0.00 PKD
ROOT
HETATM    1  C   UNL     1     -10.417  19.600  66.491  1.00  0.00    -0.503 C  
HETATM    2  O   UNL     1     -10.727  18.687  65.449  1.00  0.00    -0.572 OA 
ENDROOT
BRANCH   2   3
HETATM    3  C   UNL     1     -10.525  17.335  65.864  1.00  0.00    -0.262 C  
BRANCH   3   4
HETATM    4  C   UNL     1     -11.235  16.443  64.870  1.00  0.00    -0.185 C  
BRANCH   4   5
HETATM    5  O   UNL     1     -10.740  15.098  64.860  1.00  0.00    -0.409 OA 
BRANCH   5   6
HETATM    6  C   UNL     1     -11.654  14.189  65.270  1.00  0.00    -0.341 C  
HETATM    7  O   UNL     1     -12.819  14.449  65.528  1.00  0.00    -0.458 OA 
BRANCH   6   8
HETATM    8  C   UNL     1     -11.059  12.836  65.428  1.00  0.00    -0.317 C  
HETATM    9  C   UNL     1     -11.260  11.827  64.542  1.00  0.00    -0.305 C  
HETATM   10  C   UNL     1     -12.193  11.769  63.353  1.00  0.00    -0.461 C  
HETATM   11  N   UNL     1     -10.525  10.668  64.670  1.00  0.00    -0.291 NA 
HETATM   12  C   UNL     1      -9.695  10.353  65.721  1.00  0.00    -0.228 C  
HETATM   13  C   UNL     1      -9.442  11.272  66.686  1.00  0.00    -0.204 C  
HETATM   14  C   UNL     1      -9.148   8.947  65.681  1.00  0.00    -0.269 C  
HETATM   15  C   UNL     1     -10.044  12.685  66.588  1.00  0.00    -0.248 C  
BRANCH  13  16
HETATM   16  C   UNL     1      -8.669  10.840  67.883  1.00  0.00    -0.129 C  
HETATM   17  O   UNL     1      -7.558  11.273  68.153  1.00  0.00    -0.095 OA 
BRANCH  16  18
HETATM   18  O   UNL     1      -9.313   9.898  68.620  1.00  0.00    -0.142 OA 
BRANCH  18  19
HETATM   19  C   UNL     1      -8.525   9.381  69.718  1.00  0.00    -0.165 C  
HETATM   20  C   UNL     1      -9.412   9.212  70.949  1.00  0.00    -0.343 C  
HETATM   21  C   UNL     1      -7.912   8.050  69.304  1.00  0.00    -0.116 C  
ENDBRANCH  18  19
ENDBRANCH  16  18
ENDBRANCH  13  16
BRANCH  15  22
HETATM   22  C   UNL     1     -10.673  13.138  67.911  1.00  0.00    -0.249 A  
HETATM   23  C   UNL     1     -10.591  14.487  68.306  1.00  0.00    -0.241 A  
HETATM   24  C   UNL     1     -11.352  12.231  68.739  1.00  0.00    -0.337 A  
HETATM   25  C   UNL     1     -11.168  14.923  69.501  1.00  0.00    -0.300 A  
HETATM   26  O   UNL     1     -12.702  10.540  70.416  1.00  0.00    -0.331 OA 
HETATM   27  O   UNL     1     -13.140  12.146  71.844  1.00  0.00    -0.446 OA 
HETATM   28  C   UNL     1     -11.928  12.675  69.937  1.00  0.00    -0.295 A  
HETATM   29  N   UNL     1     -12.641  11.716  70.791  1.00  0.00    -0.307 N  
HETATM   30  C   UNL     1     -11.838  14.017  70.322  1.00  0.00    -0.373 A  
ENDBRANCH  15  22
ENDBRANCH   6   8
ENDBRANCH   5   6
ENDBRANCH   4   5
ENDBRANCH   3   4
ENDBRANCH   2   3
TORSDOF 9
ENDMDL
MODEL       33
REMARK 921   NORMALIZED FREE ENERGY PREDICTED BY IDOCK:   -5.35 KCAL/MOL
REMARK 922        TOTAL FREE ENERGY PREDICTED BY IDOCK:   -9.74 KCAL/MOL
REMARK 923 INTER-LIGAND FREE ENERGY PREDICTED BY IDOCK:   -8.03 KCAL/MOL
REMARK 924 INTRA-LIGAND FREE ENERGY PREDICTED BY IDOCK:   -1.71 KCAL/MOL
REMARK 927      BINDING AFFINITY PREDICTED BY RF-SCORE:    0.00 PKD
ROOT
HETATM    1  C   UNL     1     -12.236  15.299  64.246  1.00  0.00    -0.189 C  
HETATM    2  O   UNL     1     -11.132  16.130  64.576  1.00  0.00    -0.634 OA 
ENDROOT
BRANCH   2   3
HETATM    3  C   UNL     1     -10.379  15.588  65.662  1.00  0.00    -0.384 C  
BRANCH   3   4
HETATM    4  C   UNL     1     -10.540  14.084  65.623  1.00  0.00    -0.307 C  
BRANCH   4   5
HETATM    5  O   UNL     1     -10.608  13.487  66.924  1.00  0.00    -0.268 OA 
BRANCH   5   6
HETATM    6  C   UNL     1     -11.490  12.464  66.996  1.00  0.00    -0.358 C  
HETATM    7  O   UNL     1     -12.392  12.272  66.196  1.00  0.00    -0.588 OA 
BRANCH   6   8
HETATM    8  C   UNL     1     -11.268  11.625  68.204  1.00  0.00    -0.325 C  
HETATM    9  C   UNL     1     -11.561  12.040  69.462  1.00  0.00    -0.321 C  
HETATM   10  C   UNL     1     -12.000  13.406  69.942  1.00  0.00    -0.408 C  
HETATM   11  N   UNL     1     -11.493  11.133  70.499  1.00  0.00    -0.193 NA 
HETATM   12  C   UNL     1     -10.998   9.853  70.417  1.00  0.00    -0.318 C  
HETATM   13  C   UNL     1     -10.641   9.338  69.214  1.00  0.00    -0.234 C  
HETATM   14  C   UNL     1     -10.891   9.142  71.744  1.00  0.00    -0.416 C  
HETATM   15  C   UNL     1     -10.831  10.164  67.930  1.00  0.00    -0.336 C  
BRANCH  13  16
HETATM   16  C   UNL     1      -9.964   8.013  69.190  1.00  0.00    -0.188 C  
HETATM   17  O   UNL     1      -8.788   7.857  69.486  1.00  0.00    -0.140 OA 
BRANCH  16  18
HETATM   18  O   UNL     1     -10.779   7.008  68.776  1.00  0.00    -0.215 OA 
BRANCH  18  19
HETATM   19  C   UNL     1     -10.088   5.958  68.058  1.00  0.00    -0.162 C  
HETATM   20  C   UNL     1     -10.101   4.677  68.887  1.00  0.00    -0.103 C  
HETATM   21  C   UNL     1     -10.775   5.743  66.716  1.00  0.00    -0.369 C  
ENDBRANCH  18  19
ENDBRANCH  16  18
ENDBRANCH  13  16
BRANCH  15  22
HETATM   22  C   UNL     1      -9.585  10.137  67.035  1.00  0.00    -0.209 A  
HETATM   23  C   UNL     1      -9.593   9.396  65.838  1.00  0.00    -0.338 A  
HETATM   24  C   UNL     1      -8.430  10.856  67.380  1.00  0.00    -0.120 A  
HETATM   25  C   UNL     1      -8.474   9.368  65.003  1.00  0.00    -0.171 A  
HETATM   26  O   UNL     1      -6.136  12.230  67.960  1.00  0.00    -0.057 OA 
HETATM   27  O   UNL     1      -5.138  11.533  66.136  1.00  0.00    -0.272 OA 
HETATM   28  C   UNL     1      -7.310  10.823  66.538  1.00  0.00    -0.139 A  
HETATM   29  N   UNL     1      -6.110  11.585  66.906  1.00  0.00    -0.133 N  
HETATM   30  C   UNL     1      -7.327  10.082  65.351  1.00  0.00    -0.139 A  
ENDBRANCH  15  22
ENDBRANCH   6   8
ENDBRANCH   5   6
ENDBRANCH   4   5
ENDBRANCH   3   4
ENDBRANCH   2   3
TORSDOF 9
ENDMDL
MODEL       34
REMARK 921   NORMALIZED FREE ENERGY PREDICTED BY IDOCK:   -5.32 KCAL/MOL
REMARK 922        TOTAL FREE ENERGY PREDICTED BY IDOCK:   -9.70 KCAL/MOL
REMARK 923 INTER-LIGAND FREE ENERGY PREDICTED BY IDOCK:   -8.73 KCAL/MOL
REMARK 924 INTRA-LIGAND FREE ENERGY PREDICTED BY IDOCK:   -0.97 KCAL/MOL
REMARK 927      BINDING AFFINITY PREDICTED BY RF-SCORE:    0.00 PKD
ROOT
HETATM    1  C   UNL     1      -5.763  20.613  68.606  1.00  0.00    -0.332 C  
HETATM    2  O   UNL     1      -5.796  19.197  68.702  1.00  0.00    -0.208 OA 
ENDROOT
BRANCH   2   3
HETATM    3  C   UNL     1      -7.011  18.744  69.302  1.00  0.00    -0.218 C  
BRANCH   3   4
HETATM    4  C   UNL     1      -7.046  17.236  69.177  1.00  0.00    -0.204 C  
BRANCH   4   5
HETATM    5  O   UNL     1      -8.372  16.709  69.044  1.00  0.00    -0.235 OA 
BRANCH   5   6
HETATM    6  C   UNL     1      -8.420  15.558  68.334  1.00  0.00    -0.163 C  
HETATM    7  O   UNL     1      -7.733  14.575  68.565  1.00  0.00    -0.116 OA 
BRANCH   6   8
HETATM    8  C   UNL     1      -9.373  15.648  67.197  1.00  0.00    -0.229 C  
HETATM    9  C   UNL     1      -9.286  16.593  66.226  1.00  0.00    -0.292 C  
HETATM   10  C   UNL     1      -8.375  17.798  66.142  1.00  0.00    -0.171 C  
HETATM   11  N   UNL     1     -10.099  16.490  65.117  1.00  0.00    -0.483 NA 
HETATM   12  C   UNL     1     -11.127  15.592  64.954  1.00  0.00    -0.416 C  
HETATM   13  C   UNL     1     -11.333  14.618  65.876  1.00  0.00    -0.338 C  
HETATM   14  C   UNL     1     -11.957  15.815  63.712  1.00  0.00     0.579 C  
HETATM   15  C   UNL     1     -10.390  14.484  67.085  1.00  0.00    -0.265 C  
BRANCH  13  16
HETATM   16  C   UNL     1     -12.548  13.769  65.743  1.00  0.00    -0.480 C  
HETATM   17  O   UNL     1     -13.685  14.214  65.800  1.00  0.00    -0.099 OA 
BRANCH  16  18
HETATM   18  O   UNL     1     -12.259  12.451  65.582  1.00  0.00    -0.599 OA 
BRANCH  18  19
HETATM   19  C   UNL     1     -11.419  12.176  64.436  1.00  0.00    -0.350 C  
HETATM   20  C   UNL     1     -10.518  10.981  64.738  1.00  0.00    -0.384 C  
HETATM   21  C   UNL     1     -12.304  11.897  63.229  1.00  0.00    -0.508 C  
ENDBRANCH  18  19
ENDBRANCH  16  18
ENDBRANCH  13  16
BRANCH  15  22
HETATM   22  C   UNL     1     -11.159  14.318  68.401  1.00  0.00    -0.274 A  
HETATM   23  C   UNL     1     -11.650  15.450  69.079  1.00  0.00    -0.361 A  
HETATM   24  C   UNL     1     -11.400  13.046  68.944  1.00  0.00    -0.333 A  
HETATM   25  C   UNL     1     -12.363  15.320  70.273  1.00  0.00    -0.407 A  
HETATM   26  O   UNL     1     -11.928  10.612  70.078  1.00  0.00    -0.289 OA 
HETATM   27  O   UNL     1     -13.005  11.516  71.760  1.00  0.00    -0.446 OA 
HETATM   28  C   UNL     1     -12.116  12.923  70.143  1.00  0.00    -0.302 A  
HETATM   29  N   UNL     1     -12.367  11.587  70.697  1.00  0.00    -0.373 N  
HETATM   30  C   UNL     1     -12.597  14.055  70.810  1.00  0.00    -0.431 A  
ENDBRANCH  15  22
ENDBRANCH   6   8
ENDBRANCH   5   6
ENDBRANCH   4   5
ENDBRANCH   3   4
ENDBRANCH   2   3
TORSDOF 9
ENDMDL
MODEL       35
REMARK 921   NORMALIZED FREE ENERGY PREDICTED BY IDOCK:   -5.28 KCAL/MOL
REMARK 922        TOTAL FREE ENERGY PREDICTED BY IDOCK:   -9.63 KCAL/MOL
REMARK 923 INTER-LIGAND FREE ENERGY PREDICTED BY IDOCK:   -7.93 KCAL/MOL
REMARK 924 INTRA-LIGAND FREE ENERGY PREDICTED BY IDOCK:   -1.70 KCAL/MOL
REMARK 927      BINDING AFFINITY PREDICTED BY RF-SCORE:    0.00 PKD
ROOT
HETATM    1  C   UNL     1      -7.610  19.493  68.456  1.00  0.00    -0.343 C  
HETATM    2  O   UNL     1      -7.665  18.959  67.142  1.00  0.00    -0.232 OA 
ENDROOT
BRANCH   2   3
HETATM    3  C   UNL     1      -7.274  17.585  67.122  1.00  0.00    -0.174 C  
BRANCH   3   4
HETATM    4  C   UNL     1      -8.127  16.884  66.087  1.00  0.00    -0.260 C  
BRANCH   4   5
HETATM    5  O   UNL     1      -8.540  15.572  66.488  1.00  0.00    -0.269 OA 
BRANCH   5   6
HETATM    6  C   UNL     1      -9.866  15.357  66.327  1.00  0.00    -0.297 C  
HETATM    7  O   UNL     1     -10.476  15.554  65.287  1.00  0.00    -0.370 OA 
BRANCH   6   8
HETATM    8  C   UNL     1     -10.512  14.906  67.588  1.00  0.00    -0.249 C  
HETATM    9  C   UNL     1     -10.857  15.752  68.591  1.00  0.00    -0.278 C  
HETATM   10  C   UNL     1     -10.554  17.226  68.748  1.00  0.00    -0.305 C  
HETATM   11  N   UNL     1     -11.613  15.272  69.641  1.00  0.00    -0.298 NA 
HETATM   12  C   UNL     1     -11.935  13.954  69.864  1.00  0.00    -0.341 C  
HETATM   13  C   UNL     1     -11.613  13.011  68.944  1.00  0.00    -0.355 C  
HETATM   14  C   UNL     1     -12.630  13.699  71.179  1.00  0.00    -0.452 C  
HETATM   15  C   UNL     1     -10.928  13.414  67.627  1.00  0.00    -0.277 C  
BRANCH  13  16
HETATM   16  C   UNL     1     -11.837  11.582  69.295  1.00  0.00    -0.348 C  
HETATM   17  O   UNL     1     -12.634  10.866  68.707  1.00  0.00    -0.317 OA 
BRANCH  16  18
HETATM   18  O   UNL     1     -11.088  11.171  70.351  1.00  0.00    -0.097 OA 
BRANCH  18  19
HETATM   19  C   UNL     1     -10.884   9.738  70.396  1.00  0.00    -0.311 C  
HETATM   20  C   UNL     1      -9.394   9.429  70.277  1.00  0.00    -0.294 C  
HETATM   21  C   UNL     1     -11.447   9.199  71.705  1.00  0.00    -0.451 C  
ENDBRANCH  18  19
ENDBRANCH  16  18
ENDBRANCH  13  16
BRANCH  15  22
HETATM   22  C   UNL     1      -9.729  12.516  67.300  1.00  0.00    -0.202 A  
HETATM   23  C   UNL     1      -8.629  12.462  68.177  1.00  0.00    -0.185 A  
HETATM   24  C   UNL     1      -9.710  11.725  66.141  1.00  0.00    -0.250 A  
HETATM   25  C   UNL     1      -7.532  11.641  67.905  1.00  0.00    -0.105 A  
HETATM   26  O   UNL     1      -9.582  10.142  63.912  1.00  0.00    -0.291 OA 
HETATM   27  O   UNL     1      -7.606   9.363  64.457  1.00  0.00    -0.103 OA 
HETATM   28  C   UNL     1      -8.605  10.904  65.873  1.00  0.00    -0.176 A  
HETATM   29  N   UNL     1      -8.601  10.077  64.660  1.00  0.00    -0.167 N  
HETATM   30  C   UNL     1      -7.516  10.860  66.751  1.00  0.00    -0.134 A  
ENDBRANCH  15  22
ENDBRANCH   6   8
ENDBRANCH   5   6
ENDBRANCH   4   5
ENDBRANCH   3   4
ENDBRANCH   2   3
TORSDOF 9
ENDMDL
MODEL       36
REMARK 921   NORMALIZED FREE ENERGY PREDICTED BY IDOCK:   -5.26 KCAL/MOL
REMARK 922        TOTAL FREE ENERGY PREDICTED BY IDOCK:   -9.61 KCAL/MOL
REMARK 923 INTER-LIGAND FREE ENERGY PREDICTED BY IDOCK:   -8.30 KCAL/MOL
REMARK 924 INTRA-LIGAND FREE ENERGY PREDICTED BY IDOCK:   -1.30 KCAL/MOL
REMARK 927      BINDING AFFINITY PREDICTED BY RF-SCORE:    0.00 PKD
ROOT
HETATM    1  C   UNL     1     -10.783  17.633  65.632  1.00  0.00    -0.084 C  
HETATM    2  O   UNL     1     -11.229  16.812  64.563  1.00  0.00    -0.997 OA 
ENDROOT
BRANCH   2   3
HETATM    3  C   UNL     1     -10.823  15.455  64.745  1.00  0.00    -0.364 C  
BRANCH   3   4
HETATM    4  C   UNL     1     -11.103  15.084  66.185  1.00  0.00    -0.329 C  
BRANCH   4   5
HETATM    5  O   UNL     1     -10.606  13.789  66.544  1.00  0.00    -0.276 OA 
BRANCH   5   6
HETATM    6  C   UNL     1     -11.577  12.851  66.636  1.00  0.00    -0.372 C  
HETATM    7  O   UNL     1     -12.492  12.725  65.837  1.00  0.00    -0.560 OA 
BRANCH   6   8
HETATM    8  C   UNL     1     -11.431  12.021  67.860  1.00  0.00    -0.396 C  
HETATM    9  C   UNL     1     -11.842  12.429  69.088  1.00  0.00    -0.300 C  
HETATM   10  C   UNL     1     -12.359  13.782  69.524  1.00  0.00    -0.258 C  
HETATM   11  N   UNL     1     -11.834  11.526  70.131  1.00  0.00    -0.348 NA 
HETATM   12  C   UNL     1     -11.296  10.261  70.095  1.00  0.00    -0.316 C  
HETATM   13  C   UNL     1     -10.824   9.755  68.929  1.00  0.00    -0.220 C  
HETATM   14  C   UNL     1     -11.279   9.555  71.430  1.00  0.00    -0.452 C  
HETATM   15  C   UNL     1     -10.930  10.573  67.630  1.00  0.00    -0.375 C  
BRANCH  13  16
HETATM   16  C   UNL     1     -10.108   8.450  68.966  1.00  0.00    -0.203 C  
HETATM   17  O   UNL     1      -8.931   8.342  69.277  1.00  0.00    -0.147 OA 
BRANCH  16  18
HETATM   18  O   UNL     1     -10.891   7.405  68.592  1.00  0.00    -0.150 OA 
BRANCH  18  19
HETATM   19  C   UNL     1     -10.142   6.218  68.236  1.00  0.00    -0.153 C  
HETATM   20  C   UNL     1     -10.300   5.166  69.330  1.00  0.00    -0.265 C  
HETATM   21  C   UNL     1     -10.653   5.693  66.901  1.00  0.00    -0.367 C  
ENDBRANCH  18  19
ENDBRANCH  16  18
ENDBRANCH  13  16
BRANCH  15  22
HETATM   22  C   UNL     1      -9.614  10.582  66.843  1.00  0.00    -0.206 A  
HETATM   23  C   UNL     1      -8.419  10.978  67.473  1.00  0.00    -0.127 A  
HETATM   24  C   UNL     1      -9.570  10.185  65.498  1.00  0.00    -0.310 A  
HETATM   25  C   UNL     1      -7.207  10.982  66.779  1.00  0.00    -0.139 A  
HETATM   26  O   UNL     1      -9.382   9.422  62.876  1.00  0.00    -0.089 OA 
HETATM   27  O   UNL     1      -7.221   9.787  62.821  1.00  0.00    -0.108 OA 
HETATM   28  C   UNL     1      -8.351  10.193  64.806  1.00  0.00    -0.165 A  
HETATM   29  N   UNL     1      -8.318   9.769  63.401  1.00  0.00    -0.152 N  
HETATM   30  C   UNL     1      -7.169  10.590  65.442  1.00  0.00    -0.077 A  
ENDBRANCH  15  22
ENDBRANCH   6   8
ENDBRANCH   5   6
ENDBRANCH   4   5
ENDBRANCH   3   4
ENDBRANCH   2   3
TORSDOF 9
ENDMDL
MODEL       37
REMARK 921   NORMALIZED FREE ENERGY PREDICTED BY IDOCK:   -5.23 KCAL/MOL
REMARK 922        TOTAL FREE ENERGY PREDICTED BY IDOCK:   -9.56 KCAL/MOL
REMARK 923 INTER-LIGAND FREE ENERGY PREDICTED BY IDOCK:   -7.87 KCAL/MOL
REMARK 924 INTRA-LIGAND FREE ENERGY PREDICTED BY IDOCK:   -1.70 KCAL/MOL
REMARK 927      BINDING AFFINITY PREDICTED BY RF-SCORE:    0.00 PKD
ROOT
HETATM    1  C   UNL     1     -10.664   5.616  69.928  1.00  0.00    -0.329 C  
HETATM    2  O   UNL     1     -11.247   6.494  68.976  1.00  0.00    -0.312 OA 
ENDROOT
BRANCH   2   3
HETATM    3  C   UNL     1     -10.867   6.145  67.645  1.00  0.00    -0.332 C  
BRANCH   3   4
HETATM    4  C   UNL     1      -9.891   7.194  67.159  1.00  0.00    -0.181 C  
BRANCH   4   5
HETATM    5  O   UNL     1     -10.526   8.298  66.501  1.00  0.00    -0.255 OA 
BRANCH   5   6
HETATM    6  C   UNL     1      -9.673   9.035  65.752  1.00  0.00    -0.184 C  
HETATM    7  O   UNL     1      -8.698   8.584  65.172  1.00  0.00    -0.180 OA 
BRANCH   6   8
HETATM    8  C   UNL     1     -10.030  10.478  65.764  1.00  0.00    -0.318 C  
HETATM    9  C   UNL     1     -10.147  11.225  64.637  1.00  0.00    -0.290 C  
HETATM   10  C   UNL     1      -9.813  10.859  63.208  1.00  0.00    -0.409 C  
HETATM   11  N   UNL     1     -10.658  12.502  64.731  1.00  0.00    -0.292 NA 
HETATM   12  C   UNL     1     -10.928  13.177  65.898  1.00  0.00    -0.271 C  
HETATM   13  C   UNL     1     -10.816  12.543  67.091  1.00  0.00    -0.282 C  
HETATM   14  C   UNL     1     -11.322  14.622  65.703  1.00  0.00    -0.338 C  
HETATM   15  C   UNL     1     -10.433  11.054  67.145  1.00  0.00    -0.274 C  
BRANCH  13  16
HETATM   16  C   UNL     1     -10.962  13.351  68.333  1.00  0.00    -0.267 C  
HETATM   17  O   UNL     1     -10.082  14.081  68.763  1.00  0.00    -0.229 OA 
BRANCH  16  18
HETATM   18  O   UNL     1     -12.159  13.166  68.948  1.00  0.00    -0.301 OA 
BRANCH  18  19
HETATM   19  C   UNL     1     -12.058  13.028  70.386  1.00  0.00    -0.314 C  
HETATM   20  C   UNL     1     -12.908  14.099  71.064  1.00  0.00    -0.421 C  
HETATM   21  C   UNL     1     -12.524  11.634  70.783  1.00  0.00    -0.425 C  
ENDBRANCH  18  19
ENDBRANCH  16  18
ENDBRANCH  13  16
BRANCH  15  22
HETATM   22  C   UNL     1      -9.335  10.776  68.180  1.00  0.00    -0.155 A  
HETATM   23  C   UNL     1      -8.031  11.263  67.972  1.00  0.00    -0.119 A  
HETATM   24  C   UNL     1      -9.609  10.054  69.351  1.00  0.00    -0.237 A  
HETATM   25  C   UNL     1      -7.020  11.032  68.907  1.00  0.00    -0.088 A  
HETATM   26  O   UNL     1     -10.046   8.662  71.667  1.00  0.00    -0.238 OA 
HETATM   27  O   UNL     1      -7.964   8.890  72.315  1.00  0.00    -0.371 OA 
HETATM   28  C   UNL     1      -8.589   9.825  70.285  1.00  0.00    -0.129 A  
HETATM   29  N   UNL     1      -8.892   9.072  71.510  1.00  0.00    -0.171 N  
HETATM   30  C   UNL     1      -7.296  10.311  70.068  1.00  0.00    -0.157 A  
ENDBRANCH  15  22
ENDBRANCH   6   8
ENDBRANCH   5   6
ENDBRANCH   4   5
ENDBRANCH   3   4
ENDBRANCH   2   3
TORSDOF 9
ENDMDL
MODEL       38
REMARK 921   NORMALIZED FREE ENERGY PREDICTED BY IDOCK:   -5.21 KCAL/MOL
REMARK 922        TOTAL FREE ENERGY PREDICTED BY IDOCK:   -9.53 KCAL/MOL
REMARK 923 INTER-LIGAND FREE ENERGY PREDICTED BY IDOCK:   -7.90 KCAL/MOL
REMARK 924 INTRA-LIGAND FREE ENERGY PREDICTED BY IDOCK:   -1.63 KCAL/MOL
REMARK 927      BINDING AFFINITY PREDICTED BY RF-SCORE:    0.00 PKD
ROOT
HETATM    1  C   UNL     1     -13.524  15.692  72.992  1.00  0.00    -0.562 C  
HETATM    2  O   UNL     1     -13.363  14.285  72.903  1.00  0.00    -0.537 OA 
ENDROOT
BRANCH   2   3
HETATM    3  C   UNL     1     -13.306  13.851  71.543  1.00  0.00    -0.335 C  
BRANCH   3   4
HETATM    4  C   UNL     1     -12.920  12.388  71.547  1.00  0.00    -0.285 C  
BRANCH   4   5
HETATM    5  O   UNL     1     -11.963  12.051  70.535  1.00  0.00    -0.351 OA 
BRANCH   5   6
HETATM    6  C   UNL     1     -12.266  10.911  69.873  1.00  0.00    -0.336 C  
HETATM    7  O   UNL     1     -13.402  10.530  69.638  1.00  0.00     0.167 OA 
BRANCH   6   8
HETATM    8  C   UNL     1     -11.048  10.141  69.509  1.00  0.00    -0.295 C  
HETATM    9  C   UNL     1     -10.442   9.266  70.352  1.00  0.00    -0.245 C  
HETATM   10  C   UNL     1     -10.726   8.990  71.812  1.00  0.00    -0.437 C  
HETATM   11  N   UNL     1      -9.429   8.464  69.869  1.00  0.00    -0.166 NA 
HETATM   12  C   UNL     1      -8.844   8.565  68.629  1.00  0.00    -0.136 C  
HETATM   13  C   UNL     1      -9.343   9.430  67.711  1.00  0.00    -0.144 C  
HETATM   14  C   UNL     1      -7.647   7.668  68.431  1.00  0.00    -0.113 C  
HETATM   15  C   UNL     1     -10.593  10.268  68.033  1.00  0.00    -0.272 C  
BRANCH  13  16
HETATM   16  C   UNL     1      -8.588   9.623  66.443  1.00  0.00    -0.127 C  
HETATM   17  O   UNL     1      -7.519  10.213  66.385  1.00  0.00    -0.100 OA 
BRANCH  16  18
HETATM   18  O   UNL     1      -9.225   9.103  65.361  1.00  0.00    -0.219 OA 
BRANCH  18  19
HETATM   19  C   UNL     1      -8.769   9.650  64.101  1.00  0.00    -0.216 C  
HETATM   20  C   UNL     1      -8.486   8.514  63.122  1.00  0.00    -0.061 C  
HETATM   21  C   UNL     1      -9.839  10.585  63.552  1.00  0.00    -0.339 C  
ENDBRANCH  18  19
ENDBRANCH  16  18
ENDBRANCH  13  16
BRANCH  15  22
HETATM   22  C   UNL     1     -10.414  11.743  67.655  1.00  0.00    -0.223 A  
HETATM   23  C   UNL     1      -9.424  12.518  68.288  1.00  0.00    -0.201 A  
HETATM   24  C   UNL     1     -11.214  12.340  66.668  1.00  0.00    -0.367 A  
HETATM   25  C   UNL     1      -9.236  13.860  67.949  1.00  0.00    -0.198 A  
HETATM   26  O   UNL     1     -12.716  13.592  64.753  1.00  0.00    -0.639 OA 
HETATM   27  O   UNL     1     -11.659  15.494  65.024  1.00  0.00    -0.251 OA 
HETATM   28  C   UNL     1     -11.020  13.688  66.334  1.00  0.00    -0.297 A  
HETATM   29  N   UNL     1     -11.859  14.299  65.295  1.00  0.00    -0.360 N  
HETATM   30  C   UNL     1     -10.035  14.450  66.971  1.00  0.00    -0.257 A  
ENDBRANCH  15  22
ENDBRANCH   6   8
ENDBRANCH   5   6
ENDBRANCH   4   5
ENDBRANCH   3   4
ENDBRANCH   2   3
TORSDOF 9
ENDMDL
MODEL       39
REMARK 921   NORMALIZED FREE ENERGY PREDICTED BY IDOCK:   -5.18 KCAL/MOL
REMARK 922        TOTAL FREE ENERGY PREDICTED BY IDOCK:   -9.49 KCAL/MOL
REMARK 923 INTER-LIGAND FREE ENERGY PREDICTED BY IDOCK:   -7.88 KCAL/MOL
REMARK 924 INTRA-LIGAND FREE ENERGY PREDICTED BY IDOCK:   -1.61 KCAL/MOL
REMARK 927      BINDING AFFINITY PREDICTED BY RF-SCORE:    0.00 PKD
ROOT
HETATM    1  C   UNL     1     -10.406  18.374  66.286  1.00  0.00    -0.415 C  
HETATM    2  O   UNL     1     -10.571  17.531  65.155  1.00  0.00    -0.657 OA 
ENDROOT
BRANCH   2   3
HETATM    3  C   UNL     1     -10.253  16.174  65.466  1.00  0.00    -0.331 C  
BRANCH   3   4
HETATM    4  C   UNL     1      -9.046  16.187  66.378  1.00  0.00    -0.304 C  
BRANCH   4   5
HETATM    5  O   UNL     1      -8.411  14.908  66.497  1.00  0.00    -0.188 OA 
BRANCH   5   6
HETATM    6  C   UNL     1      -8.011  14.625  67.758  1.00  0.00    -0.156 C  
HETATM    7  O   UNL     1      -7.718  15.466  68.594  1.00  0.00    -0.129 OA 
BRANCH   6   8
HETATM    8  C   UNL     1      -7.913  13.161  67.994  1.00  0.00    -0.156 C  
HETATM    9  C   UNL     1      -6.753  12.465  67.880  1.00  0.00    -0.100 C  
HETATM   10  C   UNL     1      -5.407  12.925  67.369  1.00  0.00     0.007 C  
HETATM   11  N   UNL     1      -6.720  11.149  68.292  1.00  0.00    -0.058 NA 
HETATM   12  C   UNL     1      -7.805  10.398  68.676  1.00  0.00    -0.108 C  
HETATM   13  C   UNL     1      -9.025  10.978  68.795  1.00  0.00    -0.153 C  
HETATM   14  C   UNL     1      -7.498   8.939  68.917  1.00  0.00    -0.082 C  
HETATM   15  C   UNL     1      -9.194  12.487  68.548  1.00  0.00    -0.071 C  
BRANCH  13  16
HETATM   16  C   UNL     1     -10.199  10.100  69.058  1.00  0.00    -0.206 C  
HETATM   17  O   UNL     1     -10.855   9.578  68.169  1.00  0.00    -0.222 OA 
BRANCH  16  18
HETATM   18  O   UNL     1     -10.478   9.968  70.381  1.00  0.00    -0.281 OA 
BRANCH  18  19
HETATM   19  C   UNL     1     -11.894   9.991  70.680  1.00  0.00    -0.325 C  
HETATM   20  C   UNL     1     -12.170   9.133  71.913  1.00  0.00    -0.449 C  
HETATM   21  C   UNL     1     -12.328  11.431  70.914  1.00  0.00    -0.483 C  
ENDBRANCH  18  19
ENDBRANCH  16  18
ENDBRANCH  13  16
BRANCH  15  22
HETATM   22  C   UNL     1     -10.393  12.795  67.643  1.00  0.00    -0.221 A  
HETATM   23  C   UNL     1     -11.406  13.667  68.086  1.00  0.00    -0.321 A  
HETATM   24  C   UNL     1     -10.498  12.232  66.362  1.00  0.00    -0.263 A  
HETATM   25  C   UNL     1     -12.500  13.970  67.274  1.00  0.00    -0.026 A  
HETATM   26  O   UNL     1     -10.788  11.190  63.848  1.00  0.00    -0.380 OA 
HETATM   27  O   UNL     1     -12.683  12.244  63.522  1.00  0.00    -0.729 OA 
HETATM   28  C   UNL     1     -11.600  12.539  65.552  1.00  0.00    -0.386 A  
HETATM   29  N   UNL     1     -11.694  11.948  64.211  1.00  0.00    -0.328 N  
HETATM   30  C   UNL     1     -12.601  13.406  66.003  1.00  0.00    -0.361 A  
ENDBRANCH  15  22
ENDBRANCH   6   8
ENDBRANCH   5   6
ENDBRANCH   4   5
ENDBRANCH   3   4
ENDBRANCH   2   3
TORSDOF 9
ENDMDL
MODEL       40
REMARK 921   NORMALIZED FREE ENERGY PREDICTED BY IDOCK:   -5.18 KCAL/MOL
REMARK 922        TOTAL FREE ENERGY PREDICTED BY IDOCK:   -9.48 KCAL/MOL
REMARK 923 INTER-LIGAND FREE ENERGY PREDICTED BY IDOCK:   -8.29 KCAL/MOL
REMARK 924 INTRA-LIGAND FREE ENERGY PREDICTED BY IDOCK:   -1.19 KCAL/MOL
REMARK 927      BINDING AFFINITY PREDICTED BY RF-SCORE:    0.00 PKD
ROOT
HETATM    1  C   UNL     1     -14.360  15.237  71.873  1.00  0.00    -0.589 C  
HETATM    2  O   UNL     1     -13.172  15.616  71.195  1.00  0.00    -0.504 OA 
ENDROOT
BRANCH   2   3
HETATM    3  C   UNL     1     -12.678  14.556  70.376  1.00  0.00    -0.322 C  
BRANCH   3   4
HETATM    4  C   UNL     1     -11.402  15.041  69.723  1.00  0.00    -0.283 C  
BRANCH   4   5
HETATM    5  O   UNL     1     -11.323  14.723  68.328  1.00  0.00    -0.274 OA 
BRANCH   5   6
HETATM    6  C   UNL     1     -10.084  14.345  67.936  1.00  0.00    -0.228 C  
HETATM    7  O   UNL     1      -9.048  14.731  68.455  1.00  0.00    -0.175 OA 
BRANCH   6   8
HETATM    8  C   UNL     1     -10.127  13.444  66.755  1.00  0.00    -0.260 C  
HETATM    9  C   UNL     1     -10.468  13.864  65.510  1.00  0.00    -0.323 C  
HETATM   10  C   UNL     1     -11.007  15.207  65.068  1.00  0.00    -0.443 C  
HETATM   11  N   UNL     1     -10.305  13.004  64.445  1.00  0.00    -0.393 NA 
HETATM   12  C   UNL     1      -9.967  11.674  64.529  1.00  0.00    -0.253 C  
HETATM   13  C   UNL     1      -9.636  11.131  65.727  1.00  0.00    -0.255 C  
HETATM   14  C   UNL     1     -10.023  10.934  63.214  1.00  0.00    -0.399 C  
HETATM   15  C   UNL     1      -9.590  12.009  66.990  1.00  0.00    -0.200 C  
BRANCH  13  16
HETATM   16  C   UNL     1      -9.432   9.659  65.800  1.00  0.00    -0.246 C  
HETATM   17  O   UNL     1     -10.279   8.886  66.224  1.00  0.00    -0.284 OA 
BRANCH  16  18
HETATM   18  O   UNL     1      -8.200   9.272  65.376  1.00  0.00    -0.117 OA 
BRANCH  18  19
HETATM   19  C   UNL     1      -7.137  10.161  65.792  1.00  0.00    -0.127 C  
HETATM   20  C   UNL     1      -6.630   9.743  67.170  1.00  0.00    -0.070 C  
HETATM   21  C   UNL     1      -6.017  10.108  64.762  1.00  0.00    -0.123 C  
ENDBRANCH  18  19
ENDBRANCH  16  18
ENDBRANCH  13  16
BRANCH  15  22
HETATM   22  C   UNL     1     -10.313  11.357  68.175  1.00  0.00    -0.206 A  
HETATM   23  C   UNL     1     -11.713  11.451  68.286  1.00  0.00    -0.359 A  
HETATM   24  C   UNL     1      -9.603  10.644  69.154  1.00  0.00    -0.193 A  
HETATM   25  C   UNL     1     -12.392  10.854  69.350  1.00  0.00    -0.188 A  
HETATM   26  O   UNL     1      -8.309   9.230  71.107  1.00  0.00    -0.291 OA 
HETATM   27  O   UNL     1     -10.179   8.785  72.163  1.00  0.00    -0.325 OA 
HETATM   28  C   UNL     1     -10.291  10.048  70.220  1.00  0.00    -0.242 A  
HETATM   29  N   UNL     1      -9.536   9.301  71.234  1.00  0.00    -0.251 N  
HETATM   30  C   UNL     1     -11.682  10.150  70.322  1.00  0.00    -0.361 A  
ENDBRANCH  15  22
ENDBRANCH   6   8
ENDBRANCH   5   6
ENDBRANCH   4   5
ENDBRANCH   3   4
ENDBRANCH   2   3
TORSDOF 9
ENDMDL
MODEL       41
REMARK 921   NORMALIZED FREE ENERGY PREDICTED BY IDOCK:   -5.16 KCAL/MOL
REMARK 922        TOTAL FREE ENERGY PREDICTED BY IDOCK:   -9.45 KCAL/MOL
REMARK 923 INTER-LIGAND FREE ENERGY PREDICTED BY IDOCK:   -8.32 KCAL/MOL
REMARK 924 INTRA-LIGAND FREE ENERGY PREDICTED BY IDOCK:   -1.13 KCAL/MOL
REMARK 927      BINDING AFFINITY PREDICTED BY RF-SCORE:    0.00 PKD
ROOT
HETATM    1  C   UNL     1     -13.672  13.224  72.309  1.00  0.00    -0.589 C  
HETATM    2  O   UNL     1     -13.995  14.567  71.983  1.00  0.00    -0.410 OA 
ENDROOT
BRANCH   2   3
HETATM    3  C   UNL     1     -13.192  15.049  70.904  1.00  0.00    -0.399 C  
BRANCH   3   4
HETATM    4  C   UNL     1     -12.192  13.966  70.562  1.00  0.00    -0.373 C  
BRANCH   4   5
HETATM    5  O   UNL     1     -12.146  13.658  69.163  1.00  0.00    -0.345 OA 
BRANCH   5   6
HETATM    6  C   UNL     1     -10.894  13.698  68.649  1.00  0.00    -0.263 C  
HETATM    7  O   UNL     1      -9.985  14.379  69.098  1.00  0.00    -0.180 OA 
BRANCH   6   8
HETATM    8  C   UNL     1     -10.769  12.856  67.431  1.00  0.00    -0.252 C  
HETATM    9  C   UNL     1     -11.491  13.068  66.301  1.00  0.00    -0.337 C  
HETATM   10  C   UNL     1     -12.633  14.031  66.062  1.00  0.00    -0.452 C  
HETATM   11  N   UNL     1     -11.180  12.354  65.164  1.00  0.00    -0.306 NA 
HETATM   12  C   UNL     1     -10.289  11.309  65.088  1.00  0.00    -0.295 C  
HETATM   13  C   UNL     1      -9.532  10.982  66.164  1.00  0.00    -0.230 C  
HETATM   14  C   UNL     1     -10.270  10.604  63.753  1.00  0.00    -0.266 C  
HETATM   15  C   UNL     1      -9.629  11.806  67.460  1.00  0.00    -0.179 C  
BRANCH  13  16
HETATM   16  C   UNL     1      -8.700   9.750  66.091  1.00  0.00    -0.136 C  
HETATM   17  O   UNL     1      -7.479   9.770  66.036  1.00  0.00    -0.097 OA 
BRANCH  16  18
HETATM   18  O   UNL     1      -9.439   8.611  66.061  1.00  0.00    -0.225 OA 
BRANCH  18  19
HETATM   19  C   UNL     1      -8.932   7.566  66.925  1.00  0.00    -0.135 C  
HETATM   20  C   UNL     1     -10.040   7.092  67.860  1.00  0.00    -0.204 C  
HETATM   21  C   UNL     1      -8.419   6.418  66.065  1.00  0.00    -0.144 C  
ENDBRANCH  18  19
ENDBRANCH  16  18
ENDBRANCH  13  16
BRANCH  15  22
HETATM   22  C   UNL     1      -9.754  10.917  68.703  1.00  0.00    -0.188 A  
HETATM   23  C   UNL     1      -8.605  10.339  69.275  1.00  0.00    -0.175 A  
HETATM   24  C   UNL     1     -11.001  10.676  69.300  1.00  0.00    -0.294 A  
HETATM   25  C   UNL     1      -8.695   9.536  70.414  1.00  0.00    -0.265 A  
HETATM   26  O   UNL     1     -13.385  10.153  70.539  1.00  0.00    -0.245 OA 
HETATM   27  O   UNL     1     -12.430   8.909  72.071  1.00  0.00    -0.342 OA 
HETATM   28  C   UNL     1     -11.085   9.868  70.442  1.00  0.00    -0.319 A  
HETATM   29  N   UNL     1     -12.395   9.629  71.060  1.00  0.00    -0.314 N  
HETATM   30  C   UNL     1      -9.936   9.296  71.001  1.00  0.00    -0.364 A  
ENDBRANCH  15  22
ENDBRANCH   6   8
ENDBRANCH   5   6
ENDBRANCH   4   5
ENDBRANCH   3   4
ENDBRANCH   2   3
TORSDOF 9
ENDMDL
MODEL       42
REMARK 921   NORMALIZED FREE ENERGY PREDICTED BY IDOCK:   -5.15 KCAL/MOL
REMARK 922        TOTAL FREE ENERGY PREDICTED BY IDOCK:   -9.44 KCAL/MOL
REMARK 923 INTER-LIGAND FREE ENERGY PREDICTED BY IDOCK:   -7.67 KCAL/MOL
REMARK 924 INTRA-LIGAND FREE ENERGY PREDICTED BY IDOCK:   -1.77 KCAL/MOL
REMARK 927      BINDING AFFINITY PREDICTED BY RF-SCORE:    0.00 PKD
ROOT
HETATM    1  C   UNL     1     -10.496  19.542  65.899  1.00  0.00    -0.491 C  
HETATM    2  O   UNL     1     -10.927  18.410  65.158  1.00  0.00    -0.604 OA 
ENDROOT
BRANCH   2   3
HETATM    3  C   UNL     1     -10.410  17.198  65.711  1.00  0.00    -0.240 C  
BRANCH   3   4
HETATM    4  C   UNL     1      -9.379  17.576  66.752  1.00  0.00    -0.265 C  
BRANCH   4   5
HETATM    5  O   UNL     1      -8.329  16.610  66.887  1.00  0.00    -0.176 OA 
BRANCH   5   6
HETATM    6  C   UNL     1      -8.331  15.984  68.087  1.00  0.00    -0.160 C  
HETATM    7  O   UNL     1      -8.676  16.504  69.136  1.00  0.00    -0.232 OA 
BRANCH   6   8
HETATM    8  C   UNL     1      -7.805  14.597  67.989  1.00  0.00    -0.136 C  
HETATM    9  C   UNL     1      -6.494  14.311  67.789  1.00  0.00    -0.166 C  
HETATM   10  C   UNL     1      -5.346  15.246  67.477  1.00  0.00     0.069 C  
HETATM   11  N   UNL     1      -6.071  13.002  67.893  1.00  0.00    -0.115 NA 
HETATM   12  C   UNL     1      -6.885  11.902  68.030  1.00  0.00    -0.072 C  
HETATM   13  C   UNL     1      -8.220  12.062  68.205  1.00  0.00    -0.163 C  
HETATM   14  C   UNL     1      -6.161  10.579  67.951  1.00  0.00    -0.058 C  
HETATM   15  C   UNL     1      -8.827  13.473  68.298  1.00  0.00    -0.179 C  
BRANCH  13  16
HETATM   16  C   UNL     1      -9.082  10.848  68.190  1.00  0.00    -0.155 C  
HETATM   17  O   UNL     1      -9.371  10.246  67.167  1.00  0.00    -0.151 OA 
BRANCH  16  18
HETATM   18  O   UNL     1      -9.533  10.503  69.424  1.00  0.00    -0.203 OA 
BRANCH  18  19
HETATM   19  C   UNL     1     -10.915  10.073  69.437  1.00  0.00    -0.244 C  
HETATM   20  C   UNL     1     -11.048   8.801  70.272  1.00  0.00    -0.240 C  
HETATM   21  C   UNL     1     -11.776  11.190  70.011  1.00  0.00    -0.438 C  
ENDBRANCH  18  19
ENDBRANCH  16  18
ENDBRANCH  13  16
BRANCH  15  22
HETATM   22  C   UNL     1     -10.072  13.626  67.416  1.00  0.00    -0.241 A  
HETATM   23  C   UNL     1     -11.254  14.172  67.954  1.00  0.00    -0.299 A  
HETATM   24  C   UNL     1     -10.056  13.245  66.066  1.00  0.00    -0.301 A  
HETATM   25  C   UNL     1     -12.395  14.332  67.166  1.00  0.00    -0.169 A  
HETATM   26  O   UNL     1     -10.122  12.539  63.423  1.00  0.00    -0.396 OA 
HETATM   27  O   UNL     1     -12.211  13.169  63.203  1.00  0.00    -0.631 OA 
HETATM   28  C   UNL     1     -11.206  13.407  65.281  1.00  0.00    -0.289 A  
HETATM   29  N   UNL     1     -11.174  13.010  63.868  1.00  0.00    -0.404 N  
HETATM   30  C   UNL     1     -12.376  13.948  65.826  1.00  0.00    -0.518 A  
ENDBRANCH  15  22
ENDBRANCH   6   8
ENDBRANCH   5   6
ENDBRANCH   4   5
ENDBRANCH   3   4
ENDBRANCH   2   3
TORSDOF 9
ENDMDL
MODEL       43
REMARK 921   NORMALIZED FREE ENERGY PREDICTED BY IDOCK:   -5.14 KCAL/MOL
REMARK 922        TOTAL FREE ENERGY PREDICTED BY IDOCK:   -9.42 KCAL/MOL
REMARK 923 INTER-LIGAND FREE ENERGY PREDICTED BY IDOCK:   -8.48 KCAL/MOL
REMARK 924 INTRA-LIGAND FREE ENERGY PREDICTED BY IDOCK:   -0.95 KCAL/MOL
REMARK 927      BINDING AFFINITY PREDICTED BY RF-SCORE:    0.00 PKD
ROOT
HETATM    1  C   UNL     1     -12.562   7.163  71.238  1.00  0.00    -0.380 C  
HETATM    2  O   UNL     1     -12.674   8.175  72.227  1.00  0.00    -0.313 OA 
ENDROOT
BRANCH   2   3
HETATM    3  C   UNL     1     -12.311   9.455  71.706  1.00  0.00    -0.394 C  
BRANCH   3   4
HETATM    4  C   UNL     1     -11.168   9.244  70.738  1.00  0.00    -0.288 C  
BRANCH   4   5
HETATM    5  O   UNL     1     -10.819  10.426  70.006  1.00  0.00    -0.275 OA 
BRANCH   5   6
HETATM    6  C   UNL     1     -11.895  11.145  69.609  1.00  0.00    -0.348 C  
HETATM    7  O   UNL     1     -12.848  10.683  69.002  1.00  0.00     0.033 OA 
BRANCH   6   8
HETATM    8  C   UNL     1     -11.756  12.585  69.951  1.00  0.00    -0.327 C  
HETATM    9  C   UNL     1     -12.344  13.153  71.034  1.00  0.00    -0.265 C  
HETATM   10  C   UNL     1     -13.343  12.558  72.003  1.00  0.00    -0.528 C  
HETATM   11  N   UNL     1     -12.014  14.448  71.373  1.00  0.00    -0.325 NA 
HETATM   12  C   UNL     1     -11.245  15.305  70.622  1.00  0.00    -0.321 C  
HETATM   13  C   UNL     1     -10.630  14.859  69.499  1.00  0.00    -0.242 C  
HETATM   14  C   UNL     1     -11.185  16.716  71.156  1.00  0.00     0.193 C  
HETATM   15  C   UNL     1     -10.750  13.383  69.083  1.00  0.00    -0.097 C  
BRANCH  13  16
HETATM   16  C   UNL     1      -9.940  15.854  68.633  1.00  0.00    -0.214 C  
HETATM   17  O   UNL     1      -8.743  15.810  68.387  1.00  0.00    -0.168 OA 
BRANCH  16  18
HETATM   18  O   UNL     1     -10.771  16.825  68.173  1.00  0.00    -0.336 OA 
BRANCH  18  19
HETATM   19  C   UNL     1     -10.105  17.827  67.369  1.00  0.00    -0.338 C  
HETATM   20  C   UNL     1     -10.553  17.699  65.916  1.00  0.00    -0.203 C  
HETATM   21  C   UNL     1     -10.439  19.207  67.921  1.00  0.00    -0.492 C  
ENDBRANCH  18  19
ENDBRANCH  16  18
ENDBRANCH  13  16
BRANCH  15  22
HETATM   22  C   UNL     1     -11.087  13.226  67.595  1.00  0.00    -0.292 A  
HETATM   23  C   UNL     1     -12.217  13.872  67.057  1.00  0.00    -0.392 A  
HETATM   24  C   UNL     1     -10.277  12.459  66.745  1.00  0.00    -0.234 A  
HETATM   25  C   UNL     1     -12.535  13.753  65.702  1.00  0.00    -0.541 A  
HETATM   26  O   UNL     1      -8.755  10.992  65.006  1.00  0.00    -0.146 OA 
HETATM   27  O   UNL     1     -10.062  11.463  63.309  1.00  0.00    -0.345 OA 
HETATM   28  C   UNL     1     -10.603  12.343  65.386  1.00  0.00    -0.284 A  
HETATM   29  N   UNL     1      -9.742  11.542  64.506  1.00  0.00    -0.230 N  
HETATM   30  C   UNL     1     -11.729  12.987  64.862  1.00  0.00    -0.381 A  
ENDBRANCH  15  22
ENDBRANCH   6   8
ENDBRANCH   5   6
ENDBRANCH   4   5
ENDBRANCH   3   4
ENDBRANCH   2   3
TORSDOF 9
ENDMDL
MODEL       44
REMARK 921   NORMALIZED FREE ENERGY PREDICTED BY IDOCK:   -5.12 KCAL/MOL
REMARK 922        TOTAL FREE ENERGY PREDICTED BY IDOCK:   -9.39 KCAL/MOL
REMARK 923 INTER-LIGAND FREE ENERGY PREDICTED BY IDOCK:   -7.84 KCAL/MOL
REMARK 924 INTRA-LIGAND FREE ENERGY PREDICTED BY IDOCK:   -1.55 KCAL/MOL
REMARK 927      BINDING AFFINITY PREDICTED BY RF-SCORE:    0.00 PKD
ROOT
HETATM    1  C   UNL     1      -9.827   4.837  70.715  1.00  0.00    -0.210 C  
HETATM    2  O   UNL     1      -9.708   5.320  69.386  1.00  0.00    -0.145 OA 
ENDROOT
BRANCH   2   3
HETATM    3  C   UNL     1     -10.898   5.990  68.967  1.00  0.00    -0.342 C  
BRANCH   3   4
HETATM    4  C   UNL     1     -10.841   6.121  67.460  1.00  0.00    -0.332 C  
BRANCH   4   5
HETATM    5  O   UNL     1     -11.154   7.439  66.993  1.00  0.00    -0.268 OA 
BRANCH   5   6
HETATM    6  C   UNL     1     -10.058   8.183  66.717  1.00  0.00    -0.295 C  
HETATM    7  O   UNL     1      -8.947   7.722  66.504  1.00  0.00    -0.145 OA 
BRANCH   6   8
HETATM    8  C   UNL     1     -10.352   9.639  66.758  1.00  0.00    -0.292 C  
HETATM    9  C   UNL     1     -10.223  10.455  65.681  1.00  0.00    -0.238 C  
HETATM   10  C   UNL     1      -9.639  10.155  64.318  1.00  0.00    -0.354 C  
HETATM   11  N   UNL     1     -10.689  11.750  65.762  1.00  0.00    -0.273 NA 
HETATM   12  C   UNL     1     -11.147  12.370  66.901  1.00  0.00    -0.287 C  
HETATM   13  C   UNL     1     -11.289  11.664  68.050  1.00  0.00    -0.366 C  
HETATM   14  C   UNL     1     -11.437  13.842  66.733  1.00  0.00    -0.369 C  
HETATM   15  C   UNL     1     -10.984  10.155  68.075  1.00  0.00    -0.326 C  
BRANCH  13  16
HETATM   16  C   UNL     1     -11.635  12.405  69.293  1.00  0.00    -0.319 C  
HETATM   17  O   UNL     1     -10.968  13.334  69.725  1.00  0.00     0.043 OA 
BRANCH  16  18
HETATM   18  O   UNL     1     -12.745  11.921  69.909  1.00  0.00     0.077 OA 
BRANCH  18  19
HETATM   19  C   UNL     1     -12.682  11.982  71.353  1.00  0.00    -0.275 C  
HETATM   20  C   UNL     1     -13.360  13.259  71.842  1.00  0.00    -0.540 C  
HETATM   21  C   UNL     1     -13.364  10.750  71.931  1.00  0.00    -0.445 C  
ENDBRANCH  18  19
ENDBRANCH  16  18
ENDBRANCH  13  16
BRANCH  15  22
HETATM   22  C   UNL     1     -10.115   9.761  69.275  1.00  0.00    -0.207 A  
HETATM   23  C   UNL     1      -8.747  10.093  69.294  1.00  0.00    -0.186 A  
HETATM   24  C   UNL     1     -10.662   9.084  70.376  1.00  0.00    -0.267 A  
HETATM   25  C   UNL     1      -7.940   9.754  70.382  1.00  0.00    -0.139 A  
HETATM   26  O   UNL     1     -11.638   7.770  72.569  1.00  0.00    -0.343 OA 
HETATM   27  O   UNL     1      -9.681   7.761  73.559  1.00  0.00    -0.291 OA 
HETATM   28  C   UNL     1      -9.847   8.746  71.464  1.00  0.00    -0.301 A  
HETATM   29  N   UNL     1     -10.434   8.043  72.612  1.00  0.00    -0.314 N  
HETATM   30  C   UNL     1      -8.488   9.078  71.472  1.00  0.00    -0.092 A  
ENDBRANCH  15  22
ENDBRANCH   6   8
ENDBRANCH   5   6
ENDBRANCH   4   5
ENDBRANCH   3   4
ENDBRANCH   2   3
TORSDOF 9
ENDMDL
MODEL       45
REMARK 921   NORMALIZED FREE ENERGY PREDICTED BY IDOCK:   -5.12 KCAL/MOL
REMARK 922        TOTAL FREE ENERGY PREDICTED BY IDOCK:   -9.39 KCAL/MOL
REMARK 923 INTER-LIGAND FREE ENERGY PREDICTED BY IDOCK:   -7.51 KCAL/MOL
REMARK 924 INTRA-LIGAND FREE ENERGY PREDICTED BY IDOCK:   -1.87 KCAL/MOL
REMARK 927      BINDING AFFINITY PREDICTED BY RF-SCORE:    0.00 PKD
ROOT
HETATM    1  C   UNL     1     -11.400  15.929  64.398  1.00  0.00    -0.267 C  
HETATM    2  O   UNL     1     -10.779  16.945  65.170  1.00  0.00    -0.663 OA 
ENDROOT
BRANCH   2   3
HETATM    3  C   UNL     1      -9.966  16.390  66.205  1.00  0.00    -0.323 C  
BRANCH   3   4
HETATM    4  C   UNL     1     -10.080  14.884  66.116  1.00  0.00    -0.298 C  
BRANCH   4   5
HETATM    5  O   UNL     1     -10.434  14.267  67.360  1.00  0.00    -0.261 OA 
BRANCH   5   6
HETATM    6  C   UNL     1     -11.421  13.350  67.239  1.00  0.00    -0.340 C  
HETATM    7  O   UNL     1     -12.241  13.333  66.334  1.00  0.00    -0.402 OA 
BRANCH   6   8
HETATM    8  C   UNL     1     -11.429  12.391  68.374  1.00  0.00    -0.356 C  
HETATM    9  C   UNL     1     -11.949  12.685  69.593  1.00  0.00    -0.286 C  
HETATM   10  C   UNL     1     -12.465  14.005  70.121  1.00  0.00    -0.380 C  
HETATM   11  N   UNL     1     -12.077  11.678  70.527  1.00  0.00    -0.377 NA 
HETATM   12  C   UNL     1     -11.578  10.402  70.407  1.00  0.00    -0.337 C  
HETATM   13  C   UNL     1     -11.006  10.001  69.245  1.00  0.00    -0.264 C  
HETATM   14  C   UNL     1     -11.720   9.560  71.652  1.00  0.00    -0.460 C  
HETATM   15  C   UNL     1     -10.953  10.955  68.038  1.00  0.00    -0.317 C  
BRANCH  13  16
HETATM   16  C   UNL     1     -10.340   8.671  69.210  1.00  0.00    -0.221 C  
HETATM   17  O   UNL     1     -10.858   7.676  68.723  1.00  0.00    -0.127 OA 
BRANCH  16  18
HETATM   18  O   UNL     1      -9.117   8.674  69.801  1.00  0.00    -0.146 OA 
BRANCH  18  19
HETATM   19  C   UNL     1      -8.319   7.506  69.491  1.00  0.00    -0.131 C  
HETATM   20  C   UNL     1      -7.387   7.818  68.323  1.00  0.00    -0.102 C  
HETATM   21  C   UNL     1      -7.525   7.107  70.727  1.00  0.00    -0.080 C  
ENDBRANCH  18  19
ENDBRANCH  16  18
ENDBRANCH  13  16
BRANCH  15  22
HETATM   22  C   UNL     1      -9.564  10.990  67.390  1.00  0.00    -0.180 A  
HETATM   23  C   UNL     1      -8.453  11.440  68.129  1.00  0.00    -0.152 A  
HETATM   24  C   UNL     1      -9.369  10.565  66.067  1.00  0.00    -0.215 A  
HETATM   25  C   UNL     1      -7.177  11.469  67.562  1.00  0.00    -0.111 A  
HETATM   26  O   UNL     1      -8.888   9.749  63.499  1.00  0.00    -0.210 OA 
HETATM   27  O   UNL     1      -6.745  10.185  63.656  1.00  0.00    -0.131 OA 
HETATM   28  C   UNL     1      -8.086  10.597  65.504  1.00  0.00    -0.129 A  
HETATM   29  N   UNL     1      -7.896  10.143  64.121  1.00  0.00    -0.153 N  
HETATM   30  C   UNL     1      -6.989  11.049  66.246  1.00  0.00    -0.095 A  
ENDBRANCH  15  22
ENDBRANCH   6   8
ENDBRANCH   5   6
ENDBRANCH   4   5
ENDBRANCH   3   4
ENDBRANCH   2   3
TORSDOF 9
ENDMDL
MODEL       46
REMARK 921   NORMALIZED FREE ENERGY PREDICTED BY IDOCK:   -5.11 KCAL/MOL
REMARK 922        TOTAL FREE ENERGY PREDICTED BY IDOCK:   -9.38 KCAL/MOL
REMARK 923 INTER-LIGAND FREE ENERGY PREDICTED BY IDOCK:   -7.38 KCAL/MOL
REMARK 924 INTRA-LIGAND FREE ENERGY PREDICTED BY IDOCK:   -2.00 KCAL/MOL
REMARK 927      BINDING AFFINITY PREDICTED BY RF-SCORE:    0.00 PKD
ROOT
HETATM    1  C   UNL     1     -12.317   9.233  71.916  1.00  0.00    -0.382 C  
HETATM    2  O   UNL     1     -11.708  10.269  71.161  1.00  0.00    -0.358 OA 
ENDROOT
BRANCH   2   3
HETATM    3  C   UNL     1     -12.581  10.751  70.138  1.00  0.00    -0.240 C  
BRANCH   3   4
HETATM    4  C   UNL     1     -11.858  11.863  69.409  1.00  0.00    -0.327 C  
BRANCH   4   5
HETATM    5  O   UNL     1     -12.136  11.894  68.004  1.00  0.00    -0.541 OA 
BRANCH   5   6
HETATM    6  C   UNL     1     -11.230  12.607  67.296  1.00  0.00    -0.298 C  
HETATM    7  O   UNL     1     -10.847  13.727  67.595  1.00  0.00    -0.250 OA 
BRANCH   6   8
HETATM    8  C   UNL     1     -10.793  11.887  66.071  1.00  0.00    -0.342 C  
HETATM    9  C   UNL     1     -11.446  11.973  64.884  1.00  0.00    -0.294 C  
HETATM   10  C   UNL     1     -12.768  12.635  64.565  1.00  0.00    -0.439 C  
HETATM   11  N   UNL     1     -10.869  11.419  63.761  1.00  0.00    -0.393 NA 
HETATM   12  C   UNL     1      -9.741  10.632  63.740  1.00  0.00    -0.327 C  
HETATM   13  C   UNL     1      -9.021  10.446  64.874  1.00  0.00    -0.225 C  
HETATM   14  C   UNL     1      -9.432  10.025  62.393  1.00  0.00    -0.224 C  
HETATM   15  C   UNL     1      -9.433  11.152  66.179  1.00  0.00    -0.229 C  
BRANCH  13  16
HETATM   16  C   UNL     1      -7.903   9.464  64.844  1.00  0.00    -0.117 C  
HETATM   17  O   UNL     1      -6.727   9.791  64.784  1.00  0.00    -0.101 OA 
BRANCH  16  18
HETATM   18  O   UNL     1      -8.329   8.174  64.862  1.00  0.00    -0.160 OA 
BRANCH  18  19
HETATM   19  C   UNL     1      -7.266   7.215  65.072  1.00  0.00    -0.074 C  
HETATM   20  C   UNL     1      -7.089   6.967  66.568  1.00  0.00    -0.067 C  
HETATM   21  C   UNL     1      -7.615   5.923  64.346  1.00  0.00    -0.087 C  
ENDBRANCH  18  19
ENDBRANCH  16  18
ENDBRANCH  13  16
BRANCH  15  22
HETATM   22  C   UNL     1      -9.436  10.195  67.377  1.00  0.00    -0.175 A  
HETATM   23  C   UNL     1     -10.311   9.091  67.395  1.00  0.00    -0.335 A  
HETATM   24  C   UNL     1      -8.566  10.386  68.461  1.00  0.00    -0.134 A  
HETATM   25  C   UNL     1     -10.322   8.201  68.471  1.00  0.00    -0.230 A  
HETATM   26  O   UNL     1      -6.904  10.672  70.616  1.00  0.00    -0.303 OA 
HETATM   27  O   UNL     1      -7.706   8.883  71.598  1.00  0.00    -0.260 OA 
HETATM   28  C   UNL     1      -8.583   9.489  69.538  1.00  0.00    -0.169 A  
HETATM   29  N   UNL     1      -7.663   9.698  70.663  1.00  0.00    -0.132 N  
HETATM   30  C   UNL     1      -9.458   8.397  69.547  1.00  0.00    -0.166 A  
ENDBRANCH  15  22
ENDBRANCH   6   8
ENDBRANCH   5   6
ENDBRANCH   4   5
ENDBRANCH   3   4
ENDBRANCH   2   3
TORSDOF 9
ENDMDL
MODEL       47
REMARK 921   NORMALIZED FREE ENERGY PREDICTED BY IDOCK:   -5.06 KCAL/MOL
REMARK 922        TOTAL FREE ENERGY PREDICTED BY IDOCK:   -9.30 KCAL/MOL
REMARK 923 INTER-LIGAND FREE ENERGY PREDICTED BY IDOCK:   -7.53 KCAL/MOL
REMARK 924 INTRA-LIGAND FREE ENERGY PREDICTED BY IDOCK:   -1.78 KCAL/MOL
REMARK 927      BINDING AFFINITY PREDICTED BY RF-SCORE:    0.00 PKD
ROOT
HETATM    1  C   UNL     1     -10.526  17.096  65.331  1.00  0.00    -0.080 C  
HETATM    2  O   UNL     1     -11.408  16.867  64.243  1.00  0.00    -1.202 OA 
ENDROOT
BRANCH   2   3
HETATM    3  C   UNL     1     -11.893  15.523  64.239  1.00  0.00    -0.173 C  
BRANCH   3   4
HETATM    4  C   UNL     1     -10.892  14.676  64.993  1.00  0.00    -0.417 C  
BRANCH   4   5
HETATM    5  O   UNL     1     -10.432  13.542  64.247  1.00  0.00    -0.414 OA 
BRANCH   5   6
HETATM    6  C   UNL     1     -10.854  12.361  64.756  1.00  0.00    -0.304 C  
HETATM    7  O   UNL     1     -12.026  12.056  64.911  1.00  0.00    -0.316 OA 
BRANCH   6   8
HETATM    8  C   UNL     1      -9.717  11.494  65.160  1.00  0.00    -0.268 C  
HETATM    9  C   UNL     1      -9.151  10.577  64.335  1.00  0.00    -0.225 C  
HETATM   10  C   UNL     1      -9.594  10.121  62.962  1.00  0.00    -0.216 C  
HETATM   11  N   UNL     1      -7.989   9.948  64.730  1.00  0.00    -0.137 NA 
HETATM   12  C   UNL     1      -7.407  10.039  65.973  1.00  0.00    -0.112 C  
HETATM   13  C   UNL     1      -7.905  10.900  66.895  1.00  0.00    -0.135 C  
HETATM   14  C   UNL     1      -6.233   9.113  66.180  1.00  0.00    -0.064 C  
HETATM   15  C   UNL     1      -9.093  11.813  66.542  1.00  0.00    -0.203 C  
BRANCH  13  16
HETATM   16  C   UNL     1      -7.348  10.854  68.274  1.00  0.00    -0.087 C  
HETATM   17  O   UNL     1      -6.712  11.773  68.770  1.00  0.00    -0.070 OA 
BRANCH  16  18
HETATM   18  O   UNL     1      -7.593   9.677  68.907  1.00  0.00    -0.073 OA 
BRANCH  18  19
HETATM   19  C   UNL     1      -7.815   9.818  70.330  1.00  0.00    -0.171 C  
HETATM   20  C   UNL     1      -9.143   9.166  70.708  1.00  0.00    -0.313 C  
HETATM   21  C   UNL     1      -6.660   9.168  71.078  1.00  0.00    -0.086 C  
ENDBRANCH  18  19
ENDBRANCH  16  18
ENDBRANCH  13  16
BRANCH  15  22
HETATM   22  C   UNL     1     -10.172  11.804  67.631  1.00  0.00    -0.216 A  
HETATM   23  C   UNL     1     -10.907  10.631  67.886  1.00  0.00    -0.328 A  
HETATM   24  C   UNL     1     -10.437  12.949  68.399  1.00  0.00    -0.260 A  
HETATM   25  C   UNL     1     -11.886  10.597  68.881  1.00  0.00    -0.216 A  
HETATM   26  O   UNL     1     -11.020  15.125  69.953  1.00  0.00    -0.250 OA 
HETATM   27  O   UNL     1     -12.563  14.038  71.070  1.00  0.00    -0.325 OA 
HETATM   28  C   UNL     1     -11.422  12.909  69.395  1.00  0.00    -0.260 A  
HETATM   29  N   UNL     1     -11.684  14.111  70.196  1.00  0.00    -0.288 N  
HETATM   30  C   UNL     1     -12.148  11.738  69.639  1.00  0.00    -0.323 A  
ENDBRANCH  15  22
ENDBRANCH   6   8
ENDBRANCH   5   6
ENDBRANCH   4   5
ENDBRANCH   3   4
ENDBRANCH   2   3
TORSDOF 9
ENDMDL
MODEL       48
REMARK 921   NORMALIZED FREE ENERGY PREDICTED BY IDOCK:   -5.06 KCAL/MOL
REMARK 922        TOTAL FREE ENERGY PREDICTED BY IDOCK:   -9.30 KCAL/MOL
REMARK 923 INTER-LIGAND FREE ENERGY PREDICTED BY IDOCK:   -8.10 KCAL/MOL
REMARK 924 INTRA-LIGAND FREE ENERGY PREDICTED BY IDOCK:   -1.21 KCAL/MOL
REMARK 927      BINDING AFFINITY PREDICTED BY RF-SCORE:    0.00 PKD
ROOT
HETATM    1  C   UNL     1     -10.101  18.028  68.830  1.00  0.00    -0.381 C  
HETATM    2  O   UNL     1     -10.518  16.750  69.286  1.00  0.00    -0.311 OA 
ENDROOT
BRANCH   2   3
HETATM    3  C   UNL     1     -11.553  16.214  68.462  1.00  0.00    -0.265 C  
BRANCH   3   4
HETATM    4  C   UNL     1     -12.369  15.266  69.313  1.00  0.00    -0.093 C  
BRANCH   4   5
HETATM    5  O   UNL     1     -12.362  13.918  68.828  1.00  0.00    -0.288 OA 
BRANCH   5   6
HETATM    6  C   UNL     1     -11.919  13.024  69.742  1.00  0.00    -0.308 C  
HETATM    7  O   UNL     1     -11.878  13.230  70.945  1.00  0.00    -0.138 OA 
BRANCH   6   8
HETATM    8  C   UNL     1     -11.430  11.774  69.103  1.00  0.00    -0.358 C  
HETATM    9  C   UNL     1     -11.574  10.546  69.664  1.00  0.00    -0.271 C  
HETATM   10  C   UNL     1     -12.077  10.176  71.042  1.00  0.00    -0.476 C  
HETATM   11  N   UNL     1     -11.255   9.429  68.921  1.00  0.00     0.046 NA 
HETATM   12  C   UNL     1     -10.645   9.430  67.689  1.00  0.00    -0.271 C  
HETATM   13  C   UNL     1     -10.420  10.601  67.042  1.00  0.00    -0.295 C  
HETATM   14  C   UNL     1     -10.264   8.060  67.182  1.00  0.00    -0.362 C  
HETATM   15  C   UNL     1     -10.887  11.931  67.660  1.00  0.00    -0.271 C  
BRANCH  13  16
HETATM   16  C   UNL     1      -9.618  10.570  65.789  1.00  0.00    -0.210 C  
HETATM   17  O   UNL     1      -8.396  10.534  65.777  1.00  0.00    -0.155 OA 
BRANCH  16  18
HETATM   18  O   UNL     1     -10.383  10.615  64.667  1.00  0.00    -0.345 OA 
BRANCH  18  19
HETATM   19  C   UNL     1     -10.066  11.724  63.792  1.00  0.00    -0.391 C  
HETATM   20  C   UNL     1      -9.373  11.202  62.536  1.00  0.00    -0.271 C  
HETATM   21  C   UNL     1     -11.353  12.457  63.437  1.00  0.00    -0.507 C  
ENDBRANCH  18  19
ENDBRANCH  16  18
ENDBRANCH  13  16
BRANCH  15  22
HETATM   22  C   UNL     1      -9.795  13.005  67.614  1.00  0.00    -0.212 A  
HETATM   23  C   UNL     1      -8.683  12.918  68.475  1.00  0.00    -0.038 A  
HETATM   24  C   UNL     1      -9.870  14.078  66.712  1.00  0.00    -0.275 A  
HETATM   25  C   UNL     1      -7.671  13.879  68.441  1.00  0.00    -0.139 A  
HETATM   26  O   UNL     1      -9.923  16.200  64.985  1.00  0.00    -0.410 OA 
HETATM   27  O   UNL     1      -8.017  16.985  65.734  1.00  0.00    -0.428 OA 
HETATM   28  C   UNL     1      -8.850  15.040  66.684  1.00  0.00    -0.272 A  
HETATM   29  N   UNL     1      -8.938  16.153  65.731  1.00  0.00    -0.187 N  
HETATM   30  C   UNL     1      -7.752  14.945  67.545  1.00  0.00    -0.214 A  
ENDBRANCH  15  22
ENDBRANCH   6   8
ENDBRANCH   5   6
ENDBRANCH   4   5
ENDBRANCH   3   4
ENDBRANCH   2   3
TORSDOF 9
ENDMDL
MODEL       49
REMARK 921   NORMALIZED FREE ENERGY PREDICTED BY IDOCK:   -5.06 KCAL/MOL
REMARK 922        TOTAL FREE ENERGY PREDICTED BY IDOCK:   -9.30 KCAL/MOL
REMARK 923 INTER-LIGAND FREE ENERGY PREDICTED BY IDOCK:   -7.95 KCAL/MOL
REMARK 924 INTRA-LIGAND FREE ENERGY PREDICTED BY IDOCK:   -1.35 KCAL/MOL
REMARK 927      BINDING AFFINITY PREDICTED BY RF-SCORE:    0.00 PKD
ROOT
HETATM    1  C   UNL     1     -13.660  15.638  72.911  1.00  0.00    -0.572 C  
HETATM    2  O   UNL     1     -12.398  15.127  72.511  1.00  0.00    -0.331 OA 
ENDROOT
BRANCH   2   3
HETATM    3  C   UNL     1     -11.687  16.066  71.704  1.00  0.00    -0.506 C  
BRANCH   3   4
HETATM    4  C   UNL     1     -10.931  15.284  70.653  1.00  0.00    -0.284 C  
BRANCH   4   5
HETATM    5  O   UNL     1     -11.342  13.914  70.561  1.00  0.00    -0.040 OA 
BRANCH   5   6
HETATM    6  C   UNL     1     -11.933  13.612  69.381  1.00  0.00    -0.342 C  
HETATM    7  O   UNL     1     -12.777  14.306  68.835  1.00  0.00     0.145 OA 
BRANCH   6   8
HETATM    8  C   UNL     1     -11.476  12.301  68.852  1.00  0.00    -0.355 C  
HETATM    9  C   UNL     1     -11.708  11.122  69.483  1.00  0.00    -0.335 C  
HETATM   10  C   UNL     1     -12.297  10.869  70.853  1.00  0.00    -0.501 C  
HETATM   11  N   UNL     1     -11.408   9.944  68.832  1.00  0.00    -0.079 NA 
HETATM   12  C   UNL     1     -10.738   9.833  67.636  1.00  0.00    -0.274 C  
HETATM   13  C   UNL     1     -10.423  10.946  66.928  1.00  0.00    -0.299 C  
HETATM   14  C   UNL     1     -10.401   8.415  67.241  1.00  0.00    -0.369 C  
HETATM   15  C   UNL     1     -10.855  12.334  67.433  1.00  0.00    -0.277 C  
BRANCH  13  16
HETATM   16  C   UNL     1      -9.562  10.793  65.723  1.00  0.00    -0.208 C  
HETATM   17  O   UNL     1      -9.958  11.008  64.587  1.00  0.00    -0.252 OA 
BRANCH  16  18
HETATM   18  O   UNL     1      -8.307  10.364  66.018  1.00  0.00    -0.137 OA 
BRANCH  18  19
HETATM   19  C   UNL     1      -7.532   9.991  64.854  1.00  0.00    -0.140 C  
HETATM   20  C   UNL     1      -6.158  10.651  64.923  1.00  0.00     0.000 C  
HETATM   21  C   UNL     1      -7.405   8.475  64.809  1.00  0.00    -0.091 C  
ENDBRANCH  18  19
ENDBRANCH  16  18
ENDBRANCH  13  16
BRANCH  15  22
HETATM   22  C   UNL     1      -9.709  13.352  67.375  1.00  0.00    -0.221 A  
HETATM   23  C   UNL     1      -8.471  13.055  67.977  1.00  0.00    -0.181 A  
HETATM   24  C   UNL     1      -9.863  14.580  66.714  1.00  0.00    -0.271 A  
HETATM   25  C   UNL     1      -7.411  13.963  67.925  1.00  0.00    -0.155 A  
HETATM   26  O   UNL     1     -10.064  16.996  65.444  1.00  0.00    -0.581 OA 
HETATM   27  O   UNL     1      -8.000  17.544  65.945  1.00  0.00    -0.527 OA 
HETATM   28  C   UNL     1      -8.795  15.487  66.667  1.00  0.00    -0.290 A  
HETATM   29  N   UNL     1      -8.968  16.766  65.967  1.00  0.00    -0.242 N  
HETATM   30  C   UNL     1      -7.570  15.183  67.270  1.00  0.00    -0.236 A  
ENDBRANCH  15  22
ENDBRANCH   6   8
ENDBRANCH   5   6
ENDBRANCH   4   5
ENDBRANCH   3   4
ENDBRANCH   2   3
TORSDOF 9
ENDMDL
MODEL       50
REMARK 921   NORMALIZED FREE ENERGY PREDICTED BY IDOCK:   -5.02 KCAL/MOL
REMARK 922        TOTAL FREE ENERGY PREDICTED BY IDOCK:   -9.24 KCAL/MOL
REMARK 923 INTER-LIGAND FREE ENERGY PREDICTED BY IDOCK:   -7.59 KCAL/MOL
REMARK 924 INTRA-LIGAND FREE ENERGY PREDICTED BY IDOCK:   -1.65 KCAL/MOL
REMARK 927      BINDING AFFINITY PREDICTED BY RF-SCORE:    0.00 PKD
ROOT
HETATM    1  C   UNL     1     -12.865  15.414  70.869  1.00  0.00    -0.476 C  
HETATM    2  O   UNL     1     -12.485  14.510  69.843  1.00  0.00    -0.316 OA 
ENDROOT
BRANCH   2   3
HETATM    3  C   UNL     1     -11.781  15.178  68.795  1.00  0.00    -0.342 C  
BRANCH   3   4
HETATM    4  C   UNL     1     -10.915  14.150  68.100  1.00  0.00    -0.249 C  
BRANCH   4   5
HETATM    5  O   UNL     1     -11.481  13.667  66.875  1.00  0.00    -0.317 OA 
BRANCH   5   6
HETATM    6  C   UNL     1     -11.589  12.319  66.832  1.00  0.00    -0.361 C  
HETATM    7  O   UNL     1     -12.268  11.656  67.600  1.00  0.00    -0.544 OA 
BRANCH   6   8
HETATM    8  C   UNL     1     -10.733  11.729  65.769  1.00  0.00    -0.328 C  
HETATM    9  C   UNL     1     -11.055  11.761  64.451  1.00  0.00    -0.334 C  
HETATM   10  C   UNL     1     -12.336  12.220  63.790  1.00  0.00    -0.637 C  
HETATM   11  N   UNL     1     -10.120  11.352  63.524  1.00  0.00    -0.354 NA 
HETATM   12  C   UNL     1      -8.915  10.754  63.806  1.00  0.00    -0.162 C  
HETATM   13  C   UNL     1      -8.499  10.636  65.091  1.00  0.00    -0.146 C  
HETATM   14  C   UNL     1      -8.167  10.260  62.591  1.00  0.00    -0.170 C  
HETATM   15  C   UNL     1      -9.349  11.212  66.237  1.00  0.00    -0.216 C  
BRANCH  13  16
HETATM   16  C   UNL     1      -7.268   9.844  65.362  1.00  0.00    -0.125 C  
HETATM   17  O   UNL     1      -6.199  10.352  65.666  1.00  0.00    -0.106 OA 
BRANCH  16  18
HETATM   18  O   UNL     1      -7.452   8.507  65.207  1.00  0.00    -0.082 OA 
BRANCH  18  19
HETATM   19  C   UNL     1      -6.427   7.703  65.837  1.00  0.00    -0.042 C  
HETATM   20  C   UNL     1      -6.918   7.224  67.201  1.00  0.00    -0.078 C  
HETATM   21  C   UNL     1      -6.100   6.521  64.933  1.00  0.00    -0.037 C  
ENDBRANCH  18  19
ENDBRANCH  16  18
ENDBRANCH  13  16
BRANCH  15  22
HETATM   22  C   UNL     1      -9.513  10.217  67.392  1.00  0.00    -0.174 A  
HETATM   23  C   UNL     1      -9.044  10.547  68.679  1.00  0.00    -0.158 A  
HETATM   24  C   UNL     1     -10.141   8.977  67.198  1.00  0.00    -0.309 A  
HETATM   25  C   UNL     1      -9.194   9.660  69.747  1.00  0.00    -0.237 A  
HETATM   26  O   UNL     1     -11.357   6.541  66.921  1.00  0.00    -0.330 OA 
HETATM   27  O   UNL     1     -11.064   6.043  69.036  1.00  0.00    -0.351 OA 
HETATM   28  C   UNL     1     -10.287   8.092  68.275  1.00  0.00    -0.197 A  
HETATM   29  N   UNL     1     -10.952   6.801  68.059  1.00  0.00    -0.233 N  
HETATM   30  C   UNL     1      -9.815   8.428  69.548  1.00  0.00    -0.181 A  
ENDBRANCH  15  22
ENDBRANCH   6   8
ENDBRANCH   5   6
ENDBRANCH   4   5
ENDBRANCH   3   4
ENDBRANCH   2   3
TORSDOF 9
ENDMDL
MODEL       51
REMARK 921   NORMALIZED FREE ENERGY PREDICTED BY IDOCK:   -4.96 KCAL/MOL
REMARK 922        TOTAL FREE ENERGY PREDICTED BY IDOCK:   -9.15 KCAL/MOL
REMARK 923 INTER-LIGAND FREE ENERGY PREDICTED BY IDOCK:   -7.35 KCAL/MOL
REMARK 924 INTRA-LIGAND FREE ENERGY PREDICTED BY IDOCK:   -1.80 KCAL/MOL
REMARK 927      BINDING AFFINITY PREDICTED BY RF-SCORE:    0.00 PKD
ROOT
HETATM    1  C   UNL     1     -13.608  13.337  72.336  1.00  0.00    -0.594 C  
HETATM    2  O   UNL     1     -12.773  12.944  71.257  1.00  0.00    -0.367 OA 
ENDROOT
BRANCH   2   3
HETATM    3  C   UNL     1     -12.054  14.056  70.723  1.00  0.00    -0.345 C  
BRANCH   3   4
HETATM    4  C   UNL     1     -12.034  13.904  69.217  1.00  0.00    -0.357 C  
BRANCH   4   5
HETATM    5  O   UNL     1     -12.022  12.538  68.786  1.00  0.00    -0.310 OA 
BRANCH   5   6
HETATM    6  C   UNL     1     -11.473  12.370  67.560  1.00  0.00    -0.346 C  
HETATM    7  O   UNL     1     -12.102  12.079  66.555  1.00  0.00    -0.617 OA 
BRANCH   6   8
HETATM    8  C   UNL     1      -9.995  12.527  67.590  1.00  0.00    -0.201 C  
HETATM    9  C   UNL     1      -9.345  13.568  67.010  1.00  0.00    -0.247 C  
HETATM   10  C   UNL     1      -9.892  14.661  66.119  1.00  0.00    -0.334 C  
HETATM   11  N   UNL     1      -7.995  13.728  67.243  1.00  0.00    -0.154 NA 
HETATM   12  C   UNL     1      -7.179  12.833  67.894  1.00  0.00    -0.120 C  
HETATM   13  C   UNL     1      -7.711  11.735  68.487  1.00  0.00    -0.137 C  
HETATM   14  C   UNL     1      -5.713  13.188  67.857  1.00  0.00    -0.129 C  
HETATM   15  C   UNL     1      -9.234  11.509  68.476  1.00  0.00    -0.167 C  
BRANCH  13  16
HETATM   16  C   UNL     1      -6.781  10.715  69.042  1.00  0.00    -0.066 C  
HETATM   17  O   UNL     1      -6.083   9.995  68.343  1.00  0.00    -0.045 OA 
BRANCH  16  18
HETATM   18  O   UNL     1      -6.812  10.649  70.399  1.00  0.00    -0.280 OA 
BRANCH  18  19
HETATM   19  C   UNL     1      -6.415   9.362  70.927  1.00  0.00    -0.096 C  
HETATM   20  C   UNL     1      -5.271   9.548  71.921  1.00  0.00    -0.076 C  
HETATM   21  C   UNL     1      -7.616   8.710  71.599  1.00  0.00    -0.139 C  
ENDBRANCH  18  19
ENDBRANCH  16  18
ENDBRANCH  13  16
BRANCH  15  22
HETATM   22  C   UNL     1      -9.601  10.074  68.078  1.00  0.00    -0.154 A  
HETATM   23  C   UNL     1      -9.461   9.655  66.741  1.00  0.00    -0.209 A  
HETATM   24  C   UNL     1     -10.065   9.154  69.030  1.00  0.00    -0.199 A  
HETATM   25  C   UNL     1      -9.778   8.350  66.359  1.00  0.00    -0.312 A  
HETATM   26  O   UNL     1     -10.971   7.285  70.813  1.00  0.00    -0.240 OA 
HETATM   27  O   UNL     1     -11.133   5.741  69.266  1.00  0.00    -0.333 OA 
HETATM   28  C   UNL     1     -10.384   7.845  68.640  1.00  0.00    -0.201 A  
HETATM   29  N   UNL     1     -10.862   6.891  69.648  1.00  0.00    -0.247 N  
HETATM   30  C   UNL     1     -10.242   7.440  67.308  1.00  0.00    -0.330 A  
ENDBRANCH  15  22
ENDBRANCH   6   8
ENDBRANCH   5   6
ENDBRANCH   4   5
ENDBRANCH   3   4
ENDBRANCH   2   3
TORSDOF 9
ENDMDL
MODEL       52
REMARK 921   NORMALIZED FREE ENERGY PREDICTED BY IDOCK:   -4.96 KCAL/MOL
REMARK 922        TOTAL FREE ENERGY PREDICTED BY IDOCK:   -9.15 KCAL/MOL
REMARK 923 INTER-LIGAND FREE ENERGY PREDICTED BY IDOCK:   -7.20 KCAL/MOL
REMARK 924 INTRA-LIGAND FREE ENERGY PREDICTED BY IDOCK:   -1.95 KCAL/MOL
REMARK 927      BINDING AFFINITY PREDICTED BY RF-SCORE:    0.00 PKD
ROOT
HETATM    1  C   UNL     1     -12.147   9.061  72.122  1.00  0.00    -0.342 C  
HETATM    2  O   UNL     1     -11.610  10.066  71.276  1.00  0.00    -0.367 OA 
ENDROOT
BRANCH   2   3
HETATM    3  C   UNL     1     -12.436  10.279  70.130  1.00  0.00    -0.110 C  
BRANCH   3   4
HETATM    4  C   UNL     1     -11.961  11.547  69.455  1.00  0.00    -0.335 C  
BRANCH   4   5
HETATM    5  O   UNL     1     -12.160  11.543  68.036  1.00  0.00    -0.617 OA 
BRANCH   5   6
HETATM    6  C   UNL     1     -11.391  12.447  67.387  1.00  0.00    -0.321 C  
HETATM    7  O   UNL     1     -11.225  13.601  67.751  1.00  0.00    -0.266 OA 
BRANCH   6   8
HETATM    8  C   UNL     1     -10.813  11.887  66.137  1.00  0.00    -0.334 C  
HETATM    9  C   UNL     1     -11.412  11.998  64.925  1.00  0.00    -0.294 C  
HETATM   10  C   UNL     1     -12.786  12.531  64.581  1.00  0.00    -0.434 C  
HETATM   11  N   UNL     1     -10.720  11.609  63.797  1.00  0.00    -0.381 NA 
HETATM   12  C   UNL     1      -9.508  10.960  63.782  1.00  0.00    -0.275 C  
HETATM   13  C   UNL     1      -8.827  10.762  64.938  1.00  0.00    -0.176 C  
HETATM   14  C   UNL     1      -9.063  10.507  62.412  1.00  0.00    -0.313 C  
HETATM   15  C   UNL     1      -9.383  11.304  66.267  1.00  0.00    -0.226 C  
BRANCH  13  16
HETATM   16  C   UNL     1      -7.601   9.919  64.898  1.00  0.00    -0.135 C  
HETATM   17  O   UNL     1      -6.471  10.380  64.954  1.00  0.00    -0.125 OA 
BRANCH  16  18
HETATM   18  O   UNL     1      -7.872   8.595  64.762  1.00  0.00    -0.108 OA 
BRANCH  18  19
HETATM   19  C   UNL     1      -6.726   7.741  64.992  1.00  0.00    -0.051 C  
HETATM   20  C   UNL     1      -6.802   7.150  66.397  1.00  0.00    -0.061 C  
HETATM   21  C   UNL     1      -6.710   6.640  63.940  1.00  0.00    -0.044 C  
ENDBRANCH  18  19
ENDBRANCH  16  18
ENDBRANCH  13  16
BRANCH  15  22
HETATM   22  C   UNL     1      -9.333  10.256  67.385  1.00  0.00    -0.163 A  
HETATM   23  C   UNL     1      -8.588  10.506  68.553  1.00  0.00    -0.135 A  
HETATM   24  C   UNL     1     -10.034   9.045  67.275  1.00  0.00    -0.275 A  
HETATM   25  C   UNL     1      -8.539   9.570  69.589  1.00  0.00    -0.189 A  
HETATM   26  O   UNL     1     -11.371   6.660  67.158  1.00  0.00    -0.343 OA 
HETATM   27  O   UNL     1     -10.652   6.045  69.136  1.00  0.00    -0.230 OA 
HETATM   28  C   UNL     1      -9.979   8.109  68.318  1.00  0.00    -0.186 A  
HETATM   29  N   UNL     1     -10.723   6.849  68.193  1.00  0.00    -0.211 N  
HETATM   30  C   UNL     1      -9.234   8.367  69.474  1.00  0.00    -0.154 A  
ENDBRANCH  15  22
ENDBRANCH   6   8
ENDBRANCH   5   6
ENDBRANCH   4   5
ENDBRANCH   3   4
ENDBRANCH   2   3
TORSDOF 9
ENDMDL
MODEL       53
REMARK 921   NORMALIZED FREE ENERGY PREDICTED BY IDOCK:   -4.96 KCAL/MOL
REMARK 922        TOTAL FREE ENERGY PREDICTED BY IDOCK:   -9.14 KCAL/MOL
REMARK 923 INTER-LIGAND FREE ENERGY PREDICTED BY IDOCK:   -7.54 KCAL/MOL
REMARK 924 INTRA-LIGAND FREE ENERGY PREDICTED BY IDOCK:   -1.60 KCAL/MOL
REMARK 927      BINDING AFFINITY PREDICTED BY RF-SCORE:    0.00 PKD
ROOT
HETATM    1  C   UNL     1     -13.378  15.442  71.309  1.00  0.00    -0.520 C  
HETATM    2  O   UNL     1     -11.972  15.363  71.132  1.00  0.00    -0.296 OA 
ENDROOT
BRANCH   2   3
HETATM    3  C   UNL     1     -11.610  15.520  69.759  1.00  0.00    -0.334 C  
BRANCH   3   4
HETATM    4  C   UNL     1     -12.004  14.250  69.036  1.00  0.00    -0.325 C  
BRANCH   4   5
HETATM    5  O   UNL     1     -11.333  13.085  69.530  1.00  0.00    -0.231 OA 
BRANCH   5   6
HETATM    6  C   UNL     1     -11.711  11.945  68.905  1.00  0.00    -0.323 C  
HETATM    7  O   UNL     1     -12.113  11.891  67.753  1.00  0.00    -0.564 OA 
BRANCH   6   8
HETATM    8  C   UNL     1     -11.634  10.766  69.807  1.00  0.00    -0.393 C  
HETATM    9  C   UNL     1     -12.282  10.697  70.998  1.00  0.00    -0.393 C  
HETATM   10  C   UNL     1     -13.054  11.771  71.732  1.00  0.00    -0.480 C  
HETATM   11  N   UNL     1     -12.300   9.499  71.681  1.00  0.00    -0.372 NA 
HETATM   12  C   UNL     1     -11.582   8.373  71.351  1.00  0.00    -0.284 C  
HETATM   13  C   UNL     1     -10.869   8.336  70.198  1.00  0.00    -0.237 C  
HETATM   14  C   UNL     1     -11.666   7.262  72.370  1.00  0.00    -0.278 C  
HETATM   15  C   UNL     1     -10.895   9.532  69.231  1.00  0.00    -0.211 C  
BRANCH  13  16
HETATM   16  C   UNL     1      -9.982   7.165  69.958  1.00  0.00    -0.179 C  
HETATM   17  O   UNL     1      -8.823   7.113  70.342  1.00  0.00    -0.148 OA 
BRANCH  16  18
HETATM   18  O   UNL     1     -10.587   6.180  69.243  1.00  0.00    -0.221 OA 
BRANCH  18  19
HETATM   19  C   UNL     1     -10.006   5.972  67.934  1.00  0.00    -0.131 C  
HETATM   20  C   UNL     1      -9.571   4.516  67.793  1.00  0.00    -0.208 C  
HETATM   21  C   UNL     1     -11.035   6.336  66.873  1.00  0.00    -0.404 C  
ENDBRANCH  18  19
ENDBRANCH  16  18
ENDBRANCH  13  16
BRANCH  15  22
HETATM   22  C   UNL     1      -9.490   9.924  68.757  1.00  0.00    -0.157 A  
HETATM   23  C   UNL     1      -8.556  10.443  69.674  1.00  0.00    -0.060 A  
HETATM   24  C   UNL     1      -9.104   9.760  67.418  1.00  0.00    -0.148 A  
HETATM   25  C   UNL     1      -7.267  10.794  69.267  1.00  0.00    -0.122 A  
HETATM   26  O   UNL     1      -8.256   9.471  64.832  1.00  0.00    -0.125 OA 
HETATM   27  O   UNL     1      -6.261  10.258  65.293  1.00  0.00    -0.110 OA 
HETATM   28  C   UNL     1      -7.809  10.116  67.016  1.00  0.00    -0.102 A  
HETATM   29  N   UNL     1      -7.416   9.933  65.613  1.00  0.00    -0.110 N  
HETATM   30  C   UNL     1      -6.889  10.633  67.935  1.00  0.00    -0.073 A  
ENDBRANCH  15  22
ENDBRANCH   6   8
ENDBRANCH   5   6
ENDBRANCH   4   5
ENDBRANCH   3   4
ENDBRANCH   2   3
TORSDOF 9
ENDMDL
MODEL       54
REMARK 921   NORMALIZED FREE ENERGY PREDICTED BY IDOCK:   -4.95 KCAL/MOL
REMARK 922        TOTAL FREE ENERGY PREDICTED BY IDOCK:   -9.14 KCAL/MOL
REMARK 923 INTER-LIGAND FREE ENERGY PREDICTED BY IDOCK:   -7.16 KCAL/MOL
REMARK 924 INTRA-LIGAND FREE ENERGY PREDICTED BY IDOCK:   -1.98 KCAL/MOL
REMARK 927      BINDING AFFINITY PREDICTED BY RF-SCORE:    0.00 PKD
ROOT
HETATM    1  C   UNL     1     -13.105  12.474  71.351  1.00  0.00    -0.210 C  
HETATM    2  O   UNL     1     -13.160  11.315  72.169  1.00  0.00    -0.458 OA 
ENDROOT
BRANCH   2   3
HETATM    3  C   UNL     1     -13.317  10.131  71.386  1.00  0.00    -0.325 C  
BRANCH   3   4
HETATM    4  C   UNL     1     -13.468   8.968  72.342  1.00  0.00    -0.470 C  
BRANCH   4   5
HETATM    5  O   UNL     1     -12.946   7.738  71.826  1.00  0.00    -0.322 OA 
BRANCH   5   6
HETATM    6  C   UNL     1     -11.672   7.494  72.214  1.00  0.00    -0.304 C  
HETATM    7  O   UNL     1     -11.106   8.074  73.127  1.00  0.00    -0.334 OA 
BRANCH   6   8
HETATM    8  C   UNL     1     -11.018   6.471  71.357  1.00  0.00    -0.303 C  
HETATM    9  C   UNL     1     -10.658   5.243  71.808  1.00  0.00    -0.201 C  
HETATM   10  C   UNL     1     -10.676   4.698  73.219  1.00  0.00    -0.313 C  
HETATM   11  N   UNL     1     -10.225   4.297  70.902  1.00  0.00    -0.078 NA 
HETATM   12  C   UNL     1      -9.966   4.518  69.570  1.00  0.00    -0.165 C  
HETATM   13  C   UNL     1     -10.256   5.720  69.012  1.00  0.00    -0.282 C  
HETATM   14  C   UNL     1      -9.345   3.344  68.854  1.00  0.00    -0.237 C  
HETATM   15  C   UNL     1     -10.919   6.826  69.852  1.00  0.00    -0.340 C  
BRANCH  13  16
HETATM   16  C   UNL     1      -9.816   5.969  67.612  1.00  0.00    -0.123 C  
HETATM   17  O   UNL     1     -10.550   5.829  66.645  1.00  0.00    -0.268 OA 
BRANCH  16  18
HETATM   18  O   UNL     1      -8.511   6.338  67.524  1.00  0.00    -0.109 OA 
BRANCH  18  19
HETATM   19  C   UNL     1      -8.171   6.975  66.269  1.00  0.00    -0.120 C  
HETATM   20  C   UNL     1      -7.728   8.412  66.529  1.00  0.00    -0.089 C  
HETATM   21  C   UNL     1      -7.062   6.179  65.594  1.00  0.00    -0.072 C  
ENDBRANCH  18  19
ENDBRANCH  16  18
ENDBRANCH  13  16
BRANCH  15  22
HETATM   22  C   UNL     1     -10.229   8.183  69.668  1.00  0.00    -0.205 A  
HETATM   23  C   UNL     1      -8.909   8.371  70.120  1.00  0.00    -0.141 A  
HETATM   24  C   UNL     1     -10.886   9.251  69.037  1.00  0.00    -0.136 A  
HETATM   25  C   UNL     1      -8.258   9.594  69.951  1.00  0.00    -0.184 A  
HETATM   26  O   UNL     1     -12.081  11.388  67.814  1.00  0.00    -0.637 OA 
HETATM   27  O   UNL     1     -10.310  12.654  68.075  1.00  0.00    -0.215 OA 
HETATM   28  C   UNL     1     -10.228  10.477  68.872  1.00  0.00    -0.208 A  
HETATM   29  N   UNL     1     -10.925  11.584  68.204  1.00  0.00    -0.212 N  
HETATM   30  C   UNL     1      -8.916  10.653  69.327  1.00  0.00    -0.098 A  
ENDBRANCH  15  22
ENDBRANCH   6   8
ENDBRANCH   5   6
ENDBRANCH   4   5
ENDBRANCH   3   4
ENDBRANCH   2   3
TORSDOF 9
ENDMDL
MODEL       55
REMARK 921   NORMALIZED FREE ENERGY PREDICTED BY IDOCK:   -4.95 KCAL/MOL
REMARK 922        TOTAL FREE ENERGY PREDICTED BY IDOCK:   -9.14 KCAL/MOL
REMARK 923 INTER-LIGAND FREE ENERGY PREDICTED BY IDOCK:   -7.48 KCAL/MOL
REMARK 924 INTRA-LIGAND FREE ENERGY PREDICTED BY IDOCK:   -1.65 KCAL/MOL
REMARK 927      BINDING AFFINITY PREDICTED BY RF-SCORE:    0.00 PKD
ROOT
HETATM    1  C   UNL     1     -12.127   6.701  71.710  1.00  0.00    -0.353 C  
HETATM    2  O   UNL     1     -10.986   6.281  70.978  1.00  0.00    -0.256 OA 
ENDROOT
BRANCH   2   3
HETATM    3  C   UNL     1     -11.233   6.301  69.571  1.00  0.00    -0.430 C  
BRANCH   3   4
HETATM    4  C   UNL     1     -10.309   7.332  68.961  1.00  0.00    -0.205 C  
BRANCH   4   5
HETATM    5  O   UNL     1     -10.882   8.644  68.905  1.00  0.00    -0.133 OA 
BRANCH   5   6
HETATM    6  C   UNL     1     -10.255   9.536  69.706  1.00  0.00    -0.228 C  
HETATM    7  O   UNL     1      -9.318   9.264  70.441  1.00  0.00    -0.211 OA 
BRANCH   6   8
HETATM    8  C   UNL     1     -10.878  10.884  69.631  1.00  0.00    -0.271 C  
HETATM    9  C   UNL     1     -11.973  11.238  70.350  1.00  0.00    -0.380 C  
HETATM   10  C   UNL     1     -12.867  10.380  71.218  1.00  0.00    -0.533 C  
HETATM   11  N   UNL     1     -12.372  12.558  70.355  1.00  0.00    -0.279 NA 
HETATM   12  C   UNL     1     -11.855  13.558  69.565  1.00  0.00    -0.334 C  
HETATM   13  C   UNL     1     -10.778  13.314  68.777  1.00  0.00    -0.253 C  
HETATM   14  C   UNL     1     -12.595  14.870  69.660  1.00  0.00    -0.094 C  
HETATM   15  C   UNL     1     -10.099  11.933  68.799  1.00  0.00    -0.133 C  
BRANCH  13  16
HETATM   16  C   UNL     1     -10.351  14.373  67.823  1.00  0.00    -0.238 C  
HETATM   17  O   UNL     1      -9.252  14.907  67.865  1.00  0.00    -0.179 OA 
BRANCH  16  18
HETATM   18  O   UNL     1     -11.317  14.701  66.926  1.00  0.00    -0.337 OA 
BRANCH  18  19
HETATM   19  C   UNL     1     -10.813  14.931  65.588  1.00  0.00    -0.341 C  
HETATM   20  C   UNL     1     -11.708  14.221  64.576  1.00  0.00    -0.431 C  
HETATM   21  C   UNL     1     -10.778  16.430  65.324  1.00  0.00    -0.312 C  
ENDBRANCH  18  19
ENDBRANCH  16  18
ENDBRANCH  13  16
BRANCH  15  22
HETATM   22  C   UNL     1      -9.828  11.401  67.386  1.00  0.00    -0.199 A  
HETATM   23  C   UNL     1     -10.899  11.164  66.504  1.00  0.00    -0.302 A  
HETATM   24  C   UNL     1      -8.519  11.157  66.943  1.00  0.00    -0.147 A  
HETATM   25  C   UNL     1     -10.673  10.691  65.210  1.00  0.00    -0.100 A  
HETATM   26  O   UNL     1      -6.005  10.658  65.983  1.00  0.00    -0.101 OA 
HETATM   27  O   UNL     1      -6.769  10.015  64.031  1.00  0.00    -0.124 OA 
HETATM   28  C   UNL     1      -8.299  10.681  65.642  1.00  0.00    -0.162 A  
HETATM   29  N   UNL     1      -6.925  10.436  65.189  1.00  0.00    -0.116 N  
HETATM   30  C   UNL     1      -9.372  10.446  64.775  1.00  0.00    -0.301 A  
ENDBRANCH  15  22
ENDBRANCH   6   8
ENDBRANCH   5   6
ENDBRANCH   4   5
ENDBRANCH   3   4
ENDBRANCH   2   3
TORSDOF 9
ENDMDL
MODEL       56
REMARK 921   NORMALIZED FREE ENERGY PREDICTED BY IDOCK:   -4.93 KCAL/MOL
REMARK 922        TOTAL FREE ENERGY PREDICTED BY IDOCK:   -9.11 KCAL/MOL
REMARK 923 INTER-LIGAND FREE ENERGY PREDICTED BY IDOCK:   -7.76 KCAL/MOL
REMARK 924 INTRA-LIGAND FREE ENERGY PREDICTED BY IDOCK:   -1.35 KCAL/MOL
REMARK 927      BINDING AFFINITY PREDICTED BY RF-SCORE:    0.00 PKD
ROOT
HETATM    1  C   UNL     1     -14.265   7.689  71.685  1.00  0.00    -0.454 C  
HETATM    2  O   UNL     1     -14.061   9.087  71.545  1.00  0.00    -0.354 OA 
ENDROOT
BRANCH   2   3
HETATM    3  C   UNL     1     -12.700   9.443  71.794  1.00  0.00    -0.390 C  
BRANCH   3   4
HETATM    4  C   UNL     1     -12.014   9.584  70.453  1.00  0.00    -0.066 C  
BRANCH   4   5
HETATM    5  O   UNL     1     -11.164   8.477  70.131  1.00  0.00    -0.232 OA 
BRANCH   5   6
HETATM    6  C   UNL     1     -10.393   8.695  69.040  1.00  0.00    -0.213 C  
HETATM    7  O   UNL     1     -10.609   8.220  67.936  1.00  0.00    -0.214 OA 
BRANCH   6   8
HETATM    8  C   UNL     1      -9.211   9.539  69.357  1.00  0.00    -0.181 C  
HETATM    9  C   UNL     1      -8.454   9.372  70.471  1.00  0.00    -0.212 C  
HETATM   10  C   UNL     1      -8.690   8.470  71.662  1.00  0.00    -0.262 C  
HETATM   11  N   UNL     1      -7.276  10.079  70.591  1.00  0.00    -0.320 NA 
HETATM   12  C   UNL     1      -6.847  11.078  69.750  1.00  0.00    -0.116 C  
HETATM   13  C   UNL     1      -7.540  11.358  68.618  1.00  0.00    -0.130 C  
HETATM   14  C   UNL     1      -5.601  11.792  70.217  1.00  0.00    -0.143 C  
HETATM   15  C   UNL     1      -8.782  10.530  68.245  1.00  0.00    -0.135 C  
BRANCH  13  16
HETATM   16  C   UNL     1      -7.134  12.548  67.821  1.00  0.00    -0.126 C  
HETATM   17  O   UNL     1      -6.382  12.482  66.859  1.00  0.00    -0.176 OA 
BRANCH  16  18
HETATM   18  O   UNL     1      -7.661  13.708  68.291  1.00  0.00    -0.120 OA 
BRANCH  18  19
HETATM   19  C   UNL     1      -7.599  14.800  67.343  1.00  0.00    -0.202 C  
HETATM   20  C   UNL     1      -8.965  14.987  66.689  1.00  0.00    -0.313 C  
HETATM   21  C   UNL     1      -7.169  16.065  68.073  1.00  0.00    -0.141 C  
ENDBRANCH  18  19
ENDBRANCH  16  18
ENDBRANCH  13  16
BRANCH  15  22
HETATM   22  C   UNL     1      -9.965  11.415  67.833  1.00  0.00    -0.190 A  
HETATM   23  C   UNL     1     -10.593  12.241  68.785  1.00  0.00    -0.223 A  
HETATM   24  C   UNL     1     -10.431  11.433  66.509  1.00  0.00    -0.292 A  
HETATM   25  C   UNL     1     -11.664  13.063  68.429  1.00  0.00    -0.386 A  
HETATM   26  O   UNL     1     -11.405  11.543  63.954  1.00  0.00    -0.386 OA 
HETATM   27  O   UNL     1     -12.933  13.020  64.494  1.00  0.00    -0.707 OA 
HETATM   28  C   UNL     1     -11.507  12.261  66.158  1.00  0.00    -0.374 A  
HETATM   29  N   UNL     1     -11.979  12.275  64.768  1.00  0.00    -0.378 N  
HETATM   30  C   UNL     1     -12.125  13.075  67.113  1.00  0.00    -0.325 A  
ENDBRANCH  15  22
ENDBRANCH   6   8
ENDBRANCH   5   6
ENDBRANCH   4   5
ENDBRANCH   3   4
ENDBRANCH   2   3
TORSDOF 9
ENDMDL
MODEL       57
REMARK 921   NORMALIZED FREE ENERGY PREDICTED BY IDOCK:   -4.93 KCAL/MOL
REMARK 922        TOTAL FREE ENERGY PREDICTED BY IDOCK:   -9.11 KCAL/MOL
REMARK 923 INTER-LIGAND FREE ENERGY PREDICTED BY IDOCK:   -8.09 KCAL/MOL
REMARK 924 INTRA-LIGAND FREE ENERGY PREDICTED BY IDOCK:   -1.01 KCAL/MOL
REMARK 927      BINDING AFFINITY PREDICTED BY RF-SCORE:    0.00 PKD
ROOT
HETATM    1  C   UNL     1      -5.705   8.204  71.476  1.00  0.00    -0.035 C  
HETATM    2  O   UNL     1      -6.667   7.277  70.997  1.00  0.00    -0.047 OA 
ENDROOT
BRANCH   2   3
HETATM    3  C   UNL     1      -7.998   7.727  71.256  1.00  0.00    -0.094 C  
BRANCH   3   4
HETATM    4  C   UNL     1      -8.452   8.522  70.051  1.00  0.00    -0.125 C  
BRANCH   4   5
HETATM    5  O   UNL     1      -9.291   9.633  70.389  1.00  0.00    -0.251 OA 
BRANCH   5   6
HETATM    6  C   UNL     1     -10.364   9.759  69.574  1.00  0.00    -0.230 C  
HETATM    7  O   UNL     1     -10.687   8.940  68.727  1.00  0.00    -0.187 OA 
BRANCH   6   8
HETATM    8  C   UNL     1     -11.078  11.044  69.792  1.00  0.00    -0.303 C  
HETATM    9  C   UNL     1     -12.089  11.192  70.685  1.00  0.00    -0.379 C  
HETATM   10  C   UNL     1     -12.803  10.140  71.505  1.00  0.00    -0.548 C  
HETATM   11  N   UNL     1     -12.568  12.458  70.950  1.00  0.00    -0.310 NA 
HETATM   12  C   UNL     1     -12.227  13.605  70.274  1.00  0.00    -0.353 C  
HETATM   13  C   UNL     1     -11.250  13.575  69.334  1.00  0.00    -0.244 C  
HETATM   14  C   UNL     1     -13.031  14.821  70.667  1.00  0.00    -0.376 C  
HETATM   15  C   UNL     1     -10.486  12.270  69.051  1.00  0.00    -0.049 C  
BRANCH  13  16
HETATM   16  C   UNL     1     -11.022  14.799  68.517  1.00  0.00    -0.258 C  
HETATM   17  O   UNL     1     -11.816  15.202  67.681  1.00  0.00    -0.294 OA 
BRANCH  16  18
HETATM   18  O   UNL     1      -9.830  15.397  68.779  1.00  0.00    -0.196 OA 
BRANCH  18  19
HETATM   19  C   UNL     1      -9.097  15.774  67.590  1.00  0.00    -0.192 C  
HETATM   20  C   UNL     1      -8.897  17.288  67.570  1.00  0.00    -0.219 C  
HETATM   21  C   UNL     1      -7.757  15.050  67.584  1.00  0.00    -0.186 C  
ENDBRANCH  18  19
ENDBRANCH  16  18
ENDBRANCH  13  16
BRANCH  15  22
HETATM   22  C   UNL     1     -10.370  11.982  67.549  1.00  0.00    -0.217 A  
HETATM   23  C   UNL     1      -9.181  11.437  67.025  1.00  0.00    -0.174 A  
HETATM   24  C   UNL     1     -11.439  12.236  66.677  1.00  0.00    -0.431 A  
HETATM   25  C   UNL     1      -9.059  11.156  65.663  1.00  0.00    -0.221 A  
HETATM   26  O   UNL     1     -13.470  12.691  64.900  1.00  0.00    -0.599 OA 
HETATM   27  O   UNL     1     -12.288  11.953  63.207  1.00  0.00    -0.545 OA 
HETATM   28  C   UNL     1     -11.309  11.952  65.311  1.00  0.00    -0.275 A  
HETATM   29  N   UNL     1     -12.439  12.217  64.411  1.00  0.00    -0.428 N  
HETATM   30  C   UNL     1     -10.123  11.414  64.800  1.00  0.00    -0.326 A  
ENDBRANCH  15  22
ENDBRANCH   6   8
ENDBRANCH   5   6
ENDBRANCH   4   5
ENDBRANCH   3   4
ENDBRANCH   2   3
TORSDOF 9
ENDMDL
MODEL       58
REMARK 921   NORMALIZED FREE ENERGY PREDICTED BY IDOCK:   -4.91 KCAL/MOL
REMARK 922        TOTAL FREE ENERGY PREDICTED BY IDOCK:   -9.08 KCAL/MOL
REMARK 923 INTER-LIGAND FREE ENERGY PREDICTED BY IDOCK:   -7.84 KCAL/MOL
REMARK 924 INTRA-LIGAND FREE ENERGY PREDICTED BY IDOCK:   -1.24 KCAL/MOL
REMARK 927      BINDING AFFINITY PREDICTED BY RF-SCORE:    0.00 PKD
ROOT
HETATM    1  C   UNL     1     -10.305  19.614  68.182  1.00  0.00    -0.438 C  
HETATM    2  O   UNL     1     -10.105  18.324  68.740  1.00  0.00    -0.378 OA 
ENDROOT
BRANCH   2   3
HETATM    3  C   UNL     1     -10.905  17.342  68.080  1.00  0.00    -0.297 C  
BRANCH   3   4
HETATM    4  C   UNL     1     -11.029  16.155  69.011  1.00  0.00    -0.312 C  
BRANCH   4   5
HETATM    5  O   UNL     1     -11.125  14.902  68.322  1.00  0.00    -0.260 OA 
BRANCH   5   6
HETATM    6  C   UNL     1      -9.922  14.397  67.961  1.00  0.00    -0.225 C  
HETATM    7  O   UNL     1      -8.866  14.675  68.507  1.00  0.00    -0.172 OA 
BRANCH   6   8
HETATM    8  C   UNL     1     -10.029  13.504  66.778  1.00  0.00    -0.269 C  
HETATM    9  C   UNL     1     -10.398  13.940  65.547  1.00  0.00    -0.333 C  
HETATM   10  C   UNL     1     -10.914  15.299  65.128  1.00  0.00    -0.428 C  
HETATM   11  N   UNL     1     -10.294  13.081  64.473  1.00  0.00    -0.375 NA 
HETATM   12  C   UNL     1      -9.991  11.741  64.541  1.00  0.00    -0.242 C  
HETATM   13  C   UNL     1      -9.637  11.183  65.726  1.00  0.00    -0.255 C  
HETATM   14  C   UNL     1     -10.110  11.009  63.226  1.00  0.00    -0.400 C  
HETATM   15  C   UNL     1      -9.525  12.054  66.990  1.00  0.00    -0.199 C  
BRANCH  13  16
HETATM   16  C   UNL     1      -9.472   9.705  65.786  1.00  0.00    -0.246 C  
HETATM   17  O   UNL     1     -10.382   8.942  66.076  1.00  0.00    -0.101 OA 
BRANCH  16  18
HETATM   18  O   UNL     1      -8.204   9.301  65.515  1.00  0.00    -0.116 OA 
BRANCH  18  19
HETATM   19  C   UNL     1      -8.132   8.007  64.870  1.00  0.00    -0.147 C  
HETATM   20  C   UNL     1      -7.695   8.183  63.418  1.00  0.00    -0.143 C  
HETATM   21  C   UNL     1      -7.148   7.129  65.630  1.00  0.00    -0.068 C  
ENDBRANCH  18  19
ENDBRANCH  16  18
ENDBRANCH  13  16
BRANCH  15  22
HETATM   22  C   UNL     1     -10.227  11.415  68.195  1.00  0.00    -0.200 A  
HETATM   23  C   UNL     1     -11.618  11.558  68.358  1.00  0.00    -0.375 A  
HETATM   24  C   UNL     1      -9.508  10.669  69.141  1.00  0.00    -0.185 A  
HETATM   25  C   UNL     1     -12.279  10.975  69.441  1.00  0.00    -0.329 A  
HETATM   26  O   UNL     1      -8.196   9.192  71.035  1.00  0.00    -0.176 OA 
HETATM   27  O   UNL     1     -10.041   8.803  72.154  1.00  0.00    -0.320 OA 
HETATM   28  C   UNL     1     -10.178  10.087  70.227  1.00  0.00    -0.206 A  
HETATM   29  N   UNL     1      -9.414   9.304  71.207  1.00  0.00    -0.237 N  
HETATM   30  C   UNL     1     -11.560  10.238  70.380  1.00  0.00    -0.411 A  
ENDBRANCH  15  22
ENDBRANCH   6   8
ENDBRANCH   5   6
ENDBRANCH   4   5
ENDBRANCH   3   4
ENDBRANCH   2   3
TORSDOF 9
ENDMDL
MODEL       59
REMARK 921   NORMALIZED FREE ENERGY PREDICTED BY IDOCK:   -4.89 KCAL/MOL
REMARK 922        TOTAL FREE ENERGY PREDICTED BY IDOCK:   -9.05 KCAL/MOL
REMARK 923 INTER-LIGAND FREE ENERGY PREDICTED BY IDOCK:   -7.78 KCAL/MOL
REMARK 924 INTRA-LIGAND FREE ENERGY PREDICTED BY IDOCK:   -1.27 KCAL/MOL
REMARK 927      BINDING AFFINITY PREDICTED BY RF-SCORE:    0.00 PKD
ROOT
HETATM    1  C   UNL     1     -14.411  15.293  72.039  1.00  0.00    -0.589 C  
HETATM    2  O   UNL     1     -13.110  15.014  72.533  1.00  0.00    -0.329 OA 
ENDROOT
BRANCH   2   3
HETATM    3  C   UNL     1     -12.223  16.112  72.314  1.00  0.00    -0.496 C  
BRANCH   3   4
HETATM    4  C   UNL     1     -11.263  15.711  71.215  1.00  0.00    -0.331 C  
BRANCH   4   5
HETATM    5  O   UNL     1     -11.343  14.322  70.872  1.00  0.00    -0.086 OA 
BRANCH   5   6
HETATM    6  C   UNL     1     -11.696  14.111  69.582  1.00  0.00    -0.316 C  
HETATM    7  O   UNL     1     -12.300  14.916  68.891  1.00  0.00    -0.146 OA 
BRANCH   6   8
HETATM    8  C   UNL     1     -11.310  12.752  69.118  1.00  0.00    -0.337 C  
HETATM    9  C   UNL     1     -11.540  11.626  69.840  1.00  0.00    -0.288 C  
HETATM   10  C   UNL     1     -12.056  11.485  71.255  1.00  0.00    -0.025 C  
HETATM   11  N   UNL     1     -11.315  10.398  69.255  1.00  0.00    -0.243 NA 
HETATM   12  C   UNL     1     -10.720  10.186  68.033  1.00  0.00    -0.260 C  
HETATM   13  C   UNL     1     -10.413  11.238  67.234  1.00  0.00    -0.249 C  
HETATM   14  C   UNL     1     -10.450   8.735  67.717  1.00  0.00    -0.292 C  
HETATM   15  C   UNL     1     -10.772  12.671  67.667  1.00  0.00    -0.239 C  
BRANCH  13  16
HETATM   16  C   UNL     1      -9.629  10.977  65.997  1.00  0.00    -0.215 C  
HETATM   17  O   UNL     1      -8.408  11.015  65.958  1.00  0.00    -0.168 OA 
BRANCH  16  18
HETATM   18  O   UNL     1     -10.412  10.723  64.916  1.00  0.00    -0.311 OA 
BRANCH  18  19
HETATM   19  C   UNL     1     -10.390  11.777  63.923  1.00  0.00    -0.385 C  
HETATM   20  C   UNL     1      -9.566  11.328  62.719  1.00  0.00    -0.327 C  
HETATM   21  C   UNL     1     -11.820  12.099  63.512  1.00  0.00    -0.597 C  
ENDBRANCH  18  19
ENDBRANCH  16  18
ENDBRANCH  13  16
BRANCH  15  22
HETATM   22  C   UNL     1      -9.601  13.643  67.476  1.00  0.00    -0.220 A  
HETATM   23  C   UNL     1      -9.683  14.664  66.511  1.00  0.00    -0.297 A  
HETATM   24  C   UNL     1      -8.443  13.546  68.263  1.00  0.00    -0.168 A  
HETATM   25  C   UNL     1      -8.634  15.567  66.329  1.00  0.00    -0.208 A  
HETATM   26  O   UNL     1      -6.148  13.443  69.750  1.00  0.00    -0.117 OA 
HETATM   27  O   UNL     1      -5.280  15.170  68.713  1.00  0.00    -0.090 OA 
HETATM   28  C   UNL     1      -7.393  14.455  68.074  1.00  0.00    -0.143 A  
HETATM   29  N   UNL     1      -6.189  14.346  68.908  1.00  0.00    -0.085 N  
HETATM   30  C   UNL     1      -7.484  15.465  67.110  1.00  0.00    -0.224 A  
ENDBRANCH  15  22
ENDBRANCH   6   8
ENDBRANCH   5   6
ENDBRANCH   4   5
ENDBRANCH   3   4
ENDBRANCH   2   3
TORSDOF 9
ENDMDL
MODEL       60
REMARK 921   NORMALIZED FREE ENERGY PREDICTED BY IDOCK:   -4.88 KCAL/MOL
REMARK 922        TOTAL FREE ENERGY PREDICTED BY IDOCK:   -9.02 KCAL/MOL
REMARK 923 INTER-LIGAND FREE ENERGY PREDICTED BY IDOCK:   -7.96 KCAL/MOL
REMARK 924 INTRA-LIGAND FREE ENERGY PREDICTED BY IDOCK:   -1.06 KCAL/MOL
REMARK 927      BINDING AFFINITY PREDICTED BY RF-SCORE:    0.00 PKD
ROOT
HETATM    1  C   UNL     1      -6.735   8.372  71.777  1.00  0.00    -0.076 C  
HETATM    2  O   UNL     1      -7.956   8.931  72.240  1.00  0.00    -0.371 OA 
ENDROOT
BRANCH   2   3
HETATM    3  C   UNL     1      -8.943   8.952  71.208  1.00  0.00    -0.243 C  
BRANCH   3   4
HETATM    4  C   UNL     1      -8.260   8.562  69.916  1.00  0.00    -0.121 C  
BRANCH   4   5
HETATM    5  O   UNL     1      -8.598   9.416  68.816  1.00  0.00    -0.123 OA 
BRANCH   5   6
HETATM    6  C   UNL     1      -9.541   8.890  68.001  1.00  0.00    -0.148 C  
HETATM    7  O   UNL     1     -10.376   8.070  68.351  1.00  0.00    -0.204 OA 
BRANCH   6   8
HETATM    8  C   UNL     1      -9.408   9.385  66.606  1.00  0.00    -0.211 C  
HETATM    9  C   UNL     1      -8.498   8.895  65.726  1.00  0.00    -0.145 C  
HETATM   10  C   UNL     1      -7.370   7.915  65.962  1.00  0.00    -0.074 C  
HETATM   11  N   UNL     1      -8.567   9.285  64.405  1.00  0.00    -0.192 NA 
HETATM   12  C   UNL     1      -9.387  10.265  63.897  1.00  0.00    -0.291 C  
HETATM   13  C   UNL     1     -10.317  10.852  64.691  1.00  0.00    -0.407 C  
HETATM   14  C   UNL     1      -9.133  10.598  62.447  1.00  0.00    -0.322 C  
HETATM   15  C   UNL     1     -10.492  10.394  66.150  1.00  0.00    -0.224 C  
BRANCH  13  16
HETATM   16  C   UNL     1     -11.073  12.013  64.148  1.00  0.00    -0.368 C  
HETATM   17  O   UNL     1     -12.075  11.895  63.458  1.00  0.00    -0.504 OA 
BRANCH  16  18
HETATM   18  O   UNL     1     -10.516  13.209  64.474  1.00  0.00    -0.377 OA 
BRANCH  18  19
HETATM   19  C   UNL     1     -11.462  14.305  64.488  1.00  0.00    -0.355 C  
HETATM   20  C   UNL     1     -12.651  13.944  65.375  1.00  0.00    -0.538 C  
HETATM   21  C   UNL     1     -10.762  15.556  65.003  1.00  0.00    -0.463 C  
ENDBRANCH  18  19
ENDBRANCH  16  18
ENDBRANCH  13  16
BRANCH  15  22
HETATM   22  C   UNL     1     -10.564  11.577  67.122  1.00  0.00    -0.273 A  
HETATM   23  C   UNL     1     -11.674  11.722  67.976  1.00  0.00    -0.363 A  
HETATM   24  C   UNL     1      -9.528  12.521  67.194  1.00  0.00    -0.208 A  
HETATM   25  C   UNL     1     -11.754  12.785  68.878  1.00  0.00    -0.370 A  
HETATM   26  O   UNL     1      -7.557  14.408  67.411  1.00  0.00    -0.180 OA 
HETATM   27  O   UNL     1      -8.632  15.494  68.984  1.00  0.00    -0.196 OA 
HETATM   28  C   UNL     1      -9.615  13.587  68.100  1.00  0.00    -0.215 A  
HETATM   29  N   UNL     1      -8.521  14.564  68.169  1.00  0.00    -0.149 N  
HETATM   30  C   UNL     1     -10.724  13.723  68.942  1.00  0.00    -0.249 A  
ENDBRANCH  15  22
ENDBRANCH   6   8
ENDBRANCH   5   6
ENDBRANCH   4   5
ENDBRANCH   3   4
ENDBRANCH   2   3
TORSDOF 9
ENDMDL
MODEL       61
REMARK 921   NORMALIZED FREE ENERGY PREDICTED BY IDOCK:   -4.86 KCAL/MOL
REMARK 922        TOTAL FREE ENERGY PREDICTED BY IDOCK:   -9.00 KCAL/MOL
REMARK 923 INTER-LIGAND FREE ENERGY PREDICTED BY IDOCK:   -7.15 KCAL/MOL
REMARK 924 INTRA-LIGAND FREE ENERGY PREDICTED BY IDOCK:   -1.85 KCAL/MOL
REMARK 927      BINDING AFFINITY PREDICTED BY RF-SCORE:    0.00 PKD
ROOT
HETATM    1  C   UNL     1     -10.631   4.766  66.011  1.00  0.00    -0.254 C  
HETATM    2  O   UNL     1      -9.813   5.774  66.583  1.00  0.00    -0.148 OA 
ENDROOT
BRANCH   2   3
HETATM    3  C   UNL     1      -8.480   5.716  66.073  1.00  0.00    -0.132 C  
BRANCH   3   4
HETATM    4  C   UNL     1      -7.985   7.138  65.926  1.00  0.00    -0.116 C  
BRANCH   4   5
HETATM    5  O   UNL     1      -9.008   8.055  65.518  1.00  0.00    -0.116 OA 
BRANCH   5   6
HETATM    6  C   UNL     1      -8.524   9.257  65.128  1.00  0.00    -0.159 C  
HETATM    7  O   UNL     1      -7.373   9.454  64.770  1.00  0.00    -0.101 OA 
BRANCH   6   8
HETATM    8  C   UNL     1      -9.546  10.330  65.241  1.00  0.00    -0.324 C  
HETATM    9  C   UNL     1     -10.101  10.945  64.166  1.00  0.00    -0.355 C  
HETATM   10  C   UNL     1      -9.737  10.827  62.702  1.00  0.00    -0.246 C  
HETATM   11  N   UNL     1     -11.168  11.796  64.359  1.00  0.00    -0.326 NA 
HETATM   12  C   UNL     1     -11.649  12.221  65.575  1.00  0.00    -0.371 C  
HETATM   13  C   UNL     1     -11.149  11.700  66.723  1.00  0.00    -0.366 C  
HETATM   14  C   UNL     1     -12.719  13.282  65.485  1.00  0.00    -0.429 C  
HETATM   15  C   UNL     1     -10.076  10.598  66.672  1.00  0.00    -0.270 C  
BRANCH  13  16
HETATM   16  C   UNL     1     -11.583  12.299  68.015  1.00  0.00    -0.349 C  
HETATM   17  O   UNL     1     -11.278  13.430  68.363  1.00  0.00    -0.250 OA 
BRANCH  16  18
HETATM   18  O   UNL     1     -12.323  11.449  68.773  1.00  0.00    -0.480 OA 
BRANCH  18  19
HETATM   19  C   UNL     1     -11.810  11.270  70.114  1.00  0.00    -0.364 C  
HETATM   20  C   UNL     1     -12.700  12.014  71.106  1.00  0.00    -0.365 C  
HETATM   21  C   UNL     1     -11.768   9.782  70.434  1.00  0.00    -0.301 C  
ENDBRANCH  18  19
ENDBRANCH  16  18
ENDBRANCH  13  16
BRANCH  15  22
HETATM   22  C   UNL     1      -8.912  10.880  67.629  1.00  0.00    -0.140 A  
HETATM   23  C   UNL     1      -8.079  11.995  67.417  1.00  0.00    -0.168 A  
HETATM   24  C   UNL     1      -8.664  10.051  68.734  1.00  0.00    -0.136 A  
HETATM   25  C   UNL     1      -7.021  12.277  68.284  1.00  0.00    -0.082 A  
HETATM   26  O   UNL     1      -8.106   8.498  70.918  1.00  0.00    -0.103 OA 
HETATM   27  O   UNL     1      -6.405   9.753  71.500  1.00  0.00    -0.294 OA 
HETATM   28  C   UNL     1      -7.600  10.339  69.599  1.00  0.00    -0.164 A  
HETATM   29  N   UNL     1      -7.356   9.466  70.755  1.00  0.00    -0.126 N  
HETATM   30  C   UNL     1      -6.777  11.448  69.378  1.00  0.00    -0.122 A  
ENDBRANCH  15  22
ENDBRANCH   6   8
ENDBRANCH   5   6
ENDBRANCH   4   5
ENDBRANCH   3   4
ENDBRANCH   2   3
TORSDOF 9
ENDMDL
MODEL       62
REMARK 921   NORMALIZED FREE ENERGY PREDICTED BY IDOCK:   -4.86 KCAL/MOL
REMARK 922        TOTAL FREE ENERGY PREDICTED BY IDOCK:   -9.00 KCAL/MOL
REMARK 923 INTER-LIGAND FREE ENERGY PREDICTED BY IDOCK:   -7.27 KCAL/MOL
REMARK 924 INTRA-LIGAND FREE ENERGY PREDICTED BY IDOCK:   -1.73 KCAL/MOL
REMARK 927      BINDING AFFINITY PREDICTED BY RF-SCORE:    0.00 PKD
ROOT
HETATM    1  C   UNL     1     -13.120  15.279  70.970  1.00  0.00    -0.482 C  
HETATM    2  O   UNL     1     -12.223  14.565  70.132  1.00  0.00    -0.305 OA 
ENDROOT
BRANCH   2   3
HETATM    3  C   UNL     1     -11.712  15.396  69.088  1.00  0.00    -0.345 C  
BRANCH   3   4
HETATM    4  C   UNL     1     -11.939  14.672  67.779  1.00  0.00    -0.268 C  
BRANCH   4   5
HETATM    5  O   UNL     1     -10.936  13.690  67.493  1.00  0.00    -0.261 OA 
BRANCH   5   6
HETATM    6  C   UNL     1     -11.445  12.456  67.270  1.00  0.00    -0.354 C  
HETATM    7  O   UNL     1     -12.264  11.907  67.990  1.00  0.00    -0.491 OA 
BRANCH   6   8
HETATM    8  C   UNL     1     -10.845  11.818  66.069  1.00  0.00    -0.343 C  
HETATM    9  C   UNL     1     -11.402  11.888  64.833  1.00  0.00    -0.277 C  
HETATM   10  C   UNL     1     -12.746  12.445  64.418  1.00  0.00    -0.434 C  
HETATM   11  N   UNL     1     -10.687  11.423  63.749  1.00  0.00    -0.385 NA 
HETATM   12  C   UNL     1      -9.496  10.737  63.805  1.00  0.00    -0.283 C  
HETATM   13  C   UNL     1      -8.860  10.575  64.992  1.00  0.00    -0.207 C  
HETATM   14  C   UNL     1      -9.023  10.204  62.474  1.00  0.00    -0.284 C  
HETATM   15  C   UNL     1      -9.440  11.198  66.274  1.00  0.00    -0.220 C  
BRANCH  13  16
HETATM   16  C   UNL     1      -7.661   9.694  65.033  1.00  0.00    -0.119 C  
HETATM   17  O   UNL     1      -6.520  10.121  65.125  1.00  0.00    -0.108 OA 
BRANCH  16  18
HETATM   18  O   UNL     1      -7.968   8.375  64.927  1.00  0.00    -0.120 OA 
BRANCH  18  19
HETATM   19  C   UNL     1      -6.951   7.497  65.465  1.00  0.00    -0.060 C  
HETATM   20  C   UNL     1      -6.977   7.559  66.990  1.00  0.00    -0.083 C  
HETATM   21  C   UNL     1      -7.212   6.079  64.976  1.00  0.00    -0.066 C  
ENDBRANCH  18  19
ENDBRANCH  16  18
ENDBRANCH  13  16
BRANCH  15  22
HETATM   22  C   UNL     1      -9.460  10.205  67.442  1.00  0.00    -0.175 A  
HETATM   23  C   UNL     1     -10.344   9.109  67.421  1.00  0.00    -0.330 A  
HETATM   24  C   UNL     1      -8.595  10.355  68.537  1.00  0.00    -0.134 A  
HETATM   25  C   UNL     1     -10.369   8.185  68.468  1.00  0.00    -0.230 A  
HETATM   26  O   UNL     1      -6.944  10.559  70.710  1.00  0.00    -0.263 OA 
HETATM   27  O   UNL     1      -7.767   8.747  71.631  1.00  0.00    -0.192 OA 
HETATM   28  C   UNL     1      -8.627   9.425  69.585  1.00  0.00    -0.168 A  
HETATM   29  N   UNL     1      -7.712   9.591  70.722  1.00  0.00    -0.122 N  
HETATM   30  C   UNL     1      -9.511   8.341  69.555  1.00  0.00    -0.162 A  
ENDBRANCH  15  22
ENDBRANCH   6   8
ENDBRANCH   5   6
ENDBRANCH   4   5
ENDBRANCH   3   4
ENDBRANCH   2   3
TORSDOF 9
ENDMDL
MODEL       63
REMARK 921   NORMALIZED FREE ENERGY PREDICTED BY IDOCK:   -4.86 KCAL/MOL
REMARK 922        TOTAL FREE ENERGY PREDICTED BY IDOCK:   -9.00 KCAL/MOL
REMARK 923 INTER-LIGAND FREE ENERGY PREDICTED BY IDOCK:   -7.02 KCAL/MOL
REMARK 924 INTRA-LIGAND FREE ENERGY PREDICTED BY IDOCK:   -1.98 KCAL/MOL
REMARK 927      BINDING AFFINITY PREDICTED BY RF-SCORE:    0.00 PKD
ROOT
HETATM    1  C   UNL     1     -11.407   9.762  70.920  1.00  0.00    -0.365 C  
HETATM    2  O   UNL     1     -11.355  11.097  70.439  1.00  0.00    -0.251 OA 
ENDROOT
BRANCH   2   3
HETATM    3  C   UNL     1     -11.605  11.155  69.034  1.00  0.00    -0.324 C  
BRANCH   3   4
HETATM    4  C   UNL     1     -10.361  10.660  68.330  1.00  0.00    -0.177 C  
BRANCH   4   5
HETATM    5  O   UNL     1      -9.171  11.353  68.725  1.00  0.00    -0.175 OA 
BRANCH   5   6
HETATM    6  C   UNL     1      -8.345  11.630  67.690  1.00  0.00    -0.142 C  
HETATM    7  O   UNL     1      -8.186  10.905  66.720  1.00  0.00    -0.130 OA 
BRANCH   6   8
HETATM    8  C   UNL     1      -7.604  12.902  67.897  1.00  0.00    -0.138 C  
HETATM    9  C   UNL     1      -6.421  12.975  68.559  1.00  0.00    -0.084 C  
HETATM   10  C   UNL     1      -5.691  11.901  69.336  1.00  0.00    -0.073 C  
HETATM   11  N   UNL     1      -5.718  14.161  68.546  1.00  0.00    -0.088 NA 
HETATM   12  C   UNL     1      -6.172  15.360  68.047  1.00  0.00    -0.141 C  
HETATM   13  C   UNL     1      -7.358  15.418  67.391  1.00  0.00    -0.244 C  
HETATM   14  C   UNL     1      -5.258  16.531  68.316  1.00  0.00    -0.105 C  
HETATM   15  C   UNL     1      -8.180  14.137  67.160  1.00  0.00    -0.166 C  
BRANCH  13  16
HETATM   16  C   UNL     1      -7.885  16.756  67.008  1.00  0.00    -0.194 C  
HETATM   17  O   UNL     1      -7.821  17.199  65.871  1.00  0.00    -0.477 OA 
BRANCH  16  18
HETATM   18  O   UNL     1      -8.412  17.439  68.057  1.00  0.00    -0.223 OA 
BRANCH  18  19
HETATM   19  C   UNL     1      -9.274  18.533  67.663  1.00  0.00    -0.281 C  
HETATM   20  C   UNL     1     -10.687  18.010  67.421  1.00  0.00    -0.334 C  
HETATM   21  C   UNL     1      -9.267  19.589  68.761  1.00  0.00    -0.394 C  
ENDBRANCH  18  19
ENDBRANCH  16  18
ENDBRANCH  13  16
BRANCH  15  22
HETATM   22  C   UNL     1      -9.659  14.329  67.513  1.00  0.00    -0.216 A  
HETATM   23  C   UNL     1     -10.651  14.111  66.538  1.00  0.00    -0.282 A  
HETATM   24  C   UNL     1     -10.053  14.704  68.806  1.00  0.00    -0.235 A  
HETATM   25  C   UNL     1     -12.005  14.267  66.841  1.00  0.00    -0.467 A  
HETATM   26  O   UNL     1     -10.921  15.428  71.300  1.00  0.00    -0.340 OA 
HETATM   27  O   UNL     1     -13.027  15.376  70.691  1.00  0.00    -0.435 OA 
HETATM   28  C   UNL     1     -11.414  14.861  69.104  1.00  0.00    -0.302 A  
HETATM   29  N   UNL     1     -11.813  15.248  70.464  1.00  0.00    -0.295 N  
HETATM   30  C   UNL     1     -12.391  14.644  68.127  1.00  0.00     0.059 A  
ENDBRANCH  15  22
ENDBRANCH   6   8
ENDBRANCH   5   6
ENDBRANCH   4   5
ENDBRANCH   3   4
ENDBRANCH   2   3
TORSDOF 9
ENDMDL
MODEL       64
REMARK 921   NORMALIZED FREE ENERGY PREDICTED BY IDOCK:   -4.85 KCAL/MOL
REMARK 922        TOTAL FREE ENERGY PREDICTED BY IDOCK:   -8.98 KCAL/MOL
REMARK 923 INTER-LIGAND FREE ENERGY PREDICTED BY IDOCK:   -6.94 KCAL/MOL
REMARK 924 INTRA-LIGAND FREE ENERGY PREDICTED BY IDOCK:   -2.04 KCAL/MOL
REMARK 927      BINDING AFFINITY PREDICTED BY RF-SCORE:    0.00 PKD
ROOT
HETATM    1  C   UNL     1     -10.048  11.855  63.633  1.00  0.00    -0.426 C  
HETATM    2  O   UNL     1     -10.029  10.439  63.530  1.00  0.00    -0.277 OA 
ENDROOT
BRANCH   2   3
HETATM    3  C   UNL     1      -9.084  10.000  62.554  1.00  0.00    -0.292 C  
BRANCH   3   4
HETATM    4  C   UNL     1      -7.989   9.253  63.284  1.00  0.00    -0.145 C  
BRANCH   4   5
HETATM    5  O   UNL     1      -8.478   8.420  64.342  1.00  0.00    -0.139 OA 
BRANCH   5   6
HETATM    6  C   UNL     1      -7.745   8.509  65.475  1.00  0.00    -0.093 C  
HETATM    7  O   UNL     1      -6.899   7.697  65.816  1.00  0.00    -0.052 OA 
BRANCH   6   8
HETATM    8  C   UNL     1      -8.131   9.689  66.294  1.00  0.00    -0.112 C  
HETATM    9  C   UNL     1      -7.347  10.789  66.429  1.00  0.00    -0.142 C  
HETATM   10  C   UNL     1      -5.928  11.017  65.958  1.00  0.00    -0.109 C  
HETATM   11  N   UNL     1      -7.862  11.904  67.055  1.00  0.00    -0.162 NA 
HETATM   12  C   UNL     1      -9.068  11.973  67.713  1.00  0.00    -0.187 C  
HETATM   13  C   UNL     1      -9.924  10.922  67.675  1.00  0.00    -0.197 C  
HETATM   14  C   UNL     1      -9.301  13.271  68.449  1.00  0.00    -0.157 C  
HETATM   15  C   UNL     1      -9.573   9.665  66.859  1.00  0.00    -0.217 C  
BRANCH  13  16
HETATM   16  C   UNL     1     -11.143  10.977  68.528  1.00  0.00    -0.243 C  
HETATM   17  O   UNL     1     -12.260  11.195  68.084  1.00  0.00    -0.612 OA 
BRANCH  16  18
HETATM   18  O   UNL     1     -10.877  10.789  69.847  1.00  0.00    -0.261 OA 
BRANCH  18  19
HETATM   19  C   UNL     1     -11.978  10.206  70.584  1.00  0.00    -0.332 C  
HETATM   20  C   UNL     1     -11.453   9.108  71.504  1.00  0.00    -0.437 C  
HETATM   21  C   UNL     1     -12.671  11.300  71.385  1.00  0.00    -0.501 C  
ENDBRANCH  18  19
ENDBRANCH  16  18
ENDBRANCH  13  16
BRANCH  15  22
HETATM   22  C   UNL     1      -9.815   8.375  67.652  1.00  0.00    -0.222 A  
HETATM   23  C   UNL     1     -10.799   7.461  67.228  1.00  0.00    -0.326 A  
HETATM   24  C   UNL     1      -9.059   8.073  68.795  1.00  0.00    -0.144 A  
HETATM   25  C   UNL     1     -11.027   6.274  67.928  1.00  0.00    -0.421 A  
HETATM   26  O   UNL     1      -7.632   7.394  71.029  1.00  0.00    -0.083 OA 
HETATM   27  O   UNL     1      -8.726   5.510  71.276  1.00  0.00    -0.128 OA 
HETATM   28  C   UNL     1      -9.294   6.881  69.493  1.00  0.00    -0.147 A  
HETATM   29  N   UNL     1      -8.491   6.575  70.684  1.00  0.00    -0.133 N  
HETATM   30  C   UNL     1     -10.275   5.981  69.065  1.00  0.00    -0.245 A  
ENDBRANCH  15  22
ENDBRANCH   6   8
ENDBRANCH   5   6
ENDBRANCH   4   5
ENDBRANCH   3   4
ENDBRANCH   2   3
TORSDOF 9
ENDMDL
MODEL       65
REMARK 921   NORMALIZED FREE ENERGY PREDICTED BY IDOCK:   -4.83 KCAL/MOL
REMARK 922        TOTAL FREE ENERGY PREDICTED BY IDOCK:   -8.95 KCAL/MOL
REMARK 923 INTER-LIGAND FREE ENERGY PREDICTED BY IDOCK:   -8.04 KCAL/MOL
REMARK 924 INTRA-LIGAND FREE ENERGY PREDICTED BY IDOCK:   -0.91 KCAL/MOL
REMARK 927      BINDING AFFINITY PREDICTED BY RF-SCORE:    0.00 PKD
ROOT
HETATM    1  C   UNL     1      -9.599   7.060  71.250  1.00  0.00    -0.164 C  
HETATM    2  O   UNL     1     -10.935   7.539  71.201  1.00  0.00    -0.241 OA 
ENDROOT
BRANCH   2   3
HETATM    3  C   UNL     1     -11.027   8.876  71.694  1.00  0.00    -0.345 C  
BRANCH   3   4
HETATM    4  C   UNL     1     -10.841   9.810  70.518  1.00  0.00    -0.323 C  
BRANCH   4   5
HETATM    5  O   UNL     1     -11.536  11.054  70.666  1.00  0.00    -0.267 OA 
BRANCH   5   6
HETATM    6  C   UNL     1     -11.855  11.631  69.484  1.00  0.00    -0.348 C  
HETATM    7  O   UNL     1     -12.321  11.032  68.527  1.00  0.00    -0.536 OA 
BRANCH   6   8
HETATM    8  C   UNL     1     -11.518  13.078  69.465  1.00  0.00    -0.289 C  
HETATM    9  C   UNL     1     -12.167  14.004  70.216  1.00  0.00    -0.361 C  
HETATM   10  C   UNL     1     -13.404  13.845  71.072  1.00  0.00    -0.192 C  
HETATM   11  N   UNL     1     -11.670  15.289  70.272  1.00  0.00    -0.282 NA 
HETATM   12  C   UNL     1     -10.644  15.789  69.505  1.00  0.00    -0.272 C  
HETATM   13  C   UNL     1      -9.941  14.964  68.690  1.00  0.00    -0.224 C  
HETATM   14  C   UNL     1     -10.421  17.274  69.657  1.00  0.00     0.047 C  
HETATM   15  C   UNL     1     -10.254  13.458  68.653  1.00  0.00    -0.187 C  
BRANCH  13  16
HETATM   16  C   UNL     1      -8.947  15.572  67.763  1.00  0.00    -0.173 C  
HETATM   17  O   UNL     1      -9.258  16.122  66.717  1.00  0.00    -0.207 OA 
BRANCH  16  18
HETATM   18  O   UNL     1      -7.665  15.423  68.186  1.00  0.00    -0.118 OA 
BRANCH  18  19
HETATM   19  C   UNL     1      -6.810  16.543  67.855  1.00  0.00    -0.139 C  
HETATM   20  C   UNL     1      -6.964  17.635  68.910  1.00  0.00    -0.251 C  
HETATM   21  C   UNL     1      -5.368  16.060  67.780  1.00  0.00    -0.155 C  
ENDBRANCH  18  19
ENDBRANCH  16  18
ENDBRANCH  13  16
BRANCH  15  22
HETATM   22  C   UNL     1     -10.360  12.925  67.219  1.00  0.00    -0.234 A  
HETATM   23  C   UNL     1      -9.594  11.812  66.822  1.00  0.00    -0.212 A  
HETATM   24  C   UNL     1     -11.225  13.518  66.287  1.00  0.00    -0.310 A  
HETATM   25  C   UNL     1      -9.684  11.303  65.525  1.00  0.00    -0.268 A  
HETATM   26  O   UNL     1     -12.888  14.600  64.401  1.00  0.00    -0.578 OA 
HETATM   27  O   UNL     1     -12.274  13.144  62.881  1.00  0.00    -0.339 OA 
HETATM   28  C   UNL     1     -11.310  13.002  64.986  1.00  0.00    -0.296 A  
HETATM   29  N   UNL     1     -12.225  13.629  64.023  1.00  0.00    -0.425 N  
HETATM   30  C   UNL     1     -10.543  11.898  64.601  1.00  0.00    -0.353 A  
ENDBRANCH  15  22
ENDBRANCH   6   8
ENDBRANCH   5   6
ENDBRANCH   4   5
ENDBRANCH   3   4
ENDBRANCH   2   3
TORSDOF 9
ENDMDL
MODEL       66
REMARK 921   NORMALIZED FREE ENERGY PREDICTED BY IDOCK:   -4.81 KCAL/MOL
REMARK 922        TOTAL FREE ENERGY PREDICTED BY IDOCK:   -8.93 KCAL/MOL
REMARK 923 INTER-LIGAND FREE ENERGY PREDICTED BY IDOCK:   -7.52 KCAL/MOL
REMARK 924 INTRA-LIGAND FREE ENERGY PREDICTED BY IDOCK:   -1.41 KCAL/MOL
REMARK 927      BINDING AFFINITY PREDICTED BY RF-SCORE:    0.00 PKD
ROOT
HETATM    1  C   UNL     1      -9.022   6.720  70.664  1.00  0.00    -0.151 C  
HETATM    2  O   UNL     1      -9.438   7.333  71.875  1.00  0.00    -0.149 OA 
ENDROOT
BRANCH   2   3
HETATM    3  C   UNL     1      -9.311   8.754  71.810  1.00  0.00    -0.280 C  
BRANCH   3   4
HETATM    4  C   UNL     1      -8.910   9.112  70.395  1.00  0.00    -0.220 C  
BRANCH   4   5
HETATM    5  O   UNL     1      -9.579  10.275  69.893  1.00  0.00    -0.176 OA 
BRANCH   5   6
HETATM    6  C   UNL     1     -10.735   9.990  69.250  1.00  0.00    -0.224 C  
HETATM    7  O   UNL     1     -11.707   9.472  69.776  1.00  0.00    -0.022 OA 
BRANCH   6   8
HETATM    8  C   UNL     1     -10.665  10.333  67.805  1.00  0.00    -0.324 C  
HETATM    9  C   UNL     1     -10.071   9.537  66.880  1.00  0.00    -0.230 C  
HETATM   10  C   UNL     1      -9.252   8.281  67.082  1.00  0.00    -0.175 C  
HETATM   11  N   UNL     1     -10.212   9.845  65.543  1.00  0.00    -0.220 NA 
HETATM   12  C   UNL     1     -10.779  10.990  65.037  1.00  0.00    -0.194 C  
HETATM   13  C   UNL     1     -11.376  11.879  65.869  1.00  0.00    -0.365 C  
HETATM   14  C   UNL     1     -10.648  11.139  63.540  1.00  0.00    -0.393 C  
HETATM   15  C   UNL     1     -11.465  11.589  67.378  1.00  0.00    -0.349 C  
BRANCH  13  16
HETATM   16  C   UNL     1     -11.834  13.176  65.301  1.00  0.00    -0.365 C  
HETATM   17  O   UNL     1     -13.014  13.465  65.160  1.00  0.00    -0.710 OA 
BRANCH  16  18
HETATM   18  O   UNL     1     -10.808  13.986  64.932  1.00  0.00    -0.364 OA 
BRANCH  18  19
HETATM   19  C   UNL     1     -10.991  15.369  65.321  1.00  0.00    -0.387 C  
HETATM   20  C   UNL     1      -9.647  15.968  65.726  1.00  0.00    -0.311 C  
HETATM   21  C   UNL     1     -11.597  16.135  64.153  1.00  0.00     0.076 C  
ENDBRANCH  18  19
ENDBRANCH  16  18
ENDBRANCH  13  16
BRANCH  15  22
HETATM   22  C   UNL     1     -11.053  12.799  68.225  1.00  0.00    -0.288 A  
HETATM   23  C   UNL     1     -11.972  13.379  69.119  1.00  0.00    -0.363 A  
HETATM   24  C   UNL     1      -9.760  13.337  68.139  1.00  0.00    -0.227 A  
HETATM   25  C   UNL     1     -11.614  14.474  69.909  1.00  0.00    -0.340 A  
HETATM   26  O   UNL     1      -7.263  14.453  68.047  1.00  0.00    -0.110 OA 
HETATM   27  O   UNL     1      -7.772  15.960  69.557  1.00  0.00    -0.223 OA 
HETATM   28  C   UNL     1      -9.407  14.437  68.933  1.00  0.00    -0.096 A  
HETATM   29  N   UNL     1      -8.049  14.987  68.838  1.00  0.00    -0.165 N  
HETATM   30  C   UNL     1     -10.329  15.008  69.817  1.00  0.00    -0.172 A  
ENDBRANCH  15  22
ENDBRANCH   6   8
ENDBRANCH   5   6
ENDBRANCH   4   5
ENDBRANCH   3   4
ENDBRANCH   2   3
TORSDOF 9
ENDMDL
MODEL       67
REMARK 921   NORMALIZED FREE ENERGY PREDICTED BY IDOCK:   -4.80 KCAL/MOL
REMARK 922        TOTAL FREE ENERGY PREDICTED BY IDOCK:   -8.91 KCAL/MOL
REMARK 923 INTER-LIGAND FREE ENERGY PREDICTED BY IDOCK:   -7.32 KCAL/MOL
REMARK 924 INTRA-LIGAND FREE ENERGY PREDICTED BY IDOCK:   -1.59 KCAL/MOL
REMARK 927      BINDING AFFINITY PREDICTED BY RF-SCORE:    0.00 PKD
ROOT
HETATM    1  C   UNL     1      -9.129   7.870  73.318  1.00  0.00    -0.278 C  
HETATM    2  O   UNL     1      -8.558   8.751  72.363  1.00  0.00    -0.395 OA 
ENDROOT
BRANCH   2   3
HETATM    3  C   UNL     1      -7.424   8.163  71.723  1.00  0.00    -0.088 C  
BRANCH   3   4
HETATM    4  C   UNL     1      -6.467   9.282  71.374  1.00  0.00    -0.039 C  
BRANCH   4   5
HETATM    5  O   UNL     1      -7.097  10.374  70.692  1.00  0.00    -0.300 OA 
BRANCH   5   6
HETATM    6  C   UNL     1      -7.020  10.278  69.345  1.00  0.00    -0.083 C  
HETATM    7  O   UNL     1      -6.344   9.455  68.749  1.00  0.00    -0.047 OA 
BRANCH   6   8
HETATM    8  C   UNL     1      -7.817  11.335  68.668  1.00  0.00    -0.139 C  
HETATM    9  C   UNL     1      -7.430  12.635  68.608  1.00  0.00    -0.094 C  
HETATM   10  C   UNL     1      -6.271  13.321  69.296  1.00  0.00    -0.104 C  
HETATM   11  N   UNL     1      -8.137  13.507  67.807  1.00  0.00    -0.161 NA 
HETATM   12  C   UNL     1      -9.319  13.229  67.161  1.00  0.00    -0.240 C  
HETATM   13  C   UNL     1      -9.821  11.969  67.176  1.00  0.00    -0.205 C  
HETATM   14  C   UNL     1      -9.956  14.422  66.490  1.00  0.00    -0.291 C  
HETATM   15  C   UNL     1      -9.051  10.835  67.875  1.00  0.00    -0.150 C  
BRANCH  13  16
HETATM   16  C   UNL     1     -11.176  11.746  66.602  1.00  0.00    -0.323 C  
HETATM   17  O   UNL     1     -12.197  12.194  67.103  1.00  0.00    -0.507 OA 
BRANCH  16  18
HETATM   18  O   UNL     1     -11.159  10.971  65.486  1.00  0.00    -0.091 OA 
BRANCH  18  19
HETATM   19  C   UNL     1     -10.785  11.690  64.286  1.00  0.00    -0.341 C  
HETATM   20  C   UNL     1      -9.994  10.767  63.364  1.00  0.00    -0.385 C  
HETATM   21  C   UNL     1     -12.047  12.194  63.598  1.00  0.00    -0.648 C  
ENDBRANCH  18  19
ENDBRANCH  16  18
ENDBRANCH  13  16
BRANCH  15  22
HETATM   22  C   UNL     1      -9.959   9.991  68.778  1.00  0.00    -0.181 A  
HETATM   23  C   UNL     1      -9.918   8.585  68.702  1.00  0.00    -0.197 A  
HETATM   24  C   UNL     1     -10.828  10.594  69.700  1.00  0.00    -0.318 A  
HETATM   25  C   UNL     1     -10.727   7.797  69.523  1.00  0.00    -0.200 A  
HETATM   26  O   UNL     1     -12.549  11.675  71.533  1.00  0.00    -0.317 OA 
HETATM   27  O   UNL     1     -13.241   9.703  72.196  1.00  0.00    -0.419 OA 
HETATM   28  C   UNL     1     -11.639   9.797  70.520  1.00  0.00    -0.292 A  
HETATM   29  N   UNL     1     -12.539  10.441  71.485  1.00  0.00    -0.414 N  
HETATM   30  C   UNL     1     -11.592   8.401  70.435  1.00  0.00    -0.066 A  
ENDBRANCH  15  22
ENDBRANCH   6   8
ENDBRANCH   5   6
ENDBRANCH   4   5
ENDBRANCH   3   4
ENDBRANCH   2   3
TORSDOF 9
ENDMDL
MODEL       68
REMARK 921   NORMALIZED FREE ENERGY PREDICTED BY IDOCK:   -4.80 KCAL/MOL
REMARK 922        TOTAL FREE ENERGY PREDICTED BY IDOCK:   -8.90 KCAL/MOL
REMARK 923 INTER-LIGAND FREE ENERGY PREDICTED BY IDOCK:   -7.50 KCAL/MOL
REMARK 924 INTRA-LIGAND FREE ENERGY PREDICTED BY IDOCK:   -1.40 KCAL/MOL
REMARK 927      BINDING AFFINITY PREDICTED BY RF-SCORE:    0.00 PKD
ROOT
HETATM    1  C   UNL     1      -8.986   2.792  66.465  1.00  0.00    -0.148 C  
HETATM    2  O   UNL     1      -9.837   3.718  67.122  1.00  0.00    -0.175 OA 
ENDROOT
BRANCH   2   3
HETATM    3  C   UNL     1     -10.278   4.743  66.230  1.00  0.00    -0.282 C  
BRANCH   3   4
HETATM    4  C   UNL     1      -9.342   5.921  66.391  1.00  0.00    -0.157 C  
BRANCH   4   5
HETATM    5  O   UNL     1     -10.009   7.188  66.333  1.00  0.00    -0.133 OA 
BRANCH   5   6
HETATM    6  C   UNL     1      -9.167   8.225  66.120  1.00  0.00    -0.192 C  
HETATM    7  O   UNL     1      -7.967   8.111  65.920  1.00  0.00    -0.093 OA 
BRANCH   6   8
HETATM    8  C   UNL     1      -9.865   9.534  66.213  1.00  0.00    -0.334 C  
HETATM    9  C   UNL     1     -10.029  10.367  65.154  1.00  0.00    -0.322 C  
HETATM   10  C   UNL     1      -9.453  10.267  63.759  1.00  0.00    -0.352 C  
HETATM   11  N   UNL     1     -10.844  11.471  65.292  1.00  0.00    -0.280 NA 
HETATM   12  C   UNL     1     -11.405  11.917  66.466  1.00  0.00    -0.341 C  
HETATM   13  C   UNL     1     -11.280  11.183  67.600  1.00  0.00    -0.364 C  
HETATM   14  C   UNL     1     -12.114  13.244  66.351  1.00  0.00    -0.454 C  
HETATM   15  C   UNL     1     -10.553   9.827  67.570  1.00  0.00    -0.335 C  
BRANCH  13  16
HETATM   16  C   UNL     1     -11.762  11.776  68.877  1.00  0.00    -0.323 C  
HETATM   17  O   UNL     1     -11.374  12.854  69.303  1.00  0.00    -0.261 OA 
BRANCH  16  18
HETATM   18  O   UNL     1     -12.651  10.982  69.529  1.00  0.00    -0.289 OA 
BRANCH  18  19
HETATM   19  C   UNL     1     -12.354  10.809  70.935  1.00  0.00    -0.396 C  
HETATM   20  C   UNL     1     -13.149  11.822  71.754  1.00  0.00    -0.480 C  
HETATM   21  C   UNL     1     -12.704   9.385  71.344  1.00  0.00    -0.425 C  
ENDBRANCH  18  19
ENDBRANCH  16  18
ENDBRANCH  13  16
BRANCH  15  22
HETATM   22  C   UNL     1      -9.549   9.685  68.721  1.00  0.00    -0.153 A  
HETATM   23  C   UNL     1      -9.673   8.624  69.638  1.00  0.00    -0.179 A  
HETATM   24  C   UNL     1      -8.486  10.589  68.872  1.00  0.00    -0.152 A  
HETATM   25  C   UNL     1      -8.763   8.469  70.685  1.00  0.00    -0.171 A  
HETATM   26  O   UNL     1      -6.380  12.296  69.246  1.00  0.00    -0.088 OA 
HETATM   27  O   UNL     1      -5.679  11.203  71.013  1.00  0.00    -0.303 OA 
HETATM   28  C   UNL     1      -7.577  10.428  69.926  1.00  0.00    -0.100 A  
HETATM   29  N   UNL     1      -6.466  11.378  70.069  1.00  0.00    -0.132 N  
HETATM   30  C   UNL     1      -7.711   9.372  70.833  1.00  0.00    -0.089 A  
ENDBRANCH  15  22
ENDBRANCH   6   8
ENDBRANCH   5   6
ENDBRANCH   4   5
ENDBRANCH   3   4
ENDBRANCH   2   3
TORSDOF 9
ENDMDL
MODEL       69
REMARK 921   NORMALIZED FREE ENERGY PREDICTED BY IDOCK:   -4.79 KCAL/MOL
REMARK 922        TOTAL FREE ENERGY PREDICTED BY IDOCK:   -8.89 KCAL/MOL
REMARK 923 INTER-LIGAND FREE ENERGY PREDICTED BY IDOCK:   -7.43 KCAL/MOL
REMARK 924 INTRA-LIGAND FREE ENERGY PREDICTED BY IDOCK:   -1.46 KCAL/MOL
REMARK 927      BINDING AFFINITY PREDICTED BY RF-SCORE:    0.00 PKD
ROOT
HETATM    1  C   UNL     1     -13.395  12.565  71.978  1.00  0.00    -0.426 C  
HETATM    2  O   UNL     1     -13.379  11.152  72.113  1.00  0.00    -0.452 OA 
ENDROOT
BRANCH   2   3
HETATM    3  C   UNL     1     -13.008  10.516  70.889  1.00  0.00    -0.367 C  
BRANCH   3   4
HETATM    4  C   UNL     1     -11.503  10.364  70.892  1.00  0.00    -0.297 C  
BRANCH   4   5
HETATM    5  O   UNL     1     -11.036   9.333  70.013  1.00  0.00    -0.231 OA 
BRANCH   5   6
HETATM    6  C   UNL     1      -9.693   9.346  69.841  1.00  0.00    -0.212 C  
HETATM    7  O   UNL     1      -8.888   9.624  70.716  1.00  0.00    -0.202 OA 
BRANCH   6   8
HETATM    8  C   UNL     1      -9.312   9.036  68.438  1.00  0.00    -0.143 C  
HETATM    9  C   UNL     1      -8.652   7.905  68.080  1.00  0.00    -0.126 C  
HETATM   10  C   UNL     1      -8.041   6.834  68.956  1.00  0.00    -0.117 C  
HETATM   11  N   UNL     1      -8.501   7.615  66.740  1.00  0.00    -0.123 NA 
HETATM   12  C   UNL     1      -8.822   8.449  65.695  1.00  0.00    -0.156 C  
HETATM   13  C   UNL     1      -9.456   9.624  65.933  1.00  0.00    -0.296 C  
HETATM   14  C   UNL     1      -8.395   7.939  64.339  1.00  0.00     0.007 C  
HETATM   15  C   UNL     1      -9.863  10.009  67.366  1.00  0.00    -0.226 C  
BRANCH  13  16
HETATM   16  C   UNL     1      -9.642  10.566  64.795  1.00  0.00    -0.285 C  
HETATM   17  O   UNL     1      -8.759  10.826  63.991  1.00  0.00    -0.158 OA 
BRANCH  16  18
HETATM   18  O   UNL     1     -10.880  11.124  64.765  1.00  0.00    -0.289 OA 
BRANCH  18  19
HETATM   19  C   UNL     1     -10.975  12.279  63.899  1.00  0.00    -0.406 C  
HETATM   20  C   UNL     1     -12.393  12.388  63.344  1.00  0.00    -0.603 C  
HETATM   21  C   UNL     1     -10.607  13.525  64.694  1.00  0.00    -0.441 C  
ENDBRANCH  18  19
ENDBRANCH  16  18
ENDBRANCH  13  16
BRANCH  15  22
HETATM   22  C   UNL     1      -9.477  11.454  67.708  1.00  0.00    -0.167 A  
HETATM   23  C   UNL     1      -8.135  11.868  67.608  1.00  0.00    -0.148 A  
HETATM   24  C   UNL     1     -10.445  12.388  68.107  1.00  0.00    -0.228 A  
HETATM   25  C   UNL     1      -7.764  13.181  67.902  1.00  0.00    -0.147 A  
HETATM   26  O   UNL     1     -12.260  14.282  68.886  1.00  0.00    -0.306 OA 
HETATM   27  O   UNL     1     -10.718  15.830  69.064  1.00  0.00    -0.211 OA 
HETATM   28  C   UNL     1     -10.066  13.705  68.402  1.00  0.00    -0.241 A  
HETATM   29  N   UNL     1     -11.091  14.673  68.812  1.00  0.00    -0.248 N  
HETATM   30  C   UNL     1      -8.729  14.105  68.301  1.00  0.00    -0.181 A  
ENDBRANCH  15  22
ENDBRANCH   6   8
ENDBRANCH   5   6
ENDBRANCH   4   5
ENDBRANCH   3   4
ENDBRANCH   2   3
TORSDOF 9
ENDMDL
MODEL       70
REMARK 921   NORMALIZED FREE ENERGY PREDICTED BY IDOCK:   -4.78 KCAL/MOL
REMARK 922        TOTAL FREE ENERGY PREDICTED BY IDOCK:   -8.87 KCAL/MOL
REMARK 923 INTER-LIGAND FREE ENERGY PREDICTED BY IDOCK:   -7.30 KCAL/MOL
REMARK 924 INTRA-LIGAND FREE ENERGY PREDICTED BY IDOCK:   -1.57 KCAL/MOL
REMARK 927      BINDING AFFINITY PREDICTED BY RF-SCORE:    0.00 PKD
ROOT
HETATM    1  C   UNL     1      -9.741  18.886  68.423  1.00  0.00    -0.379 C  
HETATM    2  O   UNL     1      -9.799  17.480  68.237  1.00  0.00    -0.287 OA 
ENDROOT
BRANCH   2   3
HETATM    3  C   UNL     1     -10.779  16.882  69.087  1.00  0.00    -0.298 C  
BRANCH   3   4
HETATM    4  C   UNL     1     -10.143  15.671  69.733  1.00  0.00    -0.287 C  
BRANCH   4   5
HETATM    5  O   UNL     1     -10.344  14.461  68.992  1.00  0.00    -0.232 OA 
BRANCH   5   6
HETATM    6  C   UNL     1      -9.226  14.027  68.364  1.00  0.00    -0.196 C  
HETATM    7  O   UNL     1      -8.089  14.308  68.709  1.00  0.00    -0.141 OA 
BRANCH   6   8
HETATM    8  C   UNL     1      -9.546  13.210  67.164  1.00  0.00    -0.235 C  
HETATM    9  C   UNL     1     -10.306  13.664  66.136  1.00  0.00    -0.297 C  
HETATM   10  C   UNL     1     -11.095  14.950  66.023  1.00  0.00    -0.334 C  
HETATM   11  N   UNL     1     -10.399  12.907  64.987  1.00  0.00    -0.313 NA 
HETATM   12  C   UNL     1      -9.914  11.631  64.823  1.00  0.00    -0.254 C  
HETATM   13  C   UNL     1      -9.166  11.057  65.798  1.00  0.00    -0.226 C  
HETATM   14  C   UNL     1     -10.305  10.980  63.518  1.00  0.00    -0.402 C  
HETATM   15  C   UNL     1      -8.815  11.847  67.072  1.00  0.00    -0.190 C  
BRANCH  13  16
HETATM   16  C   UNL     1      -8.796   9.623  65.650  1.00  0.00    -0.159 C  
HETATM   17  O   UNL     1      -7.682   9.252  65.310  1.00  0.00    -0.099 OA 
BRANCH  16  18
HETATM   18  O   UNL     1      -9.830   8.779  65.902  1.00  0.00    -0.225 OA 
BRANCH  18  19
HETATM   19  C   UNL     1      -9.488   7.691  66.792  1.00  0.00    -0.191 C  
HETATM   20  C   UNL     1     -10.656   7.415  67.735  1.00  0.00    -0.278 C  
HETATM   21  C   UNL     1      -9.158   6.458  65.962  1.00  0.00    -0.118 C  
ENDBRANCH  18  19
ENDBRANCH  16  18
ENDBRANCH  13  16
BRANCH  15  22
HETATM   22  C   UNL     1      -9.053  11.026  68.345  1.00  0.00    -0.161 A  
HETATM   23  C   UNL     1      -7.973  10.387  68.984  1.00  0.00    -0.131 A  
HETATM   24  C   UNL     1     -10.335  10.909  68.903  1.00  0.00    -0.222 A  
HETATM   25  C   UNL     1      -8.166   9.644  70.151  1.00  0.00    -0.206 A  
HETATM   26  O   UNL     1     -12.795  10.627  70.071  1.00  0.00    -0.235 OA 
HETATM   27  O   UNL     1     -11.994   9.383  71.689  1.00  0.00    -0.347 OA 
HETATM   28  C   UNL     1     -10.522  10.161  70.074  1.00  0.00    -0.274 A  
HETATM   29  N   UNL     1     -11.868  10.052  70.651  1.00  0.00    -0.304 N  
HETATM   30  C   UNL     1      -9.442   9.528  70.700  1.00  0.00    -0.277 A  
ENDBRANCH  15  22
ENDBRANCH   6   8
ENDBRANCH   5   6
ENDBRANCH   4   5
ENDBRANCH   3   4
ENDBRANCH   2   3
TORSDOF 9
ENDMDL
MODEL       71
REMARK 921   NORMALIZED FREE ENERGY PREDICTED BY IDOCK:   -4.77 KCAL/MOL
REMARK 922        TOTAL FREE ENERGY PREDICTED BY IDOCK:   -8.86 KCAL/MOL
REMARK 923 INTER-LIGAND FREE ENERGY PREDICTED BY IDOCK:   -7.04 KCAL/MOL
REMARK 924 INTRA-LIGAND FREE ENERGY PREDICTED BY IDOCK:   -1.82 KCAL/MOL
REMARK 927      BINDING AFFINITY PREDICTED BY RF-SCORE:    0.00 PKD
ROOT
HETATM    1  C   UNL     1      -9.830   4.313  73.225  1.00  0.00    -0.131 C  
HETATM    2  O   UNL     1     -11.079   4.961  73.408  1.00  0.00    -0.295 OA 
ENDROOT
BRANCH   2   3
HETATM    3  C   UNL     1     -11.373   5.843  72.324  1.00  0.00    -0.298 C  
BRANCH   3   4
HETATM    4  C   UNL     1     -10.323   6.933  72.326  1.00  0.00    -0.196 C  
BRANCH   4   5
HETATM    5  O   UNL     1     -10.242   7.644  71.084  1.00  0.00    -0.196 OA 
BRANCH   5   6
HETATM    6  C   UNL     1      -9.690   8.874  71.209  1.00  0.00    -0.289 C  
HETATM    7  O   UNL     1      -8.804   9.155  72.000  1.00  0.00    -0.331 OA 
BRANCH   6   8
HETATM    8  C   UNL     1     -10.331   9.863  70.303  1.00  0.00    -0.339 C  
HETATM    9  C   UNL     1     -11.550  10.410  70.542  1.00  0.00    -0.344 C  
HETATM   10  C   UNL     1     -12.561  10.064  71.613  1.00  0.00    -0.524 C  
HETATM   11  N   UNL     1     -11.984  11.450  69.748  1.00  0.00    -0.334 NA 
HETATM   12  C   UNL     1     -11.363  11.907  68.609  1.00  0.00    -0.276 C  
HETATM   13  C   UNL     1     -10.153  11.412  68.250  1.00  0.00    -0.204 C  
HETATM   14  C   UNL     1     -12.149  12.946  67.847  1.00  0.00    -0.209 C  
HETATM   15  C   UNL     1      -9.446  10.372  69.138  1.00  0.00    -0.220 C  
BRANCH  13  16
HETATM   16  C   UNL     1      -9.590  11.815  66.932  1.00  0.00    -0.193 C  
HETATM   17  O   UNL     1      -8.638  12.572  66.815  1.00  0.00    -0.183 OA 
BRANCH  16  18
HETATM   18  O   UNL     1     -10.264  11.280  65.881  1.00  0.00    -0.233 OA 
BRANCH  18  19
HETATM   19  C   UNL     1      -9.472  11.179  64.674  1.00  0.00    -0.213 C  
HETATM   20  C   UNL     1      -8.931   9.759  64.534  1.00  0.00    -0.278 C  
HETATM   21  C   UNL     1     -10.341  11.550  63.480  1.00  0.00    -0.484 C  
ENDBRANCH  18  19
ENDBRANCH  16  18
ENDBRANCH  13  16
BRANCH  15  22
HETATM   22  C   UNL     1      -8.903   9.191  68.324  1.00  0.00    -0.129 A  
HETATM   23  C   UNL     1      -7.518   9.060  68.110  1.00  0.00    -0.084 A  
HETATM   24  C   UNL     1      -9.765   8.217  67.796  1.00  0.00    -0.194 A  
HETATM   25  C   UNL     1      -7.001   7.985  67.382  1.00  0.00    -0.075 A  
HETATM   26  O   UNL     1     -11.362   6.265  66.734  1.00  0.00    -0.229 OA 
HETATM   27  O   UNL     1      -9.651   5.188  65.885  1.00  0.00    -0.158 OA 
HETATM   28  C   UNL     1      -9.240   7.142  67.066  1.00  0.00    -0.144 A  
HETATM   29  N   UNL     1     -10.152   6.126  66.525  1.00  0.00    -0.152 N  
HETATM   30  C   UNL     1      -7.861   7.022  66.857  1.00  0.00    -0.107 A  
ENDBRANCH  15  22
ENDBRANCH   6   8
ENDBRANCH   5   6
ENDBRANCH   4   5
ENDBRANCH   3   4
ENDBRANCH   2   3
TORSDOF 9
ENDMDL
MODEL       72
REMARK 921   NORMALIZED FREE ENERGY PREDICTED BY IDOCK:   -4.77 KCAL/MOL
REMARK 922        TOTAL FREE ENERGY PREDICTED BY IDOCK:   -8.85 KCAL/MOL
REMARK 923 INTER-LIGAND FREE ENERGY PREDICTED BY IDOCK:   -8.23 KCAL/MOL
REMARK 924 INTRA-LIGAND FREE ENERGY PREDICTED BY IDOCK:   -0.63 KCAL/MOL
REMARK 927      BINDING AFFINITY PREDICTED BY RF-SCORE:    0.00 PKD
ROOT
HETATM    1  C   UNL     1     -12.732  12.055  63.239  1.00  0.00    -0.303 C  
HETATM    2  O   UNL     1     -12.494  13.455  63.261  1.00  0.00    -0.739 OA 
ENDROOT
BRANCH   2   3
HETATM    3  C   UNL     1     -12.126  13.900  64.567  1.00  0.00    -0.443 C  
BRANCH   3   4
HETATM    4  C   UNL     1     -12.341  12.745  65.520  1.00  0.00    -0.434 C  
BRANCH   4   5
HETATM    5  O   UNL     1     -11.178  11.925  65.689  1.00  0.00    -0.320 OA 
BRANCH   5   6
HETATM    6  C   UNL     1     -11.011  11.492  66.960  1.00  0.00    -0.294 C  
HETATM    7  O   UNL     1     -11.891  10.985  67.638  1.00  0.00    -0.599 OA 
BRANCH   6   8
HETATM    8  C   UNL     1      -9.636  11.757  67.459  1.00  0.00    -0.179 C  
HETATM    9  C   UNL     1      -8.770  10.773  67.814  1.00  0.00    -0.130 C  
HETATM   10  C   UNL     1      -9.012   9.286  67.940  1.00  0.00    -0.130 C  
HETATM   11  N   UNL     1      -7.460  11.103  68.091  1.00  0.00    -0.089 NA 
HETATM   12  C   UNL     1      -6.957  12.378  68.199  1.00  0.00    -0.087 C  
HETATM   13  C   UNL     1      -7.738  13.445  67.900  1.00  0.00    -0.153 C  
HETATM   14  C   UNL     1      -5.526  12.443  68.676  1.00  0.00    -0.054 C  
HETATM   15  C   UNL     1      -9.176  13.236  67.395  1.00  0.00    -0.216 C  
BRANCH  13  16
HETATM   16  C   UNL     1      -7.207  14.807  68.182  1.00  0.00    -0.122 C  
HETATM   17  O   UNL     1      -7.247  15.325  69.288  1.00  0.00    -0.152 OA 
BRANCH  16  18
HETATM   18  O   UNL     1      -6.704  15.419  67.078  1.00  0.00    -0.261 OA 
BRANCH  18  19
HETATM   19  C   UNL     1      -6.594  16.856  67.210  1.00  0.00    -0.173 C  
HETATM   20  C   UNL     1      -5.168  17.292  66.885  1.00  0.00    -0.195 C  
HETATM   21  C   UNL     1      -7.591  17.517  66.269  1.00  0.00    -0.343 C  
ENDBRANCH  18  19
ENDBRANCH  16  18
ENDBRANCH  13  16
BRANCH  15  22
HETATM   22  C   UNL     1     -10.182  14.139  68.119  1.00  0.00    -0.241 A  
HETATM   23  C   UNL     1     -10.316  15.489  67.741  1.00  0.00    -0.263 A  
HETATM   24  C   UNL     1     -10.991  13.642  69.152  1.00  0.00    -0.235 A  
HETATM   25  C   UNL     1     -11.234  16.326  68.378  1.00  0.00    -0.349 A  
HETATM   26  O   UNL     1     -12.617  12.764  71.170  1.00  0.00    -0.371 OA 
HETATM   27  O   UNL     1     -13.557  14.731  71.404  1.00  0.00    -0.374 OA 
HETATM   28  C   UNL     1     -11.909  14.488  69.789  1.00  0.00    -0.315 A  
HETATM   29  N   UNL     1     -12.755  13.953  70.863  1.00  0.00    -0.344 N  
HETATM   30  C   UNL     1     -12.034  15.828  69.406  1.00  0.00    -0.321 A  
ENDBRANCH  15  22
ENDBRANCH   6   8
ENDBRANCH   5   6
ENDBRANCH   4   5
ENDBRANCH   3   4
ENDBRANCH   2   3
TORSDOF 9
ENDMDL
MODEL       73
REMARK 921   NORMALIZED FREE ENERGY PREDICTED BY IDOCK:   -4.74 KCAL/MOL
REMARK 922        TOTAL FREE ENERGY PREDICTED BY IDOCK:   -8.81 KCAL/MOL
REMARK 923 INTER-LIGAND FREE ENERGY PREDICTED BY IDOCK:   -8.11 KCAL/MOL
REMARK 924 INTRA-LIGAND FREE ENERGY PREDICTED BY IDOCK:   -0.70 KCAL/MOL
REMARK 927      BINDING AFFINITY PREDICTED BY RF-SCORE:    0.00 PKD
ROOT
HETATM    1  C   UNL     1     -10.761  18.023  65.473  1.00  0.00     0.042 C  
HETATM    2  O   UNL     1     -11.091  17.018  64.527  1.00  0.00    -1.098 OA 
ENDROOT
BRANCH   2   3
HETATM    3  C   UNL     1     -10.792  15.714  65.027  1.00  0.00    -0.450 C  
BRANCH   3   4
HETATM    4  C   UNL     1      -9.466  15.797  65.751  1.00  0.00    -0.299 C  
BRANCH   4   5
HETATM    5  O   UNL     1      -9.003  14.529  66.232  1.00  0.00    -0.194 OA 
BRANCH   5   6
HETATM    6  C   UNL     1      -9.278  14.322  67.541  1.00  0.00    -0.197 C  
HETATM    7  O   UNL     1      -9.966  15.061  68.227  1.00  0.00    -0.218 OA 
BRANCH   6   8
HETATM    8  C   UNL     1      -8.593  13.111  68.066  1.00  0.00    -0.182 C  
HETATM    9  C   UNL     1      -7.427  13.158  68.759  1.00  0.00    -0.050 C  
HETATM   10  C   UNL     1      -6.512  14.335  69.016  1.00  0.00    -0.100 C  
HETATM   11  N   UNL     1      -6.961  12.009  69.362  1.00  0.00    -0.034 NA 
HETATM   12  C   UNL     1      -7.486  10.747  69.205  1.00  0.00    -0.135 C  
HETATM   13  C   UNL     1      -8.634  10.571  68.505  1.00  0.00    -0.135 C  
HETATM   14  C   UNL     1      -6.673   9.651  69.851  1.00  0.00    -0.069 C  
HETATM   15  C   UNL     1      -9.380  11.784  67.922  1.00  0.00    -0.184 C  
BRANCH  13  16
HETATM   16  C   UNL     1      -9.081   9.179  68.225  1.00  0.00    -0.132 C  
HETATM   17  O   UNL     1      -8.437   8.394  67.544  1.00  0.00    -0.127 OA 
BRANCH  16  18
HETATM   18  O   UNL     1     -10.286   8.887  68.779  1.00  0.00    -0.206 OA 
BRANCH  18  19
HETATM   19  C   UNL     1     -10.193   8.305  70.101  1.00  0.00    -0.199 C  
HETATM   20  C   UNL     1     -10.558   9.353  71.148  1.00  0.00    -0.403 C  
HETATM   21  C   UNL     1     -11.130   7.108  70.181  1.00  0.00    -0.301 C  
ENDBRANCH  18  19
ENDBRANCH  16  18
ENDBRANCH  13  16
BRANCH  15  22
HETATM   22  C   UNL     1      -9.791  11.563  66.461  1.00  0.00    -0.228 A  
HETATM   23  C   UNL     1      -8.933  10.873  65.584  1.00  0.00    -0.209 A  
HETATM   24  C   UNL     1     -11.025  12.024  65.977  1.00  0.00    -0.346 A  
HETATM   25  C   UNL     1      -9.293  10.649  64.254  1.00  0.00    -0.298 A  
HETATM   26  O   UNL     1     -13.410  12.878  64.942  1.00  0.00    -0.716 OA 
HETATM   27  O   UNL     1     -12.957  12.060  62.959  1.00  0.00    -0.540 OA 
HETATM   28  C   UNL     1     -11.379  11.797  64.640  1.00  0.00    -0.256 A  
HETATM   29  N   UNL     1     -12.676  12.280  64.148  1.00  0.00    -0.399 N  
HETATM   30  C   UNL     1     -10.518  11.112  63.776  1.00  0.00    -0.444 A  
ENDBRANCH  15  22
ENDBRANCH   6   8
ENDBRANCH   5   6
ENDBRANCH   4   5
ENDBRANCH   3   4
ENDBRANCH   2   3
TORSDOF 9
ENDMDL
MODEL       74
REMARK 921   NORMALIZED FREE ENERGY PREDICTED BY IDOCK:   -4.74 KCAL/MOL
REMARK 922        TOTAL FREE ENERGY PREDICTED BY IDOCK:   -8.81 KCAL/MOL
REMARK 923 INTER-LIGAND FREE ENERGY PREDICTED BY IDOCK:   -7.19 KCAL/MOL
REMARK 924 INTRA-LIGAND FREE ENERGY PREDICTED BY IDOCK:   -1.62 KCAL/MOL
REMARK 927      BINDING AFFINITY PREDICTED BY RF-SCORE:    0.00 PKD
ROOT
HETATM    1  C   UNL     1     -11.393   4.603  73.302  1.00  0.00    -0.304 C  
HETATM    2  O   UNL     1     -11.522   5.747  72.472  1.00  0.00    -0.293 OA 
ENDROOT
BRANCH   2   3
HETATM    3  C   UNL     1     -10.492   5.792  71.483  1.00  0.00    -0.235 C  
BRANCH   3   4
HETATM    4  C   UNL     1     -10.859   6.876  70.493  1.00  0.00    -0.253 C  
BRANCH   4   5
HETATM    5  O   UNL     1     -11.367   8.063  71.113  1.00  0.00    -0.257 OA 
BRANCH   5   6
HETATM    6  C   UNL     1     -10.467   9.073  71.153  1.00  0.00    -0.293 C  
HETATM    7  O   UNL     1      -9.459   9.072  71.843  1.00  0.00    -0.313 OA 
BRANCH   6   8
HETATM    8  C   UNL     1     -10.878  10.215  70.296  1.00  0.00    -0.370 C  
HETATM    9  C   UNL     1     -11.959  10.992  70.560  1.00  0.00    -0.379 C  
HETATM   10  C   UNL     1     -13.032  10.814  71.611  1.00  0.00    -0.581 C  
HETATM   11  N   UNL     1     -12.159  12.136  69.816  1.00  0.00    -0.271 NA 
HETATM   12  C   UNL     1     -11.444  12.507  68.701  1.00  0.00    -0.306 C  
HETATM   13  C   UNL     1     -10.359  11.788  68.320  1.00  0.00    -0.217 C  
HETATM   14  C   UNL     1     -11.988  13.722  67.989  1.00  0.00    -0.390 C  
HETATM   15  C   UNL     1      -9.893  10.583  69.157  1.00  0.00    -0.233 C  
BRANCH  13  16
HETATM   16  C   UNL     1      -9.710  12.127  67.024  1.00  0.00    -0.202 C  
HETATM   17  O   UNL     1     -10.268  12.000  65.944  1.00  0.00    -0.220 OA 
BRANCH  16  18
HETATM   18  O   UNL     1      -8.431  12.561  67.168  1.00  0.00    -0.179 OA 
BRANCH  18  19
HETATM   19  C   UNL     1      -8.315  13.782  67.935  1.00  0.00    -0.172 C  
HETATM   20  C   UNL     1      -6.984  13.792  68.683  1.00  0.00    -0.102 C  
HETATM   21  C   UNL     1      -8.415  14.972  66.991  1.00  0.00    -0.258 C  
ENDBRANCH  18  19
ENDBRANCH  16  18
ENDBRANCH  13  16
BRANCH  15  22
HETATM   22  C   UNL     1      -9.599   9.354  68.288  1.00  0.00    -0.156 A  
HETATM   23  C   UNL     1     -10.630   8.761  67.534  1.00  0.00    -0.298 A  
HETATM   24  C   UNL     1      -8.307   8.811  68.213  1.00  0.00    -0.126 A  
HETATM   25  C   UNL     1     -10.381   7.649  66.726  1.00  0.00    -0.343 A  
HETATM   26  O   UNL     1      -5.822   7.685  67.997  1.00  0.00    -0.036 OA 
HETATM   27  O   UNL     1      -6.529   6.152  66.598  1.00  0.00    -0.043 OA 
HETATM   28  C   UNL     1      -8.065   7.695  67.402  1.00  0.00    -0.119 A  
HETATM   29  N   UNL     1      -6.707   7.140  67.328  1.00  0.00    -0.062 N  
HETATM   30  C   UNL     1      -9.096   7.111  66.658  1.00  0.00    -0.175 A  
ENDBRANCH  15  22
ENDBRANCH   6   8
ENDBRANCH   5   6
ENDBRANCH   4   5
ENDBRANCH   3   4
ENDBRANCH   2   3
TORSDOF 9
ENDMDL
MODEL       75
REMARK 921   NORMALIZED FREE ENERGY PREDICTED BY IDOCK:   -4.70 KCAL/MOL
REMARK 922        TOTAL FREE ENERGY PREDICTED BY IDOCK:   -8.75 KCAL/MOL
REMARK 923 INTER-LIGAND FREE ENERGY PREDICTED BY IDOCK:   -7.38 KCAL/MOL
REMARK 924 INTRA-LIGAND FREE ENERGY PREDICTED BY IDOCK:   -1.36 KCAL/MOL
REMARK 927      BINDING AFFINITY PREDICTED BY RF-SCORE:    0.00 PKD
ROOT
HETATM    1  C   UNL     1     -11.762  15.383  68.574  1.00  0.00    -0.338 C  
HETATM    2  O   UNL     1     -10.758  14.610  69.214  1.00  0.00    -0.244 OA 
ENDROOT
BRANCH   2   3
HETATM    3  C   UNL     1      -9.767  15.441  69.819  1.00  0.00    -0.211 C  
BRANCH   3   4
HETATM    4  C   UNL     1      -8.454  15.168  69.117  1.00  0.00    -0.220 C  
BRANCH   4   5
HETATM    5  O   UNL     1      -8.597  14.363  67.941  1.00  0.00    -0.149 OA 
BRANCH   5   6
HETATM    6  C   UNL     1      -7.576  13.492  67.763  1.00  0.00    -0.162 C  
HETATM    7  O   UNL     1      -6.599  13.706  67.063  1.00  0.00    -0.044 OA 
BRANCH   6   8
HETATM    8  C   UNL     1      -7.811  12.210  68.480  1.00  0.00    -0.122 C  
HETATM    9  C   UNL     1      -6.900  11.646  69.313  1.00  0.00    -0.104 C  
HETATM   10  C   UNL     1      -5.468  12.052  69.581  1.00  0.00    -0.078 C  
HETATM   11  N   UNL     1      -7.272  10.557  70.072  1.00  0.00    -0.144 NA 
HETATM   12  C   UNL     1      -8.455   9.864  69.960  1.00  0.00    -0.165 C  
HETATM   13  C   UNL     1      -9.431  10.315  69.134  1.00  0.00    -0.225 C  
HETATM   14  C   UNL     1      -8.525   8.613  70.802  1.00  0.00    -0.181 C  
HETATM   15  C   UNL     1      -9.241  11.627  68.352  1.00  0.00    -0.182 C  
BRANCH  13  16
HETATM   16  C   UNL     1     -10.627   9.455  68.923  1.00  0.00    -0.208 C  
HETATM   17  O   UNL     1     -11.532   9.355  69.739  1.00  0.00    -0.119 OA 
BRANCH  16  18
HETATM   18  O   UNL     1     -10.591   8.773  67.748  1.00  0.00    -0.239 OA 
BRANCH  18  19
HETATM   19  C   UNL     1     -10.103   7.417  67.878  1.00  0.00    -0.178 C  
HETATM   20  C   UNL     1     -11.062   6.459  67.176  1.00  0.00    -0.422 C  
HETATM   21  C   UNL     1      -8.709   7.332  67.271  1.00  0.00    -0.121 C  
ENDBRANCH  18  19
ENDBRANCH  16  18
ENDBRANCH  13  16
BRANCH  15  22
HETATM   22  C   UNL     1      -9.629  11.482  66.876  1.00  0.00    -0.203 A  
HETATM   23  C   UNL     1      -8.790  10.776  65.992  1.00  0.00    -0.192 A  
HETATM   24  C   UNL     1     -10.824  12.028  66.383  1.00  0.00    -0.314 A  
HETATM   25  C   UNL     1      -9.130  10.622  64.647  1.00  0.00    -0.238 A  
HETATM   26  O   UNL     1     -13.133  13.052  65.329  1.00  0.00    -0.689 OA 
HETATM   27  O   UNL     1     -12.679  12.281  63.327  1.00  0.00    -0.699 OA 
HETATM   28  C   UNL     1     -11.158  11.871  65.030  1.00  0.00    -0.305 A  
HETATM   29  N   UNL     1     -12.415  12.442  64.529  1.00  0.00    -0.466 N  
HETATM   30  C   UNL     1     -10.316  11.170  64.161  1.00  0.00    -0.423 A  
ENDBRANCH  15  22
ENDBRANCH   6   8
ENDBRANCH   5   6
ENDBRANCH   4   5
ENDBRANCH   3   4
ENDBRANCH   2   3
TORSDOF 9
ENDMDL
MODEL       76
REMARK 921   NORMALIZED FREE ENERGY PREDICTED BY IDOCK:   -4.68 KCAL/MOL
REMARK 922        TOTAL FREE ENERGY PREDICTED BY IDOCK:   -8.71 KCAL/MOL
REMARK 923 INTER-LIGAND FREE ENERGY PREDICTED BY IDOCK:   -6.90 KCAL/MOL
REMARK 924 INTRA-LIGAND FREE ENERGY PREDICTED BY IDOCK:   -1.81 KCAL/MOL
REMARK 927      BINDING AFFINITY PREDICTED BY RF-SCORE:    0.00 PKD
ROOT
HETATM    1  C   UNL     1      -8.261   3.479  67.211  1.00  0.00    -0.090 C  
HETATM    2  O   UNL     1      -8.009   4.152  68.436  1.00  0.00    -0.073 OA 
ENDROOT
BRANCH   2   3
HETATM    3  C   UNL     1      -7.966   5.567  68.253  1.00  0.00    -0.096 C  
BRANCH   3   4
HETATM    4  C   UNL     1      -7.505   6.181  69.557  1.00  0.00    -0.092 C  
BRANCH   4   5
HETATM    5  O   UNL     1      -8.582   6.481  70.454  1.00  0.00    -0.142 OA 
BRANCH   5   6
HETATM    6  C   UNL     1      -8.467   7.696  71.039  1.00  0.00    -0.116 C  
HETATM    7  O   UNL     1      -7.424   8.154  71.480  1.00  0.00    -0.068 OA 
BRANCH   6   8
HETATM    8  C   UNL     1      -9.777   8.392  71.134  1.00  0.00    -0.236 C  
HETATM    9  C   UNL     1     -10.709   8.096  72.075  1.00  0.00    -0.278 C  
HETATM   10  C   UNL     1     -10.728   6.969  73.084  1.00  0.00    -0.359 C  
HETATM   11  N   UNL     1     -11.814   8.911  72.201  1.00  0.00    -0.363 NA 
HETATM   12  C   UNL     1     -12.161   9.935  71.351  1.00  0.00    -0.408 C  
HETATM   13  C   UNL     1     -11.322  10.301  70.350  1.00  0.00    -0.410 C  
HETATM   14  C   UNL     1     -13.510  10.550  71.636  1.00  0.00    -0.310 C  
HETATM   15  C   UNL     1      -9.958   9.607  70.189  1.00  0.00    -0.309 C  
BRANCH  13  16
HETATM   16  C   UNL     1     -11.803  11.302  69.359  1.00  0.00    -0.355 C  
HETATM   17  O   UNL     1     -12.399  10.997  68.337  1.00  0.00    -0.528 OA 
BRANCH  16  18
HETATM   18  O   UNL     1     -11.484  12.578  69.696  1.00  0.00    -0.250 OA 
BRANCH  18  19
HETATM   19  C   UNL     1     -11.230  13.434  68.556  1.00  0.00    -0.283 C  
HETATM   20  C   UNL     1     -11.680  14.857  68.875  1.00  0.00    -0.343 C  
HETATM   21  C   UNL     1      -9.744  13.395  68.230  1.00  0.00    -0.226 C  
ENDBRANCH  18  19
ENDBRANCH  16  18
ENDBRANCH  13  16
BRANCH  15  22
HETATM   22  C   UNL     1      -9.684   9.199  68.737  1.00  0.00    -0.167 A  
HETATM   23  C   UNL     1     -10.501   8.240  68.108  1.00  0.00    -0.226 A  
HETATM   24  C   UNL     1      -8.636   9.779  68.006  1.00  0.00    -0.122 A  
HETATM   25  C   UNL     1     -10.277   7.864  66.782  1.00  0.00    -0.358 A  
HETATM   26  O   UNL     1      -6.622  10.857  66.498  1.00  0.00    -0.108 OA 
HETATM   27  O   UNL     1      -7.155   9.652  64.745  1.00  0.00    -0.104 OA 
HETATM   28  C   UNL     1      -8.416   9.396  66.676  1.00  0.00    -0.126 A  
HETATM   29  N   UNL     1      -7.319  10.015  65.921  1.00  0.00    -0.109 N  
HETATM   30  C   UNL     1      -9.232   8.440  66.061  1.00  0.00    -0.247 A  
ENDBRANCH  15  22
ENDBRANCH   6   8
ENDBRANCH   5   6
ENDBRANCH   4   5
ENDBRANCH   3   4
ENDBRANCH   2   3
TORSDOF 9
ENDMDL
MODEL       77
REMARK 921   NORMALIZED FREE ENERGY PREDICTED BY IDOCK:   -4.65 KCAL/MOL
REMARK 922        TOTAL FREE ENERGY PREDICTED BY IDOCK:   -8.67 KCAL/MOL
REMARK 923 INTER-LIGAND FREE ENERGY PREDICTED BY IDOCK:   -6.88 KCAL/MOL
REMARK 924 INTRA-LIGAND FREE ENERGY PREDICTED BY IDOCK:   -1.79 KCAL/MOL
REMARK 927      BINDING AFFINITY PREDICTED BY RF-SCORE:    0.00 PKD
ROOT
HETATM    1  C   UNL     1      -9.891   4.280  65.544  1.00  0.00    -0.215 C  
HETATM    2  O   UNL     1      -9.589   5.294  66.491  1.00  0.00    -0.138 OA 
ENDROOT
BRANCH   2   3
HETATM    3  C   UNL     1     -10.777   5.906  66.995  1.00  0.00    -0.318 C  
BRANCH   3   4
HETATM    4  C   UNL     1     -10.398   6.682  68.237  1.00  0.00    -0.190 C  
BRANCH   4   5
HETATM    5  O   UNL     1     -10.723   8.075  68.157  1.00  0.00    -0.149 OA 
BRANCH   5   6
HETATM    6  C   UNL     1     -10.696   8.700  69.358  1.00  0.00    -0.158 C  
HETATM    7  O   UNL     1     -11.619   8.700  70.157  1.00  0.00    -0.095 OA 
BRANCH   6   8
HETATM    8  C   UNL     1      -9.423   9.438  69.570  1.00  0.00    -0.187 C  
HETATM    9  C   UNL     1      -8.609   9.227  70.634  1.00  0.00    -0.225 C  
HETATM   10  C   UNL     1      -8.841   8.376  71.863  1.00  0.00    -0.267 C  
HETATM   11  N   UNL     1      -7.366   9.824  70.655  1.00  0.00    -0.289 NA 
HETATM   12  C   UNL     1      -6.908  10.761  69.759  1.00  0.00    -0.151 C  
HETATM   13  C   UNL     1      -7.651  11.079  68.669  1.00  0.00    -0.124 C  
HETATM   14  C   UNL     1      -5.573  11.367  70.120  1.00  0.00    -0.118 C  
HETATM   15  C   UNL     1      -8.986  10.361  68.404  1.00  0.00    -0.137 C  
BRANCH  13  16
HETATM   16  C   UNL     1      -7.195  12.208  67.813  1.00  0.00    -0.113 C  
HETATM   17  O   UNL     1      -6.560  12.050  66.780  1.00  0.00    -0.096 OA 
BRANCH  16  18
HETATM   18  O   UNL     1      -7.532  13.425  68.314  1.00  0.00    -0.109 OA 
BRANCH  18  19
HETATM   19  C   UNL     1      -7.454  14.495  67.343  1.00  0.00    -0.169 C  
HETATM   20  C   UNL     1      -8.858  14.858  66.866  1.00  0.00    -0.284 C  
HETATM   21  C   UNL     1      -6.771  15.696  67.984  1.00  0.00    -0.148 C  
ENDBRANCH  18  19
ENDBRANCH  16  18
ENDBRANCH  13  16
BRANCH  15  22
HETATM   22  C   UNL     1     -10.109  11.342  68.048  1.00  0.00    -0.192 A  
HETATM   23  C   UNL     1     -10.663  12.170  69.043  1.00  0.00    -0.163 A  
HETATM   24  C   UNL     1     -10.593  11.446  66.735  1.00  0.00    -0.298 A  
HETATM   25  C   UNL     1     -11.679  13.079  68.738  1.00  0.00    -0.363 A  
HETATM   26  O   UNL     1     -11.596  11.726  64.204  1.00  0.00    -0.350 OA 
HETATM   27  O   UNL     1     -13.008  13.283  64.829  1.00  0.00    -0.710 OA 
HETATM   28  C   UNL     1     -11.613  12.359  66.436  1.00  0.00    -0.384 A  
HETATM   29  N   UNL     1     -12.105  12.462  65.056  1.00  0.00    -0.420 N  
HETATM   30  C   UNL     1     -12.158  13.176  67.433  1.00  0.00    -0.316 A  
ENDBRANCH  15  22
ENDBRANCH   6   8
ENDBRANCH   5   6
ENDBRANCH   4   5
ENDBRANCH   3   4
ENDBRANCH   2   3
TORSDOF 9
ENDMDL
MODEL       78
REMARK 921   NORMALIZED FREE ENERGY PREDICTED BY IDOCK:   -4.64 KCAL/MOL
REMARK 922        TOTAL FREE ENERGY PREDICTED BY IDOCK:   -8.65 KCAL/MOL
REMARK 923 INTER-LIGAND FREE ENERGY PREDICTED BY IDOCK:   -7.16 KCAL/MOL
REMARK 924 INTRA-LIGAND FREE ENERGY PREDICTED BY IDOCK:   -1.49 KCAL/MOL
REMARK 927      BINDING AFFINITY PREDICTED BY RF-SCORE:    0.00 PKD
ROOT
HETATM    1  C   UNL     1     -12.652  12.084  63.219  1.00  0.00    -0.385 C  
HETATM    2  O   UNL     1     -12.445  13.487  63.142  1.00  0.00    -0.759 OA 
ENDROOT
BRANCH   2   3
HETATM    3  C   UNL     1     -12.114  14.035  64.419  1.00  0.00    -0.458 C  
BRANCH   3   4
HETATM    4  C   UNL     1     -12.310  12.943  65.448  1.00  0.00    -0.485 C  
BRANCH   4   5
HETATM    5  O   UNL     1     -11.085  12.323  65.858  1.00  0.00    -0.296 OA 
BRANCH   5   6
HETATM    6  C   UNL     1     -11.051  12.030  67.179  1.00  0.00    -0.290 C  
HETATM    7  O   UNL     1     -12.031  11.733  67.846  1.00  0.00    -0.575 OA 
BRANCH   6   8
HETATM    8  C   UNL     1      -9.683  12.168  67.742  1.00  0.00    -0.197 C  
HETATM    9  C   UNL     1      -8.985  13.332  67.724  1.00  0.00    -0.196 C  
HETATM   10  C   UNL     1      -9.320  14.639  67.040  1.00  0.00    -0.244 C  
HETATM   11  N   UNL     1      -7.802  13.414  68.428  1.00  0.00    -0.136 NA 
HETATM   12  C   UNL     1      -7.155  12.366  69.040  1.00  0.00    -0.041 C  
HETATM   13  C   UNL     1      -7.741  11.144  69.094  1.00  0.00    -0.076 C  
HETATM   14  C   UNL     1      -5.795  12.713  69.594  1.00  0.00    -0.114 C  
HETATM   15  C   UNL     1      -9.151  10.934  68.513  1.00  0.00    -0.173 C  
BRANCH  13  16
HETATM   16  C   UNL     1      -6.944  10.004  69.622  1.00  0.00    -0.096 C  
HETATM   17  O   UNL     1      -6.144   9.376  68.944  1.00  0.00    -0.043 OA 
BRANCH  16  18
HETATM   18  O   UNL     1      -7.221   9.719  70.921  1.00  0.00    -0.310 OA 
BRANCH  18  19
HETATM   19  C   UNL     1      -7.854   8.431  71.111  1.00  0.00    -0.106 C  
HETATM   20  C   UNL     1      -6.954   7.539  71.962  1.00  0.00    -0.063 C  
HETATM   21  C   UNL     1      -9.205   8.637  71.782  1.00  0.00    -0.338 C  
ENDBRANCH  18  19
ENDBRANCH  16  18
ENDBRANCH  13  16
BRANCH  15  22
HETATM   22  C   UNL     1      -9.233   9.679  67.635  1.00  0.00    -0.144 A  
HETATM   23  C   UNL     1      -8.553   9.635  66.403  1.00  0.00    -0.136 A  
HETATM   24  C   UNL     1      -9.967   8.555  68.043  1.00  0.00    -0.221 A  
HETATM   25  C   UNL     1      -8.604   8.498  65.593  1.00  0.00    -0.200 A  
HETATM   26  O   UNL     1     -11.364   6.312  68.756  1.00  0.00    -0.356 OA 
HETATM   27  O   UNL     1     -10.801   5.256  66.918  1.00  0.00    -0.206 OA 
HETATM   28  C   UNL     1     -10.015   7.417  67.225  1.00  0.00    -0.198 A  
HETATM   29  N   UNL     1     -10.782   6.246  67.668  1.00  0.00    -0.277 N  
HETATM   30  C   UNL     1      -9.337   7.385  66.002  1.00  0.00    -0.045 A  
ENDBRANCH  15  22
ENDBRANCH   6   8
ENDBRANCH   5   6
ENDBRANCH   4   5
ENDBRANCH   3   4
ENDBRANCH   2   3
TORSDOF 9
ENDMDL
MODEL       79
REMARK 921   NORMALIZED FREE ENERGY PREDICTED BY IDOCK:   -4.63 KCAL/MOL
REMARK 922        TOTAL FREE ENERGY PREDICTED BY IDOCK:   -8.64 KCAL/MOL
REMARK 923 INTER-LIGAND FREE ENERGY PREDICTED BY IDOCK:   -6.74 KCAL/MOL
REMARK 924 INTRA-LIGAND FREE ENERGY PREDICTED BY IDOCK:   -1.90 KCAL/MOL
REMARK 927      BINDING AFFINITY PREDICTED BY RF-SCORE:    0.00 PKD
ROOT
HETATM    1  C   UNL     1      -8.614   5.364  69.419  1.00  0.00    -0.099 C  
HETATM    2  O   UNL     1     -10.023   5.282  69.271  1.00  0.00    -0.177 OA 
ENDROOT
BRANCH   2   3
HETATM    3  C   UNL     1     -10.432   5.656  67.955  1.00  0.00    -0.211 C  
BRANCH   3   4
HETATM    4  C   UNL     1      -9.180   5.854  67.128  1.00  0.00    -0.116 C  
BRANCH   4   5
HETATM    5  O   UNL     1      -9.391   6.660  65.963  1.00  0.00    -0.112 OA 
BRANCH   5   6
HETATM    6  C   UNL     1      -8.372   7.515  65.712  1.00  0.00    -0.142 C  
HETATM    7  O   UNL     1      -7.191   7.245  65.869  1.00  0.00    -0.070 OA 
BRANCH   6   8
HETATM    8  C   UNL     1      -8.862   8.848  65.275  1.00  0.00    -0.227 C  
HETATM    9  C   UNL     1      -8.653   9.345  64.029  1.00  0.00    -0.205 C  
HETATM   10  C   UNL     1      -7.801   8.792  62.908  1.00  0.00    -0.136 C  
HETATM   11  N   UNL     1      -9.296  10.506  63.656  1.00  0.00    -0.262 NA 
HETATM   12  C   UNL     1     -10.029  11.323  64.485  1.00  0.00    -0.284 C  
HETATM   13  C   UNL     1     -10.277  10.946  65.764  1.00  0.00    -0.318 C  
HETATM   14  C   UNL     1     -10.480  12.614  63.845  1.00  0.00    -0.441 C  
HETATM   15  C   UNL     1      -9.782   9.584  66.281  1.00  0.00    -0.310 C  
BRANCH  13  16
HETATM   16  C   UNL     1     -10.936  11.926  66.670  1.00  0.00    -0.291 C  
HETATM   17  O   UNL     1     -12.129  11.899  66.931  1.00  0.00    -0.599 OA 
BRANCH  16  18
HETATM   18  O   UNL     1     -10.079  12.865  67.149  1.00  0.00    -0.237 OA 
BRANCH  18  19
HETATM   19  C   UNL     1     -10.623  14.206  67.140  1.00  0.00    -0.278 C  
HETATM   20  C   UNL     1     -10.843  14.679  68.574  1.00  0.00    -0.256 C  
HETATM   21  C   UNL     1      -9.656  15.127  66.407  1.00  0.00    -0.309 C  
ENDBRANCH  18  19
ENDBRANCH  16  18
ENDBRANCH  13  16
BRANCH  15  22
HETATM   22  C   UNL     1      -9.096   9.699  67.647  1.00  0.00    -0.141 A  
HETATM   23  C   UNL     1      -7.873  10.387  67.767  1.00  0.00    -0.101 A  
HETATM   24  C   UNL     1      -9.674   9.142  68.798  1.00  0.00    -0.167 A  
HETATM   25  C   UNL     1      -7.238  10.515  69.003  1.00  0.00    -0.090 A  
HETATM   26  O   UNL     1     -10.724   8.096  71.099  1.00  0.00    -0.216 OA 
HETATM   27  O   UNL     1      -9.050   8.826  72.313  1.00  0.00    -0.355 OA 
HETATM   28  C   UNL     1      -9.030   9.272  70.037  1.00  0.00    -0.198 A  
HETATM   29  N   UNL     1      -9.649   8.690  71.234  1.00  0.00    -0.202 N  
HETATM   30  C   UNL     1      -7.814   9.956  70.143  1.00  0.00    -0.186 A  
ENDBRANCH  15  22
ENDBRANCH   6   8
ENDBRANCH   5   6
ENDBRANCH   4   5
ENDBRANCH   3   4
ENDBRANCH   2   3
TORSDOF 9
ENDMDL
MODEL       80
REMARK 921   NORMALIZED FREE ENERGY PREDICTED BY IDOCK:   -4.52 KCAL/MOL
REMARK 922        TOTAL FREE ENERGY PREDICTED BY IDOCK:   -8.47 KCAL/MOL
REMARK 923 INTER-LIGAND FREE ENERGY PREDICTED BY IDOCK:   -6.69 KCAL/MOL
REMARK 924 INTRA-LIGAND FREE ENERGY PREDICTED BY IDOCK:   -1.78 KCAL/MOL
REMARK 927      BINDING AFFINITY PREDICTED BY RF-SCORE:    0.00 PKD
ROOT
HETATM    1  C   UNL     1      -6.063   9.069  71.208  1.00  0.00    -0.062 C  
HETATM    2  O   UNL     1      -5.549   8.590  69.975  1.00  0.00    -0.025 OA 
ENDROOT
BRANCH   2   3
HETATM    3  C   UNL     1      -6.581   8.032  69.161  1.00  0.00    -0.040 C  
BRANCH   3   4
HETATM    4  C   UNL     1      -6.416   8.595  67.766  1.00  0.00    -0.061 C  
BRANCH   4   5
HETATM    5  O   UNL     1      -6.268  10.020  67.744  1.00  0.00    -0.054 OA 
BRANCH   5   6
HETATM    6  C   UNL     1      -6.813  10.597  66.647  1.00  0.00    -0.114 C  
HETATM    7  O   UNL     1      -6.543  10.286  65.498  1.00  0.00    -0.114 OA 
BRANCH   6   8
HETATM    8  C   UNL     1      -7.744  11.699  67.006  1.00  0.00    -0.159 C  
HETATM    9  C   UNL     1      -7.326  12.914  67.441  1.00  0.00    -0.128 C  
HETATM   10  C   UNL     1      -5.931  13.373  67.803  1.00  0.00    -0.141 C  
HETATM   11  N   UNL     1      -8.248  13.931  67.576  1.00  0.00    -0.176 NA 
HETATM   12  C   UNL     1      -9.612  13.801  67.458  1.00  0.00    -0.219 C  
HETATM   13  C   UNL     1     -10.151  12.622  67.060  1.00  0.00    -0.228 C  
HETATM   14  C   UNL     1     -10.388  15.044  67.820  1.00  0.00    -0.245 C  
HETATM   15  C   UNL     1      -9.239  11.438  66.691  1.00  0.00    -0.191 C  
BRANCH  13  16
HETATM   16  C   UNL     1     -11.631  12.476  67.098  1.00  0.00    -0.368 C  
HETATM   17  O   UNL     1     -12.279  12.501  68.135  1.00  0.00    -0.270 OA 
BRANCH  16  18
HETATM   18  O   UNL     1     -12.179  12.285  65.870  1.00  0.00    -0.634 OA 
BRANCH  18  19
HETATM   19  C   UNL     1     -11.547  13.063  64.825  1.00  0.00    -0.329 C  
HETATM   20  C   UNL     1     -11.478  12.238  63.543  1.00  0.00    -0.558 C  
HETATM   21  C   UNL     1     -12.348  14.339  64.607  1.00  0.00    -0.433 C  
ENDBRANCH  18  19
ENDBRANCH  16  18
ENDBRANCH  13  16
BRANCH  15  22
HETATM   22  C   UNL     1      -9.701  10.128  67.341  1.00  0.00    -0.192 A  
HETATM   23  C   UNL     1     -10.111   9.048  66.536  1.00  0.00    -0.354 A  
HETATM   24  C   UNL     1      -9.711   9.975  68.736  1.00  0.00    -0.174 A  
HETATM   25  C   UNL     1     -10.523   7.842  67.107  1.00  0.00    -0.414 A  
HETATM   26  O   UNL     1      -9.757   9.577  71.443  1.00  0.00    -0.198 OA 
HETATM   27  O   UNL     1     -10.501   7.525  71.229  1.00  0.00    -0.207 OA 
HETATM   28  C   UNL     1     -10.127   8.762  69.303  1.00  0.00    -0.204 A  
HETATM   29  N   UNL     1     -10.126   8.613  70.763  1.00  0.00    -0.190 N  
HETATM   30  C   UNL     1     -10.534   7.696  68.494  1.00  0.00    -0.206 A  
ENDBRANCH  15  22
ENDBRANCH   6   8
ENDBRANCH   5   6
ENDBRANCH   4   5
ENDBRANCH   3   4
ENDBRANCH   2   3
TORSDOF 9
ENDMDL
MODEL       81
REMARK 921   NORMALIZED FREE ENERGY PREDICTED BY IDOCK:   -4.48 KCAL/MOL
REMARK 922        TOTAL FREE ENERGY PREDICTED BY IDOCK:   -8.41 KCAL/MOL
REMARK 923 INTER-LIGAND FREE ENERGY PREDICTED BY IDOCK:   -6.53 KCAL/MOL
REMARK 924 INTRA-LIGAND FREE ENERGY PREDICTED BY IDOCK:   -1.88 KCAL/MOL
REMARK 927      BINDING AFFINITY PREDICTED BY RF-SCORE:    0.00 PKD
ROOT
HETATM    1  C   UNL     1      -9.653   5.242  72.655  1.00  0.00    -0.147 C  
HETATM    2  O   UNL     1     -10.466   4.959  71.526  1.00  0.00    -0.184 OA 
ENDROOT
BRANCH   2   3
HETATM    3  C   UNL     1     -11.531   5.902  71.401  1.00  0.00    -0.121 C  
BRANCH   3   4
HETATM    4  C   UNL     1     -11.353   6.937  72.491  1.00  0.00    -0.253 C  
BRANCH   4   5
HETATM    5  O   UNL     1     -11.687   8.265  72.071  1.00  0.00    -0.300 OA 
BRANCH   5   6
HETATM    6  C   UNL     1     -10.614   8.980  71.659  1.00  0.00    -0.364 C  
HETATM    7  O   UNL     1      -9.537   9.001  72.233  1.00  0.00    -0.287 OA 
BRANCH   6   8
HETATM    8  C   UNL     1     -10.919   9.789  70.450  1.00  0.00    -0.371 C  
HETATM    9  C   UNL     1     -11.885  10.742  70.416  1.00  0.00    -0.358 C  
HETATM   10  C   UNL     1     -12.925  11.088  71.458  1.00  0.00    -0.553 C  
HETATM   11  N   UNL     1     -11.975  11.564  69.312  1.00  0.00    -0.336 NA 
HETATM   12  C   UNL     1     -11.268  11.420  68.141  1.00  0.00    -0.278 C  
HETATM   13  C   UNL     1     -10.297  10.479  68.045  1.00  0.00    -0.212 C  
HETATM   14  C   UNL     1     -11.689  12.364  67.041  1.00  0.00    -0.423 C  
HETATM   15  C   UNL     1      -9.947   9.599  69.258  1.00  0.00    -0.197 C  
BRANCH  13  16
HETATM   16  C   UNL     1      -9.668  10.250  66.716  1.00  0.00    -0.185 C  
HETATM   17  O   UNL     1     -10.159   9.532  65.858  1.00  0.00    -0.294 OA 
BRANCH  16  18
HETATM   18  O   UNL     1      -8.482  10.898  66.571  1.00  0.00    -0.147 OA 
BRANCH  18  19
HETATM   19  C   UNL     1      -7.340  10.011  66.514  1.00  0.00    -0.101 C  
HETATM   20  C   UNL     1      -6.592  10.224  65.200  1.00  0.00    -0.121 C  
HETATM   21  C   UNL     1      -6.434  10.293  67.705  1.00  0.00    -0.062 C  
ENDBRANCH  18  19
ENDBRANCH  16  18
ENDBRANCH  13  16
BRANCH  15  22
HETATM   22  C   UNL     1      -9.842   8.115  68.885  1.00  0.00    -0.178 A  
HETATM   23  C   UNL     1     -10.900   7.483  68.203  1.00  0.00    -0.070 A  
HETATM   24  C   UNL     1      -8.696   7.368  69.198  1.00  0.00    -0.136 A  
HETATM   25  C   UNL     1     -10.820   6.137  67.843  1.00  0.00    -0.406 A  
HETATM   26  O   UNL     1      -6.502   5.830  69.756  1.00  0.00    -0.038 OA 
HETATM   27  O   UNL     1      -7.387   4.053  68.824  1.00  0.00    -0.054 OA 
HETATM   28  C   UNL     1      -8.623   6.016  68.834  1.00  0.00    -0.116 A  
HETATM   29  N   UNL     1      -7.416   5.247  69.162  1.00  0.00    -0.068 N  
HETATM   30  C   UNL     1      -9.681   5.397  68.159  1.00  0.00    -0.174 A  
ENDBRANCH  15  22
ENDBRANCH   6   8
ENDBRANCH   5   6
ENDBRANCH   4   5
ENDBRANCH   3   4
ENDBRANCH   2   3
TORSDOF 9
ENDMDL
MODEL       82
REMARK 921   NORMALIZED FREE ENERGY PREDICTED BY IDOCK:   -4.47 KCAL/MOL
REMARK 922        TOTAL FREE ENERGY PREDICTED BY IDOCK:   -8.40 KCAL/MOL
REMARK 923 INTER-LIGAND FREE ENERGY PREDICTED BY IDOCK:   -6.92 KCAL/MOL
REMARK 924 INTRA-LIGAND FREE ENERGY PREDICTED BY IDOCK:   -1.48 KCAL/MOL
REMARK 927      BINDING AFFINITY PREDICTED BY RF-SCORE:    0.00 PKD
ROOT
HETATM    1  C   UNL     1      -5.494   8.501  64.665  1.00  0.00    -0.043 C  
HETATM    2  O   UNL     1      -6.778   7.942  64.431  1.00  0.00    -0.055 OA 
ENDROOT
BRANCH   2   3
HETATM    3  C   UNL     1      -6.878   6.623  64.969  1.00  0.00    -0.050 C  
BRANCH   3   4
HETATM    4  C   UNL     1      -8.155   6.558  65.779  1.00  0.00    -0.128 C  
BRANCH   4   5
HETATM    5  O   UNL     1      -8.501   7.805  66.394  1.00  0.00    -0.123 OA 
BRANCH   5   6
HETATM    6  C   UNL     1      -9.826   7.930  66.639  1.00  0.00    -0.241 C  
HETATM    7  O   UNL     1     -10.601   6.992  66.739  1.00  0.00    -0.281 OA 
BRANCH   6   8
HETATM    8  C   UNL     1     -10.243   9.355  66.716  1.00  0.00    -0.320 C  
HETATM    9  C   UNL     1     -10.190  10.204  65.659  1.00  0.00    -0.218 C  
HETATM   10  C   UNL     1      -9.590   9.988  64.287  1.00  0.00    -0.301 C  
HETATM   11  N   UNL     1     -10.765  11.452  65.773  1.00  0.00    -0.267 NA 
HETATM   12  C   UNL     1     -11.269  12.003  66.928  1.00  0.00    -0.320 C  
HETATM   13  C   UNL     1     -11.344  11.260  68.060  1.00  0.00    -0.372 C  
HETATM   14  C   UNL     1     -11.685  13.448  66.797  1.00  0.00    -0.429 C  
HETATM   15  C   UNL     1     -10.911   9.783  68.047  1.00  0.00    -0.276 C  
BRANCH  13  16
HETATM   16  C   UNL     1     -11.745  11.938  69.322  1.00  0.00    -0.328 C  
HETATM   17  O   UNL     1     -11.167  12.920  69.766  1.00  0.00    -0.099 OA 
BRANCH  16  18
HETATM   18  O   UNL     1     -12.796  11.336  69.938  1.00  0.00    -0.039 OA 
BRANCH  18  19
HETATM   19  C   UNL     1     -12.639  11.218  71.372  1.00  0.00    -0.351 C  
HETATM   20  C   UNL     1     -13.400  12.345  72.064  1.00  0.00    -0.511 C  
HETATM   21  C   UNL     1     -13.159   9.858  71.817  1.00  0.00    -0.553 C  
ENDBRANCH  18  19
ENDBRANCH  16  18
ENDBRANCH  13  16
BRANCH  15  22
HETATM   22  C   UNL     1     -10.005   9.436  69.235  1.00  0.00    -0.182 A  
HETATM   23  C   UNL     1     -10.425   8.490  70.190  1.00  0.00    -0.226 A  
HETATM   24  C   UNL     1      -8.745  10.035  69.385  1.00  0.00    -0.195 A  
HETATM   25  C   UNL     1      -9.610   8.151  71.272  1.00  0.00    -0.203 A  
HETATM   26  O   UNL     1      -6.270  11.143  69.760  1.00  0.00    -0.088 OA 
HETATM   27  O   UNL     1      -5.922   9.991  71.592  1.00  0.00    -0.291 OA 
HETATM   28  C   UNL     1      -7.933   9.691  70.474  1.00  0.00    -0.116 A  
HETATM   29  N   UNL     1      -6.614  10.321  70.615  1.00  0.00    -0.089 N  
HETATM   30  C   UNL     1      -8.361   8.752  71.419  1.00  0.00    -0.222 A  
ENDBRANCH  15  22
ENDBRANCH   6   8
ENDBRANCH   5   6
ENDBRANCH   4   5
ENDBRANCH   3   4
ENDBRANCH   2   3
TORSDOF 9
ENDMDL
MODEL       83
REMARK 921   NORMALIZED FREE ENERGY PREDICTED BY IDOCK:   -4.46 KCAL/MOL
REMARK 922        TOTAL FREE ENERGY PREDICTED BY IDOCK:   -8.39 KCAL/MOL
REMARK 923 INTER-LIGAND FREE ENERGY PREDICTED BY IDOCK:   -6.37 KCAL/MOL
REMARK 924 INTRA-LIGAND FREE ENERGY PREDICTED BY IDOCK:   -2.01 KCAL/MOL
REMARK 927      BINDING AFFINITY PREDICTED BY RF-SCORE:    0.00 PKD
ROOT
HETATM    1  C   UNL     1     -10.123  11.571  63.658  1.00  0.00    -0.388 C  
HETATM    2  O   UNL     1      -9.560  10.692  64.621  1.00  0.00    -0.229 OA 
ENDROOT
BRANCH   2   3
HETATM    3  C   UNL     1      -8.485   9.933  64.067  1.00  0.00    -0.180 C  
BRANCH   3   4
HETATM    4  C   UNL     1      -7.295  10.089  64.988  1.00  0.00    -0.140 C  
BRANCH   4   5
HETATM    5  O   UNL     1      -7.431   9.365  66.218  1.00  0.00    -0.095 OA 
BRANCH   5   6
HETATM    6  C   UNL     1      -6.945  10.036  67.288  1.00  0.00    -0.083 C  
HETATM    7  O   UNL     1      -5.900   9.763  67.858  1.00  0.00    -0.040 OA 
BRANCH   6   8
HETATM    8  C   UNL     1      -7.867  11.116  67.730  1.00  0.00    -0.114 C  
HETATM    9  C   UNL     1      -7.520  12.428  67.748  1.00  0.00    -0.126 C  
HETATM   10  C   UNL     1      -6.170  13.065  67.503  1.00  0.00    -0.143 C  
HETATM   11  N   UNL     1      -8.492  13.373  67.998  1.00  0.00    -0.163 NA 
HETATM   12  C   UNL     1      -9.784  13.115  68.393  1.00  0.00    -0.196 C  
HETATM   13  C   UNL     1     -10.236  11.837  68.443  1.00  0.00    -0.208 C  
HETATM   14  C   UNL     1     -10.580  14.345  68.756  1.00  0.00    -0.256 C  
HETATM   15  C   UNL     1      -9.324  10.674  68.015  1.00  0.00    -0.151 C  
BRANCH  13  16
HETATM   16  C   UNL     1     -11.584  11.591  69.025  1.00  0.00    -0.318 C  
HETATM   17  O   UNL     1     -12.578  11.382  68.345  1.00  0.00    -0.105 OA 
BRANCH  16  18
HETATM   18  O   UNL     1     -11.596  11.653  70.382  1.00  0.00    -0.257 OA 
BRANCH  18  19
HETATM   19  C   UNL     1     -12.722  10.973  70.984  1.00  0.00    -0.386 C  
HETATM   20  C   UNL     1     -12.240   9.706  71.686  1.00  0.00    -0.484 C  
HETATM   21  C   UNL     1     -13.399  11.915  71.971  1.00  0.00    -0.425 C  
ENDBRANCH  18  19
ENDBRANCH  16  18
ENDBRANCH  13  16
BRANCH  15  22
HETATM   22  C   UNL     1      -9.345   9.521  69.025  1.00  0.00    -0.155 A  
HETATM   23  C   UNL     1      -8.732   9.674  70.283  1.00  0.00    -0.248 A  
HETATM   24  C   UNL     1      -9.983   8.307  68.727  1.00  0.00    -0.193 A  
HETATM   25  C   UNL     1      -8.751   8.641  71.223  1.00  0.00    -0.246 A  
HETATM   26  O   UNL     1     -11.207   5.908  68.241  1.00  0.00    -0.189 OA 
HETATM   27  O   UNL     1     -10.666   5.119  70.215  1.00  0.00    -0.229 OA 
HETATM   28  C   UNL     1      -9.997   7.274  69.674  1.00  0.00    -0.176 A  
HETATM   29  N   UNL     1     -10.674   6.011  69.351  1.00  0.00    -0.298 N  
HETATM   30  C   UNL     1      -9.383   7.436  70.920  1.00  0.00    -0.155 A  
ENDBRANCH  15  22
ENDBRANCH   6   8
ENDBRANCH   5   6
ENDBRANCH   4   5
ENDBRANCH   3   4
ENDBRANCH   2   3
TORSDOF 9
ENDMDL
MODEL       84
REMARK 921   NORMALIZED FREE ENERGY PREDICTED BY IDOCK:   -4.46 KCAL/MOL
REMARK 922        TOTAL FREE ENERGY PREDICTED BY IDOCK:   -8.38 KCAL/MOL
REMARK 923 INTER-LIGAND FREE ENERGY PREDICTED BY IDOCK:   -6.48 KCAL/MOL
REMARK 924 INTRA-LIGAND FREE ENERGY PREDICTED BY IDOCK:   -1.90 KCAL/MOL
REMARK 927      BINDING AFFINITY PREDICTED BY RF-SCORE:    0.00 PKD
ROOT
HETATM    1  C   UNL     1      -7.727   3.938  68.596  1.00  0.00    -0.060 C  
HETATM    2  O   UNL     1      -6.756   4.385  69.530  1.00  0.00    -0.042 OA 
ENDROOT
BRANCH   2   3
HETATM    3  C   UNL     1      -6.723   5.811  69.606  1.00  0.00    -0.055 C  
BRANCH   3   4
HETATM    4  C   UNL     1      -6.795   6.191  71.069  1.00  0.00    -0.066 C  
BRANCH   4   5
HETATM    5  O   UNL     1      -8.093   6.643  71.474  1.00  0.00    -0.109 OA 
BRANCH   5   6
HETATM    6  C   UNL     1      -8.131   7.964  71.767  1.00  0.00    -0.109 C  
HETATM    7  O   UNL     1      -7.187   8.600  72.208  1.00  0.00    -0.223 OA 
BRANCH   6   8
HETATM    8  C   UNL     1      -9.481   8.544  71.541  1.00  0.00    -0.290 C  
HETATM    9  C   UNL     1     -10.540   8.303  72.355  1.00  0.00    -0.337 C  
HETATM   10  C   UNL     1     -10.657   7.336  73.512  1.00  0.00    -0.408 C  
HETATM   11  N   UNL     1     -11.701   9.024  72.173  1.00  0.00    -0.341 NA 
HETATM   12  C   UNL     1     -11.963   9.878  71.128  1.00  0.00    -0.384 C  
HETATM   13  C   UNL     1     -10.990  10.171  70.230  1.00  0.00    -0.380 C  
HETATM   14  C   UNL     1     -13.378  10.403  71.094  1.00  0.00    -0.294 C  
HETATM   15  C   UNL     1      -9.576   9.589  70.400  1.00  0.00    -0.326 C  
BRANCH  13  16
HETATM   16  C   UNL     1     -11.358  10.971  69.030  1.00  0.00    -0.277 C  
HETATM   17  O   UNL     1     -11.757  10.470  67.989  1.00  0.00    -0.450 OA 
BRANCH  16  18
HETATM   18  O   UNL     1     -11.177  12.306  69.205  1.00  0.00    -0.246 OA 
BRANCH  18  19
HETATM   19  C   UNL     1     -10.862  13.015  67.983  1.00  0.00    -0.242 C  
HETATM   20  C   UNL     1     -11.790  14.218  67.836  1.00  0.00    -0.393 C  
HETATM   21  C   UNL     1      -9.405  13.455  68.027  1.00  0.00    -0.217 C  
ENDBRANCH  18  19
ENDBRANCH  16  18
ENDBRANCH  13  16
BRANCH  15  22
HETATM   22  C   UNL     1      -9.030   9.003  69.092  1.00  0.00    -0.140 A  
HETATM   23  C   UNL     1      -7.913   9.591  68.469  1.00  0.00    -0.093 A  
HETATM   24  C   UNL     1      -9.617   7.872  68.504  1.00  0.00    -0.153 A  
HETATM   25  C   UNL     1      -7.393   9.066  67.284  1.00  0.00    -0.084 A  
HETATM   26  O   UNL     1     -10.685   5.667  67.285  1.00  0.00    -0.256 OA 
HETATM   27  O   UNL     1      -9.215   5.730  65.660  1.00  0.00    -0.126 OA 
HETATM   28  C   UNL     1      -9.090   7.351  67.314  1.00  0.00    -0.124 A  
HETATM   29  N   UNL     1      -9.709   6.163  66.713  1.00  0.00    -0.153 N  
HETATM   30  C   UNL     1      -7.981   7.944  66.701  1.00  0.00    -0.103 A  
ENDBRANCH  15  22
ENDBRANCH   6   8
ENDBRANCH   5   6
ENDBRANCH   4   5
ENDBRANCH   3   4
ENDBRANCH   2   3
TORSDOF 9
ENDMDL
MODEL       85
REMARK 921   NORMALIZED FREE ENERGY PREDICTED BY IDOCK:   -4.45 KCAL/MOL
REMARK 922        TOTAL FREE ENERGY PREDICTED BY IDOCK:   -8.37 KCAL/MOL
REMARK 923 INTER-LIGAND FREE ENERGY PREDICTED BY IDOCK:   -7.05 KCAL/MOL
REMARK 924 INTRA-LIGAND FREE ENERGY PREDICTED BY IDOCK:   -1.32 KCAL/MOL
REMARK 927      BINDING AFFINITY PREDICTED BY RF-SCORE:    0.00 PKD
ROOT
HETATM    1  C   UNL     1     -11.532  12.918  66.869  1.00  0.00    -0.341 C  
HETATM    2  O   UNL     1     -11.615  11.604  66.339  1.00  0.00    -0.447 OA 
ENDROOT
BRANCH   2   3
HETATM    3  C   UNL     1     -10.626  11.384  65.333  1.00  0.00    -0.275 C  
BRANCH   3   4
HETATM    4  C   UNL     1      -9.831  10.161  65.736  1.00  0.00    -0.266 C  
BRANCH   4   5
HETATM    5  O   UNL     1      -9.937   9.850  67.130  1.00  0.00    -0.180 OA 
BRANCH   5   6
HETATM    6  C   UNL     1     -10.004   8.521  67.377  1.00  0.00    -0.214 C  
HETATM    7  O   UNL     1     -10.900   7.790  66.984  1.00  0.00    -0.316 OA 
BRANCH   6   8
HETATM    8  C   UNL     1      -8.883   8.059  68.237  1.00  0.00    -0.133 C  
HETATM    9  C   UNL     1      -7.775   7.447  67.750  1.00  0.00    -0.112 C  
HETATM   10  C   UNL     1      -7.486   6.967  66.345  1.00  0.00    -0.074 C  
HETATM   11  N   UNL     1      -6.710   7.218  68.595  1.00  0.00    -0.058 NA 
HETATM   12  C   UNL     1      -6.707   7.411  69.957  1.00  0.00    -0.047 C  
HETATM   13  C   UNL     1      -7.775   7.987  70.564  1.00  0.00    -0.085 C  
HETATM   14  C   UNL     1      -5.460   6.920  70.652  1.00  0.00    -0.023 C  
HETATM   15  C   UNL     1      -8.974   8.471  69.729  1.00  0.00    -0.145 C  
BRANCH  13  16
HETATM   16  C   UNL     1      -7.798   8.033  72.051  1.00  0.00    -0.105 C  
HETATM   17  O   UNL     1      -7.857   9.075  72.687  1.00  0.00    -0.330 OA 
BRANCH  16  18
HETATM   18  O   UNL     1      -7.718   6.803  72.621  1.00  0.00    -0.098 OA 
BRANCH  18  19
HETATM   19  C   UNL     1      -8.993   6.287  73.072  1.00  0.00    -0.130 C  
HETATM   20  C   UNL     1      -8.815   4.861  73.586  1.00  0.00    -0.108 C  
HETATM   21  C   UNL     1      -9.535   7.195  74.167  1.00  0.00    -0.281 C  
ENDBRANCH  18  19
ENDBRANCH  16  18
ENDBRANCH  13  16
BRANCH  15  22
HETATM   22  C   UNL     1     -10.313   8.023  70.326  1.00  0.00    -0.212 A  
HETATM   23  C   UNL     1     -10.681   6.664  70.292  1.00  0.00    -0.294 A  
HETATM   24  C   UNL     1     -11.183   8.945  70.929  1.00  0.00    -0.334 A  
HETATM   25  C   UNL     1     -11.890   6.233  70.841  1.00  0.00    -0.215 A  
HETATM   26  O   UNL     1     -12.941  10.663  72.131  1.00  0.00    -0.427 OA 
HETATM   27  O   UNL     1     -14.358   9.053  72.587  1.00  0.00    -0.603 OA 
HETATM   28  C   UNL     1     -12.395   8.505  71.478  1.00  0.00    -0.314 A  
HETATM   29  N   UNL     1     -13.293   9.479  72.111  1.00  0.00    -0.443 N  
HETATM   30  C   UNL     1     -12.753   7.153  71.436  1.00  0.00    -0.433 A  
ENDBRANCH  15  22
ENDBRANCH   6   8
ENDBRANCH   5   6
ENDBRANCH   4   5
ENDBRANCH   3   4
ENDBRANCH   2   3
TORSDOF 9
ENDMDL
MODEL       86
REMARK 921   NORMALIZED FREE ENERGY PREDICTED BY IDOCK:   -4.44 KCAL/MOL
REMARK 922        TOTAL FREE ENERGY PREDICTED BY IDOCK:   -8.36 KCAL/MOL
REMARK 923 INTER-LIGAND FREE ENERGY PREDICTED BY IDOCK:   -6.45 KCAL/MOL
REMARK 924 INTRA-LIGAND FREE ENERGY PREDICTED BY IDOCK:   -1.91 KCAL/MOL
REMARK 927      BINDING AFFINITY PREDICTED BY RF-SCORE:    0.00 PKD
ROOT
HETATM    1  C   UNL     1     -12.247  11.448  70.408  1.00  0.00    -0.362 C  
HETATM    2  O   UNL     1     -12.219  10.234  71.143  1.00  0.00    -0.333 OA 
ENDROOT
BRANCH   2   3
HETATM    3  C   UNL     1     -13.479   9.564  71.091  1.00  0.00    -0.215 C  
BRANCH   3   4
HETATM    4  C   UNL     1     -13.468   8.490  72.157  1.00  0.00    -0.358 C  
BRANCH   4   5
HETATM    5  O   UNL     1     -12.806   7.288  71.745  1.00  0.00    -0.339 OA 
BRANCH   5   6
HETATM    6  C   UNL     1     -11.606   7.107  72.344  1.00  0.00    -0.253 C  
HETATM    7  O   UNL     1     -11.172   7.808  73.244  1.00  0.00    -0.350 OA 
BRANCH   6   8
HETATM    8  C   UNL     1     -10.847   5.983  71.736  1.00  0.00    -0.312 C  
HETATM    9  C   UNL     1     -10.447   4.891  72.435  1.00  0.00    -0.209 C  
HETATM   10  C   UNL     1     -10.517   4.629  73.923  1.00  0.00    -0.309 C  
HETATM   11  N   UNL     1      -9.910   3.819  71.754  1.00  0.00    -0.174 NA 
HETATM   12  C   UNL     1      -9.586   3.796  70.417  1.00  0.00    -0.192 C  
HETATM   13  C   UNL     1      -9.908   4.846  69.621  1.00  0.00    -0.288 C  
HETATM   14  C   UNL     1      -8.859   2.549  69.975  1.00  0.00    -0.140 C  
HETATM   15  C   UNL     1     -10.679   6.047  70.196  1.00  0.00    -0.379 C  
BRANCH  13  16
HETATM   16  C   UNL     1      -9.401   4.849  68.222  1.00  0.00    -0.130 C  
HETATM   17  O   UNL     1     -10.130   4.752  67.246  1.00  0.00    -0.185 OA 
BRANCH  16  18
HETATM   18  O   UNL     1      -8.048   4.941  68.148  1.00  0.00    -0.086 OA 
BRANCH  18  19
HETATM   19  C   UNL     1      -7.583   5.906  67.174  1.00  0.00    -0.096 C  
HETATM   20  C   UNL     1      -6.527   6.806  67.809  1.00  0.00    -0.050 C  
HETATM   21  C   UNL     1      -7.013   5.162  65.974  1.00  0.00    -0.067 C  
ENDBRANCH  18  19
ENDBRANCH  16  18
ENDBRANCH  13  16
BRANCH  15  22
HETATM   22  C   UNL     1     -10.056   7.386  69.782  1.00  0.00    -0.193 A  
HETATM   23  C   UNL     1     -10.597   8.111  68.704  1.00  0.00    -0.144 A  
HETATM   24  C   UNL     1      -8.957   7.918  70.472  1.00  0.00    -0.145 A  
HETATM   25  C   UNL     1     -10.053   9.338  68.318  1.00  0.00    -0.214 A  
HETATM   26  O   UNL     1      -6.818   9.041  71.759  1.00  0.00    -0.227 OA 
HETATM   27  O   UNL     1      -6.815  10.791  70.438  1.00  0.00    -0.278 OA 
HETATM   28  C   UNL     1      -8.414   9.149  70.079  1.00  0.00    -0.157 A  
HETATM   29  N   UNL     1      -7.267   9.698  70.814  1.00  0.00    -0.100 N  
HETATM   30  C   UNL     1      -8.958   9.861  69.004  1.00  0.00    -0.160 A  
ENDBRANCH  15  22
ENDBRANCH   6   8
ENDBRANCH   5   6
ENDBRANCH   4   5
ENDBRANCH   3   4
ENDBRANCH   2   3
TORSDOF 9
ENDMDL
MODEL       87
REMARK 921   NORMALIZED FREE ENERGY PREDICTED BY IDOCK:   -4.44 KCAL/MOL
REMARK 922        TOTAL FREE ENERGY PREDICTED BY IDOCK:   -8.35 KCAL/MOL
REMARK 923 INTER-LIGAND FREE ENERGY PREDICTED BY IDOCK:   -6.36 KCAL/MOL
REMARK 924 INTRA-LIGAND FREE ENERGY PREDICTED BY IDOCK:   -1.98 KCAL/MOL
REMARK 927      BINDING AFFINITY PREDICTED BY RF-SCORE:    0.00 PKD
ROOT
HETATM    1  C   UNL     1     -11.929  10.803  69.344  1.00  0.00    -0.281 C  
HETATM    2  O   UNL     1     -11.894  11.250  67.997  1.00  0.00    -0.578 OA 
ENDROOT
BRANCH   2   3
HETATM    3  C   UNL     1     -11.090  10.394  67.184  1.00  0.00    -0.122 C  
BRANCH   3   4
HETATM    4  C   UNL     1     -10.496   9.335  68.087  1.00  0.00    -0.215 C  
BRANCH   4   5
HETATM    5  O   UNL     1     -10.492   8.027  67.501  1.00  0.00    -0.244 OA 
BRANCH   5   6
HETATM    6  C   UNL     1      -9.282   7.423  67.551  1.00  0.00    -0.130 C  
HETATM    7  O   UNL     1      -8.237   7.941  67.189  1.00  0.00    -0.115 OA 
BRANCH   6   8
HETATM    8  C   UNL     1      -9.380   6.026  68.047  1.00  0.00    -0.114 C  
HETATM    9  C   UNL     1      -9.768   4.985  67.267  1.00  0.00    -0.162 C  
HETATM   10  C   UNL     1     -10.311   4.996  65.856  1.00  0.00    -0.223 C  
HETATM   11  N   UNL     1      -9.655   3.701  67.760  1.00  0.00    -0.174 NA 
HETATM   12  C   UNL     1      -9.327   3.361  69.051  1.00  0.00    -0.169 C  
HETATM   13  C   UNL     1      -8.953   4.321  69.933  1.00  0.00    -0.153 C  
HETATM   14  C   UNL     1      -9.442   1.886  69.353  1.00  0.00    -0.123 C  
HETATM   15  C   UNL     1      -8.849   5.789  69.483  1.00  0.00    -0.118 C  
BRANCH  13  16
HETATM   16  C   UNL     1      -8.760   3.931  71.356  1.00  0.00    -0.094 C  
HETATM   17  O   UNL     1      -7.661   3.853  71.885  1.00  0.00    -0.063 OA 
BRANCH  16  18
HETATM   18  O   UNL     1      -9.927   3.644  71.991  1.00  0.00    -0.166 OA 
BRANCH  18  19
HETATM   19  C   UNL     1      -9.884   3.879  73.419  1.00  0.00    -0.117 C  
HETATM   20  C   UNL     1     -10.786   5.059  73.771  1.00  0.00    -0.366 C  
HETATM   21  C   UNL     1     -10.334   2.617  74.141  1.00  0.00    -0.198 C  
ENDBRANCH  18  19
ENDBRANCH  16  18
ENDBRANCH  13  16
BRANCH  15  22
HETATM   22  C   UNL     1      -9.529   6.745  70.470  1.00  0.00    -0.171 A  
HETATM   23  C   UNL     1      -8.751   7.601  71.273  1.00  0.00    -0.137 A  
HETATM   24  C   UNL     1     -10.927   6.800  70.580  1.00  0.00    -0.327 A  
HETATM   25  C   UNL     1      -9.351   8.488  72.169  1.00  0.00    -0.353 A  
HETATM   26  O   UNL     1     -13.643   6.984  70.861  1.00  0.00    -0.106 OA 
HETATM   27  O   UNL     1     -13.479   8.546  72.391  1.00  0.00    -0.331 OA 
HETATM   28  C   UNL     1     -11.523   7.692  71.482  1.00  0.00    -0.264 A  
HETATM   29  N   UNL     1     -12.987   7.743  71.582  1.00  0.00    -0.340 N  
HETATM   30  C   UNL     1     -10.741   8.536  72.277  1.00  0.00    -0.411 A  
ENDBRANCH  15  22
ENDBRANCH   6   8
ENDBRANCH   5   6
ENDBRANCH   4   5
ENDBRANCH   3   4
ENDBRANCH   2   3
TORSDOF 9
ENDMDL
MODEL       88
REMARK 921   NORMALIZED FREE ENERGY PREDICTED BY IDOCK:   -4.43 KCAL/MOL
REMARK 922        TOTAL FREE ENERGY PREDICTED BY IDOCK:   -8.34 KCAL/MOL
REMARK 923 INTER-LIGAND FREE ENERGY PREDICTED BY IDOCK:   -7.47 KCAL/MOL
REMARK 924 INTRA-LIGAND FREE ENERGY PREDICTED BY IDOCK:   -0.86 KCAL/MOL
REMARK 927      BINDING AFFINITY PREDICTED BY RF-SCORE:    0.00 PKD
ROOT
HETATM    1  C   UNL     1     -10.667   2.774  63.287  1.00  0.00    -0.231 C  
HETATM    2  O   UNL     1      -9.837   3.043  64.407  1.00  0.00    -0.156 OA 
ENDROOT
BRANCH   2   3
HETATM    3  C   UNL     1      -9.836   4.434  64.731  1.00  0.00    -0.111 C  
BRANCH   3   4
HETATM    4  C   UNL     1      -9.970   4.552  66.234  1.00  0.00    -0.247 C  
BRANCH   4   5
HETATM    5  O   UNL     1     -10.306   5.874  66.672  1.00  0.00    -0.210 OA 
BRANCH   5   6
HETATM    6  C   UNL     1      -9.222   6.647  66.916  1.00  0.00    -0.142 C  
HETATM    7  O   UNL     1      -8.194   6.247  67.441  1.00  0.00    -0.109 OA 
BRANCH   6   8
HETATM    8  C   UNL     1      -9.449   8.062  66.523  1.00  0.00    -0.278 C  
HETATM    9  C   UNL     1      -8.957   8.604  65.380  1.00  0.00    -0.130 C  
HETATM   10  C   UNL     1      -7.995   8.010  64.375  1.00  0.00    -0.145 C  
HETATM   11  N   UNL     1      -9.369   9.867  65.007  1.00  0.00    -0.245 NA 
HETATM   12  C   UNL     1     -10.129  10.723  65.769  1.00  0.00    -0.261 C  
HETATM   13  C   UNL     1     -10.650  10.303  66.948  1.00  0.00    -0.282 C  
HETATM   14  C   UNL     1     -10.288  12.104  65.180  1.00  0.00    -0.311 C  
HETATM   15  C   UNL     1     -10.435   8.853  67.419  1.00  0.00    -0.347 C  
BRANCH  13  16
HETATM   16  C   UNL     1     -11.330  11.305  67.814  1.00  0.00    -0.285 C  
HETATM   17  O   UNL     1     -12.410  11.103  68.349  1.00  0.00    -0.556 OA 
BRANCH  16  18
HETATM   18  O   UNL     1     -10.641  12.471  67.919  1.00  0.00    -0.209 OA 
BRANCH  18  19
HETATM   19  C   UNL     1     -11.476  13.614  68.220  1.00  0.00    -0.313 C  
HETATM   20  C   UNL     1     -11.558  13.803  69.732  1.00  0.00    -0.324 C  
HETATM   21  C   UNL     1     -10.886  14.848  67.550  1.00  0.00    -0.292 C  
ENDBRANCH  18  19
ENDBRANCH  16  18
ENDBRANCH  13  16
BRANCH  15  22
HETATM   22  C   UNL     1      -9.998   8.781  68.887  1.00  0.00    -0.200 A  
HETATM   23  C   UNL     1      -8.757   9.317  69.280  1.00  0.00    -0.141 A  
HETATM   24  C   UNL     1     -10.824   8.200  69.862  1.00  0.00    -0.215 A  
HETATM   25  C   UNL     1      -8.345   9.273  70.614  1.00  0.00    -0.245 A  
HETATM   26  O   UNL     1     -12.365   7.096  71.835  1.00  0.00    -0.315 OA 
HETATM   27  O   UNL     1     -10.875   7.535  73.383  1.00  0.00    -0.394 OA 
HETATM   28  C   UNL     1     -10.403   8.158  71.198  1.00  0.00    -0.198 A  
HETATM   29  N   UNL     1     -11.280   7.553  72.209  1.00  0.00    -0.266 N  
HETATM   30  C   UNL     1      -9.167   8.691  71.578  1.00  0.00    -0.316 A  
ENDBRANCH  15  22
ENDBRANCH   6   8
ENDBRANCH   5   6
ENDBRANCH   4   5
ENDBRANCH   3   4
ENDBRANCH   2   3
TORSDOF 9
ENDMDL
MODEL       89
REMARK 921   NORMALIZED FREE ENERGY PREDICTED BY IDOCK:   -4.43 KCAL/MOL
REMARK 922        TOTAL FREE ENERGY PREDICTED BY IDOCK:   -8.34 KCAL/MOL
REMARK 923 INTER-LIGAND FREE ENERGY PREDICTED BY IDOCK:   -6.87 KCAL/MOL
REMARK 924 INTRA-LIGAND FREE ENERGY PREDICTED BY IDOCK:   -1.46 KCAL/MOL
REMARK 927      BINDING AFFINITY PREDICTED BY RF-SCORE:    0.00 PKD
ROOT
HETATM    1  C   UNL     1     -10.438  17.746  67.784  1.00  0.00    -0.397 C  
HETATM    2  O   UNL     1     -10.781  16.482  67.237  1.00  0.00    -0.313 OA 
ENDROOT
BRANCH   2   3
HETATM    3  C   UNL     1      -9.735  15.971  66.410  1.00  0.00    -0.284 C  
BRANCH   3   4
HETATM    4  C   UNL     1      -8.522  15.757  67.288  1.00  0.00    -0.189 C  
BRANCH   4   5
HETATM    5  O   UNL     1      -8.595  14.560  68.074  1.00  0.00    -0.149 OA 
BRANCH   5   6
HETATM    6  C   UNL     1      -7.648  13.650  67.748  1.00  0.00    -0.164 C  
HETATM    7  O   UNL     1      -6.733  13.855  66.967  1.00  0.00    -0.021 OA 
BRANCH   6   8
HETATM    8  C   UNL     1      -7.886  12.342  68.414  1.00  0.00    -0.151 C  
HETATM    9  C   UNL     1      -6.941  11.696  69.144  1.00  0.00    -0.105 C  
HETATM   10  C   UNL     1      -5.476  12.028  69.321  1.00  0.00    -0.065 C  
HETATM   11  N   UNL     1      -7.304  10.583  69.872  1.00  0.00    -0.143 NA 
HETATM   12  C   UNL     1      -8.522   9.947  69.817  1.00  0.00    -0.192 C  
HETATM   13  C   UNL     1      -9.536  10.481  69.093  1.00  0.00    -0.205 C  
HETATM   14  C   UNL     1      -8.584   8.655  70.596  1.00  0.00    -0.183 C  
HETATM   15  C   UNL     1      -9.346  11.825  68.367  1.00  0.00    -0.185 C  
BRANCH  13  16
HETATM   16  C   UNL     1     -10.782   9.683  68.931  1.00  0.00    -0.206 C  
HETATM   17  O   UNL     1     -10.816   8.606  68.356  1.00  0.00    -0.094 OA 
BRANCH  16  18
HETATM   18  O   UNL     1     -11.875  10.292  69.462  1.00  0.00    -0.184 OA 
BRANCH  18  19
HETATM   19  C   UNL     1     -11.833  10.405  70.904  1.00  0.00    -0.377 C  
HETATM   20  C   UNL     1     -12.755  11.535  71.355  1.00  0.00    -0.469 C  
HETATM   21  C   UNL     1     -12.260   9.078  71.517  1.00  0.00    -0.403 C  
ENDBRANCH  18  19
ENDBRANCH  16  18
ENDBRANCH  13  16
BRANCH  15  22
HETATM   22  C   UNL     1      -9.850  11.777  66.920  1.00  0.00    -0.221 A  
HETATM   23  C   UNL     1     -10.875  12.647  66.501  1.00  0.00    -0.285 A  
HETATM   24  C   UNL     1      -9.295  10.887  65.988  1.00  0.00    -0.215 A  
HETATM   25  C   UNL     1     -11.340  12.628  65.184  1.00  0.00    -0.343 A  
HETATM   26  O   UNL     1      -8.272   9.192  64.098  1.00  0.00    -0.144 OA 
HETATM   27  O   UNL     1      -9.616   9.956  62.542  1.00  0.00    -0.235 OA 
HETATM   28  C   UNL     1      -9.767  10.872  64.668  1.00  0.00    -0.280 A  
HETATM   29  N   UNL     1      -9.173   9.940  63.702  1.00  0.00    -0.263 N  
HETATM   30  C   UNL     1     -10.788  11.739  64.263  1.00  0.00    -0.404 A  
ENDBRANCH  15  22
ENDBRANCH   6   8
ENDBRANCH   5   6
ENDBRANCH   4   5
ENDBRANCH   3   4
ENDBRANCH   2   3
TORSDOF 9
ENDMDL
MODEL       90
REMARK 921   NORMALIZED FREE ENERGY PREDICTED BY IDOCK:   -4.40 KCAL/MOL
REMARK 922        TOTAL FREE ENERGY PREDICTED BY IDOCK:   -8.29 KCAL/MOL
REMARK 923 INTER-LIGAND FREE ENERGY PREDICTED BY IDOCK:   -7.56 KCAL/MOL
REMARK 924 INTRA-LIGAND FREE ENERGY PREDICTED BY IDOCK:   -0.73 KCAL/MOL
REMARK 927      BINDING AFFINITY PREDICTED BY RF-SCORE:    0.00 PKD
ROOT
HETATM    1  C   UNL     1      -6.646   7.741  65.662  1.00  0.00    -0.045 C  
HETATM    2  O   UNL     1      -5.559   7.812  66.573  1.00  0.00    -0.027 OA 
ENDROOT
BRANCH   2   3
HETATM    3  C   UNL     1      -5.919   8.522  67.759  1.00  0.00    -0.047 C  
BRANCH   3   4
HETATM    4  C   UNL     1      -7.063   9.448  67.406  1.00  0.00    -0.086 C  
BRANCH   4   5
HETATM    5  O   UNL     1      -8.083   9.496  68.411  1.00  0.00    -0.100 OA 
BRANCH   5   6
HETATM    6  C   UNL     1      -8.059  10.635  69.142  1.00  0.00    -0.141 C  
HETATM    7  O   UNL     1      -7.775  10.687  70.329  1.00  0.00     0.014 OA 
BRANCH   6   8
HETATM    8  C   UNL     1      -8.476  11.816  68.342  1.00  0.00    -0.155 C  
HETATM    9  C   UNL     1      -7.621  12.804  67.974  1.00  0.00    -0.131 C  
HETATM   10  C   UNL     1      -6.183  13.028  68.384  1.00  0.00    -0.081 C  
HETATM   11  N   UNL     1      -8.053  13.764  67.083  1.00  0.00    -0.126 NA 
HETATM   12  C   UNL     1      -9.342  13.921  66.630  1.00  0.00    -0.268 C  
HETATM   13  C   UNL     1     -10.293  13.011  66.959  1.00  0.00    -0.247 C  
HETATM   14  C   UNL     1      -9.560  15.157  65.791  1.00  0.00    -0.344 C  
HETATM   15  C   UNL     1      -9.927  11.775  67.799  1.00  0.00    -0.198 C  
BRANCH  13  16
HETATM   16  C   UNL     1     -11.703  13.301  66.582  1.00  0.00    -0.377 C  
HETATM   17  O   UNL     1     -12.303  14.299  66.954  1.00  0.00    -0.408 OA 
BRANCH  16  18
HETATM   18  O   UNL     1     -12.258  12.330  65.811  1.00  0.00    -0.622 OA 
BRANCH  18  19
HETATM   19  C   UNL     1     -11.745  12.300  64.458  1.00  0.00    -0.353 C  
HETATM   20  C   UNL     1     -10.637  11.255  64.353  1.00  0.00    -0.410 C  
HETATM   21  C   UNL     1     -12.887  11.977  63.503  1.00  0.00    -0.472 C  
ENDBRANCH  18  19
ENDBRANCH  16  18
ENDBRANCH  13  16
BRANCH  15  22
HETATM   22  C   UNL     1     -10.919  11.540  68.945  1.00  0.00    -0.279 A  
HETATM   23  C   UNL     1     -11.339  10.233  69.256  1.00  0.00    -0.253 A  
HETATM   24  C   UNL     1     -11.411  12.610  69.708  1.00  0.00    -0.200 A  
HETATM   25  C   UNL     1     -12.233   9.996  70.303  1.00  0.00    -0.186 A  
HETATM   26  O   UNL     1     -12.421  14.627  71.258  1.00  0.00    -0.300 OA 
HETATM   27  O   UNL     1     -13.604  13.236  72.473  1.00  0.00    -0.583 OA 
HETATM   28  C   UNL     1     -12.309  12.364  70.757  1.00  0.00    -0.286 A  
HETATM   29  N   UNL     1     -12.811  13.492  71.552  1.00  0.00    -0.361 N  
HETATM   30  C   UNL     1     -12.722  11.062  71.057  1.00  0.00    -0.485 A  
ENDBRANCH  15  22
ENDBRANCH   6   8
ENDBRANCH   5   6
ENDBRANCH   4   5
ENDBRANCH   3   4
ENDBRANCH   2   3
TORSDOF 9
ENDMDL
MODEL       91
REMARK 921   NORMALIZED FREE ENERGY PREDICTED BY IDOCK:   -4.38 KCAL/MOL
REMARK 922        TOTAL FREE ENERGY PREDICTED BY IDOCK:   -8.27 KCAL/MOL
REMARK 923 INTER-LIGAND FREE ENERGY PREDICTED BY IDOCK:   -7.22 KCAL/MOL
REMARK 924 INTRA-LIGAND FREE ENERGY PREDICTED BY IDOCK:   -1.05 KCAL/MOL
REMARK 927      BINDING AFFINITY PREDICTED BY RF-SCORE:    0.00 PKD
ROOT
HETATM    1  C   UNL     1     -13.177  13.662  71.597  1.00  0.00    -0.367 C  
HETATM    2  O   UNL     1     -13.507  12.442  72.244  1.00  0.00    -0.541 OA 
ENDROOT
BRANCH   2   3
HETATM    3  C   UNL     1     -13.035  11.316  71.503  1.00  0.00    -0.415 C  
BRANCH   3   4
HETATM    4  C   UNL     1     -12.144  11.838  70.397  1.00  0.00    -0.352 C  
BRANCH   4   5
HETATM    5  O   UNL     1     -11.961  10.903  69.327  1.00  0.00    -0.321 OA 
BRANCH   5   6
HETATM    6  C   UNL     1     -10.661  10.605  69.095  1.00  0.00    -0.228 C  
HETATM    7  O   UNL     1      -9.796  11.432  68.851  1.00  0.00    -0.191 OA 
BRANCH   6   8
HETATM    8  C   UNL     1     -10.417   9.139  69.116  1.00  0.00    -0.230 C  
HETATM    9  C   UNL     1     -10.244   8.430  70.260  1.00  0.00    -0.196 C  
HETATM   10  C   UNL     1     -10.102   8.926  71.682  1.00  0.00    -0.411 C  
HETATM   11  N   UNL     1     -10.204   7.053  70.194  1.00  0.00    -0.191 NA 
HETATM   12  C   UNL     1     -10.167   6.303  69.042  1.00  0.00    -0.184 C  
HETATM   13  C   UNL     1     -10.299   6.905  67.835  1.00  0.00    -0.239 C  
HETATM   14  C   UNL     1      -9.958   4.825  69.269  1.00  0.00    -0.254 C  
HETATM   15  C   UNL     1     -10.538   8.423  67.747  1.00  0.00    -0.238 C  
BRANCH  13  16
HETATM   16  C   UNL     1     -10.095   6.082  66.612  1.00  0.00    -0.174 C  
HETATM   17  O   UNL     1     -10.928   5.292  66.191  1.00  0.00    -0.213 OA 
BRANCH  16  18
HETATM   18  O   UNL     1      -8.881   6.279  66.035  1.00  0.00    -0.151 OA 
BRANCH  18  19
HETATM   19  C   UNL     1      -7.979   5.157  66.183  1.00  0.00    -0.104 C  
HETATM   20  C   UNL     1      -7.339   4.834  64.835  1.00  0.00    -0.071 C  
HETATM   21  C   UNL     1      -6.917   5.509  67.216  1.00  0.00    -0.065 C  
ENDBRANCH  18  19
ENDBRANCH  16  18
ENDBRANCH  13  16
BRANCH  15  22
HETATM   22  C   UNL     1      -9.626   9.093  66.712  1.00  0.00    -0.253 A  
HETATM   23  C   UNL     1      -8.227   8.990  66.832  1.00  0.00    -0.116 A  
HETATM   24  C   UNL     1     -10.161   9.801  65.625  1.00  0.00    -0.282 A  
HETATM   25  C   UNL     1      -7.379   9.581  65.894  1.00  0.00    -0.097 A  
HETATM   26  O   UNL     1     -11.108  11.196  63.469  1.00  0.00    -0.300 OA 
HETATM   27  O   UNL     1      -9.087  11.637  62.740  1.00  0.00    -0.321 OA 
HETATM   28  C   UNL     1      -9.304  10.394  64.687  1.00  0.00    -0.254 A  
HETATM   29  N   UNL     1      -9.877  11.127  63.551  1.00  0.00    -0.316 N  
HETATM   30  C   UNL     1      -7.915  10.287  64.818  1.00  0.00    -0.141 A  
ENDBRANCH  15  22
ENDBRANCH   6   8
ENDBRANCH   5   6
ENDBRANCH   4   5
ENDBRANCH   3   4
ENDBRANCH   2   3
TORSDOF 9
ENDMDL
MODEL       92
REMARK 921   NORMALIZED FREE ENERGY PREDICTED BY IDOCK:   -4.37 KCAL/MOL
REMARK 922        TOTAL FREE ENERGY PREDICTED BY IDOCK:   -8.25 KCAL/MOL
REMARK 923 INTER-LIGAND FREE ENERGY PREDICTED BY IDOCK:   -6.99 KCAL/MOL
REMARK 924 INTRA-LIGAND FREE ENERGY PREDICTED BY IDOCK:   -1.26 KCAL/MOL
REMARK 927      BINDING AFFINITY PREDICTED BY RF-SCORE:    0.00 PKD
ROOT
HETATM    1  C   UNL     1      -9.243   5.498  69.717  1.00  0.00    -0.137 C  
HETATM    2  O   UNL     1     -10.273   5.284  68.764  1.00  0.00    -0.182 OA 
ENDROOT
BRANCH   2   3
HETATM    3  C   UNL     1     -11.004   6.484  68.508  1.00  0.00    -0.286 C  
BRANCH   3   4
HETATM    4  C   UNL     1     -10.329   7.600  69.274  1.00  0.00    -0.217 C  
BRANCH   4   5
HETATM    5  O   UNL     1     -10.406   8.869  68.612  1.00  0.00    -0.200 OA 
BRANCH   5   6
HETATM    6  C   UNL     1      -9.649   9.825  69.200  1.00  0.00    -0.188 C  
HETATM    7  O   UNL     1      -8.669   9.600  69.893  1.00  0.00    -0.184 OA 
BRANCH   6   8
HETATM    8  C   UNL     1     -10.185  11.188  68.949  1.00  0.00    -0.209 C  
HETATM    9  C   UNL     1     -11.353  11.637  69.475  1.00  0.00    -0.260 C  
HETATM   10  C   UNL     1     -12.406  10.879  70.252  1.00  0.00    -0.412 C  
HETATM   11  N   UNL     1     -11.680  12.969  69.339  1.00  0.00    -0.312 NA 
HETATM   12  C   UNL     1     -11.004  13.890  68.573  1.00  0.00    -0.257 C  
HETATM   13  C   UNL     1      -9.838  13.548  67.970  1.00  0.00    -0.238 C  
HETATM   14  C   UNL     1     -11.682  15.235  68.475  1.00  0.00    -0.352 C  
HETATM   15  C   UNL     1      -9.241  12.145  68.178  1.00  0.00    -0.197 C  
BRANCH  13  16
HETATM   16  C   UNL     1      -9.223  14.520  67.026  1.00  0.00    -0.240 C  
HETATM   17  O   UNL     1      -9.652  14.720  65.899  1.00  0.00    -0.309 OA 
BRANCH  16  18
HETATM   18  O   UNL     1      -8.123  15.133  67.536  1.00  0.00    -0.149 OA 
BRANCH  18  19
HETATM   19  C   UNL     1      -8.181  16.577  67.470  1.00  0.00    -0.154 C  
HETATM   20  C   UNL     1      -7.811  17.167  68.828  1.00  0.00    -0.258 C  
HETATM   21  C   UNL     1      -7.224  17.062  66.389  1.00  0.00    -0.311 C  
ENDBRANCH  18  19
ENDBRANCH  16  18
ENDBRANCH  13  16
BRANCH  15  22
HETATM   22  C   UNL     1      -8.795  11.505  66.857  1.00  0.00    -0.182 A  
HETATM   23  C   UNL     1      -7.506  10.951  66.742  1.00  0.00    -0.134 A  
HETATM   24  C   UNL     1      -9.659  11.445  65.753  1.00  0.00    -0.260 A  
HETATM   25  C   UNL     1      -7.084  10.353  65.553  1.00  0.00    -0.133 A  
HETATM   26  O   UNL     1     -11.271  11.273  63.548  1.00  0.00    -0.344 OA 
HETATM   27  O   UNL     1      -9.729  10.242  62.378  1.00  0.00    -0.229 OA 
HETATM   28  C   UNL     1      -9.228  10.844  64.562  1.00  0.00    -0.201 A  
HETATM   29  N   UNL     1     -10.144  10.782  63.416  1.00  0.00    -0.325 N  
HETATM   30  C   UNL     1      -7.944  10.298  64.457  1.00  0.00    -0.133 A  
ENDBRANCH  15  22
ENDBRANCH   6   8
ENDBRANCH   5   6
ENDBRANCH   4   5
ENDBRANCH   3   4
ENDBRANCH   2   3
TORSDOF 9
ENDMDL
MODEL       93
REMARK 921   NORMALIZED FREE ENERGY PREDICTED BY IDOCK:   -4.36 KCAL/MOL
REMARK 922        TOTAL FREE ENERGY PREDICTED BY IDOCK:   -8.24 KCAL/MOL
REMARK 923 INTER-LIGAND FREE ENERGY PREDICTED BY IDOCK:   -6.36 KCAL/MOL
REMARK 924 INTRA-LIGAND FREE ENERGY PREDICTED BY IDOCK:   -1.88 KCAL/MOL
REMARK 927      BINDING AFFINITY PREDICTED BY RF-SCORE:    0.00 PKD
ROOT
HETATM    1  C   UNL     1     -10.912   9.203  71.466  1.00  0.00    -0.364 C  
HETATM    2  O   UNL     1     -11.714  10.373  71.414  1.00  0.00    -0.308 OA 
ENDROOT
BRANCH   2   3
HETATM    3  C   UNL     1     -12.618  10.336  70.309  1.00  0.00    -0.144 C  
BRANCH   3   4
HETATM    4  C   UNL     1     -12.136  11.349  69.293  1.00  0.00    -0.289 C  
BRANCH   4   5
HETATM    5  O   UNL     1     -11.688  10.756  68.069  1.00  0.00    -0.528 OA 
BRANCH   5   6
HETATM    6  C   UNL     1     -10.368  10.942  67.837  1.00  0.00    -0.187 C  
HETATM    7  O   UNL     1      -9.609  11.524  68.596  1.00  0.00    -0.193 OA 
BRANCH   6   8
HETATM    8  C   UNL     1      -9.955  10.402  66.515  1.00  0.00    -0.271 C  
HETATM    9  C   UNL     1     -10.326  10.961  65.335  1.00  0.00    -0.261 C  
HETATM   10  C   UNL     1     -11.304  12.085  65.073  1.00  0.00    -0.365 C  
HETATM   11  N   UNL     1      -9.750  10.504  64.168  1.00  0.00    -0.305 NA 
HETATM   12  C   UNL     1      -8.931   9.406  64.051  1.00  0.00    -0.132 C  
HETATM   13  C   UNL     1      -8.519   8.744  65.161  1.00  0.00    -0.192 C  
HETATM   14  C   UNL     1      -8.581   9.039  62.629  1.00  0.00    -0.201 C  
HETATM   15  C   UNL     1      -8.926   9.245  66.558  1.00  0.00    -0.178 C  
BRANCH  13  16
HETATM   16  C   UNL     1      -7.766   7.473  64.983  1.00  0.00    -0.116 C  
HETATM   17  O   UNL     1      -6.574   7.361  65.232  1.00  0.00    -0.043 OA 
BRANCH  16  18
HETATM   18  O   UNL     1      -8.533   6.466  64.490  1.00  0.00    -0.036 OA 
BRANCH  18  19
HETATM   19  C   UNL     1      -8.281   5.184  65.114  1.00  0.00    -0.132 C  
HETATM   20  C   UNL     1      -9.607   4.486  65.401  1.00  0.00    -0.185 C  
HETATM   21  C   UNL     1      -7.415   4.344  64.185  1.00  0.00    -0.070 C  
ENDBRANCH  18  19
ENDBRANCH  16  18
ENDBRANCH  13  16
BRANCH  15  22
HETATM   22  C   UNL     1      -9.437   8.109  67.453  1.00  0.00    -0.191 A  
HETATM   23  C   UNL     1     -10.658   7.473  67.157  1.00  0.00    -0.415 A  
HETATM   24  C   UNL     1      -8.699   7.672  68.564  1.00  0.00    -0.128 A  
HETATM   25  C   UNL     1     -11.136   6.428  67.951  1.00  0.00    -0.370 A  
HETATM   26  O   UNL     1      -7.329   6.747  70.745  1.00  0.00    -0.075 OA 
HETATM   27  O   UNL     1      -8.860   5.242  71.192  1.00  0.00    -0.131 OA 
HETATM   28  C   UNL     1      -9.185   6.624  69.358  1.00  0.00    -0.142 A  
HETATM   29  N   UNL     1      -8.399   6.174  70.513  1.00  0.00    -0.127 N  
HETATM   30  C   UNL     1     -10.400   6.001  69.056  1.00  0.00    -0.283 A  
ENDBRANCH  15  22
ENDBRANCH   6   8
ENDBRANCH   5   6
ENDBRANCH   4   5
ENDBRANCH   3   4
ENDBRANCH   2   3
TORSDOF 9
ENDMDL
MODEL       94
REMARK 921   NORMALIZED FREE ENERGY PREDICTED BY IDOCK:   -4.33 KCAL/MOL
REMARK 922        TOTAL FREE ENERGY PREDICTED BY IDOCK:   -8.19 KCAL/MOL
REMARK 923 INTER-LIGAND FREE ENERGY PREDICTED BY IDOCK:   -6.30 KCAL/MOL
REMARK 924 INTRA-LIGAND FREE ENERGY PREDICTED BY IDOCK:   -1.89 KCAL/MOL
REMARK 927      BINDING AFFINITY PREDICTED BY RF-SCORE:    0.00 PKD
ROOT
HETATM    1  C   UNL     1     -10.973   5.340  73.016  1.00  0.00    -0.298 C  
HETATM    2  O   UNL     1     -11.347   5.683  71.690  1.00  0.00    -0.204 OA 
ENDROOT
BRANCH   2   3
HETATM    3  C   UNL     1     -10.305   5.382  70.761  1.00  0.00    -0.251 C  
BRANCH   3   4
HETATM    4  C   UNL     1     -10.829   5.689  69.374  1.00  0.00    -0.264 C  
BRANCH   4   5
HETATM    5  O   UNL     1      -9.790   5.944  68.420  1.00  0.00    -0.123 OA 
BRANCH   5   6
HETATM    6  C   UNL     1     -10.167   6.790  67.434  1.00  0.00    -0.197 C  
HETATM    7  O   UNL     1     -11.188   6.670  66.774  1.00  0.00    -0.333 OA 
BRANCH   6   8
HETATM    8  C   UNL     1      -9.160   7.859  67.206  1.00  0.00    -0.152 C  
HETATM    9  C   UNL     1      -8.065   7.695  66.421  1.00  0.00    -0.113 C  
HETATM   10  C   UNL     1      -7.540   6.439  65.761  1.00  0.00    -0.085 C  
HETATM   11  N   UNL     1      -7.285   8.792  66.122  1.00  0.00    -0.084 NA 
HETATM   12  C   UNL     1      -7.414  10.045  66.673  1.00  0.00    -0.104 C  
HETATM   13  C   UNL     1      -8.453  10.321  67.499  1.00  0.00    -0.118 C  
HETATM   14  C   UNL     1      -6.319  11.010  66.286  1.00  0.00    -0.119 C  
HETATM   15  C   UNL     1      -9.520   9.250  67.788  1.00  0.00    -0.160 C  
BRANCH  13  16
HETATM   16  C   UNL     1      -8.467  11.636  68.197  1.00  0.00    -0.156 C  
HETATM   17  O   UNL     1      -7.562  12.016  68.924  1.00  0.00    -0.099 OA 
BRANCH  16  18
HETATM   18  O   UNL     1      -9.601  12.348  67.965  1.00  0.00    -0.198 OA 
BRANCH  18  19
HETATM   19  C   UNL     1      -9.787  12.704  66.574  1.00  0.00    -0.256 C  
HETATM   20  C   UNL     1     -11.191  12.302  66.127  1.00  0.00    -0.372 C  
HETATM   21  C   UNL     1      -9.576  14.204  66.415  1.00  0.00    -0.310 C  
ENDBRANCH  18  19
ENDBRANCH  16  18
ENDBRANCH  13  16
BRANCH  15  22
HETATM   22  C   UNL     1      -9.836   9.137  69.284  1.00  0.00    -0.175 A  
HETATM   23  C   UNL     1      -8.812   8.827  70.200  1.00  0.00    -0.160 A  
HETATM   24  C   UNL     1     -11.135   9.354  69.769  1.00  0.00    -0.193 A  
HETATM   25  C   UNL     1      -9.075   8.732  71.568  1.00  0.00    -0.322 A  
HETATM   26  O   UNL     1     -13.631   9.765  70.812  1.00  0.00    -0.227 OA 
HETATM   27  O   UNL     1     -12.945   9.396  72.862  1.00  0.00    -0.146 OA 
HETATM   28  C   UNL     1     -11.392   9.255  71.144  1.00  0.00    -0.342 A  
HETATM   29  N   UNL     1     -12.755   9.491  71.638  1.00  0.00    -0.360 N  
HETATM   30  C   UNL     1     -10.368   8.945  72.045  1.00  0.00    -0.378 A  
ENDBRANCH  15  22
ENDBRANCH   6   8
ENDBRANCH   5   6
ENDBRANCH   4   5
ENDBRANCH   3   4
ENDBRANCH   2   3
TORSDOF 9
ENDMDL
MODEL       95
REMARK 921   NORMALIZED FREE ENERGY PREDICTED BY IDOCK:   -4.32 KCAL/MOL
REMARK 922        TOTAL FREE ENERGY PREDICTED BY IDOCK:   -8.18 KCAL/MOL
REMARK 923 INTER-LIGAND FREE ENERGY PREDICTED BY IDOCK:   -6.43 KCAL/MOL
REMARK 924 INTRA-LIGAND FREE ENERGY PREDICTED BY IDOCK:   -1.75 KCAL/MOL
REMARK 927      BINDING AFFINITY PREDICTED BY RF-SCORE:    0.00 PKD
ROOT
HETATM    1  C   UNL     1     -10.276   6.791  70.495  1.00  0.00    -0.192 C  
HETATM    2  O   UNL     1     -10.743   7.568  69.402  1.00  0.00    -0.229 OA 
ENDROOT
BRANCH   2   3
HETATM    3  C   UNL     1     -10.837   6.787  68.210  1.00  0.00    -0.226 C  
BRANCH   3   4
HETATM    4  C   UNL     1     -10.660   7.725  67.036  1.00  0.00    -0.326 C  
BRANCH   4   5
HETATM    5  O   UNL     1     -10.265   9.047  67.421  1.00  0.00    -0.209 OA 
BRANCH   5   6
HETATM    6  C   UNL     1      -9.214   9.519  66.711  1.00  0.00    -0.149 C  
HETATM    7  O   UNL     1      -9.015   9.278  65.530  1.00  0.00    -0.178 OA 
BRANCH   6   8
HETATM    8  C   UNL     1      -8.292  10.326  67.553  1.00  0.00    -0.114 C  
HETATM    9  C   UNL     1      -7.383   9.775  68.398  1.00  0.00    -0.078 C  
HETATM   10  C   UNL     1      -7.197   8.327  68.792  1.00  0.00    -0.079 C  
HETATM   11  N   UNL     1      -6.451  10.592  69.001  1.00  0.00    -0.049 NA 
HETATM   12  C   UNL     1      -6.436  11.966  68.958  1.00  0.00    -0.086 C  
HETATM   13  C   UNL     1      -7.319  12.631  68.172  1.00  0.00    -0.112 C  
HETATM   14  C   UNL     1      -5.397  12.606  69.847  1.00  0.00    -0.094 C  
HETATM   15  C   UNL     1      -8.310  11.852  67.289  1.00  0.00    -0.169 C  
BRANCH  13  16
HETATM   16  C   UNL     1      -7.374  14.115  68.275  1.00  0.00    -0.120 C  
HETATM   17  O   UNL     1      -7.628  14.704  69.316  1.00  0.00    -0.147 OA 
BRANCH  16  18
HETATM   18  O   UNL     1      -7.144  14.738  67.090  1.00  0.00    -0.192 OA 
BRANCH  18  19
HETATM   19  C   UNL     1      -7.737  16.056  67.003  1.00  0.00    -0.229 C  
HETATM   20  C   UNL     1      -6.725  17.034  66.411  1.00  0.00    -0.222 C  
HETATM   21  C   UNL     1      -8.987  15.979  66.138  1.00  0.00    -0.381 C  
ENDBRANCH  18  19
ENDBRANCH  16  18
ENDBRANCH  13  16
BRANCH  15  22
HETATM   22  C   UNL     1      -9.739  12.398  67.404  1.00  0.00    -0.193 A  
HETATM   23  C   UNL     1     -10.356  12.498  68.665  1.00  0.00    -0.193 A  
HETATM   24  C   UNL     1     -10.447  12.820  66.268  1.00  0.00    -0.273 A  
HETATM   25  C   UNL     1     -11.651  13.004  68.794  1.00  0.00    -0.350 A  
HETATM   26  O   UNL     1     -11.906  13.673  64.116  1.00  0.00    -0.413 OA 
HETATM   27  O   UNL     1     -13.624  14.211  65.367  1.00  0.00    -0.568 OA 
HETATM   28  C   UNL     1     -11.748  13.325  66.404  1.00  0.00    -0.373 A  
HETATM   29  N   UNL     1     -12.475  13.769  65.208  1.00  0.00    -0.464 N  
HETATM   30  C   UNL     1     -12.353  13.418  67.662  1.00  0.00    -0.023 A  
ENDBRANCH  15  22
ENDBRANCH   6   8
ENDBRANCH   5   6
ENDBRANCH   4   5
ENDBRANCH   3   4
ENDBRANCH   2   3
TORSDOF 9
ENDMDL
MODEL       96
REMARK 921   NORMALIZED FREE ENERGY PREDICTED BY IDOCK:   -4.30 KCAL/MOL
REMARK 922        TOTAL FREE ENERGY PREDICTED BY IDOCK:   -8.15 KCAL/MOL
REMARK 923 INTER-LIGAND FREE ENERGY PREDICTED BY IDOCK:   -6.28 KCAL/MOL
REMARK 924 INTRA-LIGAND FREE ENERGY PREDICTED BY IDOCK:   -1.86 KCAL/MOL
REMARK 927      BINDING AFFINITY PREDICTED BY RF-SCORE:    0.00 PKD
ROOT
HETATM    1  C   UNL     1     -11.106   5.433  73.046  1.00  0.00    -0.313 C  
HETATM    2  O   UNL     1     -11.373   5.883  71.727  1.00  0.00    -0.273 OA 
ENDROOT
BRANCH   2   3
HETATM    3  C   UNL     1     -10.373   5.434  70.811  1.00  0.00    -0.251 C  
BRANCH   3   4
HETATM    4  C   UNL     1     -10.901   5.663  69.412  1.00  0.00    -0.264 C  
BRANCH   4   5
HETATM    5  O   UNL     1      -9.883   6.034  68.475  1.00  0.00    -0.122 OA 
BRANCH   5   6
HETATM    6  C   UNL     1     -10.350   6.777  67.444  1.00  0.00    -0.223 C  
HETATM    7  O   UNL     1     -11.381   6.540  66.834  1.00  0.00    -0.330 OA 
BRANCH   6   8
HETATM    8  C   UNL     1      -9.427   7.891  67.101  1.00  0.00    -0.203 C  
HETATM    9  C   UNL     1      -8.354   7.743  66.284  1.00  0.00    -0.131 C  
HETATM   10  C   UNL     1      -7.769   6.480  65.691  1.00  0.00    -0.094 C  
HETATM   11  N   UNL     1      -7.662   8.864  65.878  1.00  0.00    -0.096 NA 
HETATM   12  C   UNL     1      -7.855  10.143  66.347  1.00  0.00    -0.114 C  
HETATM   13  C   UNL     1      -8.879  10.408  67.196  1.00  0.00    -0.141 C  
HETATM   14  C   UNL     1      -6.844  11.147  65.849  1.00  0.00     0.121 C  
HETATM   15  C   UNL     1      -9.859   9.292  67.601  1.00  0.00    -0.221 C  
BRANCH  13  16
HETATM   16  C   UNL     1      -8.957  11.765  67.802  1.00  0.00    -0.173 C  
HETATM   17  O   UNL     1      -8.043  12.266  68.439  1.00  0.00    -0.157 OA 
BRANCH  16  18
HETATM   18  O   UNL     1     -10.157  12.370  67.597  1.00  0.00    -0.194 OA 
BRANCH  18  19
HETATM   19  C   UNL     1     -10.404  12.716  66.214  1.00  0.00    -0.252 C  
HETATM   20  C   UNL     1     -11.901  12.637  65.926  1.00  0.00    -0.499 C  
HETATM   21  C   UNL     1      -9.875  14.120  65.953  1.00  0.00    -0.312 C  
ENDBRANCH  18  19
ENDBRANCH  16  18
ENDBRANCH  13  16
BRANCH  15  22
HETATM   22  C   UNL     1     -10.110   9.266  69.114  1.00  0.00    -0.204 A  
HETATM   23  C   UNL     1     -11.381   9.597  69.623  1.00  0.00    -0.113 A  
HETATM   24  C   UNL     1      -9.096   8.899  70.011  1.00  0.00    -0.174 A  
HETATM   25  C   UNL     1     -11.635   9.567  70.996  1.00  0.00    -0.419 A  
HETATM   26  O   UNL     1      -7.186   8.192  71.839  1.00  0.00    -0.073 OA 
HETATM   27  O   UNL     1      -8.557   8.469  73.528  1.00  0.00    -0.341 OA 
HETATM   28  C   UNL     1      -9.357   8.873  71.388  1.00  0.00    -0.268 A  
HETATM   29  N   UNL     1      -8.288   8.482  72.316  1.00  0.00    -0.148 N  
HETATM   30  C   UNL     1     -10.622   9.206  71.884  1.00  0.00    -0.303 A  
ENDBRANCH  15  22
ENDBRANCH   6   8
ENDBRANCH   5   6
ENDBRANCH   4   5
ENDBRANCH   3   4
ENDBRANCH   2   3
TORSDOF 9
ENDMDL
MODEL       97
REMARK 921   NORMALIZED FREE ENERGY PREDICTED BY IDOCK:   -4.30 KCAL/MOL
REMARK 922        TOTAL FREE ENERGY PREDICTED BY IDOCK:   -8.14 KCAL/MOL
REMARK 923 INTER-LIGAND FREE ENERGY PREDICTED BY IDOCK:   -7.67 KCAL/MOL
REMARK 924 INTRA-LIGAND FREE ENERGY PREDICTED BY IDOCK:   -0.47 KCAL/MOL
REMARK 927      BINDING AFFINITY PREDICTED BY RF-SCORE:    0.00 PKD
ROOT
HETATM    1  C   UNL     1      -6.522  11.778  69.339  1.00  0.00    -0.120 C  
HETATM    2  O   UNL     1      -6.541  10.997  70.524  1.00  0.00    -0.299 OA 
ENDROOT
BRANCH   2   3
HETATM    3  C   UNL     1      -6.942   9.653  70.256  1.00  0.00    -0.119 C  
BRANCH   3   4
HETATM    4  C   UNL     1      -8.113   9.710  69.299  1.00  0.00    -0.107 C  
BRANCH   4   5
HETATM    5  O   UNL     1      -8.108   8.649  68.335  1.00  0.00    -0.115 OA 
BRANCH   5   6
HETATM    6  C   UNL     1      -9.280   8.528  67.669  1.00  0.00    -0.134 C  
HETATM    7  O   UNL     1     -10.231   7.868  68.058  1.00  0.00    -0.192 OA 
BRANCH   6   8
HETATM    8  C   UNL     1      -9.257   9.252  66.370  1.00  0.00    -0.227 C  
HETATM    9  C   UNL     1      -8.334   9.015  65.403  1.00  0.00    -0.144 C  
HETATM   10  C   UNL     1      -7.097   8.146  65.453  1.00  0.00    -0.063 C  
HETATM   11  N   UNL     1      -8.497   9.600  64.165  1.00  0.00    -0.165 NA 
HETATM   12  C   UNL     1      -9.439  10.548  63.841  1.00  0.00    -0.292 C  
HETATM   13  C   UNL     1     -10.396  10.890  64.739  1.00  0.00    -0.391 C  
HETATM   14  C   UNL     1      -9.280  11.135  62.459  1.00  0.00    -0.317 C  
HETATM   15  C   UNL     1     -10.462  10.189  66.107  1.00  0.00    -0.173 C  
BRANCH  13  16
HETATM   16  C   UNL     1     -11.296  12.029  64.408  1.00  0.00    -0.345 C  
HETATM   17  O   UNL     1     -12.420  11.882  63.952  1.00  0.00    -0.417 OA 
BRANCH  16  18
HETATM   18  O   UNL     1     -10.725  13.241  64.637  1.00  0.00    -0.353 OA 
BRANCH  18  19
HETATM   19  C   UNL     1     -11.671  14.336  64.643  1.00  0.00    -0.430 C  
HETATM   20  C   UNL     1     -12.770  14.057  65.665  1.00  0.00    -0.515 C  
HETATM   21  C   UNL     1     -10.933  15.625  64.978  1.00  0.00    -0.445 C  
ENDBRANCH  18  19
ENDBRANCH  16  18
ENDBRANCH  13  16
BRANCH  15  22
HETATM   22  C   UNL     1     -10.625  11.186  67.261  1.00  0.00    -0.279 A  
HETATM   23  C   UNL     1      -9.901  12.394  67.256  1.00  0.00    -0.207 A  
HETATM   24  C   UNL     1     -11.502  10.927  68.325  1.00  0.00    -0.376 A  
HETATM   25  C   UNL     1     -10.044  13.322  68.290  1.00  0.00    -0.250 A  
HETATM   26  O   UNL     1     -13.191  10.515  70.439  1.00  0.00    -0.235 OA 
HETATM   27  O   UNL     1     -12.662  12.432  71.364  1.00  0.00    -0.348 OA 
HETATM   28  C   UNL     1     -11.640  11.862  69.361  1.00  0.00    -0.325 A  
HETATM   29  N   UNL     1     -12.565  11.580  70.465  1.00  0.00    -0.240 N  
HETATM   30  C   UNL     1     -10.914  13.058  69.347  1.00  0.00    -0.048 A  
ENDBRANCH  15  22
ENDBRANCH   6   8
ENDBRANCH   5   6
ENDBRANCH   4   5
ENDBRANCH   3   4
ENDBRANCH   2   3
TORSDOF 9
ENDMDL
MODEL       98
REMARK 921   NORMALIZED FREE ENERGY PREDICTED BY IDOCK:   -4.29 KCAL/MOL
REMARK 922        TOTAL FREE ENERGY PREDICTED BY IDOCK:   -8.13 KCAL/MOL
REMARK 923 INTER-LIGAND FREE ENERGY PREDICTED BY IDOCK:   -6.83 KCAL/MOL
REMARK 924 INTRA-LIGAND FREE ENERGY PREDICTED BY IDOCK:   -1.31 KCAL/MOL
REMARK 927      BINDING AFFINITY PREDICTED BY RF-SCORE:    0.00 PKD
ROOT
HETATM    1  C   UNL     1      -9.208   6.026  68.526  1.00  0.00    -0.114 C  
HETATM    2  O   UNL     1     -10.499   5.672  68.055  1.00  0.00    -0.205 OA 
ENDROOT
BRANCH   2   3
HETATM    3  C   UNL     1     -10.878   6.465  66.929  1.00  0.00    -0.357 C  
BRANCH   3   4
HETATM    4  C   UNL     1      -9.846   7.561  66.775  1.00  0.00    -0.225 C  
BRANCH   4   5
HETATM    5  O   UNL     1     -10.384   8.773  66.233  1.00  0.00    -0.231 OA 
BRANCH   5   6
HETATM    6  C   UNL     1      -9.539   9.396  65.378  1.00  0.00    -0.226 C  
HETATM    7  O   UNL     1      -8.624   8.844  64.787  1.00  0.00    -0.175 OA 
BRANCH   6   8
HETATM    8  C   UNL     1      -9.821  10.852  65.283  1.00  0.00    -0.318 C  
HETATM    9  C   UNL     1     -10.041  11.493  64.107  1.00  0.00    -0.307 C  
HETATM   10  C   UNL     1      -9.906  10.971  62.693  1.00  0.00    -0.179 C  
HETATM   11  N   UNL     1     -10.472  12.802  64.128  1.00  0.00    -0.408 NA 
HETATM   12  C   UNL     1     -10.561  13.602  65.243  1.00  0.00    -0.346 C  
HETATM   13  C   UNL     1     -10.332  13.081  66.474  1.00  0.00    -0.278 C  
HETATM   14  C   UNL     1     -10.904  15.043  64.949  1.00  0.00    -0.430 C  
HETATM   15  C   UNL     1     -10.019  11.583  66.636  1.00  0.00    -0.236 C  
BRANCH  13  16
HETATM   16  C   UNL     1     -10.282  14.012  67.634  1.00  0.00    -0.241 C  
HETATM   17  O   UNL     1     -11.112  14.008  68.531  1.00  0.00    -0.238 OA 
BRANCH  16  18
HETATM   18  O   UNL     1      -9.239  14.880  67.574  1.00  0.00    -0.187 OA 
BRANCH  18  19
HETATM   19  C   UNL     1      -9.295  15.926  68.572  1.00  0.00    -0.206 C  
HETATM   20  C   UNL     1      -7.908  16.133  69.176  1.00  0.00    -0.232 C  
HETATM   21  C   UNL     1      -9.800  17.206  67.920  1.00  0.00    -0.283 C  
ENDBRANCH  18  19
ENDBRANCH  16  18
ENDBRANCH  13  16
BRANCH  15  22
HETATM   22  C   UNL     1      -8.816  11.339  67.555  1.00  0.00    -0.140 A  
HETATM   23  C   UNL     1      -7.567  11.914  67.249  1.00  0.00    -0.154 A  
HETATM   24  C   UNL     1      -8.937  10.561  68.717  1.00  0.00    -0.166 A  
HETATM   25  C   UNL     1      -6.462  11.715  68.079  1.00  0.00    -0.055 A  
HETATM   26  O   UNL     1      -9.074   9.067  71.005  1.00  0.00    -0.222 OA 
HETATM   27  O   UNL     1      -6.957   9.403  71.470  1.00  0.00    -0.307 OA 
HETATM   28  C   UNL     1      -7.823  10.365  69.545  1.00  0.00    -0.155 A  
HETATM   29  N   UNL     1      -7.965   9.554  70.761  1.00  0.00    -0.126 N  
HETATM   30  C   UNL     1      -6.586  10.938  69.231  1.00  0.00    -0.079 A  
ENDBRANCH  15  22
ENDBRANCH   6   8
ENDBRANCH   5   6
ENDBRANCH   4   5
ENDBRANCH   3   4
ENDBRANCH   2   3
TORSDOF 9
ENDMDL
MODEL       99
REMARK 921   NORMALIZED FREE ENERGY PREDICTED BY IDOCK:   -4.28 KCAL/MOL
REMARK 922        TOTAL FREE ENERGY PREDICTED BY IDOCK:   -8.12 KCAL/MOL
REMARK 923 INTER-LIGAND FREE ENERGY PREDICTED BY IDOCK:   -6.66 KCAL/MOL
REMARK 924 INTRA-LIGAND FREE ENERGY PREDICTED BY IDOCK:   -1.46 KCAL/MOL
REMARK 927      BINDING AFFINITY PREDICTED BY RF-SCORE:    0.00 PKD
ROOT
HETATM    1  C   UNL     1     -12.775  11.979  63.637  1.00  0.00    -0.431 C  
HETATM    2  O   UNL     1     -12.717  12.657  64.883  1.00  0.00    -0.648 OA 
ENDROOT
BRANCH   2   3
HETATM    3  C   UNL     1     -12.610  14.069  64.703  1.00  0.00    -0.248 C  
BRANCH   3   4
HETATM    4  C   UNL     1     -11.138  14.421  64.725  1.00  0.00    -0.394 C  
BRANCH   4   5
HETATM    5  O   UNL     1     -10.307  13.354  65.198  1.00  0.00    -0.318 OA 
BRANCH   5   6
HETATM    6  C   UNL     1      -9.708  13.627  66.380  1.00  0.00    -0.292 C  
HETATM    7  O   UNL     1      -8.809  14.440  66.526  1.00  0.00    -0.202 OA 
BRANCH   6   8
HETATM    8  C   UNL     1     -10.236  12.777  67.479  1.00  0.00    -0.216 C  
HETATM    9  C   UNL     1     -10.984  13.263  68.502  1.00  0.00    -0.266 C  
HETATM   10  C   UNL     1     -11.311  14.698  68.852  1.00  0.00    -0.305 C  
HETATM   11  N   UNL     1     -11.582  12.377  69.374  1.00  0.00    -0.300 NA 
HETATM   12  C   UNL     1     -11.371  11.018  69.411  1.00  0.00    -0.284 C  
HETATM   13  C   UNL     1     -10.613  10.422  68.457  1.00  0.00    -0.237 C  
HETATM   14  C   UNL     1     -12.028  10.319  70.576  1.00  0.00    -0.415 C  
HETATM   15  C   UNL     1     -10.024  11.252  67.303  1.00  0.00    -0.208 C  
BRANCH  13  16
HETATM   16  C   UNL     1     -10.280   8.981  68.623  1.00  0.00    -0.205 C  
HETATM   17  O   UNL     1     -10.878   8.085  68.045  1.00  0.00    -0.094 OA 
BRANCH  16  18
HETATM   18  O   UNL     1      -9.266   8.768  69.503  1.00  0.00    -0.147 OA 
BRANCH  18  19
HETATM   19  C   UNL     1      -9.613   7.866  70.581  1.00  0.00    -0.166 C  
HETATM   20  C   UNL     1      -8.739   6.617  70.504  1.00  0.00    -0.144 C  
HETATM   21  C   UNL     1      -9.418   8.585  71.909  1.00  0.00    -0.350 C  
ENDBRANCH  18  19
ENDBRANCH  16  18
ENDBRANCH  13  16
BRANCH  15  22
HETATM   22  C   UNL     1      -8.541  10.943  67.067  1.00  0.00    -0.136 A  
HETATM   23  C   UNL     1      -7.566  11.447  67.949  1.00  0.00    -0.108 A  
HETATM   24  C   UNL     1      -8.129  10.147  65.987  1.00  0.00    -0.129 A  
HETATM   25  C   UNL     1      -6.211  11.167  67.759  1.00  0.00    -0.051 A  
HETATM   26  O   UNL     1      -7.229   8.599  63.917  1.00  0.00    -0.093 OA 
HETATM   27  O   UNL     1      -5.137   8.807  64.539  1.00  0.00    -0.041 OA 
HETATM   28  C   UNL     1      -6.767   9.871  65.802  1.00  0.00    -0.099 A  
HETATM   29  N   UNL     1      -6.351   9.031  64.671  1.00  0.00    -0.070 N  
HETATM   30  C   UNL     1      -5.807  10.378  66.683  1.00  0.00    -0.061 A  
ENDBRANCH  15  22
ENDBRANCH   6   8
ENDBRANCH   5   6
ENDBRANCH   4   5
ENDBRANCH   3   4
ENDBRANCH   2   3
TORSDOF 9
ENDMDL
MODEL      100
REMARK 921   NORMALIZED FREE ENERGY PREDICTED BY IDOCK:   -4.28 KCAL/MOL
REMARK 922        TOTAL FREE ENERGY PREDICTED BY IDOCK:   -8.11 KCAL/MOL
REMARK 923 INTER-LIGAND FREE ENERGY PREDICTED BY IDOCK:   -6.79 KCAL/MOL
REMARK 924 INTRA-LIGAND FREE ENERGY PREDICTED BY IDOCK:   -1.32 KCAL/MOL
REMARK 927      BINDING AFFINITY PREDICTED BY RF-SCORE:    0.00 PKD
ROOT
HETATM    1  C   UNL     1     -11.569   6.473  72.384  1.00  0.00    -0.255 C  
HETATM    2  O   UNL     1     -12.426   7.356  71.677  1.00  0.00    -0.318 OA 
ENDROOT
BRANCH   2   3
HETATM    3  C   UNL     1     -12.472   8.643  72.295  1.00  0.00    -0.395 C  
BRANCH   3   4
HETATM    4  C   UNL     1     -11.935   9.646  71.299  1.00  0.00    -0.380 C  
BRANCH   4   5
HETATM    5  O   UNL     1     -11.309   9.038  70.162  1.00  0.00    -0.222 OA 
BRANCH   5   6
HETATM    6  C   UNL     1      -9.980   9.282  70.089  1.00  0.00    -0.215 C  
HETATM    7  O   UNL     1      -9.303   9.700  71.015  1.00  0.00    -0.170 OA 
BRANCH   6   8
HETATM    8  C   UNL     1      -9.446   9.035  68.724  1.00  0.00    -0.148 C  
HETATM    9  C   UNL     1      -8.564   8.044  68.438  1.00  0.00    -0.127 C  
HETATM   10  C   UNL     1      -7.831   7.115  69.380  1.00  0.00    -0.113 C  
HETATM   11  N   UNL     1      -8.264   7.775  67.119  1.00  0.00    -0.117 NA 
HETATM   12  C   UNL     1      -8.656   8.525  66.036  1.00  0.00    -0.143 C  
HETATM   13  C   UNL     1      -9.513   9.563  66.202  1.00  0.00    -0.281 C  
HETATM   14  C   UNL     1      -8.044   8.091  64.725  1.00  0.00    -0.143 C  
HETATM   15  C   UNL     1     -10.088   9.879  67.594  1.00  0.00    -0.241 C  
BRANCH  13  16
HETATM   16  C   UNL     1      -9.786  10.443  65.033  1.00  0.00    -0.319 C  
HETATM   17  O   UNL     1      -8.919  10.807  64.252  1.00  0.00    -0.190 OA 
BRANCH  16  18
HETATM   18  O   UNL     1     -11.089  10.820  64.945  1.00  0.00     0.002 OA 
BRANCH  18  19
HETATM   19  C   UNL     1     -11.320  11.896  64.005  1.00  0.00    -0.397 C  
HETATM   20  C   UNL     1     -12.780  11.883  63.561  1.00  0.00    -0.530 C  
HETATM   21  C   UNL     1     -10.967  13.219  64.671  1.00  0.00    -0.384 C  
ENDBRANCH  18  19
ENDBRANCH  16  18
ENDBRANCH  13  16
BRANCH  15  22
HETATM   22  C   UNL     1     -10.003  11.373  67.928  1.00  0.00    -0.190 A  
HETATM   23  C   UNL     1     -11.173  12.095  68.232  1.00  0.00    -0.319 A  
HETATM   24  C   UNL     1      -8.769  12.041  67.955  1.00  0.00    -0.170 A  
HETATM   25  C   UNL     1     -11.116  13.454  68.552  1.00  0.00    -0.299 A  
HETATM   26  O   UNL     1      -6.412  13.430  68.039  1.00  0.00    -0.098 OA 
HETATM   27  O   UNL     1      -7.417  15.298  68.594  1.00  0.00    -0.115 OA 
HETATM   28  C   UNL     1      -8.720  13.405  68.275  1.00  0.00    -0.172 A  
HETATM   29  N   UNL     1      -7.421  14.091  68.305  1.00  0.00    -0.111 N  
HETATM   30  C   UNL     1      -9.889  14.114  68.573  1.00  0.00    -0.230 A  
ENDBRANCH  15  22
ENDBRANCH   6   8
ENDBRANCH   5   6
ENDBRANCH   4   5
ENDBRANCH   3   4
ENDBRANCH   2   3
TORSDOF 9
ENDMDL
MODEL      101
REMARK 921   NORMALIZED FREE ENERGY PREDICTED BY IDOCK:   -4.26 KCAL/MOL
REMARK 922        TOTAL FREE ENERGY PREDICTED BY IDOCK:   -8.08 KCAL/MOL
REMARK 923 INTER-LIGAND FREE ENERGY PREDICTED BY IDOCK:   -6.48 KCAL/MOL
REMARK 924 INTRA-LIGAND FREE ENERGY PREDICTED BY IDOCK:   -1.59 KCAL/MOL
REMARK 927      BINDING AFFINITY PREDICTED BY RF-SCORE:    0.00 PKD
ROOT
HETATM    1  C   UNL     1     -11.300   2.450  73.590  1.00  0.00    -0.209 C  
HETATM    2  O   UNL     1     -11.523   3.843  73.432  1.00  0.00    -0.223 OA 
ENDROOT
BRANCH   2   3
HETATM    3  C   UNL     1     -10.302   4.579  73.524  1.00  0.00    -0.188 C  
BRANCH   3   4
HETATM    4  C   UNL     1     -10.224   5.484  72.313  1.00  0.00    -0.199 C  
BRANCH   4   5
HETATM    5  O   UNL     1     -11.095   6.618  72.396  1.00  0.00    -0.241 OA 
BRANCH   5   6
HETATM    6  C   UNL     1     -10.434   7.789  72.552  1.00  0.00    -0.284 C  
HETATM    7  O   UNL     1      -9.652   8.025  73.459  1.00  0.00    -0.270 OA 
BRANCH   6   8
HETATM    8  C   UNL     1     -10.816   8.783  71.514  1.00  0.00    -0.374 C  
HETATM    9  C   UNL     1     -12.040   9.369  71.460  1.00  0.00    -0.379 C  
HETATM   10  C   UNL     1     -13.281   9.069  72.271  1.00  0.00    -0.519 C  
HETATM   11  N   UNL     1     -12.245  10.409  70.578  1.00  0.00    -0.305 NA 
HETATM   12  C   UNL     1     -11.363  10.829  69.611  1.00  0.00    -0.294 C  
HETATM   13  C   UNL     1     -10.119  10.294  69.546  1.00  0.00    -0.260 C  
HETATM   14  C   UNL     1     -11.918  11.880  68.679  1.00  0.00    -0.291 C  
HETATM   15  C   UNL     1      -9.670   9.247  70.581  1.00  0.00    -0.334 C  
BRANCH  13  16
HETATM   16  C   UNL     1      -9.255  10.660  68.390  1.00  0.00    -0.159 C  
HETATM   17  O   UNL     1      -9.387  10.176  67.276  1.00  0.00    -0.150 OA 
BRANCH  16  18
HETATM   18  O   UNL     1      -8.291  11.561  68.713  1.00  0.00    -0.141 OA 
BRANCH  18  19
HETATM   19  C   UNL     1      -7.928  12.440  67.622  1.00  0.00    -0.164 C  
HETATM   20  C   UNL     1      -8.271  13.881  67.990  1.00  0.00    -0.161 C  
HETATM   21  C   UNL     1      -6.439  12.291  67.340  1.00  0.00    -0.157 C  
ENDBRANCH  18  19
ENDBRANCH  16  18
ENDBRANCH  13  16
BRANCH  15  22
HETATM   22  C   UNL     1      -8.992   8.038  69.925  1.00  0.00    -0.145 A  
HETATM   23  C   UNL     1      -7.678   7.685  70.286  1.00  0.00    -0.091 A  
HETATM   24  C   UNL     1      -9.666   7.257  68.974  1.00  0.00    -0.152 A  
HETATM   25  C   UNL     1      -7.046   6.581  69.710  1.00  0.00    -0.072 A  
HETATM   26  O   UNL     1     -10.898   5.670  67.116  1.00  0.00    -0.263 OA 
HETATM   27  O   UNL     1      -9.146   4.366  66.922  1.00  0.00    -0.118 OA 
HETATM   28  C   UNL     1      -9.026   6.151  68.398  1.00  0.00    -0.115 A  
HETATM   29  N   UNL     1      -9.744   5.338  67.409  1.00  0.00    -0.137 N  
HETATM   30  C   UNL     1      -7.719   5.810  68.763  1.00  0.00    -0.090 A  
ENDBRANCH  15  22
ENDBRANCH   6   8
ENDBRANCH   5   6
ENDBRANCH   4   5
ENDBRANCH   3   4
ENDBRANCH   2   3
TORSDOF 9
ENDMDL
MODEL      102
REMARK 921   NORMALIZED FREE ENERGY PREDICTED BY IDOCK:   -4.25 KCAL/MOL
REMARK 922        TOTAL FREE ENERGY PREDICTED BY IDOCK:   -8.06 KCAL/MOL
REMARK 923 INTER-LIGAND FREE ENERGY PREDICTED BY IDOCK:   -6.54 KCAL/MOL
REMARK 924 INTRA-LIGAND FREE ENERGY PREDICTED BY IDOCK:   -1.52 KCAL/MOL
REMARK 927      BINDING AFFINITY PREDICTED BY RF-SCORE:    0.00 PKD
ROOT
HETATM    1  C   UNL     1     -12.321  12.483  63.240  1.00  0.00    -0.371 C  
HETATM    2  O   UNL     1     -12.480  13.893  63.244  1.00  0.00    -0.817 OA 
ENDROOT
BRANCH   2   3
HETATM    3  C   UNL     1     -12.162  14.450  64.520  1.00  0.00    -0.463 C  
BRANCH   3   4
HETATM    4  C   UNL     1     -12.262  13.336  65.540  1.00  0.00    -0.457 C  
BRANCH   4   5
HETATM    5  O   UNL     1     -10.989  12.916  66.047  1.00  0.00    -0.272 OA 
BRANCH   5   6
HETATM    6  C   UNL     1     -10.863  13.088  67.383  1.00  0.00    -0.251 C  
HETATM    7  O   UNL     1     -11.801  13.229  68.153  1.00  0.00    -0.335 OA 
BRANCH   6   8
HETATM    8  C   UNL     1      -9.438  13.144  67.803  1.00  0.00    -0.209 C  
HETATM    9  C   UNL     1      -8.686  14.272  67.734  1.00  0.00    -0.179 C  
HETATM   10  C   UNL     1      -9.021  15.610  67.114  1.00  0.00    -0.232 C  
HETATM   11  N   UNL     1      -7.434  14.277  68.311  1.00  0.00    -0.114 NA 
HETATM   12  C   UNL     1      -6.783  13.183  68.833  1.00  0.00    -0.099 C  
HETATM   13  C   UNL     1      -7.423  11.991  68.924  1.00  0.00    -0.043 C  
HETATM   14  C   UNL     1      -5.356  13.448  69.248  1.00  0.00    -0.075 C  
HETATM   15  C   UNL     1      -8.894  11.866  68.490  1.00  0.00    -0.108 C  
BRANCH  13  16
HETATM   16  C   UNL     1      -6.636  10.800  69.344  1.00  0.00    -0.085 C  
HETATM   17  O   UNL     1      -5.883  10.197  68.594  1.00  0.00    -0.041 OA 
BRANCH  16  18
HETATM   18  O   UNL     1      -6.865  10.440  70.634  1.00  0.00    -0.328 OA 
BRANCH  18  19
HETATM   19  C   UNL     1      -7.288   9.065  70.787  1.00  0.00    -0.106 C  
HETATM   20  C   UNL     1      -6.495   8.408  71.914  1.00  0.00    -0.067 C  
HETATM   21  C   UNL     1      -8.781   9.036  71.085  1.00  0.00    -0.266 C  
ENDBRANCH  18  19
ENDBRANCH  16  18
ENDBRANCH  13  16
BRANCH  15  22
HETATM   22  C   UNL     1      -9.133  10.639  67.602  1.00  0.00    -0.145 A  
HETATM   23  C   UNL     1     -10.062   9.656  67.992  1.00  0.00    -0.213 A  
HETATM   24  C   UNL     1      -8.449  10.480  66.387  1.00  0.00    -0.143 A  
HETATM   25  C   UNL     1     -10.303   8.537  67.192  1.00  0.00    -0.377 A  
HETATM   26  O   UNL     1      -7.171  10.084  63.999  1.00  0.00    -0.128 OA 
HETATM   27  O   UNL     1      -8.221   8.193  63.637  1.00  0.00    -0.139 OA 
HETATM   28  C   UNL     1      -8.695   9.353  65.589  1.00  0.00    -0.154 A  
HETATM   29  N   UNL     1      -7.977   9.203  64.317  1.00  0.00    -0.130 N  
HETATM   30  C   UNL     1      -9.619   8.381  65.987  1.00  0.00    -0.196 A  
ENDBRANCH  15  22
ENDBRANCH   6   8
ENDBRANCH   5   6
ENDBRANCH   4   5
ENDBRANCH   3   4
ENDBRANCH   2   3
TORSDOF 9
ENDMDL
MODEL      103
REMARK 921   NORMALIZED FREE ENERGY PREDICTED BY IDOCK:   -4.24 KCAL/MOL
REMARK 922        TOTAL FREE ENERGY PREDICTED BY IDOCK:   -8.04 KCAL/MOL
REMARK 923 INTER-LIGAND FREE ENERGY PREDICTED BY IDOCK:   -6.23 KCAL/MOL
REMARK 924 INTRA-LIGAND FREE ENERGY PREDICTED BY IDOCK:   -1.82 KCAL/MOL
REMARK 927      BINDING AFFINITY PREDICTED BY RF-SCORE:    0.00 PKD
ROOT
HETATM    1  C   UNL     1      -7.421  14.777  67.291  1.00  0.00    -0.141 C  
HETATM    2  O   UNL     1      -8.302  13.740  66.885  1.00  0.00    -0.139 OA 
ENDROOT
BRANCH   2   3
HETATM    3  C   UNL     1      -9.619  14.239  66.649  1.00  0.00    -0.289 C  
BRANCH   3   4
HETATM    4  C   UNL     1     -10.453  13.919  67.871  1.00  0.00    -0.242 C  
BRANCH   4   5
HETATM    5  O   UNL     1     -10.271  12.580  68.347  1.00  0.00    -0.225 OA 
BRANCH   5   6
HETATM    6  C   UNL     1     -11.193  11.713  67.866  1.00  0.00    -0.269 C  
HETATM    7  O   UNL     1     -12.083  12.014  67.087  1.00  0.00    -0.587 OA 
BRANCH   6   8
HETATM    8  C   UNL     1     -11.029  10.354  68.445  1.00  0.00    -0.312 C  
HETATM    9  C   UNL     1     -11.365  10.044  69.723  1.00  0.00    -0.228 C  
HETATM   10  C   UNL     1     -11.802  10.958  70.846  1.00  0.00    -0.363 C  
HETATM   11  N   UNL     1     -11.350   8.723  70.118  1.00  0.00    -0.158 NA 
HETATM   12  C   UNL     1     -10.870   7.667  69.378  1.00  0.00    -0.127 C  
HETATM   13  C   UNL     1     -10.475   7.861  68.095  1.00  0.00    -0.227 C  
HETATM   14  C   UNL     1     -10.825   6.355  70.123  1.00  0.00    -0.355 C  
HETATM   15  C   UNL     1     -10.603   9.249  67.445  1.00  0.00    -0.324 C  
BRANCH  13  16
HETATM   16  C   UNL     1      -9.816   6.731  67.384  1.00  0.00    -0.137 C  
HETATM   17  O   UNL     1     -10.425   5.939  66.679  1.00  0.00    -0.237 OA 
BRANCH  16  18
HETATM   18  O   UNL     1      -8.481   6.657  67.626  1.00  0.00    -0.121 OA 
BRANCH  18  19
HETATM   19  C   UNL     1      -7.747   5.932  66.612  1.00  0.00    -0.100 C  
HETATM   20  C   UNL     1      -6.790   6.881  65.896  1.00  0.00    -0.056 C  
HETATM   21  C   UNL     1      -6.985   4.791  67.273  1.00  0.00    -0.061 C  
ENDBRANCH  18  19
ENDBRANCH  16  18
ENDBRANCH  13  16
BRANCH  15  22
HETATM   22  C   UNL     1      -9.325   9.662  66.706  1.00  0.00    -0.193 A  
HETATM   23  C   UNL     1      -8.151   9.944  67.431  1.00  0.00    -0.113 A  
HETATM   24  C   UNL     1      -9.293   9.751  65.306  1.00  0.00    -0.315 A  
HETATM   25  C   UNL     1      -6.972  10.310  66.777  1.00  0.00    -0.093 A  
HETATM   26  O   UNL     1      -9.129   9.945  62.581  1.00  0.00    -0.253 OA 
HETATM   27  O   UNL     1      -7.017  10.532  62.649  1.00  0.00    -0.137 OA 
HETATM   28  C   UNL     1      -8.107  10.120  64.656  1.00  0.00    -0.153 A  
HETATM   29  N   UNL     1      -8.086  10.203  63.190  1.00  0.00    -0.153 N  
HETATM   30  C   UNL     1      -6.947  10.400  65.386  1.00  0.00    -0.118 A  
ENDBRANCH  15  22
ENDBRANCH   6   8
ENDBRANCH   5   6
ENDBRANCH   4   5
ENDBRANCH   3   4
ENDBRANCH   2   3
TORSDOF 9
ENDMDL
MODEL      104
REMARK 921   NORMALIZED FREE ENERGY PREDICTED BY IDOCK:   -4.22 KCAL/MOL
REMARK 922        TOTAL FREE ENERGY PREDICTED BY IDOCK:   -8.02 KCAL/MOL
REMARK 923 INTER-LIGAND FREE ENERGY PREDICTED BY IDOCK:   -6.35 KCAL/MOL
REMARK 924 INTRA-LIGAND FREE ENERGY PREDICTED BY IDOCK:   -1.67 KCAL/MOL
REMARK 927      BINDING AFFINITY PREDICTED BY RF-SCORE:    0.00 PKD
ROOT
HETATM    1  C   UNL     1     -11.841  14.100  68.923  1.00  0.00    -0.347 C  
HETATM    2  O   UNL     1     -12.163  13.387  70.108  1.00  0.00    -0.331 OA 
ENDROOT
BRANCH   2   3
HETATM    3  C   UNL     1     -11.995  11.980  69.931  1.00  0.00    -0.318 C  
BRANCH   3   4
HETATM    4  C   UNL     1     -11.780  11.729  68.455  1.00  0.00    -0.325 C  
BRANCH   4   5
HETATM    5  O   UNL     1     -11.194  10.451  68.177  1.00  0.00    -0.288 OA 
BRANCH   5   6
HETATM    6  C   UNL     1      -9.857  10.508  67.978  1.00  0.00    -0.147 C  
HETATM    7  O   UNL     1      -9.139  11.416  68.369  1.00  0.00    -0.169 OA 
BRANCH   6   8
HETATM    8  C   UNL     1      -9.366   9.358  67.174  1.00  0.00    -0.172 C  
HETATM    9  C   UNL     1      -9.398   9.331  65.818  1.00  0.00    -0.244 C  
HETATM   10  C   UNL     1     -10.035  10.309  64.855  1.00  0.00    -0.393 C  
HETATM   11  N   UNL     1      -8.757   8.306  65.153  1.00  0.00    -0.110 NA 
HETATM   12  C   UNL     1      -8.203   7.191  65.737  1.00  0.00    -0.132 C  
HETATM   13  C   UNL     1      -8.143   7.090  67.088  1.00  0.00    -0.118 C  
HETATM   14  C   UNL     1      -7.717   6.152  64.756  1.00  0.00    -0.099 C  
HETATM   15  C   UNL     1      -8.651   8.241  67.975  1.00  0.00    -0.132 C  
BRANCH  13  16
HETATM   16  C   UNL     1      -7.683   5.804  67.678  1.00  0.00    -0.097 C  
HETATM   17  O   UNL     1      -6.574   5.652  68.169  1.00  0.00    -0.045 OA 
BRANCH  16  18
HETATM   18  O   UNL     1      -8.610   4.815  67.584  1.00  0.00    -0.104 OA 
BRANCH  18  19
HETATM   19  C   UNL     1      -8.336   3.679  68.439  1.00  0.00    -0.082 C  
HETATM   20  C   UNL     1      -8.871   3.954  69.842  1.00  0.00    -0.143 C  
HETATM   21  C   UNL     1      -8.989   2.441  67.841  1.00  0.00    -0.193 C  
ENDBRANCH  18  19
ENDBRANCH  16  18
ENDBRANCH  13  16
BRANCH  15  22
HETATM   22  C   UNL     1      -9.549   7.741  69.113  1.00  0.00    -0.155 A  
HETATM   23  C   UNL     1     -10.725   7.024  68.820  1.00  0.00    -0.226 A  
HETATM   24  C   UNL     1      -9.213   7.970  70.456  1.00  0.00    -0.154 A  
HETATM   25  C   UNL     1     -11.551   6.549  69.841  1.00  0.00    -0.433 A  
HETATM   26  O   UNL     1      -8.640   8.360  73.104  1.00  0.00    -0.292 OA 
HETATM   27  O   UNL     1     -10.443   7.293  73.754  1.00  0.00    -0.370 OA 
HETATM   28  C   UNL     1     -10.047   7.491  71.476  1.00  0.00    -0.181 A  
HETATM   29  N   UNL     1      -9.681   7.733  72.878  1.00  0.00    -0.223 N  
HETATM   30  C   UNL     1     -11.215   6.782  71.174  1.00  0.00    -0.327 A  
ENDBRANCH  15  22
ENDBRANCH   6   8
ENDBRANCH   5   6
ENDBRANCH   4   5
ENDBRANCH   3   4
ENDBRANCH   2   3
TORSDOF 9
ENDMDL
MODEL      105
REMARK 921   NORMALIZED FREE ENERGY PREDICTED BY IDOCK:   -4.21 KCAL/MOL
REMARK 922        TOTAL FREE ENERGY PREDICTED BY IDOCK:   -8.01 KCAL/MOL
REMARK 923 INTER-LIGAND FREE ENERGY PREDICTED BY IDOCK:   -7.11 KCAL/MOL
REMARK 924 INTRA-LIGAND FREE ENERGY PREDICTED BY IDOCK:   -0.90 KCAL/MOL
REMARK 927      BINDING AFFINITY PREDICTED BY RF-SCORE:    0.00 PKD
ROOT
HETATM    1  C   UNL     1     -10.150  12.181  63.623  1.00  0.00    -0.385 C  
HETATM    2  O   UNL     1     -10.304  10.770  63.630  1.00  0.00    -0.327 OA 
ENDROOT
BRANCH   2   3
HETATM    3  C   UNL     1      -9.038  10.108  63.608  1.00  0.00    -0.260 C  
BRANCH   3   4
HETATM    4  C   UNL     1      -8.411  10.280  64.974  1.00  0.00    -0.168 C  
BRANCH   4   5
HETATM    5  O   UNL     1      -9.339  10.102  66.052  1.00  0.00    -0.155 OA 
BRANCH   5   6
HETATM    6  C   UNL     1      -8.781  10.277  67.272  1.00  0.00    -0.125 C  
HETATM    7  O   UNL     1      -8.299   9.380  67.946  1.00  0.00    -0.115 OA 
BRANCH   6   8
HETATM    8  C   UNL     1      -8.874  11.689  67.726  1.00  0.00    -0.159 C  
HETATM    9  C   UNL     1      -7.832  12.557  67.675  1.00  0.00    -0.162 C  
HETATM   10  C   UNL     1      -6.383  12.295  67.326  1.00  0.00    -0.150 C  
HETATM   11  N   UNL     1      -8.058  13.890  67.946  1.00  0.00    -0.143 NA 
HETATM   12  C   UNL     1      -9.229  14.427  68.426  1.00  0.00    -0.195 C  
HETATM   13  C   UNL     1     -10.332  13.648  68.551  1.00  0.00    -0.244 C  
HETATM   14  C   UNL     1      -9.140  15.889  68.790  1.00  0.00    -0.219 C  
HETATM   15  C   UNL     1     -10.294  12.173  68.114  1.00  0.00    -0.214 C  
BRANCH  13  16
HETATM   16  C   UNL     1     -11.529  14.226  69.221  1.00  0.00    -0.289 C  
HETATM   17  O   UNL     1     -12.482  14.684  68.608  1.00  0.00    -0.054 OA 
BRANCH  16  18
HETATM   18  O   UNL     1     -11.435  14.217  70.576  1.00  0.00    -0.214 OA 
BRANCH  18  19
HETATM   19  C   UNL     1     -12.648  14.639  71.245  1.00  0.00    -0.333 C  
HETATM   20  C   UNL     1     -13.217  13.476  72.053  1.00  0.00    -0.529 C  
HETATM   21  C   UNL     1     -12.329  15.823  72.148  1.00  0.00    -0.539 C  
ENDBRANCH  18  19
ENDBRANCH  16  18
ENDBRANCH  13  16
BRANCH  15  22
HETATM   22  C   UNL     1     -10.907  11.242  69.166  1.00  0.00    -0.269 A  
HETATM   23  C   UNL     1     -12.304  11.079  69.236  1.00  0.00    -0.160 A  
HETATM   24  C   UNL     1     -10.097  10.526  70.062  1.00  0.00     0.049 A  
HETATM   25  C   UNL     1     -12.883  10.227  70.179  1.00  0.00    -0.033 A  
HETATM   26  O   UNL     1      -8.603   9.085  71.845  1.00  0.00    -0.361 OA 
HETATM   27  O   UNL     1     -10.380   8.179  72.755  1.00  0.00    -0.313 OA 
HETATM   28  C   UNL     1     -10.684   9.673  71.006  1.00  0.00    -0.323 A  
HETATM   29  N   UNL     1      -9.825   8.926  71.933  1.00  0.00    -0.323 N  
HETATM   30  C   UNL     1     -12.074   9.521  71.068  1.00  0.00    -0.398 A  
ENDBRANCH  15  22
ENDBRANCH   6   8
ENDBRANCH   5   6
ENDBRANCH   4   5
ENDBRANCH   3   4
ENDBRANCH   2   3
TORSDOF 9
ENDMDL
MODEL      106
REMARK 921   NORMALIZED FREE ENERGY PREDICTED BY IDOCK:   -4.21 KCAL/MOL
REMARK 922        TOTAL FREE ENERGY PREDICTED BY IDOCK:   -8.01 KCAL/MOL
REMARK 923 INTER-LIGAND FREE ENERGY PREDICTED BY IDOCK:   -6.11 KCAL/MOL
REMARK 924 INTRA-LIGAND FREE ENERGY PREDICTED BY IDOCK:   -1.90 KCAL/MOL
REMARK 927      BINDING AFFINITY PREDICTED BY RF-SCORE:    0.00 PKD
ROOT
HETATM    1  C   UNL     1     -13.256  10.804  71.906  1.00  0.00    -0.419 C  
HETATM    2  O   UNL     1     -12.303  10.935  70.862  1.00  0.00    -0.337 OA 
ENDROOT
BRANCH   2   3
HETATM    3  C   UNL     1     -12.166  12.296  70.450  1.00  0.00    -0.288 C  
BRANCH   3   4
HETATM    4  C   UNL     1     -11.837  12.294  68.973  1.00  0.00    -0.305 C  
BRANCH   4   5
HETATM    5  O   UNL     1     -11.801  10.980  68.402  1.00  0.00    -0.503 OA 
BRANCH   5   6
HETATM    6  C   UNL     1     -10.746  10.786  67.576  1.00  0.00    -0.264 C  
HETATM    7  O   UNL     1     -10.833  10.650  66.366  1.00  0.00    -0.174 OA 
BRANCH   6   8
HETATM    8  C   UNL     1      -9.465  10.699  68.325  1.00  0.00    -0.161 C  
HETATM    9  C   UNL     1      -8.417  11.534  68.105  1.00  0.00    -0.154 C  
HETATM   10  C   UNL     1      -8.233  12.575  67.024  1.00  0.00    -0.125 C  
HETATM   11  N   UNL     1      -7.341  11.498  68.967  1.00  0.00    -0.113 NA 
HETATM   12  C   UNL     1      -7.141  10.574  69.966  1.00  0.00    -0.127 C  
HETATM   13  C   UNL     1      -8.106   9.667  70.256  1.00  0.00    -0.206 C  
HETATM   14  C   UNL     1      -5.796  10.675  70.644  1.00  0.00    -0.112 C  
HETATM   15  C   UNL     1      -9.448   9.695  69.504  1.00  0.00    -0.211 C  
BRANCH  13  16
HETATM   16  C   UNL     1      -7.787   8.589  71.232  1.00  0.00    -0.118 C  
HETATM   17  O   UNL     1      -8.143   8.617  72.400  1.00  0.00    -0.328 OA 
BRANCH  16  18
HETATM   18  O   UNL     1      -7.036   7.592  70.695  1.00  0.00    -0.057 OA 
BRANCH  18  19
HETATM   19  C   UNL     1      -7.266   6.299  71.304  1.00  0.00    -0.079 C  
HETATM   20  C   UNL     1      -7.609   5.278  70.223  1.00  0.00    -0.072 C  
HETATM   21  C   UNL     1      -6.016   5.883  72.067  1.00  0.00    -0.035 C  
ENDBRANCH  18  19
ENDBRANCH  16  18
ENDBRANCH  13  16
BRANCH  15  22
HETATM   22  C   UNL     1      -9.871   8.301  69.025  1.00  0.00    -0.176 A  
HETATM   23  C   UNL     1     -10.818   7.560  69.758  1.00  0.00    -0.234 A  
HETATM   24  C   UNL     1      -9.342   7.746  67.850  1.00  0.00    -0.148 A  
HETATM   25  C   UNL     1     -11.226   6.294  69.333  1.00  0.00    -0.489 A  
HETATM   26  O   UNL     1      -8.372   6.584  65.569  1.00  0.00    -0.140 OA 
HETATM   27  O   UNL     1      -9.588   4.781  65.852  1.00  0.00    -0.157 OA 
HETATM   28  C   UNL     1      -9.755   6.475  67.429  1.00  0.00    -0.126 A  
HETATM   29  N   UNL     1      -9.198   5.909  66.194  1.00  0.00    -0.160 N  
HETATM   30  C   UNL     1     -10.695   5.746  68.166  1.00  0.00    -0.288 A  
ENDBRANCH  15  22
ENDBRANCH   6   8
ENDBRANCH   5   6
ENDBRANCH   4   5
ENDBRANCH   3   4
ENDBRANCH   2   3
TORSDOF 9
ENDMDL
MODEL      107
REMARK 921   NORMALIZED FREE ENERGY PREDICTED BY IDOCK:   -4.21 KCAL/MOL
REMARK 922        TOTAL FREE ENERGY PREDICTED BY IDOCK:   -8.00 KCAL/MOL
REMARK 923 INTER-LIGAND FREE ENERGY PREDICTED BY IDOCK:   -5.97 KCAL/MOL
REMARK 924 INTRA-LIGAND FREE ENERGY PREDICTED BY IDOCK:   -2.03 KCAL/MOL
REMARK 927      BINDING AFFINITY PREDICTED BY RF-SCORE:    0.00 PKD
ROOT
HETATM    1  C   UNL     1      -8.899   3.161  66.156  1.00  0.00    -0.141 C  
HETATM    2  O   UNL     1      -8.162   3.887  67.128  1.00  0.00    -0.098 OA 
ENDROOT
BRANCH   2   3
HETATM    3  C   UNL     1      -7.559   5.052  66.561  1.00  0.00    -0.088 C  
BRANCH   3   4
HETATM    4  C   UNL     1      -6.641   5.645  67.608  1.00  0.00    -0.053 C  
BRANCH   4   5
HETATM    5  O   UNL     1      -6.785   5.038  68.898  1.00  0.00    -0.047 OA 
BRANCH   5   6
HETATM    6  C   UNL     1      -6.823   5.937  69.909  1.00  0.00    -0.064 C  
HETATM    7  O   UNL     1      -6.007   6.831  70.069  1.00  0.00    -0.022 OA 
BRANCH   6   8
HETATM    8  C   UNL     1      -7.950   5.673  70.843  1.00  0.00    -0.110 C  
HETATM    9  C   UNL     1      -7.939   4.670  71.757  1.00  0.00    -0.099 C  
HETATM   10  C   UNL     1      -6.937   3.552  71.940  1.00  0.00    -0.030 C  
HETATM   11  N   UNL     1      -8.944   4.613  72.699  1.00  0.00    -0.123 NA 
HETATM   12  C   UNL     1     -10.073   5.398  72.720  1.00  0.00    -0.181 C  
HETATM   13  C   UNL     1     -10.211   6.414  71.833  1.00  0.00    -0.219 C  
HETATM   14  C   UNL     1     -11.084   5.005  73.771  1.00  0.00    -0.256 C  
HETATM   15  C   UNL     1      -9.087   6.726  70.830  1.00  0.00    -0.151 C  
BRANCH  13  16
HETATM   16  C   UNL     1     -11.513   7.135  71.786  1.00  0.00    -0.267 C  
HETATM   17  O   UNL     1     -12.565   6.595  71.478  1.00  0.00    -0.336 OA 
BRANCH  16  18
HETATM   18  O   UNL     1     -11.400   8.454  72.090  1.00  0.00    -0.316 OA 
BRANCH  18  19
HETATM   19  C   UNL     1     -12.161   9.319  71.214  1.00  0.00    -0.334 C  
HETATM   20  C   UNL     1     -13.204  10.082  72.026  1.00  0.00    -0.545 C  
HETATM   21  C   UNL     1     -11.208  10.279  70.516  1.00  0.00    -0.408 C  
ENDBRANCH  18  19
ENDBRANCH  16  18
ENDBRANCH  13  16
BRANCH  15  22
HETATM   22  C   UNL     1      -9.620   6.919  69.405  1.00  0.00    -0.147 A  
HETATM   23  C   UNL     1     -10.448   5.940  68.824  1.00  0.00    -0.314 A  
HETATM   24  C   UNL     1      -9.310   8.070  68.665  1.00  0.00    -0.146 A  
HETATM   25  C   UNL     1     -10.955   6.102  67.533  1.00  0.00    -0.404 A  
HETATM   26  O   UNL     1      -8.769  10.282  67.146  1.00  0.00    -0.129 OA 
HETATM   27  O   UNL     1      -9.965   9.542  65.463  1.00  0.00    -0.304 OA 
HETATM   28  C   UNL     1      -9.821   8.226  67.369  1.00  0.00    -0.188 A  
HETATM   29  N   UNL     1      -9.494   9.438  66.608  1.00  0.00    -0.165 N  
HETATM   30  C   UNL     1     -10.642   7.246  66.800  1.00  0.00    -0.288 A  
ENDBRANCH  15  22
ENDBRANCH   6   8
ENDBRANCH   5   6
ENDBRANCH   4   5
ENDBRANCH   3   4
ENDBRANCH   2   3
TORSDOF 9
ENDMDL
MODEL      108
REMARK 921   NORMALIZED FREE ENERGY PREDICTED BY IDOCK:   -4.18 KCAL/MOL
REMARK 922        TOTAL FREE ENERGY PREDICTED BY IDOCK:   -7.95 KCAL/MOL
REMARK 923 INTER-LIGAND FREE ENERGY PREDICTED BY IDOCK:   -6.66 KCAL/MOL
REMARK 924 INTRA-LIGAND FREE ENERGY PREDICTED BY IDOCK:   -1.29 KCAL/MOL
REMARK 927      BINDING AFFINITY PREDICTED BY RF-SCORE:    0.00 PKD
ROOT
HETATM    1  C   UNL     1     -14.153   8.349  71.908  1.00  0.00    -0.442 C  
HETATM    2  O   UNL     1     -13.916   9.676  71.462  1.00  0.00    -0.205 OA 
ENDROOT
BRANCH   2   3
HETATM    3  C   UNL     1     -12.562  10.069  71.693  1.00  0.00    -0.427 C  
BRANCH   3   4
HETATM    4  C   UNL     1     -11.904  10.252  70.342  1.00  0.00    -0.309 C  
BRANCH   4   5
HETATM    5  O   UNL     1     -11.174   9.098  69.907  1.00  0.00    -0.206 OA 
BRANCH   5   6
HETATM    6  C   UNL     1     -10.385   9.340  68.834  1.00  0.00    -0.214 C  
HETATM    7  O   UNL     1     -10.644   8.989  67.694  1.00  0.00    -0.257 OA 
BRANCH   6   8
HETATM    8  C   UNL     1      -9.129  10.037  69.216  1.00  0.00    -0.208 C  
HETATM    9  C   UNL     1      -8.385   9.691  70.297  1.00  0.00    -0.186 C  
HETATM   10  C   UNL     1      -8.696   8.698  71.395  1.00  0.00    -0.262 C  
HETATM   11  N   UNL     1      -7.146  10.271  70.470  1.00  0.00    -0.308 NA 
HETATM   12  C   UNL     1      -6.631  11.307  69.727  1.00  0.00    -0.130 C  
HETATM   13  C   UNL     1      -7.302  11.762  68.639  1.00  0.00    -0.115 C  
HETATM   14  C   UNL     1      -5.322  11.854  70.244  1.00  0.00    -0.113 C  
HETATM   15  C   UNL     1      -8.617  11.092  68.203  1.00  0.00    -0.140 C  
BRANCH  13  16
HETATM   16  C   UNL     1      -6.792  12.983  67.958  1.00  0.00    -0.113 C  
HETATM   17  O   UNL     1      -6.066  12.947  66.975  1.00  0.00    -0.268 OA 
BRANCH  16  18
HETATM   18  O   UNL     1      -7.192  14.133  68.561  1.00  0.00    -0.095 OA 
BRANCH  18  19
HETATM   19  C   UNL     1      -7.109  15.297  67.704  1.00  0.00    -0.182 C  
HETATM   20  C   UNL     1      -8.396  15.428  66.895  1.00  0.00    -0.290 C  
HETATM   21  C   UNL     1      -6.882  16.531  68.567  1.00  0.00    -0.151 C  
ENDBRANCH  18  19
ENDBRANCH  16  18
ENDBRANCH  13  16
BRANCH  15  22
HETATM   22  C   UNL     1      -9.715  12.118  67.898  1.00  0.00    -0.200 A  
HETATM   23  C   UNL     1     -10.178  12.284  66.579  1.00  0.00    -0.235 A  
HETATM   24  C   UNL     1     -10.287  12.892  68.919  1.00  0.00    -0.059 A  
HETATM   25  C   UNL     1     -11.186  13.204  66.282  1.00  0.00    -0.328 A  
HETATM   26  O   UNL     1     -11.467  14.443  70.841  1.00  0.00    -0.206 OA 
HETATM   27  O   UNL     1     -12.784  15.420  69.385  1.00  0.00     0.001 OA 
HETATM   28  C   UNL     1     -11.297  13.815  68.614  1.00  0.00    -0.287 A  
HETATM   29  N   UNL     1     -11.891  14.614  69.693  1.00  0.00    -0.301 N  
HETATM   30  C   UNL     1     -11.749  13.974  67.299  1.00  0.00    -0.420 A  
ENDBRANCH  15  22
ENDBRANCH   6   8
ENDBRANCH   5   6
ENDBRANCH   4   5
ENDBRANCH   3   4
ENDBRANCH   2   3
TORSDOF 9
ENDMDL
MODEL      109
REMARK 921   NORMALIZED FREE ENERGY PREDICTED BY IDOCK:   -4.16 KCAL/MOL
REMARK 922        TOTAL FREE ENERGY PREDICTED BY IDOCK:   -7.93 KCAL/MOL
REMARK 923 INTER-LIGAND FREE ENERGY PREDICTED BY IDOCK:   -6.57 KCAL/MOL
REMARK 924 INTRA-LIGAND FREE ENERGY PREDICTED BY IDOCK:   -1.36 KCAL/MOL
REMARK 927      BINDING AFFINITY PREDICTED BY RF-SCORE:    0.00 PKD
ROOT
HETATM    1  C   UNL     1      -8.235   7.055  73.986  1.00  0.00    -0.129 C  
HETATM    2  O   UNL     1      -9.306   7.947  73.717  1.00  0.00    -0.280 OA 
ENDROOT
BRANCH   2   3
HETATM    3  C   UNL     1     -10.095   7.497  72.615  1.00  0.00    -0.222 C  
BRANCH   3   4
HETATM    4  C   UNL     1     -10.685   8.720  71.948  1.00  0.00    -0.359 C  
BRANCH   4   5
HETATM    5  O   UNL     1     -10.562   8.702  70.520  1.00  0.00    -0.205 OA 
BRANCH   5   6
HETATM    6  C   UNL     1      -9.691   9.622  70.047  1.00  0.00    -0.241 C  
HETATM    7  O   UNL     1      -8.576   9.817  70.505  1.00  0.00    -0.160 OA 
BRANCH   6   8
HETATM    8  C   UNL     1     -10.273  10.415  68.932  1.00  0.00    -0.220 C  
HETATM    9  C   UNL     1     -11.231  11.360  69.113  1.00  0.00    -0.272 C  
HETATM   10  C   UNL     1     -12.008  11.709  70.363  1.00  0.00    -0.448 C  
HETATM   11  N   UNL     1     -11.581  12.170  68.053  1.00  0.00    -0.330 NA 
HETATM   12  C   UNL     1     -11.160  12.019  66.752  1.00  0.00    -0.305 C  
HETATM   13  C   UNL     1     -10.227  11.085  66.444  1.00  0.00    -0.284 C  
HETATM   14  C   UNL     1     -11.833  12.948  65.770  1.00  0.00    -0.469 C  
HETATM   15  C   UNL     1      -9.599  10.221  67.551  1.00  0.00    -0.180 C  
BRANCH  13  16
HETATM   16  C   UNL     1      -9.918  10.847  65.007  1.00  0.00    -0.298 C  
HETATM   17  O   UNL     1     -10.774  10.595  64.172  1.00  0.00    -0.187 OA 
BRANCH  16  18
HETATM   18  O   UNL     1      -8.589  10.911  64.732  1.00  0.00    -0.124 OA 
BRANCH  18  19
HETATM   19  C   UNL     1      -8.172  10.018  63.672  1.00  0.00    -0.160 C  
HETATM   20  C   UNL     1      -7.818  10.829  62.429  1.00  0.00    -0.195 C  
HETATM   21  C   UNL     1      -6.975   9.207  64.150  1.00  0.00    -0.092 C  
ENDBRANCH  18  19
ENDBRANCH  16  18
ENDBRANCH  13  16
BRANCH  15  22
HETATM   22  C   UNL     1      -9.568   8.734  67.177  1.00  0.00    -0.228 A  
HETATM   23  C   UNL     1     -10.769   8.007  67.075  1.00  0.00    -0.263 A  
HETATM   24  C   UNL     1      -8.355   8.077  66.914  1.00  0.00    -0.116 A  
HETATM   25  C   UNL     1     -10.764   6.655  66.724  1.00  0.00    -0.329 A  
HETATM   26  O   UNL     1      -6.045   6.712  66.377  1.00  0.00    -0.031 OA 
HETATM   27  O   UNL     1      -7.123   4.845  65.976  1.00  0.00    -0.068 OA 
HETATM   28  C   UNL     1      -8.358   6.720  66.563  1.00  0.00    -0.121 A  
HETATM   29  N   UNL     1      -7.082   6.047  66.285  1.00  0.00    -0.066 N  
HETATM   30  C   UNL     1      -9.557   6.007  66.467  1.00  0.00    -0.182 A  
ENDBRANCH  15  22
ENDBRANCH   6   8
ENDBRANCH   5   6
ENDBRANCH   4   5
ENDBRANCH   3   4
ENDBRANCH   2   3
TORSDOF 9
ENDMDL
MODEL      110
REMARK 921   NORMALIZED FREE ENERGY PREDICTED BY IDOCK:   -4.16 KCAL/MOL
REMARK 922        TOTAL FREE ENERGY PREDICTED BY IDOCK:   -7.93 KCAL/MOL
REMARK 923 INTER-LIGAND FREE ENERGY PREDICTED BY IDOCK:   -6.20 KCAL/MOL
REMARK 924 INTRA-LIGAND FREE ENERGY PREDICTED BY IDOCK:   -1.73 KCAL/MOL
REMARK 927      BINDING AFFINITY PREDICTED BY RF-SCORE:    0.00 PKD
ROOT
HETATM    1  C   UNL     1     -10.384  10.804  64.136  1.00  0.00    -0.311 C  
HETATM    2  O   UNL     1     -10.040  10.527  65.485  1.00  0.00    -0.264 OA 
ENDROOT
BRANCH   2   3
HETATM    3  C   UNL     1      -9.568   9.188  65.638  1.00  0.00    -0.217 C  
BRANCH   3   4
HETATM    4  C   UNL     1     -10.233   8.609  66.867  1.00  0.00    -0.296 C  
BRANCH   4   5
HETATM    5  O   UNL     1      -9.571   7.444  67.375  1.00  0.00    -0.138 OA 
BRANCH   5   6
HETATM    6  C   UNL     1     -10.353   6.696  68.188  1.00  0.00    -0.190 C  
HETATM    7  O   UNL     1     -11.529   6.446  67.975  1.00  0.00    -0.163 OA 
BRANCH   6   8
HETATM    8  C   UNL     1      -9.625   6.258  69.407  1.00  0.00    -0.157 C  
HETATM    9  C   UNL     1      -9.105   5.013  69.557  1.00  0.00    -0.109 C  
HETATM   10  C   UNL     1      -9.259   3.798  68.668  1.00  0.00    -0.216 C  
HETATM   11  N   UNL     1      -8.293   4.753  70.640  1.00  0.00    -0.094 NA 
HETATM   12  C   UNL     1      -8.068   5.600  71.699  1.00  0.00    -0.118 C  
HETATM   13  C   UNL     1      -8.564   6.862  71.678  1.00  0.00    -0.117 C  
HETATM   14  C   UNL     1      -7.267   4.990  72.825  1.00  0.00    -0.085 C  
HETATM   15  C   UNL     1      -9.341   7.369  70.450  1.00  0.00    -0.161 C  
BRANCH  13  16
HETATM   16  C   UNL     1      -8.434   7.691  72.907  1.00  0.00    -0.140 C  
HETATM   17  O   UNL     1      -8.971   7.404  73.967  1.00  0.00    -0.207 OA 
BRANCH  16  18
HETATM   18  O   UNL     1      -7.683   8.807  72.718  1.00  0.00    -0.369 OA 
BRANCH  18  19
HETATM   19  C   UNL     1      -6.272   8.536  72.543  1.00  0.00    -0.076 C  
HETATM   20  C   UNL     1      -5.728   9.378  71.393  1.00  0.00    -0.073 C  
HETATM   21  C   UNL     1      -5.543   8.854  73.842  1.00  0.00    -0.119 C  
ENDBRANCH  18  19
ENDBRANCH  16  18
ENDBRANCH  13  16
BRANCH  15  22
HETATM   22  C   UNL     1     -10.643   8.079  70.842  1.00  0.00    -0.233 A  
HETATM   23  C   UNL     1     -11.667   7.365  71.491  1.00  0.00    -0.314 A  
HETATM   24  C   UNL     1     -10.831   9.444  70.578  1.00  0.00    -0.336 A  
HETATM   25  C   UNL     1     -12.855   7.995  71.868  1.00  0.00    -0.343 A  
HETATM   26  O   UNL     1     -11.290  12.103  70.115  1.00  0.00    -0.074 OA 
HETATM   27  O   UNL     1     -13.279  12.022  71.034  1.00  0.00    -0.047 OA 
HETATM   28  C   UNL     1     -12.027  10.070  70.958  1.00  0.00    -0.376 A  
HETATM   29  N   UNL     1     -12.208  11.501  70.682  1.00  0.00    -0.383 N  
HETATM   30  C   UNL     1     -13.039   9.351  71.601  1.00  0.00    -0.471 A  
ENDBRANCH  15  22
ENDBRANCH   6   8
ENDBRANCH   5   6
ENDBRANCH   4   5
ENDBRANCH   3   4
ENDBRANCH   2   3
TORSDOF 9
ENDMDL
MODEL      111
REMARK 921   NORMALIZED FREE ENERGY PREDICTED BY IDOCK:   -4.15 KCAL/MOL
REMARK 922        TOTAL FREE ENERGY PREDICTED BY IDOCK:   -7.91 KCAL/MOL
REMARK 923 INTER-LIGAND FREE ENERGY PREDICTED BY IDOCK:   -6.77 KCAL/MOL
REMARK 924 INTRA-LIGAND FREE ENERGY PREDICTED BY IDOCK:   -1.14 KCAL/MOL
REMARK 927      BINDING AFFINITY PREDICTED BY RF-SCORE:    0.00 PKD
ROOT
HETATM    1  C   UNL     1      -8.939  17.646  68.350  1.00  0.00    -0.280 C  
HETATM    2  O   UNL     1      -9.347  17.510  66.997  1.00  0.00    -0.247 OA 
ENDROOT
BRANCH   2   3
HETATM    3  C   UNL     1      -8.473  16.643  66.274  1.00  0.00    -0.320 C  
BRANCH   3   4
HETATM    4  C   UNL     1      -9.125  15.278  66.222  1.00  0.00    -0.302 C  
BRANCH   4   5
HETATM    5  O   UNL     1      -8.373  14.264  66.899  1.00  0.00    -0.172 OA 
BRANCH   5   6
HETATM    6  C   UNL     1      -9.034  13.719  67.947  1.00  0.00    -0.193 C  
HETATM    7  O   UNL     1      -9.932  14.274  68.561  1.00  0.00    -0.226 OA 
BRANCH   6   8
HETATM    8  C   UNL     1      -8.498  12.379  68.304  1.00  0.00    -0.170 C  
HETATM    9  C   UNL     1      -7.367  12.200  69.032  1.00  0.00     0.000 C  
HETATM   10  C   UNL     1      -6.353  13.223  69.493  1.00  0.00    -0.104 C  
HETATM   11  N   UNL     1      -7.046  10.932  69.469  1.00  0.00    -0.126 NA 
HETATM   12  C   UNL     1      -7.686   9.770  69.106  1.00  0.00    -0.092 C  
HETATM   13  C   UNL     1      -8.811   9.821  68.351  1.00  0.00    -0.120 C  
HETATM   14  C   UNL     1      -7.017   8.511  69.603  1.00  0.00    -0.047 C  
HETATM   15  C   UNL     1      -9.406  11.178  67.935  1.00  0.00    -0.161 C  
BRANCH  13  16
HETATM   16  C   UNL     1      -9.381   8.540  67.849  1.00  0.00    -0.135 C  
HETATM   17  O   UNL     1     -10.546   8.213  68.023  1.00  0.00    -0.200 OA 
BRANCH  16  18
HETATM   18  O   UNL     1      -8.465   7.767  67.210  1.00  0.00    -0.116 OA 
BRANCH  18  19
HETATM   19  C   UNL     1      -9.044   6.873  66.230  1.00  0.00    -0.141 C  
HETATM   20  C   UNL     1      -8.203   6.897  64.956  1.00  0.00    -0.096 C  
HETATM   21  C   UNL     1      -9.102   5.468  66.815  1.00  0.00    -0.118 C  
ENDBRANCH  18  19
ENDBRANCH  16  18
ENDBRANCH  13  16
BRANCH  15  22
HETATM   22  C   UNL     1      -9.767  11.219  66.446  1.00  0.00    -0.238 A  
HETATM   23  C   UNL     1      -8.869  10.712  65.488  1.00  0.00    -0.202 A  
HETATM   24  C   UNL     1     -10.995  11.743  66.012  1.00  0.00    -0.355 A  
HETATM   25  C   UNL     1      -9.184  10.728  64.127  1.00  0.00    -0.251 A  
HETATM   26  O   UNL     1     -13.365  12.736  65.069  1.00  0.00    -0.678 OA 
HETATM   27  O   UNL     1     -12.834  12.297  62.986  1.00  0.00    -0.522 OA 
HETATM   28  C   UNL     1     -11.304  11.757  64.644  1.00  0.00    -0.256 A  
HETATM   29  N   UNL     1     -12.595  12.302  64.205  1.00  0.00    -0.440 N  
HETATM   30  C   UNL     1     -10.403  11.252  63.701  1.00  0.00    -0.464 A  
ENDBRANCH  15  22
ENDBRANCH   6   8
ENDBRANCH   5   6
ENDBRANCH   4   5
ENDBRANCH   3   4
ENDBRANCH   2   3
TORSDOF 9
ENDMDL
MODEL      112
REMARK 921   NORMALIZED FREE ENERGY PREDICTED BY IDOCK:   -4.12 KCAL/MOL
REMARK 922        TOTAL FREE ENERGY PREDICTED BY IDOCK:   -7.87 KCAL/MOL
REMARK 923 INTER-LIGAND FREE ENERGY PREDICTED BY IDOCK:   -6.97 KCAL/MOL
REMARK 924 INTRA-LIGAND FREE ENERGY PREDICTED BY IDOCK:   -0.90 KCAL/MOL
REMARK 927      BINDING AFFINITY PREDICTED BY RF-SCORE:    0.00 PKD
ROOT
HETATM    1  C   UNL     1     -11.918  12.185  63.258  1.00  0.00    -0.390 C  
HETATM    2  O   UNL     1     -12.767  13.316  63.383  1.00  0.00    -0.695 OA 
ENDROOT
BRANCH   2   3
HETATM    3  C   UNL     1     -12.264  14.240  64.350  1.00  0.00    -0.447 C  
BRANCH   3   4
HETATM    4  C   UNL     1     -12.727  13.772  65.712  1.00  0.00    -0.446 C  
BRANCH   4   5
HETATM    5  O   UNL     1     -11.803  12.882  66.350  1.00  0.00    -0.381 OA 
BRANCH   5   6
HETATM    6  C   UNL     1     -11.354  13.342  67.541  1.00  0.00    -0.298 C  
HETATM    7  O   UNL     1     -12.072  13.625  68.487  1.00  0.00    -0.364 OA 
BRANCH   6   8
HETATM    8  C   UNL     1      -9.878  13.519  67.545  1.00  0.00    -0.227 C  
HETATM    9  C   UNL     1      -9.258  14.611  67.029  1.00  0.00    -0.239 C  
HETATM   10  C   UNL     1      -9.843  15.759  66.236  1.00  0.00    -0.320 C  
HETATM   11  N   UNL     1      -7.905  14.774  67.239  1.00  0.00    -0.199 NA 
HETATM   12  C   UNL     1      -7.060  13.845  67.801  1.00  0.00    -0.172 C  
HETATM   13  C   UNL     1      -7.562  12.698  68.322  1.00  0.00    -0.133 C  
HETATM   14  C   UNL     1      -5.600  14.225  67.754  1.00  0.00    -0.046 C  
HETATM   15  C   UNL     1      -9.080  12.449  68.332  1.00  0.00    -0.141 C  
BRANCH  13  16
HETATM   16  C   UNL     1      -6.603  11.654  68.775  1.00  0.00    -0.072 C  
HETATM   17  O   UNL     1      -6.142  11.614  69.907  1.00  0.00    -0.118 OA 
BRANCH  16  18
HETATM   18  O   UNL     1      -6.274  10.773  67.794  1.00  0.00    -0.047 OA 
BRANCH  18  19
HETATM   19  C   UNL     1      -5.791   9.503  68.292  1.00  0.00    -0.040 C  
HETATM   20  C   UNL     1      -6.767   8.955  69.329  1.00  0.00    -0.050 C  
HETATM   21  C   UNL     1      -5.642   8.538  67.123  1.00  0.00    -0.038 C  
ENDBRANCH  18  19
ENDBRANCH  16  18
ENDBRANCH  13  16
BRANCH  15  22
HETATM   22  C   UNL     1      -9.439  11.043  67.836  1.00  0.00    -0.170 A  
HETATM   23  C   UNL     1      -9.269  10.709  66.479  1.00  0.00    -0.187 A  
HETATM   24  C   UNL     1      -9.923  10.065  68.718  1.00  0.00    -0.181 A  
HETATM   25  C   UNL     1      -9.577   9.431  66.009  1.00  0.00    -0.328 A  
HETATM   26  O   UNL     1     -10.866   8.089  70.360  1.00  0.00    -0.240 OA 
HETATM   27  O   UNL     1     -10.994   6.645  68.715  1.00  0.00    -0.263 OA 
HETATM   28  C   UNL     1     -10.232   8.784  68.240  1.00  0.00    -0.201 A  
HETATM   29  N   UNL     1     -10.732   7.768  69.175  1.00  0.00    -0.176 N  
HETATM   30  C   UNL     1     -10.062   8.464  66.889  1.00  0.00    -0.364 A  
ENDBRANCH  15  22
ENDBRANCH   6   8
ENDBRANCH   5   6
ENDBRANCH   4   5
ENDBRANCH   3   4
ENDBRANCH   2   3
TORSDOF 9
ENDMDL
MODEL      113
REMARK 921   NORMALIZED FREE ENERGY PREDICTED BY IDOCK:   -4.11 KCAL/MOL
REMARK 922        TOTAL FREE ENERGY PREDICTED BY IDOCK:   -7.86 KCAL/MOL
REMARK 923 INTER-LIGAND FREE ENERGY PREDICTED BY IDOCK:   -6.25 KCAL/MOL
REMARK 924 INTRA-LIGAND FREE ENERGY PREDICTED BY IDOCK:   -1.61 KCAL/MOL
REMARK 927      BINDING AFFINITY PREDICTED BY RF-SCORE:    0.00 PKD
ROOT
HETATM    1  C   UNL     1      -7.006   8.067  73.724  1.00  0.00    -0.124 C  
HETATM    2  O   UNL     1      -6.740   7.040  72.781  1.00  0.00    -0.067 OA 
ENDROOT
BRANCH   2   3
HETATM    3  C   UNL     1      -7.342   7.324  71.517  1.00  0.00    -0.080 C  
BRANCH   3   4
HETATM    4  C   UNL     1      -8.394   8.388  71.743  1.00  0.00    -0.160 C  
BRANCH   4   5
HETATM    5  O   UNL     1      -8.496   9.322  70.661  1.00  0.00    -0.193 OA 
BRANCH   5   6
HETATM    6  C   UNL     1      -9.591   9.128  69.890  1.00  0.00    -0.192 C  
HETATM    7  O   UNL     1      -9.894   8.061  69.377  1.00  0.00    -0.175 OA 
BRANCH   6   8
HETATM    8  C   UNL     1     -10.358  10.385  69.689  1.00  0.00    -0.261 C  
HETATM    9  C   UNL     1     -11.516  10.662  70.342  1.00  0.00    -0.334 C  
HETATM   10  C   UNL     1     -12.344   9.773  71.242  1.00  0.00    -0.465 C  
HETATM   11  N   UNL     1     -12.060  11.924  70.231  1.00  0.00    -0.344 NA 
HETATM   12  C   UNL     1     -11.626  12.917  69.384  1.00  0.00    -0.302 C  
HETATM   13  C   UNL     1     -10.496  12.742  68.655  1.00  0.00    -0.230 C  
HETATM   14  C   UNL     1     -12.512  14.139  69.352  1.00  0.00    -0.114 C  
HETATM   15  C   UNL     1      -9.668  11.454  68.806  1.00  0.00    -0.155 C  
BRANCH  13  16
HETATM   16  C   UNL     1     -10.150  13.771  67.636  1.00  0.00    -0.242 C  
HETATM   17  O   UNL     1     -10.622  13.781  66.509  1.00  0.00    -0.276 OA 
BRANCH  16  18
HETATM   18  O   UNL     1      -9.237  14.673  68.082  1.00  0.00    -0.181 OA 
BRANCH  18  19
HETATM   19  C   UNL     1      -9.370  15.981  67.476  1.00  0.00    -0.217 C  
HETATM   20  C   UNL     1      -9.555  17.033  68.566  1.00  0.00    -0.273 C  
HETATM   21  C   UNL     1      -8.126  16.271  66.648  1.00  0.00    -0.323 C  
ENDBRANCH  18  19
ENDBRANCH  16  18
ENDBRANCH  13  16
BRANCH  15  22
HETATM   22  C   UNL     1      -9.278  10.855  67.449  1.00  0.00    -0.155 A  
HETATM   23  C   UNL     1     -10.265  10.290  66.618  1.00  0.00    -0.294 A  
HETATM   24  C   UNL     1      -7.948  10.871  67.003  1.00  0.00    -0.132 A  
HETATM   25  C   UNL     1      -9.935   9.750  65.373  1.00  0.00    -0.302 A  
HETATM   26  O   UNL     1      -5.384  10.863  66.045  1.00  0.00    -0.102 OA 
HETATM   27  O   UNL     1      -5.977   9.866  64.184  1.00  0.00    -0.103 OA 
HETATM   28  C   UNL     1      -7.622  10.327  65.753  1.00  0.00    -0.143 A  
HETATM   29  N   UNL     1      -6.227  10.356  65.297  1.00  0.00    -0.127 N  
HETATM   30  C   UNL     1      -8.611   9.766  64.937  1.00  0.00    -0.183 A  
ENDBRANCH  15  22
ENDBRANCH   6   8
ENDBRANCH   5   6
ENDBRANCH   4   5
ENDBRANCH   3   4
ENDBRANCH   2   3
TORSDOF 9
ENDMDL
MODEL      114
REMARK 921   NORMALIZED FREE ENERGY PREDICTED BY IDOCK:   -4.11 KCAL/MOL
REMARK 922        TOTAL FREE ENERGY PREDICTED BY IDOCK:   -7.85 KCAL/MOL
REMARK 923 INTER-LIGAND FREE ENERGY PREDICTED BY IDOCK:   -6.34 KCAL/MOL
REMARK 924 INTRA-LIGAND FREE ENERGY PREDICTED BY IDOCK:   -1.50 KCAL/MOL
REMARK 927      BINDING AFFINITY PREDICTED BY RF-SCORE:    0.00 PKD
ROOT
HETATM    1  C   UNL     1      -5.159  18.157  71.475  1.00  0.00    -0.070 C  
HETATM    2  O   UNL     1      -5.640  17.412  70.366  1.00  0.00    -0.237 OA 
ENDROOT
BRANCH   2   3
HETATM    3  C   UNL     1      -5.674  16.014  70.653  1.00  0.00     0.011 C  
BRANCH   3   4
HETATM    4  C   UNL     1      -5.820  15.282  69.337  1.00  0.00    -0.103 C  
BRANCH   4   5
HETATM    5  O   UNL     1      -7.183  15.021  68.981  1.00  0.00    -0.120 OA 
BRANCH   5   6
HETATM    6  C   UNL     1      -7.322  14.518  67.732  1.00  0.00    -0.175 C  
HETATM    7  O   UNL     1      -6.597  13.663  67.248  1.00  0.00    -0.254 OA 
BRANCH   6   8
HETATM    8  C   UNL     1      -8.433  15.171  66.992  1.00  0.00    -0.259 C  
HETATM    9  C   UNL     1      -8.511  16.512  66.800  1.00  0.00    -0.238 C  
HETATM   10  C   UNL     1      -7.651  17.614  67.377  1.00  0.00    -0.213 C  
HETATM   11  N   UNL     1      -9.476  17.011  65.949  1.00  0.00    -0.525 NA 
HETATM   12  C   UNL     1     -10.496  16.288  65.377  1.00  0.00    -0.343 C  
HETATM   13  C   UNL     1     -10.541  14.941  65.526  1.00  0.00    -0.373 C  
HETATM   14  C   UNL     1     -11.503  17.123  64.624  1.00  0.00     0.964 C  
HETATM   15  C   UNL     1      -9.428  14.208  66.296  1.00  0.00    -0.264 C  
BRANCH  13  16
HETATM   16  C   UNL     1     -11.742  14.218  65.027  1.00  0.00    -0.383 C  
HETATM   17  O   UNL     1     -12.819  14.232  65.604  1.00  0.00    -0.475 OA 
BRANCH  16  18
HETATM   18  O   UNL     1     -11.506  13.522  63.884  1.00  0.00    -0.355 OA 
BRANCH  18  19
HETATM   19  C   UNL     1     -11.741  12.099  64.012  1.00  0.00    -0.430 C  
HETATM   20  C   UNL     1     -13.014  11.721  63.261  1.00  0.00    -0.083 C  
HETATM   21  C   UNL     1     -10.539  11.347  63.456  1.00  0.00    -0.468 C  
ENDBRANCH  18  19
ENDBRANCH  16  18
ENDBRANCH  13  16
BRANCH  15  22
HETATM   22  C   UNL     1      -9.991  13.201  67.306  1.00  0.00    -0.230 A  
HETATM   23  C   UNL     1     -10.715  13.654  68.426  1.00  0.00    -0.272 A  
HETATM   24  C   UNL     1      -9.813  11.820  67.129  1.00  0.00    -0.207 A  
HETATM   25  C   UNL     1     -11.247  12.753  69.351  1.00  0.00    -0.198 A  
HETATM   26  O   UNL     1      -9.526   9.111  66.867  1.00  0.00    -0.153 OA 
HETATM   27  O   UNL     1     -10.650   8.713  68.707  1.00  0.00    -0.211 OA 
HETATM   28  C   UNL     1     -10.349  10.921  68.062  1.00  0.00    -0.185 A  
HETATM   29  N   UNL     1     -10.161   9.479  67.861  1.00  0.00    -0.180 N  
HETATM   30  C   UNL     1     -11.064  11.383  69.172  1.00  0.00    -0.317 A  
ENDBRANCH  15  22
ENDBRANCH   6   8
ENDBRANCH   5   6
ENDBRANCH   4   5
ENDBRANCH   3   4
ENDBRANCH   2   3
TORSDOF 9
ENDMDL
MODEL      115
REMARK 921   NORMALIZED FREE ENERGY PREDICTED BY IDOCK:   -4.08 KCAL/MOL
REMARK 922        TOTAL FREE ENERGY PREDICTED BY IDOCK:   -7.80 KCAL/MOL
REMARK 923 INTER-LIGAND FREE ENERGY PREDICTED BY IDOCK:   -6.32 KCAL/MOL
REMARK 924 INTRA-LIGAND FREE ENERGY PREDICTED BY IDOCK:   -1.48 KCAL/MOL
REMARK 927      BINDING AFFINITY PREDICTED BY RF-SCORE:    0.00 PKD
ROOT
HETATM    1  C   UNL     1     -10.917  11.488  63.854  1.00  0.00    -0.401 C  
HETATM    2  O   UNL     1     -10.743  11.094  65.207  1.00  0.00    -0.267 OA 
ENDROOT
BRANCH   2   3
HETATM    3  C   UNL     1      -9.741  10.084  65.330  1.00  0.00    -0.306 C  
BRANCH   3   4
HETATM    4  C   UNL     1     -10.200   9.113  66.396  1.00  0.00    -0.230 C  
BRANCH   4   5
HETATM    5  O   UNL     1      -9.538   7.844  66.331  1.00  0.00    -0.209 OA 
BRANCH   5   6
HETATM    6  C   UNL     1     -10.208   6.859  66.972  1.00  0.00    -0.248 C  
HETATM    7  O   UNL     1     -11.401   6.635  66.838  1.00  0.00    -0.333 OA 
BRANCH   6   8
HETATM    8  C   UNL     1      -9.330   6.110  67.909  1.00  0.00    -0.113 C  
HETATM    9  C   UNL     1      -8.720   4.942  67.584  1.00  0.00    -0.103 C  
HETATM   10  C   UNL     1      -8.889   4.085  66.350  1.00  0.00    -0.121 C  
HETATM   11  N   UNL     1      -7.783   4.414  68.447  1.00  0.00    -0.074 NA 
HETATM   12  C   UNL     1      -7.501   4.877  69.711  1.00  0.00    -0.056 C  
HETATM   13  C   UNL     1      -8.076   6.021  70.160  1.00  0.00    -0.114 C  
HETATM   14  C   UNL     1      -6.550   4.006  70.495  1.00  0.00    -0.032 C  
HETATM   15  C   UNL     1      -9.008   6.832  69.242  1.00  0.00    -0.137 C  
BRANCH  13  16
HETATM   16  C   UNL     1      -7.869   6.400  71.584  1.00  0.00    -0.101 C  
HETATM   17  O   UNL     1      -6.990   7.166  71.951  1.00  0.00    -0.059 OA 
BRANCH  16  18
HETATM   18  O   UNL     1      -8.737   5.785  72.429  1.00  0.00    -0.128 OA 
BRANCH  18  19
HETATM   19  C   UNL     1      -8.906   6.474  73.691  1.00  0.00    -0.125 C  
HETATM   20  C   UNL     1      -9.415   7.890  73.437  1.00  0.00    -0.341 C  
HETATM   21  C   UNL     1      -9.886   5.691  74.554  1.00  0.00    -0.246 C  
ENDBRANCH  18  19
ENDBRANCH  16  18
ENDBRANCH  13  16
BRANCH  15  22
HETATM   22  C   UNL     1     -10.303   7.244  69.953  1.00  0.00    -0.226 A  
HETATM   23  C   UNL     1     -11.165   6.260  70.475  1.00  0.00    -0.420 A  
HETATM   24  C   UNL     1     -10.645   8.596  70.110  1.00  0.00    -0.235 A  
HETATM   25  C   UNL     1     -12.343   6.613  71.136  1.00  0.00    -0.310 A  
HETATM   26  O   UNL     1     -11.395  11.203  70.473  1.00  0.00    -0.205 OA 
HETATM   27  O   UNL     1     -13.229  10.632  71.532  1.00  0.00    -0.389 OA 
HETATM   28  C   UNL     1     -11.830   8.943  70.774  1.00  0.00    -0.194 A  
HETATM   29  N   UNL     1     -12.173  10.362  70.938  1.00  0.00    -0.349 N  
HETATM   30  C   UNL     1     -12.680   7.958  71.287  1.00  0.00    -0.251 A  
ENDBRANCH  15  22
ENDBRANCH   6   8
ENDBRANCH   5   6
ENDBRANCH   4   5
ENDBRANCH   3   4
ENDBRANCH   2   3
TORSDOF 9
ENDMDL
MODEL      116
REMARK 921   NORMALIZED FREE ENERGY PREDICTED BY IDOCK:   -4.08 KCAL/MOL
REMARK 922        TOTAL FREE ENERGY PREDICTED BY IDOCK:   -7.80 KCAL/MOL
REMARK 923 INTER-LIGAND FREE ENERGY PREDICTED BY IDOCK:   -5.96 KCAL/MOL
REMARK 924 INTRA-LIGAND FREE ENERGY PREDICTED BY IDOCK:   -1.85 KCAL/MOL
REMARK 927      BINDING AFFINITY PREDICTED BY RF-SCORE:    0.00 PKD
ROOT
HETATM    1  C   UNL     1     -10.327   5.682  71.894  1.00  0.00    -0.215 C  
HETATM    2  O   UNL     1     -10.286   5.504  70.486  1.00  0.00    -0.234 OA 
ENDROOT
BRANCH   2   3
HETATM    3  C   UNL     1      -9.713   4.243  70.137  1.00  0.00    -0.212 C  
BRANCH   3   4
HETATM    4  C   UNL     1      -9.693   4.154  68.626  1.00  0.00    -0.087 C  
BRANCH   4   5
HETATM    5  O   UNL     1      -9.147   5.320  67.997  1.00  0.00    -0.109 OA 
BRANCH   5   6
HETATM    6  C   UNL     1      -9.993   5.893  67.108  1.00  0.00    -0.159 C  
HETATM    7  O   UNL     1     -11.144   5.532  66.920  1.00  0.00    -0.108 OA 
BRANCH   6   8
HETATM    8  C   UNL     1      -9.335   6.983  66.341  1.00  0.00    -0.182 C  
HETATM    9  C   UNL     1      -8.456   6.756  65.332  1.00  0.00    -0.096 C  
HETATM   10  C   UNL     1      -7.843   5.453  64.871  1.00  0.00    -0.102 C  
HETATM   11  N   UNL     1      -8.037   7.819  64.559  1.00  0.00    -0.134 NA 
HETATM   12  C   UNL     1      -8.302   9.146  64.803  1.00  0.00    -0.169 C  
HETATM   13  C   UNL     1      -9.142   9.497  65.808  1.00  0.00    -0.243 C  
HETATM   14  C   UNL     1      -7.577  10.103  63.888  1.00  0.00    -0.128 C  
HETATM   15  C   UNL     1      -9.841   8.414  66.649  1.00  0.00    -0.343 C  
BRANCH  13  16
HETATM   16  C   UNL     1      -9.277  10.942  66.139  1.00  0.00    -0.184 C  
HETATM   17  O   UNL     1      -8.423  11.572  66.745  1.00  0.00    -0.159 OA 
BRANCH  16  18
HETATM   18  O   UNL     1     -10.457  11.474  65.724  1.00  0.00    -0.245 OA 
BRANCH  18  19
HETATM   19  C   UNL     1     -10.346  12.259  64.513  1.00  0.00    -0.311 C  
HETATM   20  C   UNL     1     -11.362  11.763  63.488  1.00  0.00    -0.496 C  
HETATM   21  C   UNL     1     -10.586  13.724  64.850  1.00  0.00    -0.427 C  
ENDBRANCH  18  19
ENDBRANCH  16  18
ENDBRANCH  13  16
BRANCH  15  22
HETATM   22  C   UNL     1      -9.749   8.702  68.153  1.00  0.00    -0.178 A  
HETATM   23  C   UNL     1     -10.910   9.021  68.882  1.00  0.00    -0.075 A  
HETATM   24  C   UNL     1      -8.521   8.637  68.829  1.00  0.00    -0.129 A  
HETATM   25  C   UNL     1     -10.851   9.274  70.254  1.00  0.00    -0.286 A  
HETATM   26  O   UNL     1      -6.177   8.529  70.238  1.00  0.00    -0.034 OA 
HETATM   27  O   UNL     1      -7.170   9.048  72.123  1.00  0.00    -0.329 OA 
HETATM   28  C   UNL     1      -8.468   8.894  70.206  1.00  0.00    -0.160 A  
HETATM   29  N   UNL     1      -7.178   8.816  70.903  1.00  0.00    -0.073 N  
HETATM   30  C   UNL     1      -9.628   9.212  70.921  1.00  0.00    -0.347 A  
ENDBRANCH  15  22
ENDBRANCH   6   8
ENDBRANCH   5   6
ENDBRANCH   4   5
ENDBRANCH   3   4
ENDBRANCH   2   3
TORSDOF 9
ENDMDL
MODEL      117
REMARK 921   NORMALIZED FREE ENERGY PREDICTED BY IDOCK:   -4.07 KCAL/MOL
REMARK 922        TOTAL FREE ENERGY PREDICTED BY IDOCK:   -7.79 KCAL/MOL
REMARK 923 INTER-LIGAND FREE ENERGY PREDICTED BY IDOCK:   -7.00 KCAL/MOL
REMARK 924 INTRA-LIGAND FREE ENERGY PREDICTED BY IDOCK:   -0.80 KCAL/MOL
REMARK 927      BINDING AFFINITY PREDICTED BY RF-SCORE:    0.00 PKD
ROOT
HETATM    1  C   UNL     1     -14.051  15.301  71.832  1.00  0.00    -0.557 C  
HETATM    2  O   UNL     1     -12.652  15.111  71.682  1.00  0.00    -0.307 OA 
ENDROOT
BRANCH   2   3
HETATM    3  C   UNL     1     -12.187  15.634  70.437  1.00  0.00    -0.395 C  
BRANCH   3   4
HETATM    4  C   UNL     1     -12.347  14.546  69.397  1.00  0.00    -0.177 C  
BRANCH   4   5
HETATM    5  O   UNL     1     -11.534  13.394  69.651  1.00  0.00    -0.261 OA 
BRANCH   5   6
HETATM    6  C   UNL     1     -11.859  12.330  68.881  1.00  0.00    -0.303 C  
HETATM    7  O   UNL     1     -12.272  12.409  67.734  1.00  0.00    -0.395 OA 
BRANCH   6   8
HETATM    8  C   UNL     1     -11.707  11.047  69.615  1.00  0.00    -0.401 C  
HETATM    9  C   UNL     1     -12.257  10.819  70.835  1.00  0.00    -0.384 C  
HETATM   10  C   UNL     1     -12.968  11.781  71.760  1.00  0.00    -0.466 C  
HETATM   11  N   UNL     1     -12.218   9.543  71.358  1.00  0.00    -0.346 NA 
HETATM   12  C   UNL     1     -11.527   8.478  70.830  1.00  0.00    -0.267 C  
HETATM   13  C   UNL     1     -10.909   8.596  69.629  1.00  0.00    -0.163 C  
HETATM   14  C   UNL     1     -11.526   7.245  71.702  1.00  0.00    -0.297 C  
HETATM   15  C   UNL     1     -11.016   9.905  68.828  1.00  0.00    -0.217 C  
BRANCH  13  16
HETATM   16  C   UNL     1     -10.044   7.475  69.170  1.00  0.00    -0.192 C  
HETATM   17  O   UNL     1     -10.481   6.477  68.616  1.00  0.00    -0.180 OA 
BRANCH  16  18
HETATM   18  O   UNL     1      -8.730   7.667  69.457  1.00  0.00    -0.135 OA 
BRANCH  18  19
HETATM   19  C   UNL     1      -8.274   6.923  70.612  1.00  0.00    -0.120 C  
HETATM   20  C   UNL     1      -7.311   5.826  70.167  1.00  0.00    -0.073 C  
HETATM   21  C   UNL     1      -7.595   7.882  71.581  1.00  0.00    -0.084 C  
ENDBRANCH  18  19
ENDBRANCH  16  18
ENDBRANCH  13  16
BRANCH  15  22
HETATM   22  C   UNL     1      -9.654  10.371  68.297  1.00  0.00    -0.152 A  
HETATM   23  C   UNL     1      -9.468  10.575  66.917  1.00  0.00    -0.191 A  
HETATM   24  C   UNL     1      -8.582  10.616  69.168  1.00  0.00    -0.136 A  
HETATM   25  C   UNL     1      -8.240  11.010  66.413  1.00  0.00    -0.166 A  
HETATM   26  O   UNL     1      -6.434  11.126  70.786  1.00  0.00    -0.282 OA 
HETATM   27  O   UNL     1      -5.165  11.695  69.091  1.00  0.00    -0.047 OA 
HETATM   28  C   UNL     1      -7.351  11.051  68.656  1.00  0.00    -0.104 A  
HETATM   29  N   UNL     1      -6.239  11.310  69.580  1.00  0.00    -0.086 N  
HETATM   30  C   UNL     1      -7.176  11.249  67.283  1.00  0.00    -0.114 A  
ENDBRANCH  15  22
ENDBRANCH   6   8
ENDBRANCH   5   6
ENDBRANCH   4   5
ENDBRANCH   3   4
ENDBRANCH   2   3
TORSDOF 9
ENDMDL
MODEL      118
REMARK 921   NORMALIZED FREE ENERGY PREDICTED BY IDOCK:   -4.05 KCAL/MOL
REMARK 922        TOTAL FREE ENERGY PREDICTED BY IDOCK:   -7.76 KCAL/MOL
REMARK 923 INTER-LIGAND FREE ENERGY PREDICTED BY IDOCK:   -6.80 KCAL/MOL
REMARK 924 INTRA-LIGAND FREE ENERGY PREDICTED BY IDOCK:   -0.96 KCAL/MOL
REMARK 927      BINDING AFFINITY PREDICTED BY RF-SCORE:    0.00 PKD
ROOT
HETATM    1  C   UNL     1      -9.982  19.273  68.707  1.00  0.00    -0.440 C  
HETATM    2  O   UNL     1      -9.834  17.863  68.759  1.00  0.00    -0.344 OA 
ENDROOT
BRANCH   2   3
HETATM    3  C   UNL     1     -10.988  17.198  68.244  1.00  0.00    -0.229 C  
BRANCH   3   4
HETATM    4  C   UNL     1     -11.521  16.297  69.337  1.00  0.00    -0.238 C  
BRANCH   4   5
HETATM    5  O   UNL     1     -11.799  14.965  68.889  1.00  0.00    -0.311 OA 
BRANCH   5   6
HETATM    6  C   UNL     1     -11.503  14.019  69.810  1.00  0.00    -0.230 C  
HETATM    7  O   UNL     1     -11.425  14.226  71.011  1.00  0.00    -0.146 OA 
BRANCH   6   8
HETATM    8  C   UNL     1     -11.226  12.701  69.182  1.00  0.00    -0.300 C  
HETATM    9  C   UNL     1     -11.688  11.527  69.681  1.00  0.00    -0.351 C  
HETATM   10  C   UNL     1     -12.406  11.257  70.985  1.00  0.00    -0.472 C  
HETATM   11  N   UNL     1     -11.536  10.376  68.936  1.00  0.00    -0.222 NA 
HETATM   12  C   UNL     1     -10.808  10.260  67.775  1.00  0.00    -0.292 C  
HETATM   13  C   UNL     1     -10.270  11.363  67.197  1.00  0.00    -0.234 C  
HETATM   14  C   UNL     1     -10.676   8.846  67.263  1.00  0.00    -0.219 C  
HETATM   15  C   UNL     1     -10.507  12.754  67.810  1.00  0.00    -0.228 C  
BRANCH  13  16
HETATM   16  C   UNL     1      -9.360  11.174  66.034  1.00  0.00    -0.206 C  
HETATM   17  O   UNL     1      -9.492  11.776  64.978  1.00  0.00    -0.182 OA 
BRANCH  16  18
HETATM   18  O   UNL     1      -8.394  10.246  66.260  1.00  0.00    -0.127 OA 
BRANCH  18  19
HETATM   19  C   UNL     1      -7.233  10.772  66.944  1.00  0.00    -0.115 C  
HETATM   20  C   UNL     1      -7.018  10.009  68.249  1.00  0.00    -0.068 C  
HETATM   21  C   UNL     1      -6.020  10.639  66.032  1.00  0.00    -0.128 C  
ENDBRANCH  18  19
ENDBRANCH  16  18
ENDBRANCH  13  16
BRANCH  15  22
HETATM   22  C   UNL     1      -9.212  13.568  67.916  1.00  0.00    -0.211 A  
HETATM   23  C   UNL     1      -8.206  13.177  68.821  1.00  0.00     0.098 A  
HETATM   24  C   UNL     1      -8.997  14.697  67.112  1.00  0.00    -0.240 A  
HETATM   25  C   UNL     1      -7.014  13.897  68.925  1.00  0.00    -0.110 A  
HETATM   26  O   UNL     1      -8.483  16.908  65.582  1.00  0.00    -0.414 OA 
HETATM   27  O   UNL     1      -6.511  17.203  66.494  1.00  0.00    -0.208 OA 
HETATM   28  C   UNL     1      -7.799  15.416  67.222  1.00  0.00    -0.206 A  
HETATM   29  N   UNL     1      -7.584  16.592  66.369  1.00  0.00    -0.289 N  
HETATM   30  C   UNL     1      -6.807  15.021  68.125  1.00  0.00    -0.137 A  
ENDBRANCH  15  22
ENDBRANCH   6   8
ENDBRANCH   5   6
ENDBRANCH   4   5
ENDBRANCH   3   4
ENDBRANCH   2   3
TORSDOF 9
ENDMDL
MODEL      119
REMARK 921   NORMALIZED FREE ENERGY PREDICTED BY IDOCK:   -4.04 KCAL/MOL
REMARK 922        TOTAL FREE ENERGY PREDICTED BY IDOCK:   -7.74 KCAL/MOL
REMARK 923 INTER-LIGAND FREE ENERGY PREDICTED BY IDOCK:   -7.24 KCAL/MOL
REMARK 924 INTRA-LIGAND FREE ENERGY PREDICTED BY IDOCK:   -0.50 KCAL/MOL
REMARK 927      BINDING AFFINITY PREDICTED BY RF-SCORE:    0.00 PKD
ROOT
HETATM    1  C   UNL     1     -10.453  18.078  67.303  1.00  0.00    -0.380 C  
HETATM    2  O   UNL     1     -10.229  16.762  66.821  1.00  0.00    -0.289 OA 
ENDROOT
BRANCH   2   3
HETATM    3  C   UNL     1     -10.099  15.829  67.895  1.00  0.00    -0.230 C  
BRANCH   3   4
HETATM    4  C   UNL     1     -11.066  14.695  67.634  1.00  0.00    -0.304 C  
BRANCH   4   5
HETATM    5  O   UNL     1     -10.661  13.456  68.230  1.00  0.00    -0.243 OA 
BRANCH   5   6
HETATM    6  C   UNL     1     -11.534  12.446  68.007  1.00  0.00    -0.322 C  
HETATM    7  O   UNL     1     -12.129  12.268  66.955  1.00  0.00    -0.575 OA 
BRANCH   6   8
HETATM    8  C   UNL     1     -11.729  11.605  69.216  1.00  0.00    -0.396 C  
HETATM    9  C   UNL     1     -12.288  12.069  70.363  1.00  0.00    -0.233 C  
HETATM   10  C   UNL     1     -12.675  13.483  70.735  1.00  0.00    -0.316 C  
HETATM   11  N   UNL     1     -12.595  11.175  71.367  1.00  0.00    -0.388 NA 
HETATM   12  C   UNL     1     -12.245   9.845  71.395  1.00  0.00    -0.408 C  
HETATM   13  C   UNL     1     -11.651   9.275  70.317  1.00  0.00    -0.151 C  
HETATM   14  C   UNL     1     -12.567   9.145  72.693  1.00  0.00    -0.204 C  
HETATM   15  C   UNL     1     -11.407  10.099  69.041  1.00  0.00    -0.188 C  
BRANCH  13  16
HETATM   16  C   UNL     1     -11.148   7.881  70.447  1.00  0.00    -0.245 C  
HETATM   17  O   UNL     1     -11.000   7.132  69.492  1.00  0.00    -0.238 OA 
BRANCH  16  18
HETATM   18  O   UNL     1     -10.901   7.523  71.734  1.00  0.00    -0.224 OA 
BRANCH  18  19
HETATM   19  C   UNL     1      -9.545   7.072  71.961  1.00  0.00    -0.138 C  
HETATM   20  C   UNL     1      -8.713   8.219  72.528  1.00  0.00    -0.284 C  
HETATM   21  C   UNL     1      -9.570   5.892  72.924  1.00  0.00    -0.161 C  
ENDBRANCH  18  19
ENDBRANCH  16  18
ENDBRANCH  13  16
BRANCH  15  22
HETATM   22  C   UNL     1      -9.984   9.917  68.498  1.00  0.00    -0.175 A  
HETATM   23  C   UNL     1      -9.784   9.526  67.160  1.00  0.00    -0.221 A  
HETATM   24  C   UNL     1      -8.863  10.149  69.310  1.00  0.00    -0.191 A  
HETATM   25  C   UNL     1      -8.498   9.366  66.643  1.00  0.00    -0.130 A  
HETATM   26  O   UNL     1      -6.617  10.585  70.811  1.00  0.00    -0.343 OA 
HETATM   27  O   UNL     1      -5.284  10.085  69.143  1.00  0.00    -0.036 OA 
HETATM   28  C   UNL     1      -7.574   9.986  68.784  1.00  0.00    -0.083 A  
HETATM   29  N   UNL     1      -6.410  10.238  69.643  1.00  0.00    -0.053 N  
HETATM   30  C   UNL     1      -7.387   9.595  67.454  1.00  0.00    -0.087 A  
ENDBRANCH  15  22
ENDBRANCH   6   8
ENDBRANCH   5   6
ENDBRANCH   4   5
ENDBRANCH   3   4
ENDBRANCH   2   3
TORSDOF 9
ENDMDL
MODEL      120
REMARK 921   NORMALIZED FREE ENERGY PREDICTED BY IDOCK:   -4.00 KCAL/MOL
REMARK 922        TOTAL FREE ENERGY PREDICTED BY IDOCK:   -7.69 KCAL/MOL
REMARK 923 INTER-LIGAND FREE ENERGY PREDICTED BY IDOCK:   -8.61 KCAL/MOL
REMARK 924 INTRA-LIGAND FREE ENERGY PREDICTED BY IDOCK:    0.92 KCAL/MOL
REMARK 927      BINDING AFFINITY PREDICTED BY RF-SCORE:    0.00 PKD
ROOT
HETATM    1  C   UNL     1      -8.812   6.310  71.963  1.00  0.00    -0.138 C  
HETATM    2  O   UNL     1      -9.883   7.206  72.220  1.00  0.00    -0.153 OA 
ENDROOT
BRANCH   2   3
HETATM    3  C   UNL     1      -9.426   8.557  72.296  1.00  0.00    -0.295 C  
BRANCH   3   4
HETATM    4  C   UNL     1      -8.742   8.881  70.985  1.00  0.00    -0.224 C  
BRANCH   4   5
HETATM    5  O   UNL     1      -9.434   9.871  70.214  1.00  0.00    -0.232 OA 
BRANCH   5   6
HETATM    6  C   UNL     1     -10.255   9.341  69.278  1.00  0.00    -0.206 C  
HETATM    7  O   UNL     1     -10.988   8.383  69.466  1.00  0.00    -0.170 OA 
BRANCH   6   8
HETATM    8  C   UNL     1     -10.117  10.029  67.967  1.00  0.00    -0.197 C  
HETATM    9  C   UNL     1      -9.125   9.753  67.083  1.00  0.00    -0.135 C  
HETATM   10  C   UNL     1      -7.910   8.868  67.252  1.00  0.00    -0.096 C  
HETATM   11  N   UNL     1      -9.181  10.307  65.821  1.00  0.00    -0.166 NA 
HETATM   12  C   UNL     1     -10.079  11.259  65.399  1.00  0.00    -0.264 C  
HETATM   13  C   UNL     1     -11.098  11.639  66.210  1.00  0.00    -0.345 C  
HETATM   14  C   UNL     1      -9.802  11.807  64.020  1.00  0.00    -0.265 C  
HETATM   15  C   UNL     1     -11.283  10.976  67.586  1.00  0.00    -0.373 C  
BRANCH  13  16
HETATM   16  C   UNL     1     -11.950  12.781  65.780  1.00  0.00    -0.449 C  
HETATM   17  O   UNL     1     -12.961  12.645  65.106  1.00  0.00    -0.754 OA 
BRANCH  16  18
HETATM   18  O   UNL     1     -11.471  13.985  66.188  1.00  0.00    -0.327 OA 
BRANCH  18  19
HETATM   19  C   UNL     1     -10.845  14.750  65.131  1.00  0.00    -0.404 C  
HETATM   20  C   UNL     1     -11.771  15.886  64.705  1.00  0.00    -0.117 C  
HETATM   21  C   UNL     1      -9.515  15.294  65.634  1.00  0.00    -0.240 C  
ENDBRANCH  18  19
ENDBRANCH  16  18
ENDBRANCH  13  16
BRANCH  15  22
HETATM   22  C   UNL     1     -11.520  12.006  68.697  1.00  0.00    -0.350 A  
HETATM   23  C   UNL     1     -11.109  13.341  68.520  1.00  0.00    -0.294 A  
HETATM   24  C   UNL     1     -12.159  11.647  69.894  1.00  0.00    -0.373 A  
HETATM   25  C   UNL     1     -11.326  14.297  69.514  1.00  0.00    -0.315 A  
HETATM   26  O   UNL     1     -13.402  11.047  72.257  1.00  0.00    -0.390 OA 
HETATM   27  O   UNL     1     -13.222  13.106  72.990  1.00  0.00    -0.322 OA 
HETATM   28  C   UNL     1     -12.373  12.612  70.888  1.00  0.00    -0.260 A  
HETATM   29  N   UNL     1     -13.049  12.225  72.133  1.00  0.00    -0.391 N  
HETATM   30  C   UNL     1     -11.958  13.936  70.703  1.00  0.00    -0.364 A  
ENDBRANCH  15  22
ENDBRANCH   6   8
ENDBRANCH   5   6
ENDBRANCH   4   5
ENDBRANCH   3   4
ENDBRANCH   2   3
TORSDOF 9
ENDMDL
MODEL      121
REMARK 921   NORMALIZED FREE ENERGY PREDICTED BY IDOCK:   -3.99 KCAL/MOL
REMARK 922        TOTAL FREE ENERGY PREDICTED BY IDOCK:   -7.67 KCAL/MOL
REMARK 923 INTER-LIGAND FREE ENERGY PREDICTED BY IDOCK:   -6.18 KCAL/MOL
REMARK 924 INTRA-LIGAND FREE ENERGY PREDICTED BY IDOCK:   -1.49 KCAL/MOL
REMARK 927      BINDING AFFINITY PREDICTED BY RF-SCORE:    0.00 PKD
ROOT
HETATM    1  C   UNL     1     -13.044  13.344  71.494  1.00  0.00    -0.342 C  
HETATM    2  O   UNL     1     -13.472  12.258  72.301  1.00  0.00    -0.520 OA 
ENDROOT
BRANCH   2   3
HETATM    3  C   UNL     1     -13.153  11.003  71.696  1.00  0.00    -0.438 C  
BRANCH   3   4
HETATM    4  C   UNL     1     -12.217  11.279  70.540  1.00  0.00    -0.383 C  
BRANCH   4   5
HETATM    5  O   UNL     1     -11.988  10.134  69.710  1.00  0.00    -0.160 OA 
BRANCH   5   6
HETATM    6  C   UNL     1     -10.911   9.406  70.088  1.00  0.00    -0.246 C  
HETATM    7  O   UNL     1     -10.391   9.467  71.191  1.00  0.00    -0.301 OA 
BRANCH   6   8
HETATM    8  C   UNL     1     -10.397   8.561  68.979  1.00  0.00    -0.229 C  
HETATM    9  C   UNL     1     -10.413   7.204  69.009  1.00  0.00    -0.211 C  
HETATM   10  C   UNL     1     -10.776   6.276  70.147  1.00  0.00    -0.346 C  
HETATM   11  N   UNL     1     -10.085   6.505  67.866  1.00  0.00    -0.137 NA 
HETATM   12  C   UNL     1      -9.580   7.048  66.708  1.00  0.00    -0.171 C  
HETATM   13  C   UNL     1      -9.486   8.395  66.574  1.00  0.00    -0.284 C  
HETATM   14  C   UNL     1      -9.154   6.030  65.678  1.00  0.00    -0.033 C  
HETATM   15  C   UNL     1      -9.986   9.323  67.694  1.00  0.00    -0.245 C  
BRANCH  13  16
HETATM   16  C   UNL     1      -8.789   8.934  65.374  1.00  0.00    -0.193 C  
HETATM   17  O   UNL     1      -9.350   9.607  64.522  1.00  0.00    -0.261 OA 
BRANCH  16  18
HETATM   18  O   UNL     1      -7.480   8.576  65.314  1.00  0.00    -0.082 OA 
BRANCH  18  19
HETATM   19  C   UNL     1      -6.746   9.236  64.256  1.00  0.00    -0.087 C  
HETATM   20  C   UNL     1      -5.890  10.353  64.848  1.00  0.00    -0.130 C  
HETATM   21  C   UNL     1      -5.878   8.209  63.540  1.00  0.00    -0.067 C  
ENDBRANCH  18  19
ENDBRANCH  16  18
ENDBRANCH  13  16
BRANCH  15  22
HETATM   22  C   UNL     1      -8.973  10.425  68.028  1.00  0.00    -0.129 A  
HETATM   23  C   UNL     1      -7.787  10.108  68.717  1.00  0.00    -0.098 A  
HETATM   24  C   UNL     1      -9.196  11.756  67.642  1.00  0.00    -0.180 A  
HETATM   25  C   UNL     1      -6.846  11.093  69.020  1.00  0.00    -0.092 A  
HETATM   26  O   UNL     1      -9.537  14.375  66.927  1.00  0.00    -0.237 OA 
HETATM   27  O   UNL     1      -7.628  14.973  67.824  1.00  0.00    -0.130 OA 
HETATM   28  C   UNL     1      -8.247  12.741  67.950  1.00  0.00    -0.168 A  
HETATM   29  N   UNL     1      -8.490  14.128  67.535  1.00  0.00    -0.175 N  
HETATM   30  C   UNL     1      -7.074  12.415  68.638  1.00  0.00    -0.103 A  
ENDBRANCH  15  22
ENDBRANCH   6   8
ENDBRANCH   5   6
ENDBRANCH   4   5
ENDBRANCH   3   4
ENDBRANCH   2   3
TORSDOF 9
ENDMDL
MODEL      122
REMARK 921   NORMALIZED FREE ENERGY PREDICTED BY IDOCK:   -3.99 KCAL/MOL
REMARK 922        TOTAL FREE ENERGY PREDICTED BY IDOCK:   -7.67 KCAL/MOL
REMARK 923 INTER-LIGAND FREE ENERGY PREDICTED BY IDOCK:   -6.24 KCAL/MOL
REMARK 924 INTRA-LIGAND FREE ENERGY PREDICTED BY IDOCK:   -1.42 KCAL/MOL
REMARK 927      BINDING AFFINITY PREDICTED BY RF-SCORE:    0.00 PKD
ROOT
HETATM    1  C   UNL     1      -6.052   8.589  68.641  1.00  0.00    -0.045 C  
HETATM    2  O   UNL     1      -5.931   9.489  67.550  1.00  0.00    -0.051 OA 
ENDROOT
BRANCH   2   3
HETATM    3  C   UNL     1      -6.546   8.966  66.372  1.00  0.00    -0.067 C  
BRANCH   3   4
HETATM    4  C   UNL     1      -7.203   7.655  66.746  1.00  0.00    -0.088 C  
BRANCH   4   5
HETATM    5  O   UNL     1      -8.398   7.387  66.002  1.00  0.00    -0.128 OA 
BRANCH   5   6
HETATM    6  C   UNL     1      -9.424   8.207  66.327  1.00  0.00    -0.190 C  
HETATM    7  O   UNL     1      -9.741   9.202  65.693  1.00  0.00    -0.270 OA 
BRANCH   6   8
HETATM    8  C   UNL     1     -10.091   7.787  67.587  1.00  0.00    -0.254 C  
HETATM    9  C   UNL     1     -10.781   6.624  67.712  1.00  0.00    -0.283 C  
HETATM   10  C   UNL     1     -11.158   5.616  66.649  1.00  0.00    -0.013 C  
HETATM   11  N   UNL     1     -11.210   6.232  68.962  1.00  0.00    -0.387 NA 
HETATM   12  C   UNL     1     -11.146   6.988  70.109  1.00  0.00    -0.285 C  
HETATM   13  C   UNL     1     -10.509   8.185  70.100  1.00  0.00    -0.225 C  
HETATM   14  C   UNL     1     -11.842   6.372  71.299  1.00  0.00    -0.333 C  
HETATM   15  C   UNL     1      -9.813   8.683  68.821  1.00  0.00    -0.180 C  
BRANCH  13  16
HETATM   16  C   UNL     1     -10.600   9.039  71.315  1.00  0.00    -0.308 C  
HETATM   17  O   UNL     1     -11.646   9.534  71.708  1.00  0.00    -0.385 OA 
BRANCH  16  18
HETATM   18  O   UNL     1      -9.398   9.234  71.918  1.00  0.00    -0.299 OA 
BRANCH  18  19
HETATM   19  C   UNL     1      -8.764   8.010  72.358  1.00  0.00    -0.167 C  
HETATM   20  C   UNL     1      -7.247   8.163  72.280  1.00  0.00    -0.108 C  
HETATM   21  C   UNL     1      -9.207   7.709  73.784  1.00  0.00    -0.333 C  
ENDBRANCH  18  19
ENDBRANCH  16  18
ENDBRANCH  13  16
BRANCH  15  22
HETATM   22  C   UNL     1     -10.156  10.144  68.508  1.00  0.00    -0.186 A  
HETATM   23  C   UNL     1     -11.499  10.535  68.347  1.00  0.00    -0.285 A  
HETATM   24  C   UNL     1      -9.150  11.116  68.392  1.00  0.00    -0.168 A  
HETATM   25  C   UNL     1     -11.834  11.862  68.074  1.00  0.00    -0.323 A  
HETATM   26  O   UNL     1      -7.262  13.083  68.155  1.00  0.00    -0.092 OA 
HETATM   27  O   UNL     1      -8.773  14.623  67.761  1.00  0.00    -0.159 OA 
HETATM   28  C   UNL     1      -9.493  12.447  68.117  1.00  0.00    -0.214 A  
HETATM   29  N   UNL     1      -8.431  13.455  68.005  1.00  0.00    -0.163 N  
HETATM   30  C   UNL     1     -10.831  12.824  67.957  1.00  0.00    -0.254 A  
ENDBRANCH  15  22
ENDBRANCH   6   8
ENDBRANCH   5   6
ENDBRANCH   4   5
ENDBRANCH   3   4
ENDBRANCH   2   3
TORSDOF 9
ENDMDL
MODEL      123
REMARK 921   NORMALIZED FREE ENERGY PREDICTED BY IDOCK:   -3.98 KCAL/MOL
REMARK 922        TOTAL FREE ENERGY PREDICTED BY IDOCK:   -7.66 KCAL/MOL
REMARK 923 INTER-LIGAND FREE ENERGY PREDICTED BY IDOCK:   -7.40 KCAL/MOL
REMARK 924 INTRA-LIGAND FREE ENERGY PREDICTED BY IDOCK:   -0.26 KCAL/MOL
REMARK 927      BINDING AFFINITY PREDICTED BY RF-SCORE:    0.00 PKD
ROOT
HETATM    1  C   UNL     1      -9.042   8.282  72.702  1.00  0.00    -0.257 C  
HETATM    2  O   UNL     1      -7.811   8.772  72.191  1.00  0.00    -0.325 OA 
ENDROOT
BRANCH   2   3
HETATM    3  C   UNL     1      -7.731   8.603  70.775  1.00  0.00    -0.090 C  
BRANCH   3   4
HETATM    4  C   UNL     1      -6.782   9.655  70.243  1.00  0.00    -0.099 C  
BRANCH   4   5
HETATM    5  O   UNL     1      -7.447  10.838  69.785  1.00  0.00    -0.125 OA 
BRANCH   5   6
HETATM    6  C   UNL     1      -7.791  10.785  68.477  1.00  0.00    -0.122 C  
HETATM    7  O   UNL     1      -7.601   9.822  67.752  1.00  0.00    -0.090 OA 
BRANCH   6   8
HETATM    8  C   UNL     1      -8.381  12.067  68.007  1.00  0.00    -0.162 C  
HETATM    9  C   UNL     1      -7.655  13.200  67.833  1.00  0.00    -0.147 C  
HETATM   10  C   UNL     1      -6.213  13.479  68.196  1.00  0.00    -0.114 C  
HETATM   11  N   UNL     1      -8.246  14.286  67.223  1.00  0.00    -0.199 NA 
HETATM   12  C   UNL     1      -9.578  14.401  66.899  1.00  0.00    -0.256 C  
HETATM   13  C   UNL     1     -10.410  13.343  67.059  1.00  0.00    -0.247 C  
HETATM   14  C   UNL     1      -9.978  15.766  66.393  1.00  0.00    -0.294 C  
HETATM   15  C   UNL     1      -9.862  11.994  67.559  1.00  0.00    -0.190 C  
BRANCH  13  16
HETATM   16  C   UNL     1     -11.868  13.556  66.849  1.00  0.00    -0.407 C  
HETATM   17  O   UNL     1     -12.526  14.360  67.493  1.00  0.00    -0.155 OA 
BRANCH  16  18
HETATM   18  O   UNL     1     -12.390  12.747  65.891  1.00  0.00    -0.551 OA 
BRANCH  18  19
HETATM   19  C   UNL     1     -11.845  12.983  64.571  1.00  0.00    -0.377 C  
HETATM   20  C   UNL     1     -12.307  11.881  63.622  1.00  0.00    -0.591 C  
HETATM   21  C   UNL     1     -12.306  14.349  64.082  1.00  0.00    -0.340 C  
ENDBRANCH  18  19
ENDBRANCH  16  18
ENDBRANCH  13  16
BRANCH  15  22
HETATM   22  C   UNL     1     -10.729  11.396  68.674  1.00  0.00    -0.241 A  
HETATM   23  C   UNL     1     -11.552  12.231  69.452  1.00  0.00    -0.378 A  
HETATM   24  C   UNL     1     -10.732  10.015  68.927  1.00  0.00    -0.243 A  
HETATM   25  C   UNL     1     -12.358  11.705  70.464  1.00  0.00    -0.410 A  
HETATM   26  O   UNL     1     -10.812   7.339  69.494  1.00  0.00    -0.240 OA 
HETATM   27  O   UNL     1     -12.272   7.622  71.105  1.00  0.00    -0.312 OA 
HETATM   28  C   UNL     1     -11.543   9.494  69.945  1.00  0.00     0.015 A  
HETATM   29  N   UNL     1     -11.541   8.047  70.196  1.00  0.00    -0.013 N  
HETATM   30  C   UNL     1     -12.355  10.334  70.715  1.00  0.00    -0.445 A  
ENDBRANCH  15  22
ENDBRANCH   6   8
ENDBRANCH   5   6
ENDBRANCH   4   5
ENDBRANCH   3   4
ENDBRANCH   2   3
TORSDOF 9
ENDMDL
MODEL      124
REMARK 921   NORMALIZED FREE ENERGY PREDICTED BY IDOCK:   -3.98 KCAL/MOL
REMARK 922        TOTAL FREE ENERGY PREDICTED BY IDOCK:   -7.66 KCAL/MOL
REMARK 923 INTER-LIGAND FREE ENERGY PREDICTED BY IDOCK:   -6.58 KCAL/MOL
REMARK 924 INTRA-LIGAND FREE ENERGY PREDICTED BY IDOCK:   -1.08 KCAL/MOL
REMARK 927      BINDING AFFINITY PREDICTED BY RF-SCORE:    0.00 PKD
ROOT
HETATM    1  C   UNL     1      -9.478  18.874  68.203  1.00  0.00    -0.332 C  
HETATM    2  O   UNL     1     -10.119  17.826  68.914  1.00  0.00    -0.360 OA 
ENDROOT
BRANCH   2   3
HETATM    3  C   UNL     1     -11.176  17.247  68.147  1.00  0.00     0.088 C  
BRANCH   3   4
HETATM    4  C   UNL     1     -11.877  16.236  69.028  1.00  0.00    -0.072 C  
BRANCH   4   5
HETATM    5  O   UNL     1     -11.847  14.905  68.498  1.00  0.00    -0.326 OA 
BRANCH   5   6
HETATM    6  C   UNL     1     -11.652  13.957  69.444  1.00  0.00    -0.297 C  
HETATM    7  O   UNL     1     -11.798  14.139  70.643  1.00  0.00    -0.303 OA 
BRANCH   6   8
HETATM    8  C   UNL     1     -11.182  12.675  68.857  1.00  0.00    -0.329 C  
HETATM    9  C   UNL     1     -11.510  11.460  69.364  1.00  0.00    -0.310 C  
HETATM   10  C   UNL     1     -12.241  11.123  70.645  1.00  0.00    -0.492 C  
HETATM   11  N   UNL     1     -11.181  10.326  68.651  1.00  0.00    -0.234 NA 
HETATM   12  C   UNL     1     -10.398  10.285  67.521  1.00  0.00    -0.229 C  
HETATM   13  C   UNL     1      -9.982  11.438  66.940  1.00  0.00    -0.235 C  
HETATM   14  C   UNL     1     -10.064   8.892  67.047  1.00  0.00    -0.331 C  
HETATM   15  C   UNL     1     -10.421  12.797  67.512  1.00  0.00    -0.223 C  
BRANCH  13  16
HETATM   16  C   UNL     1      -9.009  11.348  65.817  1.00  0.00    -0.151 C  
HETATM   17  O   UNL     1      -7.915  10.813  65.921  1.00  0.00    -0.158 OA 
BRANCH  16  18
HETATM   18  O   UNL     1      -9.452  11.948  64.682  1.00  0.00    -0.088 OA 
BRANCH  18  19
HETATM   19  C   UNL     1     -10.493  11.206  64.002  1.00  0.00    -0.383 C  
HETATM   20  C   UNL     1     -11.591  12.164  63.547  1.00  0.00    -0.562 C  
HETATM   21  C   UNL     1      -9.884  10.475  62.813  1.00  0.00    -0.176 C  
ENDBRANCH  18  19
ENDBRANCH  16  18
ENDBRANCH  13  16
BRANCH  15  22
HETATM   22  C   UNL     1      -9.247  13.774  67.650  1.00  0.00    -0.207 A  
HETATM   23  C   UNL     1      -9.060  14.792  66.695  1.00  0.00    -0.300 A  
HETATM   24  C   UNL     1      -8.352  13.684  68.728  1.00  0.00     0.041 A  
HETATM   25  C   UNL     1      -8.005  15.699  66.808  1.00  0.00    -0.246 A  
HETATM   26  O   UNL     1      -6.561  13.596  70.795  1.00  0.00     0.181 OA 
HETATM   27  O   UNL     1      -5.444  15.323  70.033  1.00  0.00    -0.110 OA 
HETATM   28  C   UNL     1      -7.294  14.597  68.834  1.00  0.00    -0.128 A  
HETATM   29  N   UNL     1      -6.369  14.496  69.970  1.00  0.00    -0.156 N  
HETATM   30  C   UNL     1      -7.116  15.604  67.879  1.00  0.00    -0.153 A  
ENDBRANCH  15  22
ENDBRANCH   6   8
ENDBRANCH   5   6
ENDBRANCH   4   5
ENDBRANCH   3   4
ENDBRANCH   2   3
TORSDOF 9
ENDMDL
MODEL      125
REMARK 921   NORMALIZED FREE ENERGY PREDICTED BY IDOCK:   -3.95 KCAL/MOL
REMARK 922        TOTAL FREE ENERGY PREDICTED BY IDOCK:   -7.60 KCAL/MOL
REMARK 923 INTER-LIGAND FREE ENERGY PREDICTED BY IDOCK:   -5.62 KCAL/MOL
REMARK 924 INTRA-LIGAND FREE ENERGY PREDICTED BY IDOCK:   -1.98 KCAL/MOL
REMARK 927      BINDING AFFINITY PREDICTED BY RF-SCORE:    0.00 PKD
ROOT
HETATM    1  C   UNL     1      -6.925   4.750  65.580  1.00  0.00    -0.062 C  
HETATM    2  O   UNL     1      -6.010   5.641  66.200  1.00  0.00    -0.021 OA 
ENDROOT
BRANCH   2   3
HETATM    3  C   UNL     1      -6.686   6.738  66.815  1.00  0.00    -0.056 C  
BRANCH   3   4
HETATM    4  C   UNL     1      -5.829   7.214  67.968  1.00  0.00    -0.026 C  
BRANCH   4   5
HETATM    5  O   UNL     1      -6.192   6.628  69.224  1.00  0.00    -0.028 OA 
BRANCH   5   6
HETATM    6  C   UNL     1      -6.597   7.539  70.140  1.00  0.00    -0.042 C  
HETATM    7  O   UNL     1      -6.191   8.689  70.196  1.00  0.00    -0.033 OA 
BRANCH   6   8
HETATM    8  C   UNL     1      -7.560   6.956  71.112  1.00  0.00    -0.087 C  
HETATM    9  C   UNL     1      -7.194   6.099  72.098  1.00  0.00    -0.092 C  
HETATM   10  C   UNL     1      -5.855   5.439  72.345  1.00  0.00    -0.026 C  
HETATM   11  N   UNL     1      -8.118   5.753  73.061  1.00  0.00    -0.117 NA 
HETATM   12  C   UNL     1      -9.455   6.073  73.045  1.00  0.00    -0.143 C  
HETATM   13  C   UNL     1      -9.945   6.899  72.087  1.00  0.00    -0.176 C  
HETATM   14  C   UNL     1     -10.263   5.422  74.142  1.00  0.00    -0.282 C  
HETATM   15  C   UNL     1      -9.001   7.520  71.042  1.00  0.00    -0.147 C  
BRANCH  13  16
HETATM   16  C   UNL     1     -11.419   7.092  72.012  1.00  0.00    -0.271 C  
HETATM   17  O   UNL     1     -12.187   6.228  71.613  1.00  0.00    -0.279 OA 
BRANCH  16  18
HETATM   18  O   UNL     1     -11.813   8.332  72.402  1.00  0.00    -0.364 OA 
BRANCH  18  19
HETATM   19  C   UNL     1     -12.785   8.937  71.518  1.00  0.00    -0.335 C  
HETATM   20  C   UNL     1     -14.146   8.982  72.207  1.00  0.00    -0.485 C  
HETATM   21  C   UNL     1     -12.317  10.339  71.152  1.00  0.00    -0.501 C  
ENDBRANCH  18  19
ENDBRANCH  16  18
ENDBRANCH  13  16
BRANCH  15  22
HETATM   22  C   UNL     1      -9.555   7.397  69.618  1.00  0.00    -0.156 A  
HETATM   23  C   UNL     1      -9.994   8.544  68.930  1.00  0.00    -0.197 A  
HETATM   24  C   UNL     1      -9.620   6.153  68.970  1.00  0.00    -0.144 A  
HETATM   25  C   UNL     1     -10.491   8.456  67.628  1.00  0.00    -0.307 A  
HETATM   26  O   UNL     1      -9.780   3.777  67.622  1.00  0.00    -0.178 OA 
HETATM   27  O   UNL     1     -10.625   4.732  65.838  1.00  0.00    -0.303 OA 
HETATM   28  C   UNL     1     -10.120   6.072  67.663  1.00  0.00    -0.160 A  
HETATM   29  N   UNL     1     -10.177   4.765  66.995  1.00  0.00    -0.189 N  
HETATM   30  C   UNL     1     -10.556   7.218  66.990  1.00  0.00    -0.415 A  
ENDBRANCH  15  22
ENDBRANCH   6   8
ENDBRANCH   5   6
ENDBRANCH   4   5
ENDBRANCH   3   4
ENDBRANCH   2   3
TORSDOF 9
ENDMDL
MODEL      126
REMARK 921   NORMALIZED FREE ENERGY PREDICTED BY IDOCK:   -3.94 KCAL/MOL
REMARK 922        TOTAL FREE ENERGY PREDICTED BY IDOCK:   -7.59 KCAL/MOL
REMARK 923 INTER-LIGAND FREE ENERGY PREDICTED BY IDOCK:   -5.96 KCAL/MOL
REMARK 924 INTRA-LIGAND FREE ENERGY PREDICTED BY IDOCK:   -1.63 KCAL/MOL
REMARK 927      BINDING AFFINITY PREDICTED BY RF-SCORE:    0.00 PKD
ROOT
HETATM    1  C   UNL     1     -11.010  15.909  67.487  1.00  0.00    -0.280 C  
HETATM    2  O   UNL     1     -10.688  14.692  66.831  1.00  0.00    -0.285 OA 
ENDROOT
BRANCH   2   3
HETATM    3  C   UNL     1     -11.354  13.583  67.435  1.00  0.00    -0.311 C  
BRANCH   3   4
HETATM    4  C   UNL     1     -10.501  13.112  68.592  1.00  0.00    -0.227 C  
BRANCH   4   5
HETATM    5  O   UNL     1     -10.436  11.685  68.705  1.00  0.00    -0.209 OA 
BRANCH   5   6
HETATM    6  C   UNL     1      -9.196  11.188  68.486  1.00  0.00    -0.183 C  
HETATM    7  O   UNL     1      -8.160  11.788  68.726  1.00  0.00    -0.129 OA 
BRANCH   6   8
HETATM    8  C   UNL     1      -9.242   9.841  67.860  1.00  0.00    -0.133 C  
HETATM    9  C   UNL     1      -9.666   9.625  66.589  1.00  0.00    -0.209 C  
HETATM   10  C   UNL     1     -10.302  10.591  65.614  1.00  0.00    -0.274 C  
HETATM   11  N   UNL     1      -9.504   8.373  66.033  1.00  0.00    -0.191 NA 
HETATM   12  C   UNL     1      -9.086   7.245  66.699  1.00  0.00    -0.154 C  
HETATM   13  C   UNL     1      -8.668   7.331  67.986  1.00  0.00    -0.127 C  
HETATM   14  C   UNL     1      -9.161   5.977  65.882  1.00  0.00    -0.117 C  
HETATM   15  C   UNL     1      -8.613   8.696  68.694  1.00  0.00    -0.131 C  
BRANCH  13  16
HETATM   16  C   UNL     1      -8.376   6.068  68.717  1.00  0.00    -0.106 C  
HETATM   17  O   UNL     1      -7.244   5.633  68.875  1.00  0.00    -0.073 OA 
BRANCH  16  18
HETATM   18  O   UNL     1      -9.496   5.439  69.160  1.00  0.00    -0.121 OA 
BRANCH  18  19
HETATM   19  C   UNL     1      -9.300   4.704  70.392  1.00  0.00    -0.148 C  
HETATM   20  C   UNL     1     -10.334   5.150  71.423  1.00  0.00    -0.273 C  
HETATM   21  C   UNL     1      -9.428   3.214  70.104  1.00  0.00    -0.218 C  
ENDBRANCH  18  19
ENDBRANCH  16  18
ENDBRANCH  13  16
BRANCH  15  22
HETATM   22  C   UNL     1      -9.240   8.648  70.093  1.00  0.00    -0.165 A  
HETATM   23  C   UNL     1      -8.423   8.476  71.226  1.00  0.00    -0.203 A  
HETATM   24  C   UNL     1     -10.625   8.789  70.272  1.00  0.00    -0.239 A  
HETATM   25  C   UNL     1      -8.972   8.441  72.510  1.00  0.00    -0.308 A  
HETATM   26  O   UNL     1     -13.310   9.061  70.724  1.00  0.00     0.071 OA 
HETATM   27  O   UNL     1     -13.066   8.870  72.895  1.00  0.00    -0.339 OA 
HETATM   28  C   UNL     1     -11.169   8.752  71.563  1.00  0.00    -0.307 A  
HETATM   29  N   UNL     1     -12.619   8.907  71.737  1.00  0.00    -0.338 N  
HETATM   30  C   UNL     1     -10.348   8.578  72.683  1.00  0.00    -0.235 A  
ENDBRANCH  15  22
ENDBRANCH   6   8
ENDBRANCH   5   6
ENDBRANCH   4   5
ENDBRANCH   3   4
ENDBRANCH   2   3
TORSDOF 9
ENDMDL
MODEL      127
REMARK 921   NORMALIZED FREE ENERGY PREDICTED BY IDOCK:   -3.92 KCAL/MOL
REMARK 922        TOTAL FREE ENERGY PREDICTED BY IDOCK:   -7.55 KCAL/MOL
REMARK 923 INTER-LIGAND FREE ENERGY PREDICTED BY IDOCK:   -6.18 KCAL/MOL
REMARK 924 INTRA-LIGAND FREE ENERGY PREDICTED BY IDOCK:   -1.37 KCAL/MOL
REMARK 927      BINDING AFFINITY PREDICTED BY RF-SCORE:    0.00 PKD
ROOT
HETATM    1  C   UNL     1     -10.630  18.369  65.572  1.00  0.00     0.048 C  
HETATM    2  O   UNL     1     -11.154  17.291  64.810  1.00  0.00    -0.954 OA 
ENDROOT
BRANCH   2   3
HETATM    3  C   UNL     1     -10.495  16.064  65.123  1.00  0.00    -0.303 C  
BRANCH   3   4
HETATM    4  C   UNL     1      -9.430  16.368  66.154  1.00  0.00    -0.329 C  
BRANCH   4   5
HETATM    5  O   UNL     1      -8.667  15.217  66.538  1.00  0.00    -0.283 OA 
BRANCH   5   6
HETATM    6  C   UNL     1      -8.722  14.959  67.865  1.00  0.00    -0.164 C  
HETATM    7  O   UNL     1      -9.207  15.712  68.696  1.00  0.00    -0.188 OA 
BRANCH   6   8
HETATM    8  C   UNL     1      -8.068  13.668  68.206  1.00  0.00    -0.155 C  
HETATM    9  C   UNL     1      -6.741  13.551  68.462  1.00  0.00    -0.095 C  
HETATM   10  C   UNL     1      -5.644  14.583  68.320  1.00  0.00    -0.118 C  
HETATM   11  N   UNL     1      -6.255  12.354  68.945  1.00  0.00    -0.073 NA 
HETATM   12  C   UNL     1      -6.967  11.183  69.055  1.00  0.00    -0.101 C  
HETATM   13  C   UNL     1      -8.297  11.169  68.794  1.00  0.00    -0.136 C  
HETATM   14  C   UNL     1      -6.137   9.987  69.458  1.00  0.00    -0.042 C  
HETATM   15  C   UNL     1      -9.028  12.470  68.420  1.00  0.00    -0.130 C  
BRANCH  13  16
HETATM   16  C   UNL     1      -8.996   9.854  68.771  1.00  0.00    -0.140 C  
HETATM   17  O   UNL     1      -8.996   9.115  67.798  1.00  0.00    -0.127 OA 
BRANCH  16  18
HETATM   18  O   UNL     1      -9.653   9.582  69.928  1.00  0.00    -0.193 OA 
BRANCH  18  19
HETATM   19  C   UNL     1     -10.099   8.209  70.033  1.00  0.00    -0.196 C  
HETATM   20  C   UNL     1      -9.023   7.373  70.721  1.00  0.00    -0.151 C  
HETATM   21  C   UNL     1     -11.402   8.170  70.820  1.00  0.00    -0.283 C  
ENDBRANCH  18  19
ENDBRANCH  16  18
ENDBRANCH  13  16
BRANCH  15  22
HETATM   22  C   UNL     1      -9.940  12.291  67.200  1.00  0.00    -0.213 A  
HETATM   23  C   UNL     1     -11.295  12.667  67.271  1.00  0.00    -0.372 A  
HETATM   24  C   UNL     1      -9.444  11.770  65.995  1.00  0.00    -0.245 A  
HETATM   25  C   UNL     1     -12.139  12.524  66.168  1.00  0.00    -0.357 A  
HETATM   26  O   UNL     1      -8.571  10.771  63.602  1.00  0.00    -0.142 OA 
HETATM   27  O   UNL     1     -10.550  10.977  62.680  1.00  0.00     0.154 OA 
HETATM   28  C   UNL     1     -10.298  11.628  64.892  1.00  0.00    -0.283 A  
HETATM   29  N   UNL     1      -9.765  11.087  63.635  1.00  0.00    -0.291 N  
HETATM   30  C   UNL     1     -11.643  12.003  64.974  1.00  0.00    -0.323 A  
ENDBRANCH  15  22
ENDBRANCH   6   8
ENDBRANCH   5   6
ENDBRANCH   4   5
ENDBRANCH   3   4
ENDBRANCH   2   3
TORSDOF 9
ENDMDL
MODEL      128
REMARK 921   NORMALIZED FREE ENERGY PREDICTED BY IDOCK:   -3.91 KCAL/MOL
REMARK 922        TOTAL FREE ENERGY PREDICTED BY IDOCK:   -7.55 KCAL/MOL
REMARK 923 INTER-LIGAND FREE ENERGY PREDICTED BY IDOCK:   -5.72 KCAL/MOL
REMARK 924 INTRA-LIGAND FREE ENERGY PREDICTED BY IDOCK:   -1.82 KCAL/MOL
REMARK 927      BINDING AFFINITY PREDICTED BY RF-SCORE:    0.00 PKD
ROOT
HETATM    1  C   UNL     1      -7.768   8.122  72.170  1.00  0.00    -0.118 C  
HETATM    2  O   UNL     1      -6.818   7.362  71.438  1.00  0.00    -0.050 OA 
ENDROOT
BRANCH   2   3
HETATM    3  C   UNL     1      -7.131   7.340  70.045  1.00  0.00    -0.066 C  
BRANCH   3   4
HETATM    4  C   UNL     1      -6.094   8.180  69.331  1.00  0.00    -0.034 C  
BRANCH   4   5
HETATM    5  O   UNL     1      -6.372   9.585  69.378  1.00  0.00    -0.042 OA 
BRANCH   5   6
HETATM    6  C   UNL     1      -6.410  10.162  68.155  1.00  0.00    -0.053 C  
HETATM    7  O   UNL     1      -5.665   9.873  67.231  1.00  0.00    -0.046 OA 
BRANCH   6   8
HETATM    8  C   UNL     1      -7.434  11.237  68.081  1.00  0.00    -0.091 C  
HETATM    9  C   UNL     1      -7.233  12.491  68.560  1.00  0.00    -0.110 C  
HETATM   10  C   UNL     1      -6.077  13.031  69.373  1.00  0.00    -0.108 C  
HETATM   11  N   UNL     1      -8.165  13.469  68.287  1.00  0.00    -0.152 NA 
HETATM   12  C   UNL     1      -9.389  13.272  67.692  1.00  0.00    -0.212 C  
HETATM   13  C   UNL     1      -9.717  12.051  67.201  1.00  0.00    -0.203 C  
HETATM   14  C   UNL     1     -10.274  14.495  67.669  1.00  0.00    -0.225 C  
HETATM   15  C   UNL     1      -8.705  10.893  67.263  1.00  0.00    -0.131 C  
BRANCH  13  16
HETATM   16  C   UNL     1     -11.106  11.840  66.711  1.00  0.00    -0.306 C  
HETATM   17  O   UNL     1     -12.077  11.794  67.451  1.00  0.00    -0.595 OA 
BRANCH  16  18
HETATM   18  O   UNL     1     -11.174  11.674  65.364  1.00  0.00    -0.279 OA 
BRANCH  18  19
HETATM   19  C   UNL     1     -12.140  12.538  64.721  1.00  0.00    -0.434 C  
HETATM   20  C   UNL     1     -11.489  13.879  64.392  1.00  0.00    -0.376 C  
HETATM   21  C   UNL     1     -12.649  11.858  63.457  1.00  0.00    -0.579 C  
ENDBRANCH  18  19
ENDBRANCH  16  18
ENDBRANCH  13  16
BRANCH  15  22
HETATM   22  C   UNL     1      -9.340   9.598  67.784  1.00  0.00    -0.142 A  
HETATM   23  C   UNL     1      -9.976   9.579  69.040  1.00  0.00    -0.185 A  
HETATM   24  C   UNL     1      -9.316   8.420  67.020  1.00  0.00    -0.202 A  
HETATM   25  C   UNL     1     -10.571   8.414  69.527  1.00  0.00    -0.217 A  
HETATM   26  O   UNL     1      -9.326   6.079  65.604  1.00  0.00    -0.043 OA 
HETATM   27  O   UNL     1     -10.428   5.017  67.175  1.00  0.00    -0.194 OA 
HETATM   28  C   UNL     1      -9.914   7.254  67.516  1.00  0.00    -0.169 A  
HETATM   29  N   UNL     1      -9.887   6.031  66.704  1.00  0.00    -0.160 N  
HETATM   30  C   UNL     1     -10.542   7.246  68.767  1.00  0.00    -0.202 A  
ENDBRANCH  15  22
ENDBRANCH   6   8
ENDBRANCH   5   6
ENDBRANCH   4   5
ENDBRANCH   3   4
ENDBRANCH   2   3
TORSDOF 9
ENDMDL
MODEL      129
REMARK 921   NORMALIZED FREE ENERGY PREDICTED BY IDOCK:   -3.91 KCAL/MOL
REMARK 922        TOTAL FREE ENERGY PREDICTED BY IDOCK:   -7.55 KCAL/MOL
REMARK 923 INTER-LIGAND FREE ENERGY PREDICTED BY IDOCK:   -9.24 KCAL/MOL
REMARK 924 INTRA-LIGAND FREE ENERGY PREDICTED BY IDOCK:    1.69 KCAL/MOL
REMARK 927      BINDING AFFINITY PREDICTED BY RF-SCORE:    0.00 PKD
ROOT
HETATM    1  C   UNL     1     -10.348  17.417  69.444  1.00  0.00    -0.120 C  
HETATM    2  O   UNL     1     -10.490  16.028  69.184  1.00  0.00    -0.218 OA 
ENDROOT
BRANCH   2   3
HETATM    3  C   UNL     1     -11.822  15.707  68.780  1.00  0.00    -0.321 C  
BRANCH   3   4
HETATM    4  C   UNL     1     -12.208  14.416  69.467  1.00  0.00    -0.282 C  
BRANCH   4   5
HETATM    5  O   UNL     1     -11.953  13.252  68.671  1.00  0.00    -0.339 OA 
BRANCH   5   6
HETATM    6  C   UNL     1     -11.742  12.137  69.408  1.00  0.00    -0.329 C  
HETATM    7  O   UNL     1     -12.044  12.020  70.586  1.00  0.00    -0.373 OA 
BRANCH   6   8
HETATM    8  C   UNL     1     -11.044  11.081  68.629  1.00  0.00    -0.294 C  
HETATM    9  C   UNL     1     -10.521   9.963  69.193  1.00  0.00    -0.217 C  
HETATM   10  C   UNL     1     -10.378   9.606  70.656  1.00  0.00    -0.365 C  
HETATM   11  N   UNL     1     -10.053   8.956  68.374  1.00  0.00    -0.183 NA 
HETATM   12  C   UNL     1      -9.916   9.029  67.008  1.00  0.00    -0.230 C  
HETATM   13  C   UNL     1     -10.374  10.114  66.335  1.00  0.00    -0.258 C  
HETATM   14  C   UNL     1      -9.223   7.839  66.389  1.00  0.00    -0.229 C  
HETATM   15  C   UNL     1     -11.091  11.248  67.089  1.00  0.00    -0.364 C  
BRANCH  13  16
HETATM   16  C   UNL     1     -10.064  10.223  64.884  1.00  0.00    -0.276 C  
HETATM   17  O   UNL     1     -10.703  10.927  64.115  1.00  0.00    -0.362 OA 
BRANCH  16  18
HETATM   18  O   UNL     1      -9.022   9.439  64.502  1.00  0.00    -0.216 OA 
BRANCH  18  19
HETATM   19  C   UNL     1      -7.921  10.179  63.923  1.00  0.00    -0.153 C  
HETATM   20  C   UNL     1      -6.605   9.686  64.518  1.00  0.00    -0.102 C  
HETATM   21  C   UNL     1      -7.938   9.989  62.412  1.00  0.00    -0.141 C  
ENDBRANCH  18  19
ENDBRANCH  16  18
ENDBRANCH  13  16
BRANCH  15  22
HETATM   22  C   UNL     1     -10.568  12.631  66.685  1.00  0.00    -0.267 A  
HETATM   23  C   UNL     1      -9.326  13.085  67.170  1.00  0.00    -0.230 A  
HETATM   24  C   UNL     1     -11.300  13.459  65.820  1.00  0.00    -0.322 A  
HETATM   25  C   UNL     1      -8.826  14.337  66.804  1.00  0.00    -0.207 A  
HETATM   26  O   UNL     1     -12.649  15.141  64.134  1.00  0.00    -0.737 OA 
HETATM   27  O   UNL     1     -11.084  16.672  64.248  1.00  0.00    -1.029 OA 
HETATM   28  C   UNL     1     -10.792  14.715  65.458  1.00  0.00    -0.345 A  
HETATM   29  N   UNL     1     -11.566  15.568  64.547  1.00  0.00    -0.355 N  
HETATM   30  C   UNL     1      -9.559  15.157  65.947  1.00  0.00    -0.373 A  
ENDBRANCH  15  22
ENDBRANCH   6   8
ENDBRANCH   5   6
ENDBRANCH   4   5
ENDBRANCH   3   4
ENDBRANCH   2   3
TORSDOF 9
ENDMDL
MODEL      130
REMARK 921   NORMALIZED FREE ENERGY PREDICTED BY IDOCK:   -3.91 KCAL/MOL
REMARK 922        TOTAL FREE ENERGY PREDICTED BY IDOCK:   -7.54 KCAL/MOL
REMARK 923 INTER-LIGAND FREE ENERGY PREDICTED BY IDOCK:   -5.77 KCAL/MOL
REMARK 924 INTRA-LIGAND FREE ENERGY PREDICTED BY IDOCK:   -1.77 KCAL/MOL
REMARK 927      BINDING AFFINITY PREDICTED BY RF-SCORE:    0.00 PKD
ROOT
HETATM    1  C   UNL     1     -10.398   6.317  72.949  1.00  0.00    -0.207 C  
HETATM    2  O   UNL     1     -10.862   6.160  71.617  1.00  0.00    -0.239 OA 
ENDROOT
BRANCH   2   3
HETATM    3  C   UNL     1      -9.795   5.826  70.729  1.00  0.00    -0.183 C  
BRANCH   3   4
HETATM    4  C   UNL     1     -10.408   5.466  69.393  1.00  0.00    -0.269 C  
BRANCH   4   5
HETATM    5  O   UNL     1      -9.497   5.601  68.296  1.00  0.00    -0.110 OA 
BRANCH   5   6
HETATM    6  C   UNL     1     -10.104   5.946  67.137  1.00  0.00    -0.177 C  
HETATM    7  O   UNL     1     -11.205   5.548  66.789  1.00  0.00     0.011 OA 
BRANCH   6   8
HETATM    8  C   UNL     1      -9.246   6.828  66.303  1.00  0.00    -0.161 C  
HETATM    9  C   UNL     1      -8.303   6.357  65.449  1.00  0.00    -0.141 C  
HETATM   10  C   UNL     1      -7.805   4.941  65.259  1.00  0.00    -0.091 C  
HETATM   11  N   UNL     1      -7.682   7.235  64.586  1.00  0.00    -0.109 NA 
HETATM   12  C   UNL     1      -7.811   8.604  64.601  1.00  0.00    -0.129 C  
HETATM   13  C   UNL     1      -8.702   9.194  65.436  1.00  0.00    -0.217 C  
HETATM   14  C   UNL     1      -6.887   9.326  63.649  1.00  0.00    -0.092 C  
HETATM   15  C   UNL     1      -9.607   8.335  66.337  1.00  0.00    -0.300 C  
BRANCH  13  16
HETATM   16  C   UNL     1      -8.696  10.679  65.535  1.00  0.00    -0.188 C  
HETATM   17  O   UNL     1      -7.948  11.297  66.278  1.00  0.00    -0.155 OA 
BRANCH  16  18
HETATM   18  O   UNL     1      -9.626  11.268  64.738  1.00  0.00    -0.235 OA 
BRANCH  18  19
HETATM   19  C   UNL     1     -10.226  12.449  65.321  1.00  0.00    -0.282 C  
HETATM   20  C   UNL     1     -10.725  13.370  64.211  1.00  0.00    -0.374 C  
HETATM   21  C   UNL     1     -11.372  12.025  66.229  1.00  0.00    -0.415 C  
ENDBRANCH  18  19
ENDBRANCH  16  18
ENDBRANCH  13  16
BRANCH  15  22
HETATM   22  C   UNL     1      -9.635   8.845  67.783  1.00  0.00    -0.176 A  
HETATM   23  C   UNL     1      -8.485   8.744  68.589  1.00  0.00    -0.129 A  
HETATM   24  C   UNL     1     -10.790   9.432  68.322  1.00  0.00    -0.163 A  
HETATM   25  C   UNL     1      -8.486   9.213  69.904  1.00  0.00    -0.151 A  
HETATM   26  O   UNL     1     -12.990  10.597  69.460  1.00  0.00    -0.089 OA 
HETATM   27  O   UNL     1     -11.955  10.922  71.366  1.00  0.00    -0.220 OA 
HETATM   28  C   UNL     1     -10.784   9.900  69.643  1.00  0.00    -0.252 A  
HETATM   29  N   UNL     1     -11.998  10.518  70.193  1.00  0.00    -0.302 N  
HETATM   30  C   UNL     1      -9.637   9.793  70.436  1.00  0.00    -0.223 A  
ENDBRANCH  15  22
ENDBRANCH   6   8
ENDBRANCH   5   6
ENDBRANCH   4   5
ENDBRANCH   3   4
ENDBRANCH   2   3
TORSDOF 9
ENDMDL
MODEL      131
REMARK 921   NORMALIZED FREE ENERGY PREDICTED BY IDOCK:   -3.90 KCAL/MOL
REMARK 922        TOTAL FREE ENERGY PREDICTED BY IDOCK:   -7.54 KCAL/MOL
REMARK 923 INTER-LIGAND FREE ENERGY PREDICTED BY IDOCK:   -5.94 KCAL/MOL
REMARK 924 INTRA-LIGAND FREE ENERGY PREDICTED BY IDOCK:   -1.60 KCAL/MOL
REMARK 927      BINDING AFFINITY PREDICTED BY RF-SCORE:    0.00 PKD
ROOT
HETATM    1  C   UNL     1      -6.460   5.555  69.741  1.00  0.00    -0.041 C  
HETATM    2  O   UNL     1      -5.808   4.922  68.651  1.00  0.00    -0.019 OA 
ENDROOT
BRANCH   2   3
HETATM    3  C   UNL     1      -6.426   5.258  67.408  1.00  0.00    -0.052 C  
BRANCH   3   4
HETATM    4  C   UNL     1      -7.266   6.496  67.636  1.00  0.00    -0.090 C  
BRANCH   4   5
HETATM    5  O   UNL     1      -7.413   7.306  66.463  1.00  0.00    -0.084 OA 
BRANCH   5   6
HETATM    6  C   UNL     1      -8.690   7.381  66.023  1.00  0.00    -0.153 C  
HETATM    7  O   UNL     1      -9.470   6.441  66.004  1.00  0.00    -0.092 OA 
BRANCH   6   8
HETATM    8  C   UNL     1      -9.021   8.736  65.508  1.00  0.00    -0.231 C  
HETATM    9  C   UNL     1      -8.619   9.188  64.293  1.00  0.00    -0.175 C  
HETATM   10  C   UNL     1      -7.675   8.551  63.298  1.00  0.00    -0.138 C  
HETATM   11  N   UNL     1      -9.123  10.383  63.825  1.00  0.00    -0.224 NA 
HETATM   12  C   UNL     1      -9.893  11.269  64.541  1.00  0.00    -0.270 C  
HETATM   13  C   UNL     1     -10.329  10.940  65.783  1.00  0.00    -0.303 C  
HETATM   14  C   UNL     1     -10.163  12.574  63.832  1.00  0.00    -0.386 C  
HETATM   15  C   UNL     1     -10.005   9.558  66.378  1.00  0.00    -0.339 C  
BRANCH  13  16
HETATM   16  C   UNL     1     -11.023  11.984  66.584  1.00  0.00    -0.287 C  
HETATM   17  O   UNL     1     -12.239  12.050  66.687  1.00  0.00    -0.550 OA 
BRANCH  16  18
HETATM   18  O   UNL     1     -10.167  12.869  67.159  1.00  0.00    -0.235 OA 
BRANCH  18  19
HETATM   19  C   UNL     1     -10.578  14.249  67.019  1.00  0.00    -0.280 C  
HETATM   20  C   UNL     1     -11.013  14.794  68.377  1.00  0.00    -0.259 C  
HETATM   21  C   UNL     1      -9.415  15.057  66.458  1.00  0.00    -0.306 C  
ENDBRANCH  18  19
ENDBRANCH  16  18
ENDBRANCH  13  16
BRANCH  15  22
HETATM   22  C   UNL     1      -9.492   9.655  67.819  1.00  0.00    -0.146 A  
HETATM   23  C   UNL     1     -10.233   9.084  68.872  1.00  0.00    -0.223 A  
HETATM   24  C   UNL     1      -8.278  10.293  68.115  1.00  0.00    -0.114 A  
HETATM   25  C   UNL     1      -9.778   9.150  70.190  1.00  0.00    -0.234 A  
HETATM   26  O   UNL     1      -5.921  11.510  68.791  1.00  0.00    -0.046 OA 
HETATM   27  O   UNL     1      -6.184  11.059  70.921  1.00  0.00    -0.362 OA 
HETATM   28  C   UNL     1      -7.827  10.357  69.441  1.00  0.00    -0.161 A  
HETATM   29  N   UNL     1      -6.552  11.023  69.736  1.00  0.00    -0.132 N  
HETATM   30  C   UNL     1      -8.573   9.789  70.480  1.00  0.00    -0.003 A  
ENDBRANCH  15  22
ENDBRANCH   6   8
ENDBRANCH   5   6
ENDBRANCH   4   5
ENDBRANCH   3   4
ENDBRANCH   2   3
TORSDOF 9
ENDMDL
MODEL      132
REMARK 921   NORMALIZED FREE ENERGY PREDICTED BY IDOCK:   -3.90 KCAL/MOL
REMARK 922        TOTAL FREE ENERGY PREDICTED BY IDOCK:   -7.53 KCAL/MOL
REMARK 923 INTER-LIGAND FREE ENERGY PREDICTED BY IDOCK:   -6.21 KCAL/MOL
REMARK 924 INTRA-LIGAND FREE ENERGY PREDICTED BY IDOCK:   -1.32 KCAL/MOL
REMARK 927      BINDING AFFINITY PREDICTED BY RF-SCORE:    0.00 PKD
ROOT
HETATM    1  C   UNL     1     -13.332  13.619  71.737  1.00  0.00    -0.388 C  
HETATM    2  O   UNL     1     -13.718  12.406  72.365  1.00  0.00    -0.423 OA 
ENDROOT
BRANCH   2   3
HETATM    3  C   UNL     1     -13.130  11.276  71.719  1.00  0.00    -0.422 C  
BRANCH   3   4
HETATM    4  C   UNL     1     -12.411  11.778  70.487  1.00  0.00    -0.299 C  
BRANCH   4   5
HETATM    5  O   UNL     1     -12.154  10.751  69.522  1.00  0.00    -0.312 OA 
BRANCH   5   6
HETATM    6  C   UNL     1     -10.835  10.506  69.340  1.00  0.00    -0.249 C  
HETATM    7  O   UNL     1      -9.995  11.368  69.136  1.00  0.00    -0.121 OA 
BRANCH   6   8
HETATM    8  C   UNL     1     -10.533   9.051  69.363  1.00  0.00    -0.229 C  
HETATM    9  C   UNL     1     -10.342   8.348  70.508  1.00  0.00    -0.199 C  
HETATM   10  C   UNL     1     -10.233   8.848  71.931  1.00  0.00    -0.403 C  
HETATM   11  N   UNL     1     -10.248   6.974  70.442  1.00  0.00    -0.195 NA 
HETATM   12  C   UNL     1     -10.172   6.227  69.290  1.00  0.00    -0.193 C  
HETATM   13  C   UNL     1     -10.317   6.824  68.081  1.00  0.00    -0.219 C  
HETATM   14  C   UNL     1      -9.907   4.758  69.518  1.00  0.00    -0.292 C  
HETATM   15  C   UNL     1     -10.614   8.332  67.992  1.00  0.00    -0.188 C  
BRANCH  13  16
HETATM   16  C   UNL     1     -10.071   6.010  66.860  1.00  0.00    -0.185 C  
HETATM   17  O   UNL     1     -10.947   5.377  66.290  1.00  0.00    -0.221 OA 
BRANCH  16  18
HETATM   18  O   UNL     1      -8.770   6.022  66.468  1.00  0.00    -0.120 OA 
BRANCH  18  19
HETATM   19  C   UNL     1      -8.408   4.904  65.623  1.00  0.00    -0.121 C  
HETATM   20  C   UNL     1      -7.951   5.419  64.260  1.00  0.00    -0.118 C  
HETATM   21  C   UNL     1      -7.302   4.108  66.301  1.00  0.00    -0.080 C  
ENDBRANCH  18  19
ENDBRANCH  16  18
ENDBRANCH  13  16
BRANCH  15  22
HETATM   22  C   UNL     1      -9.721   9.037  66.965  1.00  0.00    -0.247 A  
HETATM   23  C   UNL     1     -10.249   9.424  65.718  1.00  0.00    -0.024 A  
HETATM   24  C   UNL     1      -8.377   9.325  67.249  1.00  0.00    -0.125 A  
HETATM   25  C   UNL     1      -9.456  10.079  64.774  1.00  0.00    -0.366 A  
HETATM   26  O   UNL     1      -5.749   9.934  67.711  1.00  0.00    -0.040 OA 
HETATM   27  O   UNL     1      -5.514  10.864  65.739  1.00  0.00    -0.122 OA 
HETATM   28  C   UNL     1      -7.586   9.981  66.295  1.00  0.00    -0.106 A  
HETATM   29  N   UNL     1      -6.183  10.281  66.608  1.00  0.00    -0.066 N  
HETATM   30  C   UNL     1      -8.121  10.359  65.059  1.00  0.00    -0.136 A  
ENDBRANCH  15  22
ENDBRANCH   6   8
ENDBRANCH   5   6
ENDBRANCH   4   5
ENDBRANCH   3   4
ENDBRANCH   2   3
TORSDOF 9
ENDMDL
MODEL      133
REMARK 921   NORMALIZED FREE ENERGY PREDICTED BY IDOCK:   -3.88 KCAL/MOL
REMARK 922        TOTAL FREE ENERGY PREDICTED BY IDOCK:   -7.51 KCAL/MOL
REMARK 923 INTER-LIGAND FREE ENERGY PREDICTED BY IDOCK:   -6.34 KCAL/MOL
REMARK 924 INTRA-LIGAND FREE ENERGY PREDICTED BY IDOCK:   -1.17 KCAL/MOL
REMARK 927      BINDING AFFINITY PREDICTED BY RF-SCORE:    0.00 PKD
ROOT
HETATM    1  C   UNL     1      -7.686   2.994  66.683  1.00  0.00    -0.076 C  
HETATM    2  O   UNL     1      -8.197   4.307  66.857  1.00  0.00    -0.101 OA 
ENDROOT
BRANCH   2   3
HETATM    3  C   UNL     1      -7.651   4.929  68.021  1.00  0.00    -0.082 C  
BRANCH   3   4
HETATM    4  C   UNL     1      -8.346   6.262  68.193  1.00  0.00    -0.115 C  
BRANCH   4   5
HETATM    5  O   UNL     1      -8.521   6.973  66.962  1.00  0.00    -0.119 OA 
BRANCH   5   6
HETATM    6  C   UNL     1      -9.793   7.391  66.764  1.00  0.00    -0.220 C  
HETATM    7  O   UNL     1     -10.774   6.665  66.809  1.00  0.00    -0.292 OA 
BRANCH   6   8
HETATM    8  C   UNL     1      -9.855   8.837  66.425  1.00  0.00    -0.352 C  
HETATM    9  C   UNL     1      -9.408   9.346  65.249  1.00  0.00    -0.238 C  
HETATM   10  C   UNL     1      -8.647   8.659  64.137  1.00  0.00    -0.033 C  
HETATM   11  N   UNL     1      -9.670  10.666  64.948  1.00  0.00    -0.257 NA 
HETATM   12  C   UNL     1     -10.219  11.593  65.803  1.00  0.00    -0.240 C  
HETATM   13  C   UNL     1     -10.673  11.208  67.022  1.00  0.00    -0.316 C  
HETATM   14  C   UNL     1     -10.238  13.002  65.263  1.00  0.00    -0.294 C  
HETATM   15  C   UNL     1     -10.621   9.727  67.436  1.00  0.00    -0.330 C  
BRANCH  13  16
HETATM   16  C   UNL     1     -11.112  12.264  67.974  1.00  0.00    -0.239 C  
HETATM   17  O   UNL     1     -12.229  12.294  68.471  1.00  0.00    -0.240 OA 
BRANCH  16  18
HETATM   18  O   UNL     1     -10.156  13.201  68.206  1.00  0.00    -0.237 OA 
BRANCH  18  19
HETATM   19  C   UNL     1     -10.679  14.449  68.719  1.00  0.00    -0.252 C  
HETATM   20  C   UNL     1      -9.552  15.246  69.371  1.00  0.00    -0.245 C  
HETATM   21  C   UNL     1     -11.305  15.232  67.573  1.00  0.00    -0.300 C  
ENDBRANCH  18  19
ENDBRANCH  16  18
ENDBRANCH  13  16
BRANCH  15  22
HETATM   22  C   UNL     1     -10.053   9.542  68.849  1.00  0.00    -0.199 A  
HETATM   23  C   UNL     1     -10.895   9.129  69.899  1.00  0.00    -0.242 A  
HETATM   24  C   UNL     1      -8.693   9.761  69.118  1.00  0.00    -0.155 A  
HETATM   25  C   UNL     1     -10.396   8.943  71.190  1.00  0.00    -0.338 A  
HETATM   26  O   UNL     1      -6.058  10.157  69.740  1.00  0.00    -0.042 OA 
HETATM   27  O   UNL     1      -6.371   9.623  71.843  1.00  0.00    -0.300 OA 
HETATM   28  C   UNL     1      -8.199   9.574  70.416  1.00  0.00    -0.190 A  
HETATM   29  N   UNL     1      -6.773   9.801  70.682  1.00  0.00    -0.119 N  
HETATM   30  C   UNL     1      -9.045   9.166  71.453  1.00  0.00    -0.179 A  
ENDBRANCH  15  22
ENDBRANCH   6   8
ENDBRANCH   5   6
ENDBRANCH   4   5
ENDBRANCH   3   4
ENDBRANCH   2   3
TORSDOF 9
ENDMDL
MODEL      134
REMARK 921   NORMALIZED FREE ENERGY PREDICTED BY IDOCK:   -3.88 KCAL/MOL
REMARK 922        TOTAL FREE ENERGY PREDICTED BY IDOCK:   -7.50 KCAL/MOL
REMARK 923 INTER-LIGAND FREE ENERGY PREDICTED BY IDOCK:   -5.86 KCAL/MOL
REMARK 924 INTRA-LIGAND FREE ENERGY PREDICTED BY IDOCK:   -1.65 KCAL/MOL
REMARK 927      BINDING AFFINITY PREDICTED BY RF-SCORE:    0.00 PKD
ROOT
HETATM    1  C   UNL     1     -12.867  12.469  71.222  1.00  0.00    -0.241 C  
HETATM    2  O   UNL     1     -12.499  11.123  70.965  1.00  0.00    -0.367 OA 
ENDROOT
BRANCH   2   3
HETATM    3  C   UNL     1     -13.284  10.212  71.736  1.00  0.00    -0.438 C  
BRANCH   3   4
HETATM    4  C   UNL     1     -12.589   8.868  71.698  1.00  0.00    -0.346 C  
BRANCH   4   5
HETATM    5  O   UNL     1     -11.851   8.644  70.491  1.00  0.00    -0.174 OA 
BRANCH   5   6
HETATM    6  C   UNL     1     -10.545   8.363  70.708  1.00  0.00    -0.207 C  
HETATM    7  O   UNL     1      -9.754   9.125  71.241  1.00  0.00    -0.283 OA 
BRANCH   6   8
HETATM    8  C   UNL     1     -10.168   7.031  70.166  1.00  0.00    -0.206 C  
HETATM    9  C   UNL     1      -9.735   6.007  70.944  1.00  0.00    -0.174 C  
HETATM   10  C   UNL     1      -9.394   6.003  72.418  1.00  0.00    -0.150 C  
HETATM   11  N   UNL     1      -9.582   4.757  70.382  1.00  0.00    -0.178 NA 
HETATM   12  C   UNL     1      -9.678   4.460  69.043  1.00  0.00    -0.153 C  
HETATM   13  C   UNL     1     -10.072   5.413  68.162  1.00  0.00    -0.220 C  
HETATM   14  C   UNL     1      -9.299   3.041  68.692  1.00  0.00    -0.237 C  
HETATM   15  C   UNL     1     -10.460   6.816  68.659  1.00  0.00    -0.232 C  
BRANCH  13  16
HETATM   16  C   UNL     1     -10.010   5.096  66.709  1.00  0.00    -0.206 C  
HETATM   17  O   UNL     1     -10.993   4.798  66.047  1.00  0.00    -0.213 OA 
BRANCH  16  18
HETATM   18  O   UNL     1      -8.748   5.144  66.208  1.00  0.00    -0.116 OA 
BRANCH  18  19
HETATM   19  C   UNL     1      -8.662   4.770  64.813  1.00  0.00    -0.153 C  
HETATM   20  C   UNL     1      -8.033   5.910  64.015  1.00  0.00    -0.121 C  
HETATM   21  C   UNL     1      -7.831   3.500  64.691  1.00  0.00    -0.085 C  
ENDBRANCH  18  19
ENDBRANCH  16  18
ENDBRANCH  13  16
BRANCH  15  22
HETATM   22  C   UNL     1      -9.807   7.926  67.826  1.00  0.00    -0.204 A  
HETATM   23  C   UNL     1     -10.583   8.681  66.925  1.00  0.00    -0.270 A  
HETATM   24  C   UNL     1      -8.441   8.220  67.953  1.00  0.00    -0.132 A  
HETATM   25  C   UNL     1     -10.011   9.703  66.166  1.00  0.00    -0.346 A  
HETATM   26  O   UNL     1      -5.789   8.873  68.136  1.00  0.00    -0.041 OA 
HETATM   27  O   UNL     1      -5.976  10.466  66.641  1.00  0.00    -0.058 OA 
HETATM   28  C   UNL     1      -7.873   9.247  67.187  1.00  0.00    -0.099 A  
HETATM   29  N   UNL     1      -6.444   9.549  67.335  1.00  0.00    -0.068 N  
HETATM   30  C   UNL     1      -8.653   9.990  66.293  1.00  0.00    -0.137 A  
ENDBRANCH  15  22
ENDBRANCH   6   8
ENDBRANCH   5   6
ENDBRANCH   4   5
ENDBRANCH   3   4
ENDBRANCH   2   3
TORSDOF 9
ENDMDL
MODEL      135
REMARK 921   NORMALIZED FREE ENERGY PREDICTED BY IDOCK:   -3.87 KCAL/MOL
REMARK 922        TOTAL FREE ENERGY PREDICTED BY IDOCK:   -7.49 KCAL/MOL
REMARK 923 INTER-LIGAND FREE ENERGY PREDICTED BY IDOCK:   -5.89 KCAL/MOL
REMARK 924 INTRA-LIGAND FREE ENERGY PREDICTED BY IDOCK:   -1.60 KCAL/MOL
REMARK 927      BINDING AFFINITY PREDICTED BY RF-SCORE:    0.00 PKD
ROOT
HETATM    1  C   UNL     1     -11.658  15.346  68.343  1.00  0.00    -0.354 C  
HETATM    2  O   UNL     1     -11.426  15.069  66.970  1.00  0.00    -0.344 OA 
ENDROOT
BRANCH   2   3
HETATM    3  C   UNL     1     -12.014  13.827  66.582  1.00  0.00    -0.431 C  
BRANCH   3   4
HETATM    4  C   UNL     1     -11.795  12.847  67.714  1.00  0.00    -0.339 C  
BRANCH   4   5
HETATM    5  O   UNL     1     -11.167  11.628  67.296  1.00  0.00    -0.271 OA 
BRANCH   5   6
HETATM    6  C   UNL     1      -9.823  11.735  67.174  1.00  0.00    -0.193 C  
HETATM    7  O   UNL     1      -9.156  12.636  67.657  1.00  0.00    -0.176 OA 
BRANCH   6   8
HETATM    8  C   UNL     1      -9.256  10.651  66.328  1.00  0.00    -0.193 C  
HETATM    9  C   UNL     1      -9.547  10.507  65.010  1.00  0.00    -0.276 C  
HETATM   10  C   UNL     1     -10.561  11.247  64.167  1.00  0.00    -0.437 C  
HETATM   11  N   UNL     1      -8.837   9.589  64.266  1.00  0.00    -0.217 NA 
HETATM   12  C   UNL     1      -7.946   8.667  64.762  1.00  0.00    -0.141 C  
HETATM   13  C   UNL     1      -7.601   8.692  66.073  1.00  0.00    -0.093 C  
HETATM   14  C   UNL     1      -7.442   7.676  63.740  1.00  0.00    -0.105 C  
HETATM   15  C   UNL     1      -8.168   9.779  67.003  1.00  0.00    -0.117 C  
BRANCH  13  16
HETATM   16  C   UNL     1      -6.759   7.584  66.601  1.00  0.00    -0.058 C  
HETATM   17  O   UNL     1      -5.572   7.711  66.860  1.00  0.00    -0.029 OA 
BRANCH  16  18
HETATM   18  O   UNL     1      -7.441   6.416  66.734  1.00  0.00    -0.083 OA 
BRANCH  18  19
HETATM   19  C   UNL     1      -6.716   5.400  67.466  1.00  0.00    -0.055 C  
HETATM   20  C   UNL     1      -7.128   5.435  68.935  1.00  0.00    -0.061 C  
HETATM   21  C   UNL     1      -7.013   4.039  66.851  1.00  0.00    -0.059 C  
ENDBRANCH  18  19
ENDBRANCH  16  18
ENDBRANCH  13  16
BRANCH  15  22
HETATM   22  C   UNL     1      -8.692   9.197  68.322  1.00  0.00    -0.129 A  
HETATM   23  C   UNL     1      -8.200   9.678  69.550  1.00  0.00    -0.136 A  
HETATM   24  C   UNL     1      -9.673   8.194  68.332  1.00  0.00    -0.172 A  
HETATM   25  C   UNL     1      -8.672   9.171  70.762  1.00  0.00    -0.285 A  
HETATM   26  O   UNL     1     -11.590   6.244  68.456  1.00  0.00    -0.077 OA 
HETATM   27  O   UNL     1     -11.566   6.220  70.649  1.00  0.00    -0.353 OA 
HETATM   28  C   UNL     1     -10.142   7.688  69.552  1.00  0.00    -0.192 A  
HETATM   29  N   UNL     1     -11.174   6.644  69.549  1.00  0.00    -0.329 N  
HETATM   30  C   UNL     1      -9.645   8.172  70.767  1.00  0.00    -0.185 A  
ENDBRANCH  15  22
ENDBRANCH   6   8
ENDBRANCH   5   6
ENDBRANCH   4   5
ENDBRANCH   3   4
ENDBRANCH   2   3
TORSDOF 9
ENDMDL
MODEL      136
REMARK 921   NORMALIZED FREE ENERGY PREDICTED BY IDOCK:   -3.83 KCAL/MOL
REMARK 922        TOTAL FREE ENERGY PREDICTED BY IDOCK:   -7.43 KCAL/MOL
REMARK 923 INTER-LIGAND FREE ENERGY PREDICTED BY IDOCK:   -7.57 KCAL/MOL
REMARK 924 INTRA-LIGAND FREE ENERGY PREDICTED BY IDOCK:    0.14 KCAL/MOL
REMARK 927      BINDING AFFINITY PREDICTED BY RF-SCORE:    0.00 PKD
ROOT
HETATM    1  C   UNL     1      -9.546  20.383  67.274  1.00  0.00    -0.452 C  
HETATM    2  O   UNL     1      -9.569  19.148  67.975  1.00  0.00    -0.305 OA 
ENDROOT
BRANCH   2   3
HETATM    3  C   UNL     1     -10.383  18.184  67.306  1.00  0.00    -0.386 C  
BRANCH   3   4
HETATM    4  C   UNL     1      -9.729  17.883  65.974  1.00  0.00    -0.129 C  
BRANCH   4   5
HETATM    5  O   UNL     1      -9.519  16.484  65.749  1.00  0.00    -0.484 OA 
BRANCH   5   6
HETATM    6  C   UNL     1     -10.474  15.918  64.975  1.00  0.00    -0.266 C  
HETATM    7  O   UNL     1     -11.244  16.542  64.263  1.00  0.00    -0.992 OA 
BRANCH   6   8
HETATM    8  C   UNL     1     -10.514  14.441  65.136  1.00  0.00    -0.437 C  
HETATM    9  C   UNL     1     -11.347  13.637  64.427  1.00  0.00    -0.374 C  
HETATM   10  C   UNL     1     -12.471  14.015  63.487  1.00  0.00     0.158 C  
HETATM   11  N   UNL     1     -11.190  12.270  64.510  1.00  0.00    -0.312 NA 
HETATM   12  C   UNL     1     -10.353  11.607  65.377  1.00  0.00    -0.267 C  
HETATM   13  C   UNL     1      -9.495  12.306  66.161  1.00  0.00    -0.221 C  
HETATM   14  C   UNL     1     -10.507  10.106  65.364  1.00  0.00    -0.054 C  
HETATM   15  C   UNL     1      -9.419  13.839  66.053  1.00  0.00    -0.125 C  
BRANCH  13  16
HETATM   16  C   UNL     1      -8.724  11.564  67.195  1.00  0.00    -0.160 C  
HETATM   17  O   UNL     1      -7.630  11.063  66.981  1.00  0.00    -0.113 OA 
BRANCH  16  18
HETATM   18  O   UNL     1      -9.376  11.477  68.384  1.00  0.00    -0.186 OA 
BRANCH  18  19
HETATM   19  C   UNL     1      -9.904  10.159  68.662  1.00  0.00    -0.162 C  
HETATM   20  C   UNL     1      -9.101   9.512  69.787  1.00  0.00    -0.219 C  
HETATM   21  C   UNL     1     -11.372  10.286  69.047  1.00  0.00    -0.237 C  
ENDBRANCH  18  19
ENDBRANCH  16  18
ENDBRANCH  13  16
BRANCH  15  22
HETATM   22  C   UNL     1      -9.441  14.518  67.428  1.00  0.00    -0.202 A  
HETATM   23  C   UNL     1      -8.279  15.135  67.928  1.00  0.00    -0.152 A  
HETATM   24  C   UNL     1     -10.612  14.552  68.201  1.00  0.00    -0.238 A  
HETATM   25  C   UNL     1      -8.280  15.769  69.172  1.00  0.00    -0.247 A  
HETATM   26  O   UNL     1     -12.846  14.678  69.777  1.00  0.00    -0.121 OA 
HETATM   27  O   UNL     1     -11.798  15.798  71.345  1.00  0.00    -0.361 OA 
HETATM   28  C   UNL     1     -10.606  15.190  69.449  1.00  0.00    -0.255 A  
HETATM   29  N   UNL     1     -11.840  15.224  70.245  1.00  0.00    -0.292 N  
HETATM   30  C   UNL     1      -9.445  15.798  69.938  1.00  0.00     0.022 A  
ENDBRANCH  15  22
ENDBRANCH   6   8
ENDBRANCH   5   6
ENDBRANCH   4   5
ENDBRANCH   3   4
ENDBRANCH   2   3
TORSDOF 9
ENDMDL
MODEL      137
REMARK 921   NORMALIZED FREE ENERGY PREDICTED BY IDOCK:   -3.82 KCAL/MOL
REMARK 922        TOTAL FREE ENERGY PREDICTED BY IDOCK:   -7.41 KCAL/MOL
REMARK 923 INTER-LIGAND FREE ENERGY PREDICTED BY IDOCK:   -7.74 KCAL/MOL
REMARK 924 INTRA-LIGAND FREE ENERGY PREDICTED BY IDOCK:    0.32 KCAL/MOL
REMARK 927      BINDING AFFINITY PREDICTED BY RF-SCORE:    0.00 PKD
ROOT
HETATM    1  C   UNL     1      -7.136  19.614  68.606  1.00  0.00    -0.334 C  
HETATM    2  O   UNL     1      -7.670  19.472  67.298  1.00  0.00    -0.246 OA 
ENDROOT
BRANCH   2   3
HETATM    3  C   UNL     1      -7.336  18.203  66.734  1.00  0.00    -0.209 C  
BRANCH   3   4
HETATM    4  C   UNL     1      -8.427  17.840  65.751  1.00  0.00     0.293 C  
BRANCH   4   5
HETATM    5  O   UNL     1      -8.822  16.465  65.823  1.00  0.00    -0.446 OA 
BRANCH   5   6
HETATM    6  C   UNL     1     -10.164  16.293  65.818  1.00  0.00    -0.367 C  
HETATM    7  O   UNL     1     -10.888  16.543  64.867  1.00  0.00    -0.684 OA 
BRANCH   6   8
HETATM    8  C   UNL     1     -10.667  15.815  67.133  1.00  0.00    -0.312 C  
HETATM    9  C   UNL     1     -10.822  16.626  68.210  1.00  0.00    -0.356 C  
HETATM   10  C   UNL     1     -10.406  18.069  68.389  1.00  0.00    -0.377 C  
HETATM   11  N   UNL     1     -11.463  16.137  69.329  1.00  0.00    -0.327 NA 
HETATM   12  C   UNL     1     -11.838  14.830  69.535  1.00  0.00    -0.326 C  
HETATM   13  C   UNL     1     -11.701  13.919  68.540  1.00  0.00    -0.390 C  
HETATM   14  C   UNL     1     -12.370  14.547  70.919  1.00  0.00    -0.415 C  
HETATM   15  C   UNL     1     -11.171  14.350  67.161  1.00  0.00    -0.337 C  
BRANCH  13  16
HETATM   16  C   UNL     1     -11.969  12.489  68.854  1.00  0.00    -0.236 C  
HETATM   17  O   UNL     1     -12.318  11.673  68.013  1.00  0.00    -0.429 OA 
BRANCH  16  18
HETATM   18  O   UNL     1     -11.816  12.197  70.172  1.00  0.00    -0.333 OA 
BRANCH  18  19
HETATM   19  C   UNL     1     -12.358  10.909  70.549  1.00  0.00    -0.374 C  
HETATM   20  C   UNL     1     -11.222   9.900  70.696  1.00  0.00    -0.416 C  
HETATM   21  C   UNL     1     -13.124  11.058  71.856  1.00  0.00    -0.525 C  
ENDBRANCH  18  19
ENDBRANCH  16  18
ENDBRANCH  13  16
BRANCH  15  22
HETATM   22  C   UNL     1     -10.085  13.401  66.637  1.00  0.00    -0.275 A  
HETATM   23  C   UNL     1     -10.400  12.443  65.655  1.00  0.00    -0.284 A  
HETATM   24  C   UNL     1      -8.766  13.478  67.109  1.00  0.00    -0.222 A  
HETATM   25  C   UNL     1      -9.425  11.578  65.155  1.00  0.00    -0.190 A  
HETATM   26  O   UNL     1      -6.166  13.555  67.960  1.00  0.00    -0.105 OA 
HETATM   27  O   UNL     1      -5.577  11.914  66.631  1.00  0.00    -0.261 OA 
HETATM   28  C   UNL     1      -7.791  12.606  66.604  1.00  0.00     0.318 A  
HETATM   29  N   UNL     1      -6.413  12.702  67.102  1.00  0.00    -0.096 N  
HETATM   30  C   UNL     1      -8.116  11.656  65.630  1.00  0.00     0.526 A  
ENDBRANCH  15  22
ENDBRANCH   6   8
ENDBRANCH   5   6
ENDBRANCH   4   5
ENDBRANCH   3   4
ENDBRANCH   2   3
TORSDOF 9
ENDMDL
MODEL      138
REMARK 921   NORMALIZED FREE ENERGY PREDICTED BY IDOCK:   -3.82 KCAL/MOL
REMARK 922        TOTAL FREE ENERGY PREDICTED BY IDOCK:   -7.41 KCAL/MOL
REMARK 923 INTER-LIGAND FREE ENERGY PREDICTED BY IDOCK:   -6.87 KCAL/MOL
REMARK 924 INTRA-LIGAND FREE ENERGY PREDICTED BY IDOCK:   -0.53 KCAL/MOL
REMARK 927      BINDING AFFINITY PREDICTED BY RF-SCORE:    0.00 PKD
ROOT
HETATM    1  C   UNL     1      -9.843  19.838  65.863  1.00  0.00    -0.332 C  
HETATM    2  O   UNL     1      -9.306  18.527  65.965  1.00  0.00    -0.496 OA 
ENDROOT
BRANCH   2   3
HETATM    3  C   UNL     1     -10.324  17.570  66.261  1.00  0.00    -0.335 C  
BRANCH   3   4
HETATM    4  C   UNL     1     -10.772  16.962  64.950  1.00  0.00     0.063 C  
BRANCH   4   5
HETATM    5  O   UNL     1     -10.337  15.608  64.774  1.00  0.00    -0.422 OA 
BRANCH   5   6
HETATM    6  C   UNL     1     -11.359  14.733  64.629  1.00  0.00    -0.366 C  
HETATM    7  O   UNL     1     -12.499  15.048  64.326  1.00  0.00    -0.652 OA 
BRANCH   6   8
HETATM    8  C   UNL     1     -10.944  13.340  64.940  1.00  0.00    -0.345 C  
HETATM    9  C   UNL     1     -11.649  12.249  64.547  1.00  0.00    -0.353 C  
HETATM   10  C   UNL     1     -13.010  12.173  63.890  1.00  0.00    -0.323 C  
HETATM   11  N   UNL     1     -11.097  10.997  64.721  1.00  0.00    -0.079 NA 
HETATM   12  C   UNL     1      -9.940  10.716  65.409  1.00  0.00    -0.281 C  
HETATM   13  C   UNL     1      -9.166  11.727  65.878  1.00  0.00    -0.178 C  
HETATM   14  C   UNL     1      -9.662   9.243  65.583  1.00  0.00    -0.302 C  
HETATM   15  C   UNL     1      -9.552  13.191  65.603  1.00  0.00    -0.015 C  
BRANCH  13  16
HETATM   16  C   UNL     1      -8.011  11.381  66.750  1.00  0.00    -0.160 C  
HETATM   17  O   UNL     1      -6.886  11.173  66.319  1.00  0.00    -0.123 OA 
BRANCH  16  18
HETATM   18  O   UNL     1      -8.345  11.291  68.064  1.00  0.00    -0.125 OA 
BRANCH  18  19
HETATM   19  C   UNL     1      -7.211  11.091  68.940  1.00  0.00    -0.103 C  
HETATM   20  C   UNL     1      -6.760  12.435  69.508  1.00  0.00     0.015 C  
HETATM   21  C   UNL     1      -7.610  10.137  70.057  1.00  0.00    -0.164 C  
ENDBRANCH  18  19
ENDBRANCH  16  18
ENDBRANCH  13  16
BRANCH  15  22
HETATM   22  C   UNL     1      -9.466  14.058  66.865  1.00  0.00    -0.271 A  
HETATM   23  C   UNL     1     -10.558  14.122  67.752  1.00  0.00    -0.243 A  
HETATM   24  C   UNL     1      -8.304  14.784  67.168  1.00  0.00    -0.240 A  
HETATM   25  C   UNL     1     -10.496  14.895  68.913  1.00  0.00    -0.242 A  
HETATM   26  O   UNL     1      -6.082  16.230  67.849  1.00  0.00    -0.106 OA 
HETATM   27  O   UNL     1      -7.013  16.984  69.686  1.00  0.00    -0.144 OA 
HETATM   28  C   UNL     1      -8.250  15.560  68.335  1.00  0.00    -0.145 A  
HETATM   29  N   UNL     1      -7.026  16.310  68.643  1.00  0.00    -0.140 N  
HETATM   30  C   UNL     1      -9.341  15.618  69.208  1.00  0.00    -0.267 A  
ENDBRANCH  15  22
ENDBRANCH   6   8
ENDBRANCH   5   6
ENDBRANCH   4   5
ENDBRANCH   3   4
ENDBRANCH   2   3
TORSDOF 9
ENDMDL
MODEL      139
REMARK 921   NORMALIZED FREE ENERGY PREDICTED BY IDOCK:   -3.82 KCAL/MOL
REMARK 922        TOTAL FREE ENERGY PREDICTED BY IDOCK:   -7.40 KCAL/MOL
REMARK 923 INTER-LIGAND FREE ENERGY PREDICTED BY IDOCK:   -6.01 KCAL/MOL
REMARK 924 INTRA-LIGAND FREE ENERGY PREDICTED BY IDOCK:   -1.39 KCAL/MOL
REMARK 927      BINDING AFFINITY PREDICTED BY RF-SCORE:    0.00 PKD
ROOT
HETATM    1  C   UNL     1     -11.876  12.927  65.719  1.00  0.00    -0.419 C  
HETATM    2  O   UNL     1     -10.499  12.585  65.719  1.00  0.00    -0.260 OA 
ENDROOT
BRANCH   2   3
HETATM    3  C   UNL     1     -10.289  11.265  65.217  1.00  0.00    -0.280 C  
BRANCH   3   4
HETATM    4  C   UNL     1     -10.411  10.309  66.383  1.00  0.00    -0.195 C  
BRANCH   4   5
HETATM    5  O   UNL     1      -9.492  10.591  67.446  1.00  0.00    -0.152 OA 
BRANCH   5   6
HETATM    6  C   UNL     1      -8.609   9.589  67.668  1.00  0.00    -0.122 C  
HETATM    7  O   UNL     1      -7.919   9.073  66.803  1.00  0.00    -0.105 OA 
BRANCH   6   8
HETATM    8  C   UNL     1      -8.618   9.147  69.088  1.00  0.00    -0.133 C  
HETATM    9  C   UNL     1      -7.795   9.667  70.034  1.00  0.00    -0.165 C  
HETATM   10  C   UNL     1      -6.640  10.630  69.873  1.00  0.00    -0.137 C  
HETATM   11  N   UNL     1      -7.997   9.328  71.355  1.00  0.00    -0.322 NA 
HETATM   12  C   UNL     1      -8.873   8.374  71.817  1.00  0.00    -0.195 C  
HETATM   13  C   UNL     1      -9.726   7.762  70.958  1.00  0.00    -0.174 C  
HETATM   14  C   UNL     1      -8.766   8.096  73.297  1.00  0.00    -0.313 C  
HETATM   15  C   UNL     1      -9.752   8.164  69.473  1.00  0.00    -0.170 C  
BRANCH  13  16
HETATM   16  C   UNL     1     -10.543   6.627  71.468  1.00  0.00    -0.222 C  
HETATM   17  O   UNL     1     -11.764   6.606  71.416  1.00  0.00    -0.293 OA 
BRANCH  16  18
HETATM   18  O   UNL     1      -9.793   5.639  72.021  1.00  0.00    -0.160 OA 
BRANCH  18  19
HETATM   19  C   UNL     1     -10.577   4.567  72.596  1.00  0.00    -0.179 C  
HETATM   20  C   UNL     1      -9.973   3.222  72.202  1.00  0.00    -0.231 C  
HETATM   21  C   UNL     1     -10.600   4.729  74.110  1.00  0.00    -0.351 C  
ENDBRANCH  18  19
ENDBRANCH  16  18
ENDBRANCH  13  16
BRANCH  15  22
HETATM   22  C   UNL     1      -9.739   6.944  68.544  1.00  0.00    -0.138 A  
HETATM   23  C   UNL     1     -10.831   6.697  67.690  1.00  0.00    -0.393 A  
HETATM   24  C   UNL     1      -8.644   6.067  68.513  1.00  0.00    -0.111 A  
HETATM   25  C   UNL     1     -10.835   5.599  66.827  1.00  0.00    -0.296 A  
HETATM   26  O   UNL     1      -6.555   4.304  68.377  1.00  0.00    -0.043 OA 
HETATM   27  O   UNL     1      -7.544   3.096  66.838  1.00  0.00    -0.074 OA 
HETATM   28  C   UNL     1      -8.655   4.966  67.646  1.00  0.00    -0.103 A  
HETATM   29  N   UNL     1      -7.500   4.059  67.620  1.00  0.00    -0.068 N  
HETATM   30  C   UNL     1      -9.746   4.728  66.803  1.00  0.00    -0.203 A  
ENDBRANCH  15  22
ENDBRANCH   6   8
ENDBRANCH   5   6
ENDBRANCH   4   5
ENDBRANCH   3   4
ENDBRANCH   2   3
TORSDOF 9
ENDMDL
MODEL      140
REMARK 921   NORMALIZED FREE ENERGY PREDICTED BY IDOCK:   -3.81 KCAL/MOL
REMARK 922        TOTAL FREE ENERGY PREDICTED BY IDOCK:   -7.39 KCAL/MOL
REMARK 923 INTER-LIGAND FREE ENERGY PREDICTED BY IDOCK:   -7.35 KCAL/MOL
REMARK 924 INTRA-LIGAND FREE ENERGY PREDICTED BY IDOCK:   -0.04 KCAL/MOL
REMARK 927      BINDING AFFINITY PREDICTED BY RF-SCORE:    0.00 PKD
ROOT
HETATM    1  C   UNL     1      -8.805  16.325  66.213  1.00  0.00    -0.331 C  
HETATM    2  O   UNL     1      -9.492  15.083  66.210  1.00  0.00    -0.275 OA 
ENDROOT
BRANCH   2   3
HETATM    3  C   UNL     1     -10.836  15.232  65.751  1.00  0.00    -0.358 C  
BRANCH   3   4
HETATM    4  C   UNL     1     -11.743  14.601  66.784  1.00  0.00    -0.341 C  
BRANCH   4   5
HETATM    5  O   UNL     1     -11.191  13.420  67.378  1.00  0.00    -0.270 OA 
BRANCH   5   6
HETATM    6  C   UNL     1     -11.364  12.311  66.622  1.00  0.00    -0.343 C  
HETATM    7  O   UNL     1     -12.281  12.150  65.832  1.00  0.00    -0.604 OA 
BRANCH   6   8
HETATM    8  C   UNL     1     -10.332  11.280  66.907  1.00  0.00    -0.272 C  
HETATM    9  C   UNL     1      -9.763  10.510  65.945  1.00  0.00    -0.217 C  
HETATM   10  C   UNL     1     -10.116  10.395  64.478  1.00  0.00    -0.365 C  
HETATM   11  N   UNL     1      -8.689   9.711  66.275  1.00  0.00    -0.140 NA 
HETATM   12  C   UNL     1      -8.213   9.486  67.546  1.00  0.00    -0.121 C  
HETATM   13  C   UNL     1      -8.727  10.174  68.595  1.00  0.00    -0.128 C  
HETATM   14  C   UNL     1      -7.132   8.436  67.628  1.00  0.00    -0.083 C  
HETATM   15  C   UNL     1      -9.810  11.244  68.366  1.00  0.00    -0.200 C  
BRANCH  13  16
HETATM   16  C   UNL     1      -8.298   9.789  69.967  1.00  0.00    -0.192 C  
HETATM   17  O   UNL     1      -7.325  10.274  70.525  1.00  0.00    -0.281 OA 
BRANCH  16  18
HETATM   18  O   UNL     1      -9.081   8.824  70.517  1.00  0.00    -0.151 OA 
BRANCH  18  19
HETATM   19  C   UNL     1      -8.471   7.512  70.518  1.00  0.00    -0.133 C  
HETATM   20  C   UNL     1      -8.451   6.958  71.941  1.00  0.00    -0.114 C  
HETATM   21  C   UNL     1      -9.261   6.598  69.592  1.00  0.00    -0.145 C  
ENDBRANCH  18  19
ENDBRANCH  16  18
ENDBRANCH  13  16
BRANCH  15  22
HETATM   22  C   UNL     1     -10.979  11.102  69.348  1.00  0.00    -0.298 A  
HETATM   23  C   UNL     1     -11.622   9.859  69.504  1.00  0.00    -0.056 A  
HETATM   24  C   UNL     1     -11.418  12.192  70.116  1.00  0.00    -0.066 A  
HETATM   25  C   UNL     1     -12.681   9.705  70.402  1.00  0.00     0.146 A  
HETATM   26  O   UNL     1     -12.340  14.254  71.660  1.00  0.00    -0.343 OA 
HETATM   27  O   UNL     1     -13.870  12.997  72.601  1.00  0.00    -0.653 OA 
HETATM   28  C   UNL     1     -12.482  12.031  71.014  1.00  0.00    -0.276 A  
HETATM   29  N   UNL     1     -12.926  13.178  71.816  1.00  0.00    -0.360 N  
HETATM   30  C   UNL     1     -13.115  10.792  71.160  1.00  0.00    -0.381 A  
ENDBRANCH  15  22
ENDBRANCH   6   8
ENDBRANCH   5   6
ENDBRANCH   4   5
ENDBRANCH   3   4
ENDBRANCH   2   3
TORSDOF 9
ENDMDL
MODEL      141
REMARK 921   NORMALIZED FREE ENERGY PREDICTED BY IDOCK:   -3.79 KCAL/MOL
REMARK 922        TOTAL FREE ENERGY PREDICTED BY IDOCK:   -7.36 KCAL/MOL
REMARK 923 INTER-LIGAND FREE ENERGY PREDICTED BY IDOCK:   -5.54 KCAL/MOL
REMARK 924 INTRA-LIGAND FREE ENERGY PREDICTED BY IDOCK:   -1.82 KCAL/MOL
REMARK 927      BINDING AFFINITY PREDICTED BY RF-SCORE:    0.00 PKD
ROOT
HETATM    1  C   UNL     1     -12.179  12.572  65.049  1.00  0.00    -0.456 C  
HETATM    2  O   UNL     1     -11.407  12.797  63.879  1.00  0.00    -0.384 OA 
ENDROOT
BRANCH   2   3
HETATM    3  C   UNL     1     -10.788  11.593  63.425  1.00  0.00    -0.379 C  
BRANCH   3   4
HETATM    4  C   UNL     1     -10.323  10.830  64.646  1.00  0.00    -0.324 C  
BRANCH   4   5
HETATM    5  O   UNL     1      -8.920  10.967  64.900  1.00  0.00    -0.179 OA 
BRANCH   5   6
HETATM    6  C   UNL     1      -8.319   9.799  65.225  1.00  0.00    -0.142 C  
HETATM    7  O   UNL     1      -8.282   8.817  64.500  1.00  0.00    -0.152 OA 
BRANCH   6   8
HETATM    8  C   UNL     1      -7.755   9.829  66.600  1.00  0.00    -0.102 C  
HETATM    9  C   UNL     1      -6.546  10.369  66.896  1.00  0.00    -0.078 C  
HETATM   10  C   UNL     1      -5.475  10.889  65.963  1.00  0.00    -0.139 C  
HETATM   11  N   UNL     1      -6.184  10.516  68.219  1.00  0.00    -0.054 NA 
HETATM   12  C   UNL     1      -6.873  10.021  69.301  1.00  0.00    -0.059 C  
HETATM   13  C   UNL     1      -8.081   9.431  69.126  1.00  0.00    -0.107 C  
HETATM   14  C   UNL     1      -6.159  10.188  70.621  1.00  0.00    -0.106 C  
HETATM   15  C   UNL     1      -8.710   9.353  67.724  1.00  0.00    -0.116 C  
BRANCH  13  16
HETATM   16  C   UNL     1      -8.717   8.769  70.298  1.00  0.00    -0.161 C  
HETATM   17  O   UNL     1      -9.585   9.300  70.976  1.00  0.00    -0.271 OA 
BRANCH  16  18
HETATM   18  O   UNL     1      -8.213   7.533  70.549  1.00  0.00    -0.115 OA 
BRANCH  18  19
HETATM   19  C   UNL     1      -9.056   6.724  71.402  1.00  0.00    -0.142 C  
HETATM   20  C   UNL     1      -9.937   5.820  70.544  1.00  0.00    -0.252 C  
HETATM   21  C   UNL     1      -8.174   5.899  72.330  1.00  0.00    -0.110 C  
ENDBRANCH  18  19
ENDBRANCH  16  18
ENDBRANCH  13  16
BRANCH  15  22
HETATM   22  C   UNL     1      -9.250   7.953  67.409  1.00  0.00    -0.160 A  
HETATM   23  C   UNL     1     -10.634   7.748  67.255  1.00  0.00    -0.376 A  
HETATM   24  C   UNL     1      -8.383   6.860  67.252  1.00  0.00    -0.121 A  
HETATM   25  C   UNL     1     -11.146   6.484  66.956  1.00  0.00    -0.411 A  
HETATM   26  O   UNL     1      -6.774   4.671  66.923  1.00  0.00    -0.049 OA 
HETATM   27  O   UNL     1      -8.481   3.353  66.521  1.00  0.00    -0.103 OA 
HETATM   28  C   UNL     1      -8.903   5.593  66.953  1.00  0.00    -0.113 A  
HETATM   29  N   UNL     1      -7.984   4.460  66.786  1.00  0.00    -0.098 N  
HETATM   30  C   UNL     1     -10.281   5.401  66.805  1.00  0.00    -0.282 A  
ENDBRANCH  15  22
ENDBRANCH   6   8
ENDBRANCH   5   6
ENDBRANCH   4   5
ENDBRANCH   3   4
ENDBRANCH   2   3
TORSDOF 9
ENDMDL
MODEL      142
REMARK 921   NORMALIZED FREE ENERGY PREDICTED BY IDOCK:   -3.77 KCAL/MOL
REMARK 922        TOTAL FREE ENERGY PREDICTED BY IDOCK:   -7.34 KCAL/MOL
REMARK 923 INTER-LIGAND FREE ENERGY PREDICTED BY IDOCK:   -5.61 KCAL/MOL
REMARK 924 INTRA-LIGAND FREE ENERGY PREDICTED BY IDOCK:   -1.72 KCAL/MOL
REMARK 927      BINDING AFFINITY PREDICTED BY RF-SCORE:    0.00 PKD
ROOT
HETATM    1  C   UNL     1     -12.625  14.931  70.099  1.00  0.00    -0.264 C  
HETATM    2  O   UNL     1     -11.732  13.885  69.749  1.00  0.00    -0.281 OA 
ENDROOT
BRANCH   2   3
HETATM    3  C   UNL     1     -10.569  14.391  69.092  1.00  0.00    -0.218 C  
BRANCH   3   4
HETATM    4  C   UNL     1      -9.883  13.223  68.417  1.00  0.00    -0.218 C  
BRANCH   4   5
HETATM    5  O   UNL     1     -10.286  11.950  68.937  1.00  0.00    -0.191 OA 
BRANCH   5   6
HETATM    6  C   UNL     1     -10.680  11.081  67.977  1.00  0.00    -0.217 C  
HETATM    7  O   UNL     1     -11.844  10.852  67.689  1.00  0.00    -0.572 OA 
BRANCH   6   8
HETATM    8  C   UNL     1      -9.524  10.390  67.348  1.00  0.00    -0.170 C  
HETATM    9  C   UNL     1      -9.064  10.691  66.107  1.00  0.00    -0.170 C  
HETATM   10  C   UNL     1      -9.655  11.613  65.064  1.00  0.00    -0.187 C  
HETATM   11  N   UNL     1      -7.880  10.128  65.678  1.00  0.00    -0.139 NA 
HETATM   12  C   UNL     1      -7.173   9.146  66.331  1.00  0.00    -0.091 C  
HETATM   13  C   UNL     1      -7.557   8.740  67.567  1.00  0.00    -0.093 C  
HETATM   14  C   UNL     1      -6.002   8.599  65.550  1.00  0.00    -0.048 C  
HETATM   15  C   UNL     1      -8.756   9.405  68.264  1.00  0.00    -0.124 C  
BRANCH  13  16
HETATM   16  C   UNL     1      -6.862   7.570  68.170  1.00  0.00    -0.063 C  
HETATM   17  O   UNL     1      -7.104   6.413  67.856  1.00  0.00    -0.079 OA 
BRANCH  16  18
HETATM   18  O   UNL     1      -5.957   7.921  69.120  1.00  0.00    -0.033 OA 
BRANCH  18  19
HETATM   19  C   UNL     1      -6.351   7.549  70.462  1.00  0.00    -0.038 C  
HETATM   20  C   UNL     1      -5.660   6.246  70.856  1.00  0.00    -0.019 C  
HETATM   21  C   UNL     1      -5.975   8.673  71.418  1.00  0.00    -0.047 C  
ENDBRANCH  18  19
ENDBRANCH  16  18
ENDBRANCH  13  16
BRANCH  15  22
HETATM   22  C   UNL     1      -9.718   8.375  68.868  1.00  0.00    -0.168 A  
HETATM   23  C   UNL     1     -10.328   7.412  68.042  1.00  0.00    -0.247 A  
HETATM   24  C   UNL     1      -9.996   8.361  70.243  1.00  0.00    -0.193 A  
HETATM   25  C   UNL     1     -11.198   6.457  68.573  1.00  0.00    -0.321 A  
HETATM   26  O   UNL     1     -10.594   8.247  72.912  1.00  0.00    -0.320 OA 
HETATM   27  O   UNL     1     -11.927   6.527  72.641  1.00  0.00    -0.125 OA 
HETATM   28  C   UNL     1     -10.871   7.400  70.769  1.00  0.00    -0.241 A  
HETATM   29  N   UNL     1     -11.148   7.393  72.211  1.00  0.00    -0.251 N  
HETATM   30  C   UNL     1     -11.474   6.449  69.939  1.00  0.00    -0.483 A  
ENDBRANCH  15  22
ENDBRANCH   6   8
ENDBRANCH   5   6
ENDBRANCH   4   5
ENDBRANCH   3   4
ENDBRANCH   2   3
TORSDOF 9
ENDMDL
MODEL      143
REMARK 921   NORMALIZED FREE ENERGY PREDICTED BY IDOCK:   -3.77 KCAL/MOL
REMARK 922        TOTAL FREE ENERGY PREDICTED BY IDOCK:   -7.34 KCAL/MOL
REMARK 923 INTER-LIGAND FREE ENERGY PREDICTED BY IDOCK:   -6.22 KCAL/MOL
REMARK 924 INTRA-LIGAND FREE ENERGY PREDICTED BY IDOCK:   -1.12 KCAL/MOL
REMARK 927      BINDING AFFINITY PREDICTED BY RF-SCORE:    0.00 PKD
ROOT
HETATM    1  C   UNL     1      -7.033   9.851  70.273  1.00  0.00    -0.146 C  
HETATM    2  O   UNL     1      -7.165  10.250  68.917  1.00  0.00    -0.076 OA 
ENDROOT
BRANCH   2   3
HETATM    3  C   UNL     1      -7.517  11.630  68.812  1.00  0.00    -0.114 C  
BRANCH   3   4
HETATM    4  C   UNL     1      -8.860  11.706  68.120  1.00  0.00    -0.164 C  
BRANCH   4   5
HETATM    5  O   UNL     1      -9.965  11.446  68.996  1.00  0.00    -0.171 OA 
BRANCH   5   6
HETATM    6  C   UNL     1     -10.916  10.662  68.437  1.00  0.00    -0.251 C  
HETATM    7  O   UNL     1     -11.886  11.084  67.826  1.00  0.00    -0.605 OA 
BRANCH   6   8
HETATM    8  C   UNL     1     -10.673   9.220  68.703  1.00  0.00    -0.180 C  
HETATM    9  C   UNL     1     -10.605   8.696  69.953  1.00  0.00    -0.224 C  
HETATM   10  C   UNL     1     -10.595   9.405  71.290  1.00  0.00    -0.400 C  
HETATM   11  N   UNL     1     -10.559   7.326  70.102  1.00  0.00    -0.226 NA 
HETATM   12  C   UNL     1     -10.416   6.410  69.087  1.00  0.00    -0.229 C  
HETATM   13  C   UNL     1     -10.437   6.820  67.794  1.00  0.00    -0.274 C  
HETATM   14  C   UNL     1     -10.228   4.987  69.554  1.00  0.00    -0.286 C  
HETATM   15  C   UNL     1     -10.668   8.303  67.454  1.00  0.00    -0.236 C  
BRANCH  13  16
HETATM   16  C   UNL     1     -10.122   5.823  66.735  1.00  0.00    -0.196 C  
HETATM   17  O   UNL     1     -10.966   5.351  65.987  1.00  0.00    -0.119 OA 
BRANCH  16  18
HETATM   18  O   UNL     1      -8.809   5.473  66.709  1.00  0.00    -0.114 OA 
BRANCH  18  19
HETATM   19  C   UNL     1      -8.527   4.339  65.855  1.00  0.00    -0.113 C  
HETATM   20  C   UNL     1      -7.304   4.639  64.992  1.00  0.00    -0.072 C  
HETATM   21  C   UNL     1      -8.289   3.112  66.725  1.00  0.00    -0.092 C  
ENDBRANCH  18  19
ENDBRANCH  16  18
ENDBRANCH  13  16
BRANCH  15  22
HETATM   22  C   UNL     1      -9.666   8.821  66.416  1.00  0.00    -0.335 A  
HETATM   23  C   UNL     1      -8.308   8.457  66.503  1.00  0.00    -0.111 A  
HETATM   24  C   UNL     1     -10.078   9.646  65.358  1.00  0.00    -0.093 A  
HETATM   25  C   UNL     1      -7.381   8.907  65.561  1.00  0.00    -0.085 A  
HETATM   26  O   UNL     1     -10.787  11.251  63.258  1.00  0.00    -0.326 OA 
HETATM   27  O   UNL     1      -8.733  11.330  62.496  1.00  0.00    -0.287 OA 
HETATM   28  C   UNL     1      -9.142  10.095  64.416  1.00  0.00    -0.245 A  
HETATM   29  N   UNL     1      -9.589  10.952  63.311  1.00  0.00    -0.311 N  
HETATM   30  C   UNL     1      -7.796   9.730  64.514  1.00  0.00    -0.137 A  
ENDBRANCH  15  22
ENDBRANCH   6   8
ENDBRANCH   5   6
ENDBRANCH   4   5
ENDBRANCH   3   4
ENDBRANCH   2   3
TORSDOF 9
ENDMDL
MODEL      144
REMARK 921   NORMALIZED FREE ENERGY PREDICTED BY IDOCK:   -3.77 KCAL/MOL
REMARK 922        TOTAL FREE ENERGY PREDICTED BY IDOCK:   -7.33 KCAL/MOL
REMARK 923 INTER-LIGAND FREE ENERGY PREDICTED BY IDOCK:   -6.33 KCAL/MOL
REMARK 924 INTRA-LIGAND FREE ENERGY PREDICTED BY IDOCK:   -1.00 KCAL/MOL
REMARK 927      BINDING AFFINITY PREDICTED BY RF-SCORE:    0.00 PKD
ROOT
HETATM    1  C   UNL     1     -11.852  12.023  63.300  1.00  0.00    -0.353 C  
HETATM    2  O   UNL     1     -12.776  13.097  63.225  1.00  0.00    -0.664 OA 
ENDROOT
BRANCH   2   3
HETATM    3  C   UNL     1     -12.366  14.195  64.040  1.00  0.00    -0.275 C  
BRANCH   3   4
HETATM    4  C   UNL     1     -12.860  13.929  65.445  1.00  0.00    -0.427 C  
BRANCH   4   5
HETATM    5  O   UNL     1     -11.907  13.236  66.260  1.00  0.00    -0.357 OA 
BRANCH   5   6
HETATM    6  C   UNL     1     -11.526  13.939  67.352  1.00  0.00    -0.348 C  
HETATM    7  O   UNL     1     -12.282  14.291  68.244  1.00  0.00    -0.292 OA 
BRANCH   6   8
HETATM    8  C   UNL     1     -10.081  14.284  67.313  1.00  0.00    -0.252 C  
HETATM    9  C   UNL     1      -9.604  15.427  66.757  1.00  0.00    -0.241 C  
HETATM   10  C   UNL     1     -10.337  16.480  65.956  1.00  0.00    -0.358 C  
HETATM   11  N   UNL     1      -8.274  15.750  66.927  1.00  0.00    -0.230 NA 
HETATM   12  C   UNL     1      -7.315  14.939  67.486  1.00  0.00    -0.204 C  
HETATM   13  C   UNL     1      -7.667  13.755  68.046  1.00  0.00    -0.152 C  
HETATM   14  C   UNL     1      -5.909  15.483  67.392  1.00  0.00     0.018 C  
HETATM   15  C   UNL     1      -9.146  13.333  68.102  1.00  0.00    -0.207 C  
BRANCH  13  16
HETATM   16  C   UNL     1      -6.583  12.839  68.496  1.00  0.00    -0.086 C  
HETATM   17  O   UNL     1      -6.217  12.757  69.659  1.00  0.00    -0.119 OA 
BRANCH  16  18
HETATM   18  O   UNL     1      -6.028  12.133  67.476  1.00  0.00    -0.092 OA 
BRANCH  18  19
HETATM   19  C   UNL     1      -5.505  10.845  67.880  1.00  0.00    -0.039 C  
HETATM   20  C   UNL     1      -6.534  10.124  68.747  1.00  0.00    -0.052 C  
HETATM   21  C   UNL     1      -5.179  10.031  66.635  1.00  0.00    -0.040 C  
ENDBRANCH  18  19
ENDBRANCH  16  18
ENDBRANCH  13  16
BRANCH  15  22
HETATM   22  C   UNL     1      -9.351  11.883  67.646  1.00  0.00    -0.183 A  
HETATM   23  C   UNL     1     -10.059  10.981  68.463  1.00  0.00    -0.198 A  
HETATM   24  C   UNL     1      -8.858  11.434  66.412  1.00  0.00    -0.193 A  
HETATM   25  C   UNL     1     -10.268   9.660  68.062  1.00  0.00    -0.235 A  
HETATM   26  O   UNL     1      -7.941  10.467  64.021  1.00  0.00    -0.111 OA 
HETATM   27  O   UNL     1      -8.762   8.469  64.401  1.00  0.00    -0.071 OA 
HETATM   28  C   UNL     1      -9.070  10.107  66.016  1.00  0.00    -0.154 A  
HETATM   29  N   UNL     1      -8.554   9.652  64.719  1.00  0.00    -0.165 N  
HETATM   30  C   UNL     1      -9.773   9.218  66.837  1.00  0.00    -0.248 A  
ENDBRANCH  15  22
ENDBRANCH   6   8
ENDBRANCH   5   6
ENDBRANCH   4   5
ENDBRANCH   3   4
ENDBRANCH   2   3
TORSDOF 9
ENDMDL
MODEL      145
REMARK 921   NORMALIZED FREE ENERGY PREDICTED BY IDOCK:   -3.72 KCAL/MOL
REMARK 922        TOTAL FREE ENERGY PREDICTED BY IDOCK:   -7.25 KCAL/MOL
REMARK 923 INTER-LIGAND FREE ENERGY PREDICTED BY IDOCK:   -6.18 KCAL/MOL
REMARK 924 INTRA-LIGAND FREE ENERGY PREDICTED BY IDOCK:   -1.07 KCAL/MOL
REMARK 927      BINDING AFFINITY PREDICTED BY RF-SCORE:    0.00 PKD
ROOT
HETATM    1  C   UNL     1     -11.269   9.960  70.892  1.00  0.00    -0.360 C  
HETATM    2  O   UNL     1     -12.286  10.387  69.999  1.00  0.00    -0.249 OA 
ENDROOT
BRANCH   2   3
HETATM    3  C   UNL     1     -12.533  11.789  70.121  1.00  0.00    -0.107 C  
BRANCH   3   4
HETATM    4  C   UNL     1     -12.000  12.456  68.872  1.00  0.00    -0.241 C  
BRANCH   4   5
HETATM    5  O   UNL     1     -12.236  11.697  67.679  1.00  0.00    -0.544 OA 
BRANCH   5   6
HETATM    6  C   UNL     1     -11.775  12.303  66.561  1.00  0.00    -0.352 C  
HETATM    7  O   UNL     1     -12.352  12.297  65.485  1.00  0.00    -0.602 OA 
BRANCH   6   8
HETATM    8  C   UNL     1     -10.446  12.932  66.779  1.00  0.00    -0.262 C  
HETATM    9  C   UNL     1     -10.191  14.240  66.520  1.00  0.00    -0.276 C  
HETATM   10  C   UNL     1     -11.068  15.271  65.845  1.00  0.00    -0.287 C  
HETATM   11  N   UNL     1      -8.987  14.779  66.923  1.00  0.00    -0.240 NA 
HETATM   12  C   UNL     1      -7.923  14.077  67.438  1.00  0.00    -0.175 C  
HETATM   13  C   UNL     1      -8.048  12.754  67.710  1.00  0.00    -0.168 C  
HETATM   14  C   UNL     1      -6.672  14.900  67.635  1.00  0.00    -0.200 C  
HETATM   15  C   UNL     1      -9.394  12.042  67.488  1.00  0.00    -0.179 C  
BRANCH  13  16
HETATM   16  C   UNL     1      -6.831  12.001  68.115  1.00  0.00    -0.069 C  
HETATM   17  O   UNL     1      -5.944  11.692  67.332  1.00  0.00    -0.071 OA 
BRANCH  16  18
HETATM   18  O   UNL     1      -6.825  11.669  69.433  1.00  0.00    -0.115 OA 
BRANCH  18  19
HETATM   19  C   UNL     1      -6.093  10.455  69.723  1.00  0.00    -0.059 C  
HETATM   20  C   UNL     1      -5.503  10.537  71.128  1.00  0.00    -0.071 C  
HETATM   21  C   UNL     1      -7.038   9.267  69.600  1.00  0.00    -0.061 C  
ENDBRANCH  18  19
ENDBRANCH  16  18
ENDBRANCH  13  16
BRANCH  15  22
HETATM   22  C   UNL     1      -9.229  10.713  66.741  1.00  0.00    -0.174 A  
HETATM   23  C   UNL     1      -9.702   9.517  67.315  1.00  0.00    -0.215 A  
HETATM   24  C   UNL     1      -8.624  10.663  65.476  1.00  0.00    -0.191 A  
HETATM   25  C   UNL     1      -9.572   8.298  66.647  1.00  0.00    -0.299 A  
HETATM   26  O   UNL     1      -7.466  10.464  63.004  1.00  0.00    -0.145 OA 
HETATM   27  O   UNL     1      -7.772   8.294  62.925  1.00  0.00    -0.118 OA 
HETATM   28  C   UNL     1      -8.496   9.435  64.811  1.00  0.00    -0.167 A  
HETATM   29  N   UNL     1      -7.867   9.398  63.485  1.00  0.00    -0.123 N  
HETATM   30  C   UNL     1      -8.968   8.253  65.392  1.00  0.00    -0.062 A  
ENDBRANCH  15  22
ENDBRANCH   6   8
ENDBRANCH   5   6
ENDBRANCH   4   5
ENDBRANCH   3   4
ENDBRANCH   2   3
TORSDOF 9
ENDMDL
MODEL      146
REMARK 921   NORMALIZED FREE ENERGY PREDICTED BY IDOCK:   -3.68 KCAL/MOL
REMARK 922        TOTAL FREE ENERGY PREDICTED BY IDOCK:   -7.20 KCAL/MOL
REMARK 923 INTER-LIGAND FREE ENERGY PREDICTED BY IDOCK:   -6.92 KCAL/MOL
REMARK 924 INTRA-LIGAND FREE ENERGY PREDICTED BY IDOCK:   -0.28 KCAL/MOL
REMARK 927      BINDING AFFINITY PREDICTED BY RF-SCORE:    0.00 PKD
ROOT
HETATM    1  C   UNL     1      -5.457   9.439  66.217  1.00  0.00    -0.048 C  
HETATM    2  O   UNL     1      -6.426   8.712  65.477  1.00  0.00    -0.058 OA 
ENDROOT
BRANCH   2   3
HETATM    3  C   UNL     1      -6.623   7.406  66.020  1.00  0.00    -0.049 C  
BRANCH   3   4
HETATM    4  C   UNL     1      -8.111   7.136  66.030  1.00  0.00    -0.115 C  
BRANCH   4   5
HETATM    5  O   UNL     1      -8.786   7.717  67.153  1.00  0.00    -0.122 OA 
BRANCH   5   6
HETATM    6  C   UNL     1     -10.107   7.919  66.937  1.00  0.00    -0.291 C  
HETATM    7  O   UNL     1     -10.900   7.038  66.644  1.00  0.00    -0.244 OA 
BRANCH   6   8
HETATM    8  C   UNL     1     -10.472   9.356  67.041  1.00  0.00    -0.302 C  
HETATM    9  C   UNL     1     -10.278  10.248  66.037  1.00  0.00    -0.228 C  
HETATM   10  C   UNL     1      -9.551  10.067  64.723  1.00  0.00    -0.374 C  
HETATM   11  N   UNL     1     -10.812  11.514  66.154  1.00  0.00    -0.282 NA 
HETATM   12  C   UNL     1     -11.407  12.035  67.279  1.00  0.00    -0.330 C  
HETATM   13  C   UNL     1     -11.627  11.246  68.360  1.00  0.00    -0.378 C  
HETATM   14  C   UNL     1     -11.750  13.502  67.177  1.00  0.00    -0.419 C  
HETATM   15  C   UNL     1     -11.254   9.754  68.319  1.00  0.00    -0.074 C  
BRANCH  13  16
HETATM   16  C   UNL     1     -12.126  11.885  69.608  1.00  0.00    -0.239 C  
HETATM   17  O   UNL     1     -13.096  11.473  70.228  1.00  0.00     0.154 OA 
BRANCH  16  18
HETATM   18  O   UNL     1     -11.413  12.986  69.963  1.00  0.00    -0.164 OA 
BRANCH  18  19
HETATM   19  C   UNL     1     -12.235  14.092  70.406  1.00  0.00    -0.356 C  
HETATM   20  C   UNL     1     -12.721  13.831  71.829  1.00  0.00    -0.373 C  
HETATM   21  C   UNL     1     -11.416  15.374  70.339  1.00  0.00    -0.355 C  
ENDBRANCH  18  19
ENDBRANCH  16  18
ENDBRANCH  13  16
BRANCH  15  22
HETATM   22  C   UNL     1     -10.488   9.314  69.572  1.00  0.00    -0.229 A  
HETATM   23  C   UNL     1      -9.124   9.636  69.714  1.00  0.00    -0.232 A  
HETATM   24  C   UNL     1     -11.126   8.605  70.601  1.00  0.00    -0.282 A  
HETATM   25  C   UNL     1      -8.411   9.257  70.853  1.00  0.00    -0.196 A  
HETATM   26  O   UNL     1     -12.284   7.225  72.662  1.00  0.00    -0.050 OA 
HETATM   27  O   UNL     1     -10.415   7.171  73.807  1.00  0.00    -0.371 OA 
HETATM   28  C   UNL     1     -10.404   8.226  71.741  1.00  0.00    -0.254 A  
HETATM   29  N   UNL     1     -11.086   7.489  72.813  1.00  0.00    -0.341 N  
HETATM   30  C   UNL     1      -9.049   8.548  71.871  1.00  0.00    -0.314 A  
ENDBRANCH  15  22
ENDBRANCH   6   8
ENDBRANCH   5   6
ENDBRANCH   4   5
ENDBRANCH   3   4
ENDBRANCH   2   3
TORSDOF 9
ENDMDL
MODEL      147
REMARK 921   NORMALIZED FREE ENERGY PREDICTED BY IDOCK:   -3.66 KCAL/MOL
REMARK 922        TOTAL FREE ENERGY PREDICTED BY IDOCK:   -7.16 KCAL/MOL
REMARK 923 INTER-LIGAND FREE ENERGY PREDICTED BY IDOCK:   -6.96 KCAL/MOL
REMARK 924 INTRA-LIGAND FREE ENERGY PREDICTED BY IDOCK:   -0.20 KCAL/MOL
REMARK 927      BINDING AFFINITY PREDICTED BY RF-SCORE:    0.00 PKD
ROOT
HETATM    1  C   UNL     1     -11.195   6.559  71.425  1.00  0.00    -0.283 C  
HETATM    2  O   UNL     1     -11.415   7.801  70.775  1.00  0.00    -0.280 OA 
ENDROOT
BRANCH   2   3
HETATM    3  C   UNL     1     -10.961   8.895  71.574  1.00  0.00    -0.328 C  
BRANCH   3   4
HETATM    4  C   UNL     1     -10.150   9.807  70.679  1.00  0.00    -0.182 C  
BRANCH   4   5
HETATM    5  O   UNL     1      -9.114   9.123  69.963  1.00  0.00    -0.163 OA 
BRANCH   5   6
HETATM    6  C   UNL     1      -8.258   9.962  69.333  1.00  0.00    -0.146 C  
HETATM    7  O   UNL     1      -7.444  10.672  69.903  1.00  0.00    -0.133 OA 
BRANCH   6   8
HETATM    8  C   UNL     1      -8.462   9.960  67.861  1.00  0.00    -0.121 C  
HETATM    9  C   UNL     1      -7.802   9.124  67.019  1.00  0.00    -0.102 C  
HETATM   10  C   UNL     1      -6.663   8.172  67.314  1.00  0.00    -0.066 C  
HETATM   11  N   UNL     1      -8.185   9.067  65.696  1.00  0.00    -0.114 NA 
HETATM   12  C   UNL     1      -9.091   9.901  65.084  1.00  0.00    -0.211 C  
HETATM   13  C   UNL     1      -9.791  10.801  65.818  1.00  0.00    -0.292 C  
HETATM   14  C   UNL     1      -9.194   9.717  63.589  1.00  0.00    -0.159 C  
HETATM   15  C   UNL     1      -9.611  10.863  67.346  1.00  0.00    -0.181 C  
BRANCH  13  16
HETATM   16  C   UNL     1     -10.641  11.788  65.098  1.00  0.00    -0.283 C  
HETATM   17  O   UNL     1     -10.195  12.592  64.293  1.00  0.00    -0.355 OA 
BRANCH  16  18
HETATM   18  O   UNL     1     -11.951  11.719  65.452  1.00  0.00    -0.294 OA 
BRANCH  18  19
HETATM   19  C   UNL     1     -12.755  12.796  64.914  1.00  0.00    -0.404 C  
HETATM   20  C   UNL     1     -12.327  14.118  65.546  1.00  0.00    -0.472 C  
HETATM   21  C   UNL     1     -12.581  12.835  63.402  1.00  0.00    -0.317 C  
ENDBRANCH  18  19
ENDBRANCH  16  18
ENDBRANCH  13  16
BRANCH  15  22
HETATM   22  C   UNL     1      -9.427  12.300  67.848  1.00  0.00    -0.200 A  
HETATM   23  C   UNL     1      -8.196  12.959  67.666  1.00  0.00    -0.177 A  
HETATM   24  C   UNL     1     -10.476  12.987  68.478  1.00  0.00    -0.261 A  
HETATM   25  C   UNL     1      -8.011  14.271  68.105  1.00  0.00    -0.140 A  
HETATM   26  O   UNL     1     -12.460  14.413  69.711  1.00  0.00    -0.312 OA 
HETATM   27  O   UNL     1     -11.183  16.180  69.945  1.00  0.00    -0.328 OA 
HETATM   28  C   UNL     1     -10.283  14.305  68.918  1.00  0.00    -0.200 A  
HETATM   29  N   UNL     1     -11.390  15.014  69.570  1.00  0.00    -0.270 N  
HETATM   30  C   UNL     1      -9.055  14.949  68.734  1.00  0.00    -0.189 A  
ENDBRANCH  15  22
ENDBRANCH   6   8
ENDBRANCH   5   6
ENDBRANCH   4   5
ENDBRANCH   3   4
ENDBRANCH   2   3
TORSDOF 9
ENDMDL
MODEL      148
REMARK 921   NORMALIZED FREE ENERGY PREDICTED BY IDOCK:   -3.63 KCAL/MOL
REMARK 922        TOTAL FREE ENERGY PREDICTED BY IDOCK:   -7.12 KCAL/MOL
REMARK 923 INTER-LIGAND FREE ENERGY PREDICTED BY IDOCK:   -5.74 KCAL/MOL
REMARK 924 INTRA-LIGAND FREE ENERGY PREDICTED BY IDOCK:   -1.38 KCAL/MOL
REMARK 927      BINDING AFFINITY PREDICTED BY RF-SCORE:    0.00 PKD
ROOT
HETATM    1  C   UNL     1      -6.761   8.192  63.976  1.00  0.00    -0.066 C  
HETATM    2  O   UNL     1      -7.812   7.249  63.834  1.00  0.00    -0.122 OA 
ENDROOT
BRANCH   2   3
HETATM    3  C   UNL     1      -7.415   5.954  64.288  1.00  0.00    -0.074 C  
BRANCH   3   4
HETATM    4  C   UNL     1      -8.538   5.406  65.141  1.00  0.00    -0.149 C  
BRANCH   4   5
HETATM    5  O   UNL     1      -8.739   6.142  66.354  1.00  0.00    -0.128 OA 
BRANCH   5   6
HETATM    6  C   UNL     1     -10.036   6.194  66.738  1.00  0.00    -0.182 C  
HETATM    7  O   UNL     1     -10.903   5.429  66.346  1.00  0.00    -0.284 OA 
BRANCH   6   8
HETATM    8  C   UNL     1     -10.297   7.334  67.656  1.00  0.00    -0.290 C  
HETATM    9  C   UNL     1     -10.301   8.629  67.251  1.00  0.00    -0.296 C  
HETATM   10  C   UNL     1      -9.912   9.215  65.911  1.00  0.00    -0.232 C  
HETATM   11  N   UNL     1     -10.730   9.603  68.128  1.00  0.00    -0.231 NA 
HETATM   12  C   UNL     1     -11.019   9.417  69.459  1.00  0.00    -0.173 C  
HETATM   13  C   UNL     1     -11.017   8.168  69.987  1.00  0.00    -0.199 C  
HETATM   14  C   UNL     1     -11.305  10.691  70.217  1.00  0.00    -0.401 C  
HETATM   15  C   UNL     1     -10.737   6.948  69.091  1.00  0.00    -0.262 C  
BRANCH  13  16
HETATM   16  C   UNL     1     -11.178   8.026  71.459  1.00  0.00    -0.255 C  
HETATM   17  O   UNL     1     -12.250   7.782  71.994  1.00  0.00    -0.295 OA 
BRANCH  16  18
HETATM   18  O   UNL     1     -10.021   8.225  72.142  1.00  0.00    -0.219 OA 
BRANCH  18  19
HETATM   19  C   UNL     1     -10.009   7.616  73.455  1.00  0.00    -0.314 C  
HETATM   20  C   UNL     1     -10.451   6.159  73.347  1.00  0.00    -0.269 C  
HETATM   21  C   UNL     1      -8.604   7.715  74.034  1.00  0.00    -0.297 C  
ENDBRANCH  18  19
ENDBRANCH  16  18
ENDBRANCH  13  16
BRANCH  15  22
HETATM   22  C   UNL     1      -9.720   5.989  69.721  1.00  0.00    -0.194 A  
HETATM   23  C   UNL     1     -10.126   4.708  70.142  1.00  0.00    -0.283 A  
HETATM   24  C   UNL     1      -8.375   6.357  69.876  1.00  0.00    -0.130 A  
HETATM   25  C   UNL     1      -9.214   3.814  70.707  1.00  0.00    -0.202 A  
HETATM   26  O   UNL     1      -5.731   6.980  70.213  1.00  0.00    -0.023 OA 
HETATM   27  O   UNL     1      -5.281   5.027  71.103  1.00  0.00    -0.004 OA 
HETATM   28  C   UNL     1      -7.465   5.456  70.445  1.00  0.00    -0.075 A  
HETATM   29  N   UNL     1      -6.059   5.852  70.595  1.00  0.00    -0.029 N  
HETATM   30  C   UNL     1      -7.879   4.186  70.862  1.00  0.00    -0.059 A  
ENDBRANCH  15  22
ENDBRANCH   6   8
ENDBRANCH   5   6
ENDBRANCH   4   5
ENDBRANCH   3   4
ENDBRANCH   2   3
TORSDOF 9
ENDMDL
MODEL      149
REMARK 921   NORMALIZED FREE ENERGY PREDICTED BY IDOCK:   -3.62 KCAL/MOL
REMARK 922        TOTAL FREE ENERGY PREDICTED BY IDOCK:   -7.11 KCAL/MOL
REMARK 923 INTER-LIGAND FREE ENERGY PREDICTED BY IDOCK:   -5.67 KCAL/MOL
REMARK 924 INTRA-LIGAND FREE ENERGY PREDICTED BY IDOCK:   -1.44 KCAL/MOL
REMARK 927      BINDING AFFINITY PREDICTED BY RF-SCORE:    0.00 PKD
ROOT
HETATM    1  C   UNL     1      -5.144   8.874  66.845  1.00  0.00    -0.035 C  
HETATM    2  O   UNL     1      -5.372   7.664  66.140  1.00  0.00    -0.024 OA 
ENDROOT
BRANCH   2   3
HETATM    3  C   UNL     1      -5.439   6.548  67.029  1.00  0.00    -0.013 C  
BRANCH   3   4
HETATM    4  C   UNL     1      -6.791   5.896  66.840  1.00  0.00    -0.063 C  
BRANCH   4   5
HETATM    5  O   UNL     1      -7.887   6.755  67.178  1.00  0.00    -0.108 OA 
BRANCH   5   6
HETATM    6  C   UNL     1      -8.869   6.759  66.246  1.00  0.00    -0.147 C  
HETATM    7  O   UNL     1      -9.522   5.778  65.928  1.00  0.00    -0.133 OA 
BRANCH   6   8
HETATM    8  C   UNL     1      -9.022   8.093  65.609  1.00  0.00    -0.128 C  
HETATM    9  C   UNL     1      -8.495   8.404  64.397  1.00  0.00    -0.039 C  
HETATM   10  C   UNL     1      -7.555   7.600  63.527  1.00  0.00    -0.119 C  
HETATM   11  N   UNL     1      -8.840   9.601  63.805  1.00  0.00    -0.229 NA 
HETATM   12  C   UNL     1      -9.563  10.611  64.393  1.00  0.00    -0.295 C  
HETATM   13  C   UNL     1     -10.114  10.428  65.619  1.00  0.00    -0.337 C  
HETATM   14  C   UNL     1      -9.648  11.875  63.571  1.00  0.00    -0.197 C  
HETATM   15  C   UNL     1      -9.975   9.074  66.337  1.00  0.00    -0.370 C  
BRANCH  13  16
HETATM   16  C   UNL     1     -10.751  11.597  66.286  1.00  0.00    -0.272 C  
HETATM   17  O   UNL     1     -11.955  11.803  66.266  1.00  0.00    -0.490 OA 
BRANCH  16  18
HETATM   18  O   UNL     1      -9.852  12.419  66.887  1.00  0.00    -0.208 OA 
BRANCH  18  19
HETATM   19  C   UNL     1     -10.449  13.597  67.480  1.00  0.00    -0.241 C  
HETATM   20  C   UNL     1     -10.475  13.449  68.999  1.00  0.00    -0.056 C  
HETATM   21  C   UNL     1      -9.643  14.821  67.067  1.00  0.00    -0.248 C  
ENDBRANCH  18  19
ENDBRANCH  16  18
ENDBRANCH  13  16
BRANCH  15  22
HETATM   22  C   UNL     1      -9.554   9.238  67.803  1.00  0.00    -0.167 A  
HETATM   23  C   UNL     1      -8.415  10.000  68.129  1.00  0.00    -0.114 A  
HETATM   24  C   UNL     1     -10.296   8.653  68.840  1.00  0.00    -0.228 A  
HETATM   25  C   UNL     1      -8.021  10.172  69.457  1.00  0.00    -0.170 A  
HETATM   26  O   UNL     1     -11.680   7.557  70.931  1.00  0.00    -0.289 OA 
HETATM   27  O   UNL     1     -10.298   8.394  72.414  1.00  0.00    -0.305 OA 
HETATM   28  C   UNL     1      -9.894   8.828  70.172  1.00  0.00    -0.176 A  
HETATM   29  N   UNL     1     -10.683   8.216  71.248  1.00  0.00    -0.223 N  
HETATM   30  C   UNL     1      -8.760   9.585  70.484  1.00  0.00    -0.247 A  
ENDBRANCH  15  22
ENDBRANCH   6   8
ENDBRANCH   5   6
ENDBRANCH   4   5
ENDBRANCH   3   4
ENDBRANCH   2   3
TORSDOF 9
ENDMDL
MODEL      150
REMARK 921   NORMALIZED FREE ENERGY PREDICTED BY IDOCK:   -3.61 KCAL/MOL
REMARK 922        TOTAL FREE ENERGY PREDICTED BY IDOCK:   -7.09 KCAL/MOL
REMARK 923 INTER-LIGAND FREE ENERGY PREDICTED BY IDOCK:   -5.37 KCAL/MOL
REMARK 924 INTRA-LIGAND FREE ENERGY PREDICTED BY IDOCK:   -1.72 KCAL/MOL
REMARK 927      BINDING AFFINITY PREDICTED BY RF-SCORE:    0.00 PKD
ROOT
HETATM    1  C   UNL     1     -10.504  14.810  65.639  1.00  0.00    -0.349 C  
HETATM    2  O   UNL     1     -10.133  13.599  64.997  1.00  0.00    -0.328 OA 
ENDROOT
BRANCH   2   3
HETATM    3  C   UNL     1     -11.056  12.550  65.291  1.00  0.00    -0.297 C  
BRANCH   3   4
HETATM    4  C   UNL     1     -10.327  11.237  65.103  1.00  0.00    -0.295 C  
BRANCH   4   5
HETATM    5  O   UNL     1     -10.474  10.344  66.214  1.00  0.00    -0.222 OA 
BRANCH   5   6
HETATM    6  C   UNL     1      -9.292   9.888  66.693  1.00  0.00    -0.157 C  
HETATM    7  O   UNL     1      -8.272   9.787  66.029  1.00  0.00    -0.114 OA 
BRANCH   6   8
HETATM    8  C   UNL     1      -9.395   9.470  68.115  1.00  0.00    -0.141 C  
HETATM    9  C   UNL     1      -9.062  10.277  69.154  1.00  0.00    -0.191 C  
HETATM   10  C   UNL     1      -8.401  11.638  69.136  1.00  0.00     0.248 C  
HETATM   11  N   UNL     1      -9.360   9.872  70.439  1.00  0.00    -0.117 NA 
HETATM   12  C   UNL     1      -9.835   8.634  70.802  1.00  0.00    -0.192 C  
HETATM   13  C   UNL     1     -10.172   7.729  69.850  1.00  0.00    -0.213 C  
HETATM   14  C   UNL     1      -9.913   8.412  72.293  1.00  0.00    -0.383 C  
HETATM   15  C   UNL     1     -10.072   8.097  68.360  1.00  0.00    -0.226 C  
BRANCH  13  16
HETATM   16  C   UNL     1     -10.530   6.351  70.285  1.00  0.00    -0.219 C  
HETATM   17  O   UNL     1     -11.679   5.937  70.319  1.00  0.00    -0.075 OA 
BRANCH  16  18
HETATM   18  O   UNL     1      -9.451   5.618  70.666  1.00  0.00    -0.158 OA 
BRANCH  18  19
HETATM   19  C   UNL     1      -9.688   4.190  70.661  1.00  0.00    -0.203 C  
HETATM   20  C   UNL     1      -9.338   3.617  69.291  1.00  0.00    -0.245 C  
HETATM   21  C   UNL     1      -8.844   3.545  71.752  1.00  0.00    -0.135 C  
ENDBRANCH  18  19
ENDBRANCH  16  18
ENDBRANCH  13  16
BRANCH  15  22
HETATM   22  C   UNL     1      -9.375   7.005  67.540  1.00  0.00    -0.134 A  
HETATM   23  C   UNL     1      -7.982   6.828  67.641  1.00  0.00    -0.113 A  
HETATM   24  C   UNL     1     -10.105   6.156  66.693  1.00  0.00    -0.218 A  
HETATM   25  C   UNL     1      -7.329   5.831  66.913  1.00  0.00    -0.079 A  
HETATM   26  O   UNL     1     -11.442   4.449  65.023  1.00  0.00    -0.168 OA 
HETATM   27  O   UNL     1      -9.600   3.401  64.458  1.00  0.00    -0.147 OA 
HETATM   28  C   UNL     1      -9.443   5.158  65.964  1.00  0.00    -0.160 A  
HETATM   29  N   UNL     1     -10.220   4.273  65.088  1.00  0.00    -0.234 N  
HETATM   30  C   UNL     1      -8.058   4.993  66.070  1.00  0.00    -0.108 A  
ENDBRANCH  15  22
ENDBRANCH   6   8
ENDBRANCH   5   6
ENDBRANCH   4   5
ENDBRANCH   3   4
ENDBRANCH   2   3
TORSDOF 9
ENDMDL
MODEL      151
REMARK 921   NORMALIZED FREE ENERGY PREDICTED BY IDOCK:   -3.61 KCAL/MOL
REMARK 922        TOTAL FREE ENERGY PREDICTED BY IDOCK:   -7.09 KCAL/MOL
REMARK 923 INTER-LIGAND FREE ENERGY PREDICTED BY IDOCK:   -5.76 KCAL/MOL
REMARK 924 INTRA-LIGAND FREE ENERGY PREDICTED BY IDOCK:   -1.32 KCAL/MOL
REMARK 927      BINDING AFFINITY PREDICTED BY RF-SCORE:    0.00 PKD
ROOT
HETATM    1  C   UNL     1      -9.405   4.305  64.141  1.00  0.00    -0.145 C  
HETATM    2  O   UNL     1      -8.720   3.510  65.097  1.00  0.00    -0.112 OA 
ENDROOT
BRANCH   2   3
HETATM    3  C   UNL     1      -8.987   3.951  66.429  1.00  0.00    -0.133 C  
BRANCH   3   4
HETATM    4  C   UNL     1      -8.995   5.464  66.415  1.00  0.00    -0.131 C  
BRANCH   4   5
HETATM    5  O   UNL     1      -7.731   6.040  66.765  1.00  0.00    -0.097 OA 
BRANCH   5   6
HETATM    6  C   UNL     1      -7.688   6.501  68.037  1.00  0.00    -0.105 C  
HETATM    7  O   UNL     1      -7.613   5.789  69.027  1.00  0.00    -0.085 OA 
BRANCH   6   8
HETATM    8  C   UNL     1      -7.802   7.982  68.095  1.00  0.00    -0.126 C  
HETATM    9  C   UNL     1      -6.738   8.815  67.970  1.00  0.00    -0.069 C  
HETATM   10  C   UNL     1      -5.263   8.483  67.910  1.00  0.00    -0.034 C  
HETATM   11  N   UNL     1      -6.960  10.171  67.854  1.00  0.00    -0.082 NA 
HETATM   12  C   UNL     1      -8.171  10.804  68.008  1.00  0.00    -0.115 C  
HETATM   13  C   UNL     1      -9.303  10.076  68.171  1.00  0.00    -0.137 C  
HETATM   14  C   UNL     1      -8.090  12.312  67.992  1.00  0.00    -0.156 C  
HETATM   15  C   UNL     1      -9.247   8.538  68.138  1.00  0.00    -0.142 C  
BRANCH  13  16
HETATM   16  C   UNL     1     -10.564  10.799  68.492  1.00  0.00    -0.195 C  
HETATM   17  O   UNL     1     -10.844  11.187  69.617  1.00  0.00    -0.224 OA 
BRANCH  16  18
HETATM   18  O   UNL     1     -11.377  10.952  67.415  1.00  0.00    -0.412 OA 
BRANCH  18  19
HETATM   19  C   UNL     1     -11.054  12.105  66.602  1.00  0.00    -0.306 C  
HETATM   20  C   UNL     1     -10.904  11.678  65.145  1.00  0.00    -0.346 C  
HETATM   21  C   UNL     1     -12.159  13.142  66.753  1.00  0.00    -0.389 C  
ENDBRANCH  18  19
ENDBRANCH  16  18
ENDBRANCH  13  16
BRANCH  15  22
HETATM   22  C   UNL     1     -10.029   7.907  69.297  1.00  0.00    -0.190 A  
HETATM   23  C   UNL     1     -11.134   7.076  69.032  1.00  0.00    -0.121 A  
HETATM   24  C   UNL     1      -9.652   8.127  70.631  1.00  0.00    -0.179 A  
HETATM   25  C   UNL     1     -11.852   6.481  70.071  1.00  0.00    -0.284 A  
HETATM   26  O   UNL     1      -8.992   8.491  73.262  1.00  0.00    -0.275 OA 
HETATM   27  O   UNL     1     -10.634   7.213  73.954  1.00  0.00    -0.362 OA 
HETATM   28  C   UNL     1     -10.378   7.528  71.670  1.00  0.00    -0.192 A  
HETATM   29  N   UNL     1      -9.969   7.762  73.060  1.00  0.00    -0.269 N  
HETATM   30  C   UNL     1     -11.476   6.706  71.395  1.00  0.00    -0.349 A  
ENDBRANCH  15  22
ENDBRANCH   6   8
ENDBRANCH   5   6
ENDBRANCH   4   5
ENDBRANCH   3   4
ENDBRANCH   2   3
TORSDOF 9
ENDMDL
MODEL      152
REMARK 921   NORMALIZED FREE ENERGY PREDICTED BY IDOCK:   -3.58 KCAL/MOL
REMARK 922        TOTAL FREE ENERGY PREDICTED BY IDOCK:   -7.04 KCAL/MOL
REMARK 923 INTER-LIGAND FREE ENERGY PREDICTED BY IDOCK:   -6.38 KCAL/MOL
REMARK 924 INTRA-LIGAND FREE ENERGY PREDICTED BY IDOCK:   -0.66 KCAL/MOL
REMARK 927      BINDING AFFINITY PREDICTED BY RF-SCORE:    0.00 PKD
ROOT
HETATM    1  C   UNL     1      -6.806   7.042  67.423  1.00  0.00    -0.073 C  
HETATM    2  O   UNL     1      -6.497   6.795  68.786  1.00  0.00    -0.037 OA 
ENDROOT
BRANCH   2   3
HETATM    3  C   UNL     1      -6.719   7.954  69.589  1.00  0.00    -0.042 C  
BRANCH   3   4
HETATM    4  C   UNL     1      -5.780   9.035  69.099  1.00  0.00    -0.036 C  
BRANCH   4   5
HETATM    5  O   UNL     1      -6.442  10.066  68.355  1.00  0.00    -0.053 OA 
BRANCH   5   6
HETATM    6  C   UNL     1      -6.952  11.045  69.137  1.00  0.00    -0.104 C  
HETATM    7  O   UNL     1      -6.758  11.140  70.339  1.00  0.00    -0.233 OA 
BRANCH   6   8
HETATM    8  C   UNL     1      -7.830  11.967  68.369  1.00  0.00    -0.141 C  
HETATM    9  C   UNL     1      -7.565  13.289  68.214  1.00  0.00    -0.139 C  
HETATM   10  C   UNL     1      -6.489  14.132  68.861  1.00  0.00    -0.094 C  
HETATM   11  N   UNL     1      -8.333  14.027  67.338  1.00  0.00    -0.186 NA 
HETATM   12  C   UNL     1      -9.470  13.589  66.700  1.00  0.00    -0.265 C  
HETATM   13  C   UNL     1      -9.854  12.293  66.807  1.00  0.00    -0.218 C  
HETATM   14  C   UNL     1     -10.202  14.662  65.930  1.00  0.00    -0.344 C  
HETATM   15  C   UNL     1      -8.996  11.294  67.603  1.00  0.00    -0.142 C  
BRANCH  13  16
HETATM   16  C   UNL     1     -11.171  11.900  66.235  1.00  0.00    -0.337 C  
HETATM   17  O   UNL     1     -12.235  12.344  66.639  1.00  0.00    -0.562 OA 
BRANCH  16  18
HETATM   18  O   UNL     1     -11.064  10.978  65.243  1.00  0.00    -0.101 OA 
BRANCH  18  19
HETATM   19  C   UNL     1     -11.267  11.524  63.918  1.00  0.00    -0.355 C  
HETATM   20  C   UNL     1     -12.293  12.653  63.982  1.00  0.00    -0.528 C  
HETATM   21  C   UNL     1      -9.935  12.031  63.383  1.00  0.00    -0.384 C  
ENDBRANCH  18  19
ENDBRANCH  16  18
ENDBRANCH  13  16
BRANCH  15  22
HETATM   22  C   UNL     1      -9.839  10.439  68.557  1.00  0.00    -0.176 A  
HETATM   23  C   UNL     1     -10.649  11.057  69.529  1.00  0.00    -0.182 A  
HETATM   24  C   UNL     1      -9.835   9.038  68.472  1.00  0.00    -0.184 A  
HETATM   25  C   UNL     1     -11.435  10.299  70.399  1.00  0.00    -0.415 A  
HETATM   26  O   UNL     1      -9.898   6.304  68.380  1.00  0.00    -0.125 OA 
HETATM   27  O   UNL     1     -11.327   6.182  70.039  1.00  0.00    -0.392 OA 
HETATM   28  C   UNL     1     -10.624   8.282  69.350  1.00  0.00    -0.196 A  
HETATM   29  N   UNL     1     -10.615   6.818  69.246  1.00  0.00    -0.217 N  
HETATM   30  C   UNL     1     -11.424   8.907  70.313  1.00  0.00    -0.123 A  
ENDBRANCH  15  22
ENDBRANCH   6   8
ENDBRANCH   5   6
ENDBRANCH   4   5
ENDBRANCH   3   4
ENDBRANCH   2   3
TORSDOF 9
ENDMDL
MODEL      153
REMARK 921   NORMALIZED FREE ENERGY PREDICTED BY IDOCK:   -3.57 KCAL/MOL
REMARK 922        TOTAL FREE ENERGY PREDICTED BY IDOCK:   -7.02 KCAL/MOL
REMARK 923 INTER-LIGAND FREE ENERGY PREDICTED BY IDOCK:   -5.10 KCAL/MOL
REMARK 924 INTRA-LIGAND FREE ENERGY PREDICTED BY IDOCK:   -1.92 KCAL/MOL
REMARK 927      BINDING AFFINITY PREDICTED BY RF-SCORE:    0.00 PKD
ROOT
HETATM    1  C   UNL     1     -10.750   4.761  73.895  1.00  0.00    -0.298 C  
HETATM    2  O   UNL     1     -10.175   5.204  72.675  1.00  0.00    -0.174 OA 
ENDROOT
BRANCH   2   3
HETATM    3  C   UNL     1      -8.749   5.130  72.714  1.00  0.00    -0.119 C  
BRANCH   3   4
HETATM    4  C   UNL     1      -8.315   4.134  71.661  1.00  0.00    -0.091 C  
BRANCH   4   5
HETATM    5  O   UNL     1      -7.780   4.751  70.484  1.00  0.00    -0.057 OA 
BRANCH   5   6
HETATM    6  C   UNL     1      -8.656   4.784  69.453  1.00  0.00    -0.082 C  
HETATM    7  O   UNL     1      -9.578   3.996  69.305  1.00  0.00    -0.181 OA 
BRANCH   6   8
HETATM    8  C   UNL     1      -8.331   5.863  68.484  1.00  0.00    -0.109 C  
HETATM    9  C   UNL     1      -7.231   5.843  67.689  1.00  0.00    -0.076 C  
HETATM   10  C   UNL     1      -6.062   4.883  67.696  1.00  0.00    -0.027 C  
HETATM   11  N   UNL     1      -7.106   6.791  66.696  1.00  0.00    -0.070 NA 
HETATM   12  C   UNL     1      -7.925   7.881  66.515  1.00  0.00    -0.102 C  
HETATM   13  C   UNL     1      -9.040   8.026  67.273  1.00  0.00    -0.153 C  
HETATM   14  C   UNL     1      -7.454   8.843  65.452  1.00  0.00    -0.086 C  
HETATM   15  C   UNL     1      -9.421   6.951  68.306  1.00  0.00    -0.126 C  
BRANCH  13  16
HETATM   16  C   UNL     1      -9.810   9.295  67.156  1.00  0.00    -0.195 C  
HETATM   17  O   UNL     1     -10.771   9.427  66.413  1.00  0.00    -0.064 OA 
BRANCH  16  18
HETATM   18  O   UNL     1      -9.314  10.291  67.936  1.00  0.00    -0.137 OA 
BRANCH  18  19
HETATM   19  C   UNL     1      -9.457  11.608  67.354  1.00  0.00    -0.167 C  
HETATM   20  C   UNL     1     -10.221  12.513  68.318  1.00  0.00    -0.235 C  
HETATM   21  C   UNL     1      -8.073  12.173  67.062  1.00  0.00    -0.154 C  
ENDBRANCH  18  19
ENDBRANCH  16  18
ENDBRANCH  13  16
BRANCH  15  22
HETATM   22  C   UNL     1      -9.795   7.559  69.663  1.00  0.00    -0.180 A  
HETATM   23  C   UNL     1      -8.803   8.153  70.467  1.00  0.00    -0.144 A  
HETATM   24  C   UNL     1     -11.121   7.552  70.120  1.00  0.00    -0.246 A  
HETATM   25  C   UNL     1      -9.123   8.723  71.701  1.00  0.00    -0.314 A  
HETATM   26  O   UNL     1     -13.679   7.593  71.094  1.00  0.00    -0.254 OA 
HETATM   27  O   UNL     1     -13.071   8.635  72.926  1.00  0.00    -0.265 OA 
HETATM   28  C   UNL     1     -11.436   8.125  71.360  1.00  0.00    -0.263 A  
HETATM   29  N   UNL     1     -12.830   8.117  71.824  1.00  0.00    -0.325 N  
HETATM   30  C   UNL     1     -10.442   8.711  72.152  1.00  0.00    -0.411 A  
ENDBRANCH  15  22
ENDBRANCH   6   8
ENDBRANCH   5   6
ENDBRANCH   4   5
ENDBRANCH   3   4
ENDBRANCH   2   3
TORSDOF 9
ENDMDL
MODEL      154
REMARK 921   NORMALIZED FREE ENERGY PREDICTED BY IDOCK:   -3.56 KCAL/MOL
REMARK 922        TOTAL FREE ENERGY PREDICTED BY IDOCK:   -7.01 KCAL/MOL
REMARK 923 INTER-LIGAND FREE ENERGY PREDICTED BY IDOCK:   -6.23 KCAL/MOL
REMARK 924 INTRA-LIGAND FREE ENERGY PREDICTED BY IDOCK:   -0.78 KCAL/MOL
REMARK 927      BINDING AFFINITY PREDICTED BY RF-SCORE:    0.00 PKD
ROOT
HETATM    1  C   UNL     1     -10.249  16.294  65.847  1.00  0.00    -0.364 C  
HETATM    2  O   UNL     1      -9.231  15.338  66.101  1.00  0.00    -0.298 OA 
ENDROOT
BRANCH   2   3
HETATM    3  C   UNL     1      -9.782  14.041  66.334  1.00  0.00    -0.296 C  
BRANCH   3   4
HETATM    4  C   UNL     1      -8.714  13.208  67.010  1.00  0.00    -0.189 C  
BRANCH   4   5
HETATM    5  O   UNL     1      -8.310  12.070  66.238  1.00  0.00    -0.027 OA 
BRANCH   5   6
HETATM    6  C   UNL     1      -7.677  11.125  66.971  1.00  0.00    -0.139 C  
HETATM    7  O   UNL     1      -6.856  11.363  67.843  1.00  0.00    -0.068 OA 
BRANCH   6   8
HETATM    8  C   UNL     1      -8.057   9.751  66.550  1.00  0.00    -0.116 C  
HETATM    9  C   UNL     1      -7.759   9.238  65.329  1.00  0.00    -0.103 C  
HETATM   10  C   UNL     1      -7.161   9.925  64.122  1.00  0.00    -0.128 C  
HETATM   11  N   UNL     1      -7.989   7.899  65.092  1.00  0.00    -0.125 NA 
HETATM   12  C   UNL     1      -8.648   7.034  65.934  1.00  0.00    -0.145 C  
HETATM   13  C   UNL     1      -9.024   7.444  67.171  1.00  0.00    -0.134 C  
HETATM   14  C   UNL     1      -8.902   5.667  65.346  1.00  0.00    -0.112 C  
HETATM   15  C   UNL     1      -8.675   8.861  67.658  1.00  0.00    -0.124 C  
BRANCH  13  16
HETATM   16  C   UNL     1      -9.871   6.532  67.987  1.00  0.00    -0.123 C  
HETATM   17  O   UNL     1     -11.090   6.491  67.896  1.00  0.00    -0.303 OA 
BRANCH  16  18
HETATM   18  O   UNL     1      -9.153   5.776  68.858  1.00  0.00    -0.115 OA 
BRANCH  18  19
HETATM   19  C   UNL     1      -9.480   6.021  70.246  1.00  0.00    -0.162 C  
HETATM   20  C   UNL     1     -10.213   4.811  70.819  1.00  0.00    -0.246 C  
HETATM   21  C   UNL     1      -8.196   6.293  71.017  1.00  0.00    -0.123 C  
ENDBRANCH  18  19
ENDBRANCH  16  18
ENDBRANCH  13  16
BRANCH  15  22
HETATM   22  C   UNL     1      -9.877   9.565  68.300  1.00  0.00    -0.174 A  
HETATM   23  C   UNL     1     -10.658  10.458  67.542  1.00  0.00    -0.312 A  
HETATM   24  C   UNL     1     -10.229   9.323  69.637  1.00  0.00    -0.219 A  
HETATM   25  C   UNL     1     -11.764  11.099  68.104  1.00  0.00    -0.304 A  
HETATM   26  O   UNL     1     -10.999   8.913  72.231  1.00  0.00    -0.337 OA 
HETATM   27  O   UNL     1     -12.691  10.297  72.052  1.00  0.00    -0.401 OA 
HETATM   28  C   UNL     1     -11.340   9.972  70.194  1.00  0.00    -0.291 A  
HETATM   29  N   UNL     1     -11.701   9.705  71.592  1.00  0.00    -0.395 N  
HETATM   30  C   UNL     1     -12.108  10.859  69.433  1.00  0.00    -0.362 A  
ENDBRANCH  15  22
ENDBRANCH   6   8
ENDBRANCH   5   6
ENDBRANCH   4   5
ENDBRANCH   3   4
ENDBRANCH   2   3
TORSDOF 9
ENDMDL
MODEL      155
REMARK 921   NORMALIZED FREE ENERGY PREDICTED BY IDOCK:   -3.56 KCAL/MOL
REMARK 922        TOTAL FREE ENERGY PREDICTED BY IDOCK:   -7.01 KCAL/MOL
REMARK 923 INTER-LIGAND FREE ENERGY PREDICTED BY IDOCK:   -5.28 KCAL/MOL
REMARK 924 INTRA-LIGAND FREE ENERGY PREDICTED BY IDOCK:   -1.73 KCAL/MOL
REMARK 927      BINDING AFFINITY PREDICTED BY RF-SCORE:    0.00 PKD
ROOT
HETATM    1  C   UNL     1      -7.351   1.937  67.305  1.00  0.00    -0.055 C  
HETATM    2  O   UNL     1      -7.956   3.111  67.825  1.00  0.00    -0.074 OA 
ENDROOT
BRANCH   2   3
HETATM    3  C   UNL     1      -9.309   3.237  67.387  1.00  0.00    -0.201 C  
BRANCH   3   4
HETATM    4  C   UNL     1      -9.987   4.248  68.286  1.00  0.00     0.036 C  
BRANCH   4   5
HETATM    5  O   UNL     1      -9.397   5.552  68.219  1.00  0.00    -0.108 OA 
BRANCH   5   6
HETATM    6  C   UNL     1      -9.977   6.354  67.295  1.00  0.00    -0.146 C  
HETATM    7  O   UNL     1     -11.105   6.197  66.856  1.00  0.00    -0.334 OA 
BRANCH   6   8
HETATM    8  C   UNL     1      -9.054   7.423  66.832  1.00  0.00    -0.164 C  
HETATM    9  C   UNL     1      -7.970   7.183  66.050  1.00  0.00    -0.112 C  
HETATM   10  C   UNL     1      -7.375   5.861  65.619  1.00  0.00    -0.076 C  
HETATM   11  N   UNL     1      -7.278   8.251  65.520  1.00  0.00    -0.070 NA 
HETATM   12  C   UNL     1      -7.481   9.575  65.830  1.00  0.00    -0.100 C  
HETATM   13  C   UNL     1      -8.516   9.936  66.629  1.00  0.00    -0.126 C  
HETATM   14  C   UNL     1      -6.467  10.517  65.226  1.00  0.00    -0.069 C  
HETATM   15  C   UNL     1      -9.496   8.872  67.155  1.00  0.00    -0.202 C  
BRANCH  13  16
HETATM   16  C   UNL     1      -8.605  11.356  67.067  1.00  0.00    -0.157 C  
HETATM   17  O   UNL     1      -8.074  11.776  68.085  1.00  0.00    -0.134 OA 
BRANCH  16  18
HETATM   18  O   UNL     1      -9.359  12.121  66.236  1.00  0.00    -0.230 OA 
BRANCH  18  19
HETATM   19  C   UNL     1     -10.780  12.036  66.498  1.00  0.00    -0.258 C  
HETATM   20  C   UNL     1     -11.178  13.106  67.511  1.00  0.00    -0.314 C  
HETATM   21  C   UNL     1     -11.537  12.219  65.190  1.00  0.00    -0.402 C  
ENDBRANCH  18  19
ENDBRANCH  16  18
ENDBRANCH  13  16
BRANCH  15  22
HETATM   22  C   UNL     1      -9.765   9.027  68.657  1.00  0.00    -0.168 A  
HETATM   23  C   UNL     1     -11.000   9.534  69.104  1.00  0.00    -0.148 A  
HETATM   24  C   UNL     1      -8.803   8.654  69.608  1.00  0.00    -0.137 A  
HETATM   25  C   UNL     1     -11.270   9.671  70.467  1.00  0.00    -0.359 A  
HETATM   26  O   UNL     1      -6.994   7.949  71.537  1.00  0.00    -0.055 OA 
HETATM   27  O   UNL     1      -8.348   8.534  73.160  1.00  0.00    -0.369 OA 
HETATM   28  C   UNL     1      -9.080   8.795  70.975  1.00  0.00    -0.218 A  
HETATM   29  N   UNL     1      -8.066   8.396  71.959  1.00  0.00    -0.141 N  
HETATM   30  C   UNL     1     -10.310   9.302  71.408  1.00  0.00    -0.392 A  
ENDBRANCH  15  22
ENDBRANCH   6   8
ENDBRANCH   5   6
ENDBRANCH   4   5
ENDBRANCH   3   4
ENDBRANCH   2   3
TORSDOF 9
ENDMDL
MODEL      156
REMARK 921   NORMALIZED FREE ENERGY PREDICTED BY IDOCK:   -3.55 KCAL/MOL
REMARK 922        TOTAL FREE ENERGY PREDICTED BY IDOCK:   -7.00 KCAL/MOL
REMARK 923 INTER-LIGAND FREE ENERGY PREDICTED BY IDOCK:   -5.45 KCAL/MOL
REMARK 924 INTRA-LIGAND FREE ENERGY PREDICTED BY IDOCK:   -1.55 KCAL/MOL
REMARK 927      BINDING AFFINITY PREDICTED BY RF-SCORE:    0.00 PKD
ROOT
HETATM    1  C   UNL     1      -6.061  11.633  69.682  1.00  0.00    -0.117 C  
HETATM    2  O   UNL     1      -6.351  12.342  68.488  1.00  0.00    -0.058 OA 
ENDROOT
BRANCH   2   3
HETATM    3  C   UNL     1      -7.616  13.001  68.567  1.00  0.00    -0.121 C  
BRANCH   3   4
HETATM    4  C   UNL     1      -8.520  12.378  67.526  1.00  0.00    -0.175 C  
BRANCH   4   5
HETATM    5  O   UNL     1      -9.102  11.139  67.949  1.00  0.00    -0.143 OA 
BRANCH   5   6
HETATM    6  C   UNL     1     -10.106  10.718  67.144  1.00  0.00    -0.204 C  
HETATM    7  O   UNL     1     -11.293  10.875  67.383  1.00  0.00    -0.412 OA 
BRANCH   6   8
HETATM    8  C   UNL     1      -9.594   9.987  65.955  1.00  0.00    -0.279 C  
HETATM    9  C   UNL     1      -9.796  10.407  64.680  1.00  0.00    -0.338 C  
HETATM   10  C   UNL     1     -10.659  11.539  64.171  1.00  0.00    -0.420 C  
HETATM   11  N   UNL     1      -9.133   9.768  63.653  1.00  0.00    -0.252 NA 
HETATM   12  C   UNL     1      -8.384   8.621  63.769  1.00  0.00    -0.112 C  
HETATM   13  C   UNL     1      -8.140   8.089  64.992  1.00  0.00    -0.145 C  
HETATM   14  C   UNL     1      -7.912   8.052  62.453  1.00  0.00    -0.156 C  
HETATM   15  C   UNL     1      -8.658   8.790  66.260  1.00  0.00    -0.144 C  
BRANCH  13  16
HETATM   16  C   UNL     1      -7.463   6.765  65.061  1.00  0.00    -0.092 C  
HETATM   17  O   UNL     1      -6.249   6.637  65.121  1.00  0.00    -0.036 OA 
BRANCH  16  18
HETATM   18  O   UNL     1      -8.332   5.721  65.020  1.00  0.00    -0.137 OA 
BRANCH  18  19
HETATM   19  C   UNL     1      -7.965   4.698  64.065  1.00  0.00    -0.095 C  
HETATM   20  C   UNL     1      -7.568   3.424  64.807  1.00  0.00    -0.077 C  
HETATM   21  C   UNL     1      -9.146   4.440  63.139  1.00  0.00    -0.135 C  
ENDBRANCH  18  19
ENDBRANCH  16  18
ENDBRANCH  13  16
BRANCH  15  22
HETATM   22  C   UNL     1      -9.340   7.812  67.224  1.00  0.00    -0.175 A  
HETATM   23  C   UNL     1     -10.604   7.278  66.911  1.00  0.00    -0.375 A  
HETATM   24  C   UNL     1      -8.717   7.419  68.419  1.00  0.00    -0.123 A  
HETATM   25  C   UNL     1     -11.237   6.376  67.768  1.00  0.00    -0.258 A  
HETATM   26  O   UNL     1      -7.581   6.588  70.766  1.00  0.00    -0.086 OA 
HETATM   27  O   UNL     1      -9.290   5.303  71.254  1.00  0.00    -0.143 OA 
HETATM   28  C   UNL     1      -9.358   6.514  69.276  1.00  0.00    -0.141 A  
HETATM   29  N   UNL     1      -8.693   6.106  70.520  1.00  0.00    -0.141 N  
HETATM   30  C   UNL     1     -10.616   5.991  68.956  1.00  0.00    -0.357 A  
ENDBRANCH  15  22
ENDBRANCH   6   8
ENDBRANCH   5   6
ENDBRANCH   4   5
ENDBRANCH   3   4
ENDBRANCH   2   3
TORSDOF 9
ENDMDL
MODEL      157
REMARK 921   NORMALIZED FREE ENERGY PREDICTED BY IDOCK:   -3.50 KCAL/MOL
REMARK 922        TOTAL FREE ENERGY PREDICTED BY IDOCK:   -6.93 KCAL/MOL
REMARK 923 INTER-LIGAND FREE ENERGY PREDICTED BY IDOCK:   -5.41 KCAL/MOL
REMARK 924 INTRA-LIGAND FREE ENERGY PREDICTED BY IDOCK:   -1.51 KCAL/MOL
REMARK 927      BINDING AFFINITY PREDICTED BY RF-SCORE:    0.00 PKD
ROOT
HETATM    1  C   UNL     1     -11.900  10.641  69.498  1.00  0.00    -0.273 C  
HETATM    2  O   UNL     1     -12.023  10.991  68.128  1.00  0.00    -0.610 OA 
ENDROOT
BRANCH   2   3
HETATM    3  C   UNL     1     -11.032  10.338  67.333  1.00  0.00    -0.252 C  
BRANCH   3   4
HETATM    4  C   UNL     1     -10.351   9.308  68.208  1.00  0.00    -0.217 C  
BRANCH   4   5
HETATM    5  O   UNL     1     -10.230   8.025  67.583  1.00  0.00    -0.196 OA 
BRANCH   5   6
HETATM    6  C   UNL     1      -9.042   7.423  67.825  1.00  0.00    -0.129 C  
HETATM    7  O   UNL     1      -7.958   7.980  67.749  1.00  0.00    -0.122 OA 
BRANCH   6   8
HETATM    8  C   UNL     1      -9.206   5.980  68.141  1.00  0.00    -0.116 C  
HETATM    9  C   UNL     1      -9.755   5.087  67.278  1.00  0.00    -0.162 C  
HETATM   10  C   UNL     1     -10.435   5.333  65.949  1.00  0.00    -0.098 C  
HETATM   11  N   UNL     1      -9.701   3.743  67.582  1.00  0.00    -0.143 NA 
HETATM   12  C   UNL     1      -9.274   3.203  68.772  1.00  0.00    -0.164 C  
HETATM   13  C   UNL     1      -8.735   4.003  69.726  1.00  0.00    -0.120 C  
HETATM   14  C   UNL     1      -9.480   1.712  68.888  1.00  0.00    -0.192 C  
HETATM   15  C   UNL     1      -8.554   5.509  69.465  1.00  0.00    -0.105 C  
BRANCH  13  16
HETATM   16  C   UNL     1      -8.433   3.406  71.056  1.00  0.00    -0.067 C  
HETATM   17  O   UNL     1      -7.299   3.133  71.424  1.00  0.00    -0.035 OA 
BRANCH  16  18
HETATM   18  O   UNL     1      -9.546   3.170  71.797  1.00  0.00    -0.134 OA 
BRANCH  18  19
HETATM   19  C   UNL     1      -9.487   3.733  73.129  1.00  0.00    -0.109 C  
HETATM   20  C   UNL     1     -10.823   4.389  73.467  1.00  0.00    -0.358 C  
HETATM   21  C   UNL     1      -9.160   2.624  74.121  1.00  0.00    -0.084 C  
ENDBRANCH  18  19
ENDBRANCH  16  18
ENDBRANCH  13  16
BRANCH  15  22
HETATM   22  C   UNL     1      -9.050   6.362  70.638  1.00  0.00    -0.148 A  
HETATM   23  C   UNL     1     -10.430   6.575  70.821  1.00  0.00    -0.262 A  
HETATM   24  C   UNL     1      -8.151   6.929  71.554  1.00  0.00    -0.109 A  
HETATM   25  C   UNL     1     -10.904   7.339  71.890  1.00  0.00    -0.255 A  
HETATM   26  O   UNL     1      -6.477   8.070  73.394  1.00  0.00    -0.079 OA 
HETATM   27  O   UNL     1      -8.145   8.950  74.513  1.00  0.00    -0.241 OA 
HETATM   28  C   UNL     1      -8.633   7.696  72.623  1.00  0.00    -0.127 A  
HETATM   29  N   UNL     1      -7.681   8.278  73.578  1.00  0.00    -0.157 N  
HETATM   30  C   UNL     1     -10.006   7.903  72.795  1.00  0.00    -0.348 A  
ENDBRANCH  15  22
ENDBRANCH   6   8
ENDBRANCH   5   6
ENDBRANCH   4   5
ENDBRANCH   3   4
ENDBRANCH   2   3
TORSDOF 9
ENDMDL
MODEL      158
REMARK 921   NORMALIZED FREE ENERGY PREDICTED BY IDOCK:   -3.48 KCAL/MOL
REMARK 922        TOTAL FREE ENERGY PREDICTED BY IDOCK:   -6.89 KCAL/MOL
REMARK 923 INTER-LIGAND FREE ENERGY PREDICTED BY IDOCK:   -6.20 KCAL/MOL
REMARK 924 INTRA-LIGAND FREE ENERGY PREDICTED BY IDOCK:   -0.69 KCAL/MOL
REMARK 927      BINDING AFFINITY PREDICTED BY RF-SCORE:    0.00 PKD
ROOT
HETATM    1  C   UNL     1     -12.254  13.459  63.569  1.00  0.00    -0.400 C  
HETATM    2  O   UNL     1     -12.174  14.614  64.391  1.00  0.00    -0.487 OA 
ENDROOT
BRANCH   2   3
HETATM    3  C   UNL     1     -12.328  14.283  65.771  1.00  0.00    -0.405 C  
BRANCH   3   4
HETATM    4  C   UNL     1     -10.979  13.826  66.283  1.00  0.00    -0.297 C  
BRANCH   4   5
HETATM    5  O   UNL     1     -11.070  12.866  67.343  1.00  0.00    -0.256 OA 
BRANCH   5   6
HETATM    6  C   UNL     1     -11.524  11.659  66.933  1.00  0.00    -0.247 C  
HETATM    7  O   UNL     1     -12.174  11.476  65.915  1.00  0.00     0.044 OA 
BRANCH   6   8
HETATM    8  C   UNL     1     -11.186  10.582  67.900  1.00  0.00    -0.358 C  
HETATM    9  C   UNL     1     -11.598  10.587  69.193  1.00  0.00    -0.224 C  
HETATM   10  C   UNL     1     -12.308  11.676  69.967  1.00  0.00    -0.261 C  
HETATM   11  N   UNL     1     -11.392   9.464  69.966  1.00  0.00    -0.192 NA 
HETATM   12  C   UNL     1     -10.656   8.361  69.601  1.00  0.00    -0.219 C  
HETATM   13  C   UNL     1     -10.164   8.257  68.342  1.00  0.00    -0.242 C  
HETATM   14  C   UNL     1     -10.459   7.352  70.707  1.00  0.00    -0.221 C  
HETATM   15  C   UNL     1     -10.466   9.348  67.299  1.00  0.00    -0.332 C  
BRANCH  13  16
HETATM   16  C   UNL     1      -9.243   7.128  68.037  1.00  0.00    -0.130 C  
HETATM   17  O   UNL     1      -8.032   7.195  68.183  1.00  0.00    -0.116 OA 
BRANCH  16  18
HETATM   18  O   UNL     1      -9.887   6.034  67.553  1.00  0.00    -0.115 OA 
BRANCH  18  19
HETATM   19  C   UNL     1      -9.208   4.788  67.838  1.00  0.00    -0.122 C  
HETATM   20  C   UNL     1      -9.880   4.099  69.023  1.00  0.00    -0.106 C  
HETATM   21  C   UNL     1      -9.255   3.904  66.599  1.00  0.00    -0.181 C  
ENDBRANCH  18  19
ENDBRANCH  16  18
ENDBRANCH  13  16
BRANCH  15  22
HETATM   22  C   UNL     1      -9.208   9.783  66.537  1.00  0.00    -0.194 A  
HETATM   23  C   UNL     1      -8.994   9.337  65.218  1.00  0.00    -0.260 A  
HETATM   24  C   UNL     1      -8.263  10.637  67.124  1.00  0.00    -0.121 A  
HETATM   25  C   UNL     1      -7.862   9.730  64.502  1.00  0.00    -0.137 A  
HETATM   26  O   UNL     1      -6.367  12.305  68.181  1.00  0.00    -0.054 OA 
HETATM   27  O   UNL     1      -5.157  12.251  66.352  1.00  0.00    -0.275 OA 
HETATM   28  C   UNL     1      -7.128  11.027  66.400  1.00  0.00    -0.120 A  
HETATM   29  N   UNL     1      -6.149  11.926  67.024  1.00  0.00    -0.151 N  
HETATM   30  C   UNL     1      -6.924  10.577  65.091  1.00  0.00    -0.023 A  
ENDBRANCH  15  22
ENDBRANCH   6   8
ENDBRANCH   5   6
ENDBRANCH   4   5
ENDBRANCH   3   4
ENDBRANCH   2   3
TORSDOF 9
ENDMDL
MODEL      159
REMARK 921   NORMALIZED FREE ENERGY PREDICTED BY IDOCK:   -3.48 KCAL/MOL
REMARK 922        TOTAL FREE ENERGY PREDICTED BY IDOCK:   -6.88 KCAL/MOL
REMARK 923 INTER-LIGAND FREE ENERGY PREDICTED BY IDOCK:   -5.88 KCAL/MOL
REMARK 924 INTRA-LIGAND FREE ENERGY PREDICTED BY IDOCK:   -1.00 KCAL/MOL
REMARK 927      BINDING AFFINITY PREDICTED BY RF-SCORE:    0.00 PKD
ROOT
HETATM    1  C   UNL     1     -10.321   4.411  65.443  1.00  0.00    -0.216 C  
HETATM    2  O   UNL     1      -9.951   5.631  66.068  1.00  0.00    -0.100 OA 
ENDROOT
BRANCH   2   3
HETATM    3  C   UNL     1     -11.015   6.149  66.868  1.00  0.00    -0.305 C  
BRANCH   3   4
HETATM    4  C   UNL     1     -10.391   6.894  68.028  1.00  0.00    -0.192 C  
BRANCH   4   5
HETATM    5  O   UNL     1     -10.220   8.294  67.777  1.00  0.00    -0.197 OA 
BRANCH   5   6
HETATM    6  C   UNL     1     -10.359   9.056  68.887  1.00  0.00    -0.215 C  
HETATM    7  O   UNL     1     -11.401   9.182  69.512  1.00  0.00    -0.042 OA 
BRANCH   6   8
HETATM    8  C   UNL     1      -9.103   9.773  69.228  1.00  0.00    -0.189 C  
HETATM    9  C   UNL     1      -8.360   9.490  70.328  1.00  0.00    -0.195 C  
HETATM   10  C   UNL     1      -8.674   8.565  71.483  1.00  0.00    -0.246 C  
HETATM   11  N   UNL     1      -7.120  10.078  70.468  1.00  0.00    -0.286 NA 
HETATM   12  C   UNL     1      -6.603  11.067  69.665  1.00  0.00    -0.132 C  
HETATM   13  C   UNL     1      -7.272  11.457  68.551  1.00  0.00    -0.093 C  
HETATM   14  C   UNL     1      -5.294  11.641  70.150  1.00  0.00    -0.097 C  
HETATM   15  C   UNL     1      -8.588  10.764  68.154  1.00  0.00    -0.129 C  
BRANCH  13  16
HETATM   16  C   UNL     1      -6.759  12.635  67.799  1.00  0.00    -0.127 C  
HETATM   17  O   UNL     1      -5.843  12.566  66.993  1.00  0.00    -0.304 OA 
BRANCH  16  18
HETATM   18  O   UNL     1      -7.394  13.791  68.126  1.00  0.00    -0.097 OA 
BRANCH  18  19
HETATM   19  C   UNL     1      -6.534  14.954  68.095  1.00  0.00    -0.133 C  
HETATM   20  C   UNL     1      -7.255  16.105  67.399  1.00  0.00    -0.213 C  
HETATM   21  C   UNL     1      -6.162  15.332  69.523  1.00  0.00    -0.131 C  
ENDBRANCH  18  19
ENDBRANCH  16  18
ENDBRANCH  13  16
BRANCH  15  22
HETATM   22  C   UNL     1      -9.684  11.772  67.788  1.00  0.00    -0.185 A  
HETATM   23  C   UNL     1     -10.321  11.697  66.534  1.00  0.00    -0.259 A  
HETATM   24  C   UNL     1     -10.083  12.770  68.691  1.00  0.00    -0.132 A  
HETATM   25  C   UNL     1     -11.330  12.597  66.186  1.00  0.00    -0.375 A  
HETATM   26  O   UNL     1     -10.934  14.744  70.384  1.00  0.00    -0.176 OA 
HETATM   27  O   UNL     1     -12.408  15.485  68.940  1.00  0.00    -0.156 OA 
HETATM   28  C   UNL     1     -11.095  13.671  68.334  1.00  0.00    -0.264 A  
HETATM   29  N   UNL     1     -11.507  14.706  69.290  1.00  0.00    -0.275 N  
HETATM   30  C   UNL     1     -11.720  13.588  67.085  1.00  0.00    -0.419 A  
ENDBRANCH  15  22
ENDBRANCH   6   8
ENDBRANCH   5   6
ENDBRANCH   4   5
ENDBRANCH   3   4
ENDBRANCH   2   3
TORSDOF 9
ENDMDL
MODEL      160
REMARK 921   NORMALIZED FREE ENERGY PREDICTED BY IDOCK:   -3.47 KCAL/MOL
REMARK 922        TOTAL FREE ENERGY PREDICTED BY IDOCK:   -6.87 KCAL/MOL
REMARK 923 INTER-LIGAND FREE ENERGY PREDICTED BY IDOCK:   -5.67 KCAL/MOL
REMARK 924 INTRA-LIGAND FREE ENERGY PREDICTED BY IDOCK:   -1.20 KCAL/MOL
REMARK 927      BINDING AFFINITY PREDICTED BY RF-SCORE:    0.00 PKD
ROOT
HETATM    1  C   UNL     1     -10.480   3.534  63.821  1.00  0.00    -0.265 C  
HETATM    2  O   UNL     1      -9.262   3.919  64.439  1.00  0.00    -0.131 OA 
ENDROOT
BRANCH   2   3
HETATM    3  C   UNL     1      -9.091   3.274  65.702  1.00  0.00    -0.152 C  
BRANCH   3   4
HETATM    4  C   UNL     1      -9.643   4.199  66.764  1.00  0.00    -0.208 C  
BRANCH   4   5
HETATM    5  O   UNL     1      -9.749   5.561  66.331  1.00  0.00    -0.152 OA 
BRANCH   5   6
HETATM    6  C   UNL     1      -8.772   6.356  66.826  1.00  0.00    -0.119 C  
HETATM    7  O   UNL     1      -7.600   6.030  66.926  1.00  0.00    -0.093 OA 
BRANCH   6   8
HETATM    8  C   UNL     1      -9.305   7.664  67.291  1.00  0.00    -0.174 C  
HETATM    9  C   UNL     1      -9.292   8.786  66.528  1.00  0.00    -0.203 C  
HETATM   10  C   UNL     1      -8.639   9.023  65.183  1.00  0.00    -0.204 C  
HETATM   11  N   UNL     1      -9.969   9.904  66.969  1.00  0.00    -0.190 NA 
HETATM   12  C   UNL     1     -10.547  10.058  68.207  1.00  0.00    -0.226 C  
HETATM   13  C   UNL     1     -10.592   9.013  69.071  1.00  0.00    -0.209 C  
HETATM   14  C   UNL     1     -11.075  11.446  68.478  1.00  0.00    -0.287 C  
HETATM   15  C   UNL     1     -10.041   7.638  68.654  1.00  0.00    -0.201 C  
BRANCH  13  16
HETATM   16  C   UNL     1     -11.082   9.264  70.454  1.00  0.00    -0.255 C  
HETATM   17  O   UNL     1     -10.349   9.609  71.370  1.00  0.00    -0.242 OA 
BRANCH  16  18
HETATM   18  O   UNL     1     -12.414   9.042  70.594  1.00  0.00    -0.057 OA 
BRANCH  18  19
HETATM   19  C   UNL     1     -12.797   8.629  71.928  1.00  0.00    -0.369 C  
HETATM   20  C   UNL     1     -14.286   8.296  71.952  1.00  0.00    -0.564 C  
HETATM   21  C   UNL     1     -11.963   7.420  72.330  1.00  0.00    -0.277 C  
ENDBRANCH  18  19
ENDBRANCH  16  18
ENDBRANCH  13  16
BRANCH  15  22
HETATM   22  C   UNL     1      -9.143   7.023  69.734  1.00  0.00    -0.144 A  
HETATM   23  C   UNL     1      -7.914   7.630  70.059  1.00  0.00    -0.114 A  
HETATM   24  C   UNL     1      -9.530   5.866  70.427  1.00  0.00    -0.192 A  
HETATM   25  C   UNL     1      -7.087   7.094  71.048  1.00  0.00    -0.069 A  
HETATM   26  O   UNL     1     -10.199   3.617  71.836  1.00  0.00    -0.146 OA 
HETATM   27  O   UNL     1      -8.349   3.681  73.010  1.00  0.00    -0.084 OA 
HETATM   28  C   UNL     1      -8.694   5.332  71.418  1.00  0.00    -0.130 A  
HETATM   29  N   UNL     1      -9.114   4.124  72.139  1.00  0.00    -0.118 N  
HETATM   30  C   UNL     1      -7.474   5.942  71.730  1.00  0.00    -0.095 A  
ENDBRANCH  15  22
ENDBRANCH   6   8
ENDBRANCH   5   6
ENDBRANCH   4   5
ENDBRANCH   3   4
ENDBRANCH   2   3
TORSDOF 9
ENDMDL
MODEL      161
REMARK 921   NORMALIZED FREE ENERGY PREDICTED BY IDOCK:   -3.42 KCAL/MOL
REMARK 922        TOTAL FREE ENERGY PREDICTED BY IDOCK:   -6.80 KCAL/MOL
REMARK 923 INTER-LIGAND FREE ENERGY PREDICTED BY IDOCK:   -5.89 KCAL/MOL
REMARK 924 INTRA-LIGAND FREE ENERGY PREDICTED BY IDOCK:   -0.91 KCAL/MOL
REMARK 927      BINDING AFFINITY PREDICTED BY RF-SCORE:    0.00 PKD
ROOT
HETATM    1  C   UNL     1     -11.189   5.752  72.575  1.00  0.00    -0.297 C  
HETATM    2  O   UNL     1     -10.530   6.733  71.788  1.00  0.00    -0.206 OA 
ENDROOT
BRANCH   2   3
HETATM    3  C   UNL     1     -11.417   7.320  70.836  1.00  0.00    -0.292 C  
BRANCH   3   4
HETATM    4  C   UNL     1     -11.462   6.406  69.631  1.00  0.00    -0.378 C  
BRANCH   4   5
HETATM    5  O   UNL     1     -10.234   6.381  68.892  1.00  0.00    -0.162 OA 
BRANCH   5   6
HETATM    6  C   UNL     1     -10.411   6.508  67.557  1.00  0.00    -0.240 C  
HETATM    7  O   UNL     1     -11.456   6.266  66.973  1.00  0.00    -0.143 OA 
BRANCH   6   8
HETATM    8  C   UNL     1      -9.161   6.927  66.869  1.00  0.00    -0.167 C  
HETATM    9  C   UNL     1      -8.063   6.134  66.775  1.00  0.00    -0.109 C  
HETATM   10  C   UNL     1      -7.788   4.798  67.428  1.00  0.00    -0.094 C  
HETATM   11  N   UNL     1      -7.019   6.532  65.966  1.00  0.00    -0.060 NA 
HETATM   12  C   UNL     1      -6.902   7.753  65.346  1.00  0.00    -0.048 C  
HETATM   13  C   UNL     1      -7.924   8.643  65.397  1.00  0.00    -0.111 C  
HETATM   14  C   UNL     1      -5.576   7.976  64.659  1.00  0.00    -0.044 C  
HETATM   15  C   UNL     1      -9.238   8.275  66.109  1.00  0.00    -0.250 C  
BRANCH  13  16
HETATM   16  C   UNL     1      -7.696  10.009  64.850  1.00  0.00    -0.138 C  
HETATM   17  O   UNL     1      -8.320  10.462  63.902  1.00  0.00    -0.168 OA 
BRANCH  16  18
HETATM   18  O   UNL     1      -6.706  10.680  65.494  1.00  0.00    -0.120 OA 
BRANCH  18  19
HETATM   19  C   UNL     1      -6.986  10.927  66.892  1.00  0.00    -0.119 C  
HETATM   20  C   UNL     1      -5.839  10.391  67.746  1.00  0.00    -0.044 C  
HETATM   21  C   UNL     1      -7.166  12.424  67.104  1.00  0.00    -0.081 C  
ENDBRANCH  18  19
ENDBRANCH  16  18
ENDBRANCH  13  16
BRANCH  15  22
HETATM   22  C   UNL     1      -9.720   9.389  67.045  1.00  0.00    -0.233 A  
HETATM   23  C   UNL     1      -9.314   9.404  68.393  1.00  0.00    -0.137 A  
HETATM   24  C   UNL     1     -10.555  10.417  66.578  1.00  0.00    -0.220 A  
HETATM   25  C   UNL     1      -9.732  10.417  69.259  1.00  0.00    -0.231 A  
HETATM   26  O   UNL     1     -12.177  12.465  65.762  1.00  0.00    -0.620 OA 
HETATM   27  O   UNL     1     -12.188  13.382  67.754  1.00  0.00    -0.291 OA 
HETATM   28  C   UNL     1     -10.972  11.429  67.453  1.00  0.00    -0.273 A  
HETATM   29  N   UNL     1     -11.840  12.502  66.951  1.00  0.00    -0.377 N  
HETATM   30  C   UNL     1     -10.564  11.433  68.792  1.00  0.00    -0.235 A  
ENDBRANCH  15  22
ENDBRANCH   6   8
ENDBRANCH   5   6
ENDBRANCH   4   5
ENDBRANCH   3   4
ENDBRANCH   2   3
TORSDOF 9
ENDMDL
MODEL      162
REMARK 921   NORMALIZED FREE ENERGY PREDICTED BY IDOCK:   -3.40 KCAL/MOL
REMARK 922        TOTAL FREE ENERGY PREDICTED BY IDOCK:   -6.77 KCAL/MOL
REMARK 923 INTER-LIGAND FREE ENERGY PREDICTED BY IDOCK:   -5.47 KCAL/MOL
REMARK 924 INTRA-LIGAND FREE ENERGY PREDICTED BY IDOCK:   -1.30 KCAL/MOL
REMARK 927      BINDING AFFINITY PREDICTED BY RF-SCORE:    0.00 PKD
ROOT
HETATM    1  C   UNL     1     -10.460   3.510  64.051  1.00  0.00    -0.248 C  
HETATM    2  O   UNL     1      -9.945   3.799  65.342  1.00  0.00    -0.160 OA 
ENDROOT
BRANCH   2   3
HETATM    3  C   UNL     1      -8.704   4.500  65.263  1.00  0.00    -0.132 C  
BRANCH   3   4
HETATM    4  C   UNL     1      -7.816   3.980  66.373  1.00  0.00    -0.094 C  
BRANCH   4   5
HETATM    5  O   UNL     1      -8.548   3.511  67.512  1.00  0.00    -0.094 OA 
BRANCH   5   6
HETATM    6  C   UNL     1      -7.875   3.659  68.677  1.00  0.00    -0.055 C  
HETATM    7  O   UNL     1      -6.667   3.527  68.798  1.00  0.00    -0.043 OA 
BRANCH   6   8
HETATM    8  C   UNL     1      -8.789   3.948  69.812  1.00  0.00    -0.143 C  
HETATM    9  C   UNL     1      -9.344   2.981  70.586  1.00  0.00    -0.151 C  
HETATM   10  C   UNL     1      -9.311   1.479  70.410  1.00  0.00    -0.167 C  
HETATM   11  N   UNL     1     -10.031   3.346  71.724  1.00  0.00    -0.157 NA 
HETATM   12  C   UNL     1     -10.356   4.631  72.091  1.00  0.00    -0.176 C  
HETATM   13  C   UNL     1      -9.885   5.682  71.374  1.00  0.00    -0.221 C  
HETATM   14  C   UNL     1     -11.257   4.724  73.299  1.00  0.00    -0.421 C  
HETATM   15  C   UNL     1      -8.947   5.446  70.177  1.00  0.00    -0.157 C  
BRANCH  13  16
HETATM   16  C   UNL     1     -10.388   7.043  71.708  1.00  0.00    -0.197 C  
HETATM   17  O   UNL     1     -11.165   7.661  70.997  1.00  0.00    -0.257 OA 
BRANCH  16  18
HETATM   18  O   UNL     1      -9.869   7.531  72.865  1.00  0.00    -0.178 OA 
BRANCH  18  19
HETATM   19  C   UNL     1      -8.436   7.730  72.821  1.00  0.00    -0.146 C  
HETATM   20  C   UNL     1      -8.090   8.708  71.701  1.00  0.00    -0.183 C  
HETATM   21  C   UNL     1      -7.969   8.261  74.169  1.00  0.00    -0.282 C  
ENDBRANCH  18  19
ENDBRANCH  16  18
ENDBRANCH  13  16
BRANCH  15  22
HETATM   22  C   UNL     1      -9.369   6.255  68.944  1.00  0.00    -0.128 A  
HETATM   23  C   UNL     1     -10.539   5.908  68.240  1.00  0.00    -0.310 A  
HETATM   24  C   UNL     1      -8.616   7.355  68.506  1.00  0.00    -0.128 A  
HETATM   25  C   UNL     1     -10.948   6.639  67.123  1.00  0.00    -0.478 A  
HETATM   26  O   UNL     1      -7.220   9.518  67.578  1.00  0.00    -0.088 OA 
HETATM   27  O   UNL     1      -8.638   9.857  65.940  1.00  0.00    -0.132 OA 
HETATM   28  C   UNL     1      -9.032   8.083  67.382  1.00  0.00    -0.134 A  
HETATM   29  N   UNL     1      -8.238   9.235  66.938  1.00  0.00    -0.118 N  
HETATM   30  C   UNL     1     -10.195   7.729  66.689  1.00  0.00    -0.288 A  
ENDBRANCH  15  22
ENDBRANCH   6   8
ENDBRANCH   5   6
ENDBRANCH   4   5
ENDBRANCH   3   4
ENDBRANCH   2   3
TORSDOF 9
ENDMDL
MODEL      163
REMARK 921   NORMALIZED FREE ENERGY PREDICTED BY IDOCK:   -3.39 KCAL/MOL
REMARK 922        TOTAL FREE ENERGY PREDICTED BY IDOCK:   -6.76 KCAL/MOL
REMARK 923 INTER-LIGAND FREE ENERGY PREDICTED BY IDOCK:   -5.30 KCAL/MOL
REMARK 924 INTRA-LIGAND FREE ENERGY PREDICTED BY IDOCK:   -1.45 KCAL/MOL
REMARK 927      BINDING AFFINITY PREDICTED BY RF-SCORE:    0.00 PKD
ROOT
HETATM    1  C   UNL     1     -10.955   3.926  73.827  1.00  0.00    -0.238 C  
HETATM    2  O   UNL     1     -10.398   2.892  73.031  1.00  0.00    -0.137 OA 
ENDROOT
BRANCH   2   3
HETATM    3  C   UNL     1      -9.938   3.392  71.775  1.00  0.00    -0.124 C  
BRANCH   3   4
HETATM    4  C   UNL     1     -10.086   4.897  71.802  1.00  0.00    -0.202 C  
BRANCH   4   5
HETATM    5  O   UNL     1      -9.871   5.511  70.525  1.00  0.00    -0.173 OA 
BRANCH   5   6
HETATM    6  C   UNL     1      -8.744   6.259  70.476  1.00  0.00    -0.143 C  
HETATM    7  O   UNL     1      -7.659   5.903  70.908  1.00  0.00    -0.091 OA 
BRANCH   6   8
HETATM    8  C   UNL     1      -8.994   7.599  69.881  1.00  0.00    -0.144 C  
HETATM    9  C   UNL     1      -9.571   8.620  70.565  1.00  0.00    -0.181 C  
HETATM   10  C   UNL     1     -10.206   8.615  71.938  1.00  0.00    -0.404 C  
HETATM   11  N   UNL     1      -9.598   9.875  69.995  1.00  0.00    -0.236 NA 
HETATM   12  C   UNL     1      -9.229  10.183  68.707  1.00  0.00    -0.164 C  
HETATM   13  C   UNL     1      -8.669   9.234  67.915  1.00  0.00    -0.124 C  
HETATM   14  C   UNL     1      -9.519  11.607  68.299  1.00  0.00    -0.191 C  
HETATM   15  C   UNL     1      -8.400   7.823  68.468  1.00  0.00    -0.129 C  
BRANCH  13  16
HETATM   16  C   UNL     1      -8.430   9.563  66.484  1.00  0.00    -0.126 C  
HETATM   17  O   UNL     1      -7.315   9.739  66.014  1.00  0.00    -0.096 OA 
BRANCH  16  18
HETATM   18  O   UNL     1      -9.579   9.677  65.767  1.00  0.00    -0.223 OA 
BRANCH  18  19
HETATM   19  C   UNL     1      -9.543  10.732  64.776  1.00  0.00    -0.262 C  
HETATM   20  C   UNL     1      -9.388  10.123  63.385  1.00  0.00    -0.334 C  
HETATM   21  C   UNL     1     -10.828  11.544  64.873  1.00  0.00    -0.345 C  
ENDBRANCH  18  19
ENDBRANCH  16  18
ENDBRANCH  13  16
BRANCH  15  22
HETATM   22  C   UNL     1      -8.875   6.726  67.508  1.00  0.00    -0.117 A  
HETATM   23  C   UNL     1     -10.250   6.557  67.256  1.00  0.00    -0.242 A  
HETATM   24  C   UNL     1      -7.959   5.887  66.855  1.00  0.00    -0.102 A  
HETATM   25  C   UNL     1     -10.704   5.573  66.376  1.00  0.00    -0.262 A  
HETATM   26  O   UNL     1      -6.252   4.208  65.530  1.00  0.00    -0.026 OA 
HETATM   27  O   UNL     1      -7.898   3.171  64.518  1.00  0.00    -0.077 OA 
HETATM   28  C   UNL     1      -8.422   4.900  65.974  1.00  0.00    -0.117 A  
HETATM   29  N   UNL     1      -7.452   4.033  65.292  1.00  0.00    -0.079 N  
HETATM   30  C   UNL     1      -9.790   4.739  65.732  1.00  0.00    -0.214 A  
ENDBRANCH  15  22
ENDBRANCH   6   8
ENDBRANCH   5   6
ENDBRANCH   4   5
ENDBRANCH   3   4
ENDBRANCH   2   3
TORSDOF 9
ENDMDL
MODEL      164
REMARK 921   NORMALIZED FREE ENERGY PREDICTED BY IDOCK:   -3.39 KCAL/MOL
REMARK 922        TOTAL FREE ENERGY PREDICTED BY IDOCK:   -6.75 KCAL/MOL
REMARK 923 INTER-LIGAND FREE ENERGY PREDICTED BY IDOCK:   -6.58 KCAL/MOL
REMARK 924 INTRA-LIGAND FREE ENERGY PREDICTED BY IDOCK:   -0.17 KCAL/MOL
REMARK 927      BINDING AFFINITY PREDICTED BY RF-SCORE:    0.00 PKD
ROOT
HETATM    1  C   UNL     1     -12.427   9.960  71.494  1.00  0.00    -0.411 C  
HETATM    2  O   UNL     1     -12.999  10.959  70.663  1.00  0.00    -0.292 OA 
ENDROOT
BRANCH   2   3
HETATM    3  C   UNL     1     -12.442  12.245  70.935  1.00  0.00    -0.276 C  
BRANCH   3   4
HETATM    4  C   UNL     1     -11.762  12.724  69.671  1.00  0.00    -0.302 C  
BRANCH   4   5
HETATM    5  O   UNL     1     -12.118  11.961  68.511  1.00  0.00    -0.412 OA 
BRANCH   5   6
HETATM    6  C   UNL     1     -11.648  12.491  67.358  1.00  0.00    -0.370 C  
HETATM    7  O   UNL     1     -12.318  12.655  66.351  1.00  0.00    -0.521 OA 
BRANCH   6   8
HETATM    8  C   UNL     1     -10.197  12.801  67.442  1.00  0.00    -0.222 C  
HETATM    9  C   UNL     1      -9.664  13.983  67.042  1.00  0.00    -0.256 C  
HETATM   10  C   UNL     1     -10.325  15.134  66.316  1.00  0.00    -0.303 C  
HETATM   11  N   UNL     1      -8.341  14.250  67.323  1.00  0.00    -0.202 NA 
HETATM   12  C   UNL     1      -7.434  13.360  67.847  1.00  0.00    -0.149 C  
HETATM   13  C   UNL     1      -7.844  12.133  68.255  1.00  0.00    -0.153 C  
HETATM   14  C   UNL     1      -6.015  13.873  67.895  1.00  0.00    -0.143 C  
HETATM   15  C   UNL     1      -9.331  11.747  68.178  1.00  0.00    -0.190 C  
BRANCH  13  16
HETATM   16  C   UNL     1      -6.808  11.146  68.667  1.00  0.00    -0.070 C  
HETATM   17  O   UNL     1      -6.062  11.318  69.620  1.00  0.00    -0.075 OA 
BRANCH  16  18
HETATM   18  O   UNL     1      -6.762  10.056  67.858  1.00  0.00    -0.066 OA 
BRANCH  18  19
HETATM   19  C   UNL     1      -5.598  10.020  66.998  1.00  0.00    -0.046 C  
HETATM   20  C   UNL     1      -5.149   8.574  66.804  1.00  0.00    -0.031 C  
HETATM   21  C   UNL     1      -5.949  10.663  65.663  1.00  0.00    -0.128 C  
ENDBRANCH  18  19
ENDBRANCH  16  18
ENDBRANCH  13  16
BRANCH  15  22
HETATM   22  C   UNL     1      -9.537  10.359  67.558  1.00  0.00    -0.178 A  
HETATM   23  C   UNL     1      -9.204  10.133  66.209  1.00  0.00    -0.191 A  
HETATM   24  C   UNL     1     -10.041   9.293  68.318  1.00  0.00    -0.214 A  
HETATM   25  C   UNL     1      -9.371   8.875  65.628  1.00  0.00    -0.259 A  
HETATM   26  O   UNL     1     -11.010   7.151  69.719  1.00  0.00    -0.244 OA 
HETATM   27  O   UNL     1     -10.865   5.822  67.982  1.00  0.00    -0.242 OA 
HETATM   28  C   UNL     1     -10.208   8.032  67.728  1.00  0.00    -0.222 A  
HETATM   29  N   UNL     1     -10.731   6.924  68.537  1.00  0.00    -0.216 N  
HETATM   30  C   UNL     1      -9.876   7.819  66.386  1.00  0.00    -0.198 A  
ENDBRANCH  15  22
ENDBRANCH   6   8
ENDBRANCH   5   6
ENDBRANCH   4   5
ENDBRANCH   3   4
ENDBRANCH   2   3
TORSDOF 9
ENDMDL
MODEL      165
REMARK 921   NORMALIZED FREE ENERGY PREDICTED BY IDOCK:   -3.38 KCAL/MOL
REMARK 922        TOTAL FREE ENERGY PREDICTED BY IDOCK:   -6.74 KCAL/MOL
REMARK 923 INTER-LIGAND FREE ENERGY PREDICTED BY IDOCK:   -5.38 KCAL/MOL
REMARK 924 INTRA-LIGAND FREE ENERGY PREDICTED BY IDOCK:   -1.36 KCAL/MOL
REMARK 927      BINDING AFFINITY PREDICTED BY RF-SCORE:    0.00 PKD
ROOT
HETATM    1  C   UNL     1     -10.754   3.813  62.837  1.00  0.00    -0.169 C  
HETATM    2  O   UNL     1     -10.391   2.928  63.886  1.00  0.00    -0.173 OA 
ENDROOT
BRANCH   2   3
HETATM    3  C   UNL     1      -9.217   3.378  64.564  1.00  0.00    -0.137 C  
BRANCH   3   4
HETATM    4  C   UNL     1      -9.617   3.734  65.979  1.00  0.00    -0.159 C  
BRANCH   4   5
HETATM    5  O   UNL     1      -9.841   5.136  66.170  1.00  0.00    -0.165 OA 
BRANCH   5   6
HETATM    6  C   UNL     1      -8.711   5.823  66.455  1.00  0.00    -0.123 C  
HETATM    7  O   UNL     1      -7.944   5.544  67.364  1.00  0.00    -0.100 OA 
BRANCH   6   8
HETATM    8  C   UNL     1      -8.538   7.001  65.565  1.00  0.00    -0.091 C  
HETATM    9  C   UNL     1      -7.924   6.936  64.356  1.00  0.00    -0.093 C  
HETATM   10  C   UNL     1      -7.174   5.784  63.724  1.00  0.00    -0.055 C  
HETATM   11  N   UNL     1      -7.970   8.033  63.522  1.00  0.00    -0.147 NA 
HETATM   12  C   UNL     1      -8.455   9.276  63.854  1.00  0.00    -0.190 C  
HETATM   13  C   UNL     1      -9.063   9.472  65.051  1.00  0.00    -0.281 C  
HETATM   14  C   UNL     1      -8.227  10.334  62.801  1.00  0.00    -0.162 C  
HETATM   15  C   UNL     1      -9.256   8.295  66.023  1.00  0.00    -0.226 C  
BRANCH  13  16
HETATM   16  C   UNL     1      -9.429  10.862  65.435  1.00  0.00    -0.214 C  
HETATM   17  O   UNL     1      -8.604  11.745  65.617  1.00  0.00     0.084 OA 
BRANCH  16  18
HETATM   18  O   UNL     1     -10.768  11.035  65.589  1.00  0.00    -0.231 OA 
BRANCH  18  19
HETATM   19  C   UNL     1     -11.115  12.159  66.433  1.00  0.00    -0.314 C  
HETATM   20  C   UNL     1     -12.253  12.948  65.791  1.00  0.00    -0.498 C  
HETATM   21  C   UNL     1     -11.521  11.639  67.805  1.00  0.00    -0.373 C  
ENDBRANCH  18  19
ENDBRANCH  16  18
ENDBRANCH  13  16
BRANCH  15  22
HETATM   22  C   UNL     1      -8.844   8.656  67.456  1.00  0.00    -0.139 A  
HETATM   23  C   UNL     1      -7.590   9.246  67.702  1.00  0.00    -0.088 A  
HETATM   24  C   UNL     1      -9.706   8.422  68.539  1.00  0.00    -0.169 A  
HETATM   25  C   UNL     1      -7.200   9.594  68.997  1.00  0.00    -0.071 A  
HETATM   26  O   UNL     1     -11.318   8.013  70.713  1.00  0.00    -0.272 OA 
HETATM   27  O   UNL     1      -9.836   8.852  72.094  1.00  0.00    -0.312 OA 
HETATM   28  C   UNL     1      -9.308   8.772  69.836  1.00  0.00    -0.162 A  
HETATM   29  N   UNL     1     -10.222   8.528  70.959  1.00  0.00    -0.194 N  
HETATM   30  C   UNL     1      -8.059   9.357  70.070  1.00  0.00    -0.159 A  
ENDBRANCH  15  22
ENDBRANCH   6   8
ENDBRANCH   5   6
ENDBRANCH   4   5
ENDBRANCH   3   4
ENDBRANCH   2   3
TORSDOF 9
ENDMDL
MODEL      166
REMARK 921   NORMALIZED FREE ENERGY PREDICTED BY IDOCK:   -3.38 KCAL/MOL
REMARK 922        TOTAL FREE ENERGY PREDICTED BY IDOCK:   -6.74 KCAL/MOL
REMARK 923 INTER-LIGAND FREE ENERGY PREDICTED BY IDOCK:   -5.19 KCAL/MOL
REMARK 924 INTRA-LIGAND FREE ENERGY PREDICTED BY IDOCK:   -1.55 KCAL/MOL
REMARK 927      BINDING AFFINITY PREDICTED BY RF-SCORE:    0.00 PKD
ROOT
HETATM    1  C   UNL     1     -11.698  12.532  67.410  1.00  0.00    -0.366 C  
HETATM    2  O   UNL     1     -12.139  11.338  68.037  1.00  0.00    -0.638 OA 
ENDROOT
BRANCH   2   3
HETATM    3  C   UNL     1     -11.111  10.347  68.053  1.00  0.00    -0.298 C  
BRANCH   3   4
HETATM    4  C   UNL     1     -10.257  10.556  66.821  1.00  0.00    -0.234 C  
BRANCH   4   5
HETATM    5  O   UNL     1      -9.706   9.341  66.300  1.00  0.00    -0.228 OA 
BRANCH   5   6
HETATM    6  C   UNL     1      -8.391   9.186  66.584  1.00  0.00    -0.122 C  
HETATM    7  O   UNL     1      -7.648  10.092  66.924  1.00  0.00    -0.097 OA 
BRANCH   6   8
HETATM    8  C   UNL     1      -7.941   7.785  66.375  1.00  0.00    -0.099 C  
HETATM    9  C   UNL     1      -7.668   7.265  65.152  1.00  0.00    -0.113 C  
HETATM   10  C   UNL     1      -7.890   7.871  63.783  1.00  0.00    -0.141 C  
HETATM   11  N   UNL     1      -7.084   6.018  65.069  1.00  0.00    -0.059 NA 
HETATM   12  C   UNL     1      -6.881   5.154  66.119  1.00  0.00    -0.062 C  
HETATM   13  C   UNL     1      -7.148   5.551  67.388  1.00  0.00    -0.074 C  
HETATM   14  C   UNL     1      -6.375   3.791  65.712  1.00  0.00    -0.032 C  
HETATM   15  C   UNL     1      -7.633   6.984  67.666  1.00  0.00    -0.110 C  
BRANCH  13  16
HETATM   16  C   UNL     1      -7.066   4.536  68.474  1.00  0.00    -0.053 C  
HETATM   17  O   UNL     1      -7.831   3.588  68.562  1.00  0.00    -0.056 OA 
BRANCH  16  18
HETATM   18  O   UNL     1      -6.075   4.794  69.367  1.00  0.00    -0.023 OA 
BRANCH  18  19
HETATM   19  C   UNL     1      -6.489   4.662  70.748  1.00  0.00    -0.030 C  
HETATM   20  C   UNL     1      -6.353   3.206  71.185  1.00  0.00    -0.019 C  
HETATM   21  C   UNL     1      -5.626   5.571  71.612  1.00  0.00    -0.017 C  
ENDBRANCH  18  19
ENDBRANCH  16  18
ENDBRANCH  13  16
BRANCH  15  22
HETATM   22  C   UNL     1      -8.839   7.013  68.613  1.00  0.00    -0.128 A  
HETATM   23  C   UNL     1     -10.053   6.413  68.226  1.00  0.00    -0.169 A  
HETATM   24  C   UNL     1      -8.755   7.616  69.877  1.00  0.00    -0.139 A  
HETATM   25  C   UNL     1     -11.160   6.417  69.077  1.00  0.00    -0.424 A  
HETATM   26  O   UNL     1      -8.686   8.759  72.363  1.00  0.00    -0.392 OA 
HETATM   27  O   UNL     1     -10.773   8.226  72.775  1.00  0.00    -0.343 OA 
HETATM   28  C   UNL     1      -9.870   7.617  70.726  1.00  0.00    -0.177 A  
HETATM   29  N   UNL     1      -9.766   8.245  72.049  1.00  0.00    -0.225 N  
HETATM   30  C   UNL     1     -11.072   7.020  70.331  1.00  0.00    -0.323 A  
ENDBRANCH  15  22
ENDBRANCH   6   8
ENDBRANCH   5   6
ENDBRANCH   4   5
ENDBRANCH   3   4
ENDBRANCH   2   3
TORSDOF 9
ENDMDL
MODEL      167
REMARK 921   NORMALIZED FREE ENERGY PREDICTED BY IDOCK:   -3.36 KCAL/MOL
REMARK 922        TOTAL FREE ENERGY PREDICTED BY IDOCK:   -6.71 KCAL/MOL
REMARK 923 INTER-LIGAND FREE ENERGY PREDICTED BY IDOCK:   -5.51 KCAL/MOL
REMARK 924 INTRA-LIGAND FREE ENERGY PREDICTED BY IDOCK:   -1.20 KCAL/MOL
REMARK 927      BINDING AFFINITY PREDICTED BY RF-SCORE:    0.00 PKD
ROOT
HETATM    1  C   UNL     1     -11.047  16.566  68.259  1.00  0.00    -0.321 C  
HETATM    2  O   UNL     1      -9.786  17.217  68.203  1.00  0.00    -0.260 OA 
ENDROOT
BRANCH   2   3
HETATM    3  C   UNL     1      -8.859  16.636  69.121  1.00  0.00    -0.136 C  
BRANCH   3   4
HETATM    4  C   UNL     1      -8.015  15.645  68.351  1.00  0.00    -0.136 C  
BRANCH   4   5
HETATM    5  O   UNL     1      -8.440  14.287  68.520  1.00  0.00    -0.161 OA 
BRANCH   5   6
HETATM    6  C   UNL     1      -7.578  13.388  67.989  1.00  0.00    -0.143 C  
HETATM    7  O   UNL     1      -6.825  13.622  67.056  1.00  0.00    -0.023 OA 
BRANCH   6   8
HETATM    8  C   UNL     1      -7.696  12.056  68.639  1.00  0.00    -0.099 C  
HETATM    9  C   UNL     1      -6.705  11.501  69.381  1.00  0.00    -0.116 C  
HETATM   10  C   UNL     1      -5.283  11.974  69.588  1.00  0.00    -0.069 C  
HETATM   11  N   UNL     1      -6.968  10.349  70.093  1.00  0.00    -0.164 NA 
HETATM   12  C   UNL     1      -8.115   9.596  70.011  1.00  0.00    -0.178 C  
HETATM   13  C   UNL     1      -9.165  10.035  69.272  1.00  0.00    -0.212 C  
HETATM   14  C   UNL     1      -8.063   8.297  70.778  1.00  0.00    -0.109 C  
HETATM   15  C   UNL     1      -9.097  11.398  68.561  1.00  0.00    -0.169 C  
BRANCH  13  16
HETATM   16  C   UNL     1     -10.322   9.119  69.081  1.00  0.00    -0.212 C  
HETATM   17  O   UNL     1     -11.465   9.409  69.404  1.00  0.00     0.015 OA 
BRANCH  16  18
HETATM   18  O   UNL     1      -9.970   7.923  68.542  1.00  0.00    -0.176 OA 
BRANCH  18  19
HETATM   19  C   UNL     1     -10.464   7.724  67.196  1.00  0.00    -0.343 C  
HETATM   20  C   UNL     1      -9.292   7.704  66.218  1.00  0.00    -0.189 C  
HETATM   21  C   UNL     1     -11.239   6.415  67.142  1.00  0.00    -0.298 C  
ENDBRANCH  18  19
ENDBRANCH  16  18
ENDBRANCH  13  16
BRANCH  15  22
HETATM   22  C   UNL     1      -9.568  11.314  67.104  1.00  0.00    -0.194 A  
HETATM   23  C   UNL     1     -10.887  11.675  66.768  1.00  0.00    -0.322 A  
HETATM   24  C   UNL     1      -8.700  10.897  66.084  1.00  0.00    -0.189 A  
HETATM   25  C   UNL     1     -11.333  11.619  65.446  1.00  0.00    -0.218 A  
HETATM   26  O   UNL     1      -7.081  10.103  64.025  1.00  0.00    -0.133 OA 
HETATM   27  O   UNL     1      -8.671  10.372  62.539  1.00  0.00    -0.179 OA 
HETATM   28  C   UNL     1      -9.154  10.841  64.759  1.00  0.00    -0.200 A  
HETATM   29  N   UNL     1      -8.233  10.408  63.701  1.00  0.00    -0.155 N  
HETATM   30  C   UNL     1     -10.468  11.200  64.436  1.00  0.00    -0.418 A  
ENDBRANCH  15  22
ENDBRANCH   6   8
ENDBRANCH   5   6
ENDBRANCH   4   5
ENDBRANCH   3   4
ENDBRANCH   2   3
TORSDOF 9
ENDMDL
MODEL      168
REMARK 921   NORMALIZED FREE ENERGY PREDICTED BY IDOCK:   -3.36 KCAL/MOL
REMARK 922        TOTAL FREE ENERGY PREDICTED BY IDOCK:   -6.70 KCAL/MOL
REMARK 923 INTER-LIGAND FREE ENERGY PREDICTED BY IDOCK:   -5.64 KCAL/MOL
REMARK 924 INTRA-LIGAND FREE ENERGY PREDICTED BY IDOCK:   -1.07 KCAL/MOL
REMARK 927      BINDING AFFINITY PREDICTED BY RF-SCORE:    0.00 PKD
ROOT
HETATM    1  C   UNL     1     -11.991  12.733  65.659  1.00  0.00    -0.452 C  
HETATM    2  O   UNL     1     -10.975  12.748  64.668  1.00  0.00    -0.298 OA 
ENDROOT
BRANCH   2   3
HETATM    3  C   UNL     1     -10.822  11.466  64.059  1.00  0.00    -0.383 C  
BRANCH   3   4
HETATM    4  C   UNL     1     -10.477  10.480  65.154  1.00  0.00    -0.154 C  
BRANCH   4   5
HETATM    5  O   UNL     1      -9.098  10.521  65.540  1.00  0.00    -0.170 OA 
BRANCH   5   6
HETATM    6  C   UNL     1      -8.601   9.308  65.877  1.00  0.00    -0.148 C  
HETATM    7  O   UNL     1      -8.328   8.428  65.076  1.00  0.00    -0.155 OA 
BRANCH   6   8
HETATM    8  C   UNL     1      -8.479   9.148  67.350  1.00  0.00    -0.115 C  
HETATM    9  C   UNL     1      -7.596   9.852  68.103  1.00  0.00    -0.081 C  
HETATM   10  C   UNL     1      -6.489  10.783  67.662  1.00  0.00    -0.056 C  
HETATM   11  N   UNL     1      -7.678   9.772  69.478  1.00  0.00    -0.105 NA 
HETATM   12  C   UNL     1      -8.482   8.913  70.188  1.00  0.00    -0.146 C  
HETATM   13  C   UNL     1      -9.384   8.134  69.540  1.00  0.00    -0.155 C  
HETATM   14  C   UNL     1      -8.244   8.926  71.679  1.00  0.00    -0.106 C  
HETATM   15  C   UNL     1      -9.545   8.241  68.013  1.00  0.00    -0.171 C  
BRANCH  13  16
HETATM   16  C   UNL     1     -10.120   7.107  70.326  1.00  0.00    -0.188 C  
HETATM   17  O   UNL     1      -9.573   6.151  70.856  1.00  0.00    -0.170 OA 
BRANCH  16  18
HETATM   18  O   UNL     1     -11.460   7.329  70.367  1.00  0.00    -0.284 OA 
BRANCH  18  19
HETATM   19  C   UNL     1     -11.953   7.669  71.684  1.00  0.00    -0.299 C  
HETATM   20  C   UNL     1     -12.211   9.171  71.761  1.00  0.00    -0.442 C  
HETATM   21  C   UNL     1     -13.229   6.884  71.953  1.00  0.00    -0.218 C  
ENDBRANCH  18  19
ENDBRANCH  16  18
ENDBRANCH  13  16
BRANCH  15  22
HETATM   22  C   UNL     1      -9.572   6.865  67.337  1.00  0.00    -0.163 A  
HETATM   23  C   UNL     1     -10.791   6.326  66.883  1.00  0.00    -0.428 A  
HETATM   24  C   UNL     1      -8.393   6.130  67.143  1.00  0.00    -0.105 A  
HETATM   25  C   UNL     1     -10.836   5.081  66.253  1.00  0.00    -0.150 A  
HETATM   26  O   UNL     1      -6.148   4.624  66.714  1.00  0.00    -0.029 OA 
HETATM   27  O   UNL     1      -7.288   3.020  65.745  1.00  0.00    -0.069 OA 
HETATM   28  C   UNL     1      -8.445   4.879  66.511  1.00  0.00    -0.110 A  
HETATM   29  N   UNL     1      -7.203   4.123  66.309  1.00  0.00    -0.067 N  
HETATM   30  C   UNL     1      -9.662   4.352  66.066  1.00  0.00    -0.218 A  
ENDBRANCH  15  22
ENDBRANCH   6   8
ENDBRANCH   5   6
ENDBRANCH   4   5
ENDBRANCH   3   4
ENDBRANCH   2   3
TORSDOF 9
ENDMDL
MODEL      169
REMARK 921   NORMALIZED FREE ENERGY PREDICTED BY IDOCK:   -3.35 KCAL/MOL
REMARK 922        TOTAL FREE ENERGY PREDICTED BY IDOCK:   -6.69 KCAL/MOL
REMARK 923 INTER-LIGAND FREE ENERGY PREDICTED BY IDOCK:   -5.20 KCAL/MOL
REMARK 924 INTRA-LIGAND FREE ENERGY PREDICTED BY IDOCK:   -1.49 KCAL/MOL
REMARK 927      BINDING AFFINITY PREDICTED BY RF-SCORE:    0.00 PKD
ROOT
HETATM    1  C   UNL     1     -11.262   7.596  73.048  1.00  0.00    -0.333 C  
HETATM    2  O   UNL     1     -10.676   8.650  72.300  1.00  0.00    -0.344 OA 
ENDROOT
BRANCH   2   3
HETATM    3  C   UNL     1     -11.343   8.835  71.050  1.00  0.00    -0.278 C  
BRANCH   3   4
HETATM    4  C   UNL     1     -11.407   7.487  70.365  1.00  0.00    -0.233 C  
BRANCH   4   5
HETATM    5  O   UNL     1     -10.191   7.133  69.695  1.00  0.00    -0.197 OA 
BRANCH   5   6
HETATM    6  C   UNL     1     -10.301   7.143  68.346  1.00  0.00    -0.194 C  
HETATM    7  O   UNL     1     -11.339   6.932  67.737  1.00  0.00    -0.110 OA 
BRANCH   6   8
HETATM    8  C   UNL     1      -8.992   7.385  67.685  1.00  0.00    -0.126 C  
HETATM    9  C   UNL     1      -7.911   6.584  67.859  1.00  0.00    -0.109 C  
HETATM   10  C   UNL     1      -7.720   5.428  68.816  1.00  0.00    -0.083 C  
HETATM   11  N   UNL     1      -6.799   6.779  67.068  1.00  0.00    -0.066 NA 
HETATM   12  C   UNL     1      -6.603   7.828  66.200  1.00  0.00    -0.050 C  
HETATM   13  C   UNL     1      -7.603   8.714  65.968  1.00  0.00    -0.093 C  
HETATM   14  C   UNL     1      -5.223   7.879  65.589  1.00  0.00    -0.028 C  
HETATM   15  C   UNL     1      -8.976   8.527  66.637  1.00  0.00    -0.178 C  
BRANCH  13  16
HETATM   16  C   UNL     1      -7.299   9.919  65.148  1.00  0.00    -0.133 C  
HETATM   17  O   UNL     1      -6.908  10.973  65.627  1.00  0.00    -0.009 OA 
BRANCH  16  18
HETATM   18  O   UNL     1      -7.530   9.731  63.822  1.00  0.00    -0.118 OA 
BRANCH  18  19
HETATM   19  C   UNL     1      -8.918   9.472  63.506  1.00  0.00    -0.173 C  
HETATM   20  C   UNL     1      -9.536  10.710  62.862  1.00  0.00    -0.367 C  
HETATM   21  C   UNL     1      -8.997   8.276  62.567  1.00  0.00     0.415 C  
ENDBRANCH  18  19
ENDBRANCH  16  18
ENDBRANCH  13  16
BRANCH  15  22
HETATM   22  C   UNL     1      -9.500   9.828  67.256  1.00  0.00    -0.183 A  
HETATM   23  C   UNL     1      -8.998  10.271  68.495  1.00  0.00    -0.134 A  
HETATM   24  C   UNL     1     -10.468  10.605  66.601  1.00  0.00    -0.296 A  
HETATM   25  C   UNL     1      -9.452  11.460  69.071  1.00  0.00     0.020 A  
HETATM   26  O   UNL     1     -12.347  12.190  65.398  1.00  0.00    -0.533 OA 
HETATM   27  O   UNL     1     -12.305  13.651  67.033  1.00  0.00    -0.355 OA 
HETATM   28  C   UNL     1     -10.920  11.796  67.185  1.00  0.00    -0.276 A  
HETATM   29  N   UNL     1     -11.929  12.602  66.485  1.00  0.00    -0.386 N  
HETATM   30  C   UNL     1     -10.417  12.226  68.417  1.00  0.00    -0.244 A  
ENDBRANCH  15  22
ENDBRANCH   6   8
ENDBRANCH   5   6
ENDBRANCH   4   5
ENDBRANCH   3   4
ENDBRANCH   2   3
TORSDOF 9
ENDMDL
MODEL      170
REMARK 921   NORMALIZED FREE ENERGY PREDICTED BY IDOCK:   -3.35 KCAL/MOL
REMARK 922        TOTAL FREE ENERGY PREDICTED BY IDOCK:   -6.69 KCAL/MOL
REMARK 923 INTER-LIGAND FREE ENERGY PREDICTED BY IDOCK:   -5.86 KCAL/MOL
REMARK 924 INTRA-LIGAND FREE ENERGY PREDICTED BY IDOCK:   -0.83 KCAL/MOL
REMARK 927      BINDING AFFINITY PREDICTED BY RF-SCORE:    0.00 PKD
ROOT
HETATM    1  C   UNL     1      -7.456  18.902  68.380  1.00  0.00    -0.300 C  
HETATM    2  O   UNL     1      -7.907  18.866  67.035  1.00  0.00    -0.236 OA 
ENDROOT
BRANCH   2   3
HETATM    3  C   UNL     1      -7.887  17.536  66.514  1.00  0.00    -0.276 C  
BRANCH   3   4
HETATM    4  C   UNL     1      -9.286  16.975  66.644  1.00  0.00    -0.255 C  
BRANCH   4   5
HETATM    5  O   UNL     1      -9.316  15.546  66.753  1.00  0.00    -0.218 OA 
BRANCH   5   6
HETATM    6  C   UNL     1      -9.476  15.111  68.024  1.00  0.00    -0.199 C  
HETATM    7  O   UNL     1     -10.169  15.666  68.862  1.00  0.00    -0.198 OA 
BRANCH   6   8
HETATM    8  C   UNL     1      -8.660  13.900  68.302  1.00  0.00    -0.177 C  
HETATM    9  C   UNL     1      -7.373  13.953  68.730  1.00  0.00    -0.118 C  
HETATM   10  C   UNL     1      -6.458  15.149  68.868  1.00  0.00    -0.098 C  
HETATM   11  N   UNL     1      -6.754  12.789  69.135  1.00  0.00    -0.098 NA 
HETATM   12  C   UNL     1      -7.265  11.518  69.005  1.00  0.00    -0.106 C  
HETATM   13  C   UNL     1      -8.532  11.338  68.556  1.00  0.00    -0.156 C  
HETATM   14  C   UNL     1      -6.301  10.419  69.381  1.00  0.00    -0.053 C  
HETATM   15  C   UNL     1      -9.422  12.552  68.235  1.00  0.00    -0.201 C  
BRANCH  13  16
HETATM   16  C   UNL     1      -8.989   9.949  68.280  1.00  0.00    -0.119 C  
HETATM   17  O   UNL     1      -9.812   9.366  68.971  1.00  0.00    -0.160 OA 
BRANCH  16  18
HETATM   18  O   UNL     1      -8.376   9.392  67.203  1.00  0.00    -0.122 OA 
BRANCH  18  19
HETATM   19  C   UNL     1      -8.705   7.996  67.005  1.00  0.00    -0.128 C  
HETATM   20  C   UNL     1      -8.764   7.692  65.510  1.00  0.00    -0.079 C  
HETATM   21  C   UNL     1      -7.651   7.138  67.692  1.00  0.00    -0.110 C  
ENDBRANCH  18  19
ENDBRANCH  16  18
ENDBRANCH  13  16
BRANCH  15  22
HETATM   22  C   UNL     1     -10.133  12.407  66.885  1.00  0.00    -0.230 A  
HETATM   23  C   UNL     1     -11.452  12.876  66.728  1.00  0.00    -0.391 A  
HETATM   24  C   UNL     1      -9.487  11.824  65.784  1.00  0.00    -0.232 A  
HETATM   25  C   UNL     1     -12.114  12.765  65.504  1.00  0.00    -0.517 A  
HETATM   26  O   UNL     1      -8.310  10.710  63.578  1.00  0.00    -0.143 OA 
HETATM   27  O   UNL     1     -10.093  11.029  62.342  1.00  0.00     0.045 OA 
HETATM   28  C   UNL     1     -10.158  11.714  64.558  1.00  0.00    -0.278 A  
HETATM   29  N   UNL     1      -9.468  11.108  63.412  1.00  0.00    -0.282 N  
HETATM   30  C   UNL     1     -11.469  12.182  64.414  1.00  0.00    -0.417 A  
ENDBRANCH  15  22
ENDBRANCH   6   8
ENDBRANCH   5   6
ENDBRANCH   4   5
ENDBRANCH   3   4
ENDBRANCH   2   3
TORSDOF 9
ENDMDL
MODEL      171
REMARK 921   NORMALIZED FREE ENERGY PREDICTED BY IDOCK:   -3.34 KCAL/MOL
REMARK 922        TOTAL FREE ENERGY PREDICTED BY IDOCK:   -6.68 KCAL/MOL
REMARK 923 INTER-LIGAND FREE ENERGY PREDICTED BY IDOCK:   -5.22 KCAL/MOL
REMARK 924 INTRA-LIGAND FREE ENERGY PREDICTED BY IDOCK:   -1.45 KCAL/MOL
REMARK 927      BINDING AFFINITY PREDICTED BY RF-SCORE:    0.00 PKD
ROOT
HETATM    1  C   UNL     1     -13.069  10.826  71.681  1.00  0.00    -0.446 C  
HETATM    2  O   UNL     1     -12.235  11.406  70.689  1.00  0.00    -0.358 OA 
ENDROOT
BRANCH   2   3
HETATM    3  C   UNL     1     -12.363  12.828  70.667  1.00  0.00    -0.297 C  
BRANCH   3   4
HETATM    4  C   UNL     1     -12.151  13.284  69.240  1.00  0.00    -0.242 C  
BRANCH   4   5
HETATM    5  O   UNL     1     -12.048  12.199  68.309  1.00  0.00    -0.407 OA 
BRANCH   5   6
HETATM    6  C   UNL     1     -11.132  12.417  67.336  1.00  0.00    -0.272 C  
HETATM    7  O   UNL     1     -11.398  12.516  66.148  1.00  0.00    -0.307 OA 
BRANCH   6   8
HETATM    8  C   UNL     1      -9.749  12.465  67.877  1.00  0.00    -0.204 C  
HETATM    9  C   UNL     1      -8.963  13.570  67.813  1.00  0.00    -0.201 C  
HETATM   10  C   UNL     1      -9.205  14.876  67.090  1.00  0.00    -0.231 C  
HETATM   11  N   UNL     1      -7.767  13.581  68.499  1.00  0.00    -0.130 NA 
HETATM   12  C   UNL     1      -7.195  12.505  69.138  1.00  0.00     0.070 C  
HETATM   13  C   UNL     1      -7.874  11.336  69.239  1.00  0.00     0.040 C  
HETATM   14  C   UNL     1      -5.803  12.762  69.664  1.00  0.00    -0.113 C  
HETATM   15  C   UNL     1      -9.304  11.218  68.682  1.00  0.00    -0.167 C  
BRANCH  13  16
HETATM   16  C   UNL     1      -7.160  10.154  69.795  1.00  0.00    -0.127 C  
HETATM   17  O   UNL     1      -7.382   9.701  70.908  1.00  0.00    -0.288 OA 
BRANCH  16  18
HETATM   18  O   UNL     1      -6.220   9.655  68.950  1.00  0.00    -0.042 OA 
BRANCH  18  19
HETATM   19  C   UNL     1      -6.188   8.209  68.906  1.00  0.00    -0.040 C  
HETATM   20  C   UNL     1      -5.800   7.748  67.504  1.00  0.00    -0.037 C  
HETATM   21  C   UNL     1      -5.189   7.705  69.939  1.00  0.00    -0.023 C  
ENDBRANCH  18  19
ENDBRANCH  16  18
ENDBRANCH  13  16
BRANCH  15  22
HETATM   22  C   UNL     1      -9.496   9.947  67.847  1.00  0.00    -0.149 A  
HETATM   23  C   UNL     1     -10.501   9.022  68.192  1.00  0.00    -0.257 A  
HETATM   24  C   UNL     1      -8.696   9.689  66.724  1.00  0.00    -0.144 A  
HETATM   25  C   UNL     1     -10.701   7.864  67.437  1.00  0.00    -0.278 A  
HETATM   26  O   UNL     1      -7.191   9.101  64.515  1.00  0.00    -0.095 OA 
HETATM   27  O   UNL     1      -8.272   7.228  64.153  1.00  0.00    -0.077 OA 
HETATM   28  C   UNL     1      -8.901   8.524  65.972  1.00  0.00    -0.173 A  
HETATM   29  N   UNL     1      -8.060   8.269  64.795  1.00  0.00    -0.146 N  
HETATM   30  C   UNL     1      -9.901   7.610  66.324  1.00  0.00    -0.080 A  
ENDBRANCH  15  22
ENDBRANCH   6   8
ENDBRANCH   5   6
ENDBRANCH   4   5
ENDBRANCH   3   4
ENDBRANCH   2   3
TORSDOF 9
ENDMDL
MODEL      172
REMARK 921   NORMALIZED FREE ENERGY PREDICTED BY IDOCK:   -3.34 KCAL/MOL
REMARK 922        TOTAL FREE ENERGY PREDICTED BY IDOCK:   -6.67 KCAL/MOL
REMARK 923 INTER-LIGAND FREE ENERGY PREDICTED BY IDOCK:   -5.43 KCAL/MOL
REMARK 924 INTRA-LIGAND FREE ENERGY PREDICTED BY IDOCK:   -1.25 KCAL/MOL
REMARK 927      BINDING AFFINITY PREDICTED BY RF-SCORE:    0.00 PKD
ROOT
HETATM    1  C   UNL     1      -6.850  13.059  68.810  1.00  0.00    -0.102 C  
HETATM    2  O   UNL     1      -7.390  13.446  67.555  1.00  0.00    -0.156 OA 
ENDROOT
BRANCH   2   3
HETATM    3  C   UNL     1      -8.546  14.269  67.717  1.00  0.00    -0.177 C  
BRANCH   3   4
HETATM    4  C   UNL     1      -9.669  13.637  66.924  1.00  0.00    -0.262 C  
BRANCH   4   5
HETATM    5  O   UNL     1     -10.204  12.458  67.539  1.00  0.00    -0.206 OA 
BRANCH   5   6
HETATM    6  C   UNL     1     -11.043  11.769  66.732  1.00  0.00    -0.306 C  
HETATM    7  O   UNL     1     -12.249  11.682  66.902  1.00  0.00    -0.282 OA 
BRANCH   6   8
HETATM    8  C   UNL     1     -10.314  11.076  65.637  1.00  0.00    -0.311 C  
HETATM    9  C   UNL     1     -10.730  11.085  64.345  1.00  0.00    -0.269 C  
HETATM   10  C   UNL     1     -12.019  11.615  63.757  1.00  0.00    -0.357 C  
HETATM   11  N   UNL     1      -9.899  10.572  63.371  1.00  0.00    -0.308 NA 
HETATM   12  C   UNL     1      -8.723   9.894  63.592  1.00  0.00    -0.213 C  
HETATM   13  C   UNL     1      -8.223   9.792  64.848  1.00  0.00    -0.142 C  
HETATM   14  C   UNL     1      -8.106   9.300  62.349  1.00  0.00    -0.142 C  
HETATM   15  C   UNL     1      -8.941  10.473  66.026  1.00  0.00    -0.185 C  
BRANCH  13  16
HETATM   16  C   UNL     1      -7.037   8.919  65.064  1.00  0.00    -0.083 C  
HETATM   17  O   UNL     1      -5.886   9.318  64.964  1.00  0.00    -0.060 OA 
BRANCH  16  18
HETATM   18  O   UNL     1      -7.370   7.634  65.353  1.00  0.00    -0.066 OA 
BRANCH  18  19
HETATM   19  C   UNL     1      -6.229   6.785  65.621  1.00  0.00    -0.039 C  
HETATM   20  C   UNL     1      -6.363   6.171  67.012  1.00  0.00    -0.038 C  
HETATM   21  C   UNL     1      -6.157   5.701  64.554  1.00  0.00    -0.025 C  
ENDBRANCH  18  19
ENDBRANCH  16  18
ENDBRANCH  13  16
BRANCH  15  22
HETATM   22  C   UNL     1      -9.092   9.537  67.231  1.00  0.00    -0.146 A  
HETATM   23  C   UNL     1      -8.403   9.812  68.429  1.00  0.00    -0.110 A  
HETATM   24  C   UNL     1      -9.922   8.407  67.172  1.00  0.00    -0.304 A  
HETATM   25  C   UNL     1      -8.536   8.979  69.541  1.00  0.00    -0.125 A  
HETATM   26  O   UNL     1     -11.521   6.186  67.157  1.00  0.00    -0.054 OA 
HETATM   27  O   UNL     1     -11.015   5.685  69.231  1.00  0.00    -0.304 OA 
HETATM   28  C   UNL     1     -10.049   7.574  68.293  1.00  0.00    -0.183 A  
HETATM   29  N   UNL     1     -10.926   6.399  68.219  1.00  0.00    -0.313 N  
HETATM   30  C   UNL     1      -9.359   7.856  69.477  1.00  0.00    -0.156 A  
ENDBRANCH  15  22
ENDBRANCH   6   8
ENDBRANCH   5   6
ENDBRANCH   4   5
ENDBRANCH   3   4
ENDBRANCH   2   3
TORSDOF 9
ENDMDL
MODEL      173
REMARK 921   NORMALIZED FREE ENERGY PREDICTED BY IDOCK:   -3.28 KCAL/MOL
REMARK 922        TOTAL FREE ENERGY PREDICTED BY IDOCK:   -6.59 KCAL/MOL
REMARK 923 INTER-LIGAND FREE ENERGY PREDICTED BY IDOCK:   -5.22 KCAL/MOL
REMARK 924 INTRA-LIGAND FREE ENERGY PREDICTED BY IDOCK:   -1.37 KCAL/MOL
REMARK 927      BINDING AFFINITY PREDICTED BY RF-SCORE:    0.00 PKD
ROOT
HETATM    1  C   UNL     1     -11.335  13.401  67.151  1.00  0.00    -0.315 C  
HETATM    2  O   UNL     1     -11.111  12.128  66.564  1.00  0.00    -0.276 OA 
ENDROOT
BRANCH   2   3
HETATM    3  C   UNL     1     -10.108  12.191  65.549  1.00  0.00    -0.248 C  
BRANCH   3   4
HETATM    4  C   UNL     1      -9.469  10.822  65.455  1.00  0.00    -0.210 C  
BRANCH   4   5
HETATM    5  O   UNL     1      -9.248  10.211  66.732  1.00  0.00    -0.148 OA 
BRANCH   5   6
HETATM    6  C   UNL     1      -9.726   8.947  66.809  1.00  0.00    -0.219 C  
HETATM    7  O   UNL     1     -10.894   8.639  66.629  1.00  0.00    -0.084 OA 
BRANCH   6   8
HETATM    8  C   UNL     1      -8.669   7.977  67.196  1.00  0.00    -0.134 C  
HETATM    9  C   UNL     1      -7.906   7.309  66.293  1.00  0.00    -0.106 C  
HETATM   10  C   UNL     1      -8.031   7.256  64.786  1.00  0.00    -0.122 C  
HETATM   11  N   UNL     1      -6.832   6.569  66.742  1.00  0.00    -0.064 NA 
HETATM   12  C   UNL     1      -6.531   6.304  68.057  1.00  0.00    -0.052 C  
HETATM   13  C   UNL     1      -7.245   6.890  69.050  1.00  0.00    -0.091 C  
HETATM   14  C   UNL     1      -5.394   5.330  68.250  1.00  0.00    -0.007 C  
HETATM   15  C   UNL     1      -8.365   7.891  68.712  1.00  0.00    -0.128 C  
BRANCH  13  16
HETATM   16  C   UNL     1      -6.992   6.454  70.450  1.00  0.00    -0.063 C  
HETATM   17  O   UNL     1      -7.531   5.481  70.956  1.00  0.00    -0.083 OA 
BRANCH  16  18
HETATM   18  O   UNL     1      -6.126   7.267  71.110  1.00  0.00    -0.036 OA 
BRANCH  18  19
HETATM   19  C   UNL     1      -6.761   8.409  71.733  1.00  0.00    -0.076 C  
HETATM   20  C   UNL     1      -6.948   8.140  73.224  1.00  0.00    -0.138 C  
HETATM   21  C   UNL     1      -5.895   9.640  71.508  1.00  0.00    -0.024 C  
ENDBRANCH  18  19
ENDBRANCH  16  18
ENDBRANCH  13  16
BRANCH  15  22
HETATM   22  C   UNL     1      -9.650   7.608  69.500  1.00  0.00    -0.163 A  
HETATM   23  C   UNL     1     -10.162   6.298  69.567  1.00  0.00    -0.239 A  
HETATM   24  C   UNL     1     -10.326   8.634  70.177  1.00  0.00    -0.219 A  
HETATM   25  C   UNL     1     -11.324   6.016  70.288  1.00  0.00    -0.336 A  
HETATM   26  O   UNL     1     -11.711  10.565  71.535  1.00  0.00    -0.194 OA 
HETATM   27  O   UNL     1     -13.216   9.133  72.237  1.00  0.00    -0.408 OA 
HETATM   28  C   UNL     1     -11.492   8.345  70.899  1.00  0.00    -0.267 A  
HETATM   29  N   UNL     1     -12.186   9.427  71.608  1.00  0.00    -0.365 N  
HETATM   30  C   UNL     1     -11.994   7.040  70.956  1.00  0.00    -0.406 A  
ENDBRANCH  15  22
ENDBRANCH   6   8
ENDBRANCH   5   6
ENDBRANCH   4   5
ENDBRANCH   3   4
ENDBRANCH   2   3
TORSDOF 9
ENDMDL
MODEL      174
REMARK 921   NORMALIZED FREE ENERGY PREDICTED BY IDOCK:   -3.26 KCAL/MOL
REMARK 922        TOTAL FREE ENERGY PREDICTED BY IDOCK:   -6.56 KCAL/MOL
REMARK 923 INTER-LIGAND FREE ENERGY PREDICTED BY IDOCK:   -7.53 KCAL/MOL
REMARK 924 INTRA-LIGAND FREE ENERGY PREDICTED BY IDOCK:    0.97 KCAL/MOL
REMARK 927      BINDING AFFINITY PREDICTED BY RF-SCORE:    0.00 PKD
ROOT
HETATM    1  C   UNL     1      -9.518   6.486  66.340  1.00  0.00    -0.126 C  
HETATM    2  O   UNL     1      -8.487   6.850  65.435  1.00  0.00    -0.138 OA 
ENDROOT
BRANCH   2   3
HETATM    3  C   UNL     1      -8.479   8.257  65.192  1.00  0.00    -0.146 C  
BRANCH   3   4
HETATM    4  C   UNL     1      -9.594   8.867  66.013  1.00  0.00    -0.250 C  
BRANCH   4   5
HETATM    5  O   UNL     1      -9.223  10.097  66.648  1.00  0.00    -0.151 OA 
BRANCH   5   6
HETATM    6  C   UNL     1      -8.828   9.937  67.933  1.00  0.00    -0.129 C  
HETATM    7  O   UNL     1      -7.680   9.701  68.278  1.00  0.00    -0.082 OA 
BRANCH   6   8
HETATM    8  C   UNL     1      -9.971  10.024  68.879  1.00  0.00    -0.198 C  
HETATM    9  C   UNL     1     -10.508   8.943  69.499  1.00  0.00    -0.226 C  
HETATM   10  C   UNL     1     -10.218   7.474  69.284  1.00  0.00    -0.201 C  
HETATM   11  N   UNL     1     -11.442   9.138  70.495  1.00  0.00    -0.255 NA 
HETATM   12  C   UNL     1     -12.018  10.340  70.833  1.00  0.00    -0.375 C  
HETATM   13  C   UNL     1     -11.585  11.488  70.256  1.00  0.00    -0.305 C  
HETATM   14  C   UNL     1     -13.132  10.231  71.847  1.00  0.00    -0.568 C  
HETATM   15  C   UNL     1     -10.417  11.460  69.255  1.00  0.00    -0.104 C  
BRANCH  13  16
HETATM   16  C   UNL     1     -12.340  12.741  70.531  1.00  0.00    -0.275 C  
HETATM   17  O   UNL     1     -13.348  12.777  71.221  1.00  0.00    -0.150 OA 
BRANCH  16  18
HETATM   18  O   UNL     1     -11.809  13.827  69.911  1.00  0.00    -0.297 OA 
BRANCH  18  19
HETATM   19  C   UNL     1     -11.422  14.884  70.822  1.00  0.00    -0.267 C  
HETATM   20  C   UNL     1     -10.332  15.739  70.181  1.00  0.00    -0.230 C  
HETATM   21  C   UNL     1     -12.648  15.726  71.151  1.00  0.00    -0.487 C  
ENDBRANCH  18  19
ENDBRANCH  16  18
ENDBRANCH  13  16
BRANCH  15  22
HETATM   22  C   UNL     1     -10.718  12.274  67.991  1.00  0.00    -0.245 A  
HETATM   23  C   UNL     1     -11.816  11.933  67.178  1.00  0.00    -0.216 A  
HETATM   24  C   UNL     1      -9.925  13.374  67.630  1.00  0.00    -0.229 A  
HETATM   25  C   UNL     1     -12.116  12.668  66.030  1.00  0.00    -0.429 A  
HETATM   26  O   UNL     1      -8.443  15.538  66.848  1.00  0.00    -0.212 OA 
HETATM   27  O   UNL     1      -9.698  15.885  65.084  1.00  0.00    -0.341 OA 
HETATM   28  C   UNL     1     -10.231  14.107  66.475  1.00  0.00    -0.278 A  
HETATM   29  N   UNL     1      -9.397  15.260  66.113  1.00  0.00    -0.311 N  
HETATM   30  C   UNL     1     -11.323  13.758  65.673  1.00  0.00    -0.311 A  
ENDBRANCH  15  22
ENDBRANCH   6   8
ENDBRANCH   5   6
ENDBRANCH   4   5
ENDBRANCH   3   4
ENDBRANCH   2   3
TORSDOF 9
ENDMDL
MODEL      175
REMARK 921   NORMALIZED FREE ENERGY PREDICTED BY IDOCK:   -3.26 KCAL/MOL
REMARK 922        TOTAL FREE ENERGY PREDICTED BY IDOCK:   -6.55 KCAL/MOL
REMARK 923 INTER-LIGAND FREE ENERGY PREDICTED BY IDOCK:   -4.71 KCAL/MOL
REMARK 924 INTRA-LIGAND FREE ENERGY PREDICTED BY IDOCK:   -1.84 KCAL/MOL
REMARK 927      BINDING AFFINITY PREDICTED BY RF-SCORE:    0.00 PKD
ROOT
HETATM    1  C   UNL     1      -5.169   7.513  64.649  1.00  0.00    -0.029 C  
HETATM    2  O   UNL     1      -6.260   6.728  64.194  1.00  0.00    -0.034 OA 
ENDROOT
BRANCH   2   3
HETATM    3  C   UNL     1      -6.332   5.483  64.889  1.00  0.00    -0.037 C  
BRANCH   3   4
HETATM    4  C   UNL     1      -7.728   5.360  65.461  1.00  0.00    -0.091 C  
BRANCH   4   5
HETATM    5  O   UNL     1      -8.039   6.378  66.421  1.00  0.00    -0.107 OA 
BRANCH   5   6
HETATM    6  C   UNL     1      -9.341   6.744  66.408  1.00  0.00    -0.136 C  
HETATM    7  O   UNL     1     -10.225   6.130  65.831  1.00  0.00     0.200 OA 
BRANCH   6   8
HETATM    8  C   UNL     1      -9.565   8.022  67.134  1.00  0.00    -0.227 C  
HETATM    9  C   UNL     1      -9.201   9.232  66.640  1.00  0.00    -0.148 C  
HETATM   10  C   UNL     1      -8.393   9.558  65.403  1.00  0.00    -0.144 C  
HETATM   11  N   UNL     1      -9.609  10.374  67.297  1.00  0.00    -0.154 NA 
HETATM   12  C   UNL     1     -10.237  10.418  68.520  1.00  0.00    -0.173 C  
HETATM   13  C   UNL     1     -10.622   9.268  69.128  1.00  0.00    -0.228 C  
HETATM   14  C   UNL     1     -10.419  11.809  69.076  1.00  0.00    -0.131 C  
HETATM   15  C   UNL     1     -10.402   7.912  68.434  1.00  0.00    -0.235 C  
BRANCH  13  16
HETATM   16  C   UNL     1     -11.153   9.350  70.516  1.00  0.00    -0.273 C  
HETATM   17  O   UNL     1     -10.453   9.606  71.485  1.00  0.00    -0.228 OA 
BRANCH  16  18
HETATM   18  O   UNL     1     -12.482   9.082  70.593  1.00  0.00    -0.057 OA 
BRANCH  18  19
HETATM   19  C   UNL     1     -12.883   8.488  71.851  1.00  0.00    -0.363 C  
HETATM   20  C   UNL     1     -13.980   9.335  72.490  1.00  0.00    -0.398 C  
HETATM   21  C   UNL     1     -13.373   7.070  71.594  1.00  0.00    -0.356 C  
ENDBRANCH  18  19
ENDBRANCH  16  18
ENDBRANCH  13  16
BRANCH  15  22
HETATM   22  C   UNL     1      -9.788   6.872  69.378  1.00  0.00    -0.161 A  
HETATM   23  C   UNL     1     -10.499   5.698  69.692  1.00  0.00    -0.374 A  
HETATM   24  C   UNL     1      -8.512   7.058  69.931  1.00  0.00    -0.140 A  
HETATM   25  C   UNL     1      -9.954   4.732  70.540  1.00  0.00    -0.306 A  
HETATM   26  O   UNL     1      -6.030   7.328  71.053  1.00  0.00    -0.035 OA 
HETATM   27  O   UNL     1      -6.184   5.407  72.099  1.00  0.00    -0.032 OA 
HETATM   28  C   UNL     1      -7.971   6.085  70.783  1.00  0.00    -0.114 A  
HETATM   29  N   UNL     1      -6.632   6.290  71.350  1.00  0.00    -0.053 N  
HETATM   30  C   UNL     1      -8.687   4.923  71.090  1.00  0.00    -0.143 A  
ENDBRANCH  15  22
ENDBRANCH   6   8
ENDBRANCH   5   6
ENDBRANCH   4   5
ENDBRANCH   3   4
ENDBRANCH   2   3
TORSDOF 9
ENDMDL
MODEL      176
REMARK 921   NORMALIZED FREE ENERGY PREDICTED BY IDOCK:   -3.25 KCAL/MOL
REMARK 922        TOTAL FREE ENERGY PREDICTED BY IDOCK:   -6.54 KCAL/MOL
REMARK 923 INTER-LIGAND FREE ENERGY PREDICTED BY IDOCK:   -6.55 KCAL/MOL
REMARK 924 INTRA-LIGAND FREE ENERGY PREDICTED BY IDOCK:    0.01 KCAL/MOL
REMARK 927      BINDING AFFINITY PREDICTED BY RF-SCORE:    0.00 PKD
ROOT
HETATM    1  C   UNL     1      -9.422  11.482  63.131  1.00  0.00    -0.311 C  
HETATM    2  O   UNL     1      -9.661  10.085  63.045  1.00  0.00    -0.267 OA 
ENDROOT
BRANCH   2   3
HETATM    3  C   UNL     1      -8.444   9.342  63.129  1.00  0.00    -0.205 C  
BRANCH   3   4
HETATM    4  C   UNL     1      -7.799   9.673  64.458  1.00  0.00    -0.134 C  
BRANCH   4   5
HETATM    5  O   UNL     1      -8.576   9.252  65.586  1.00  0.00    -0.137 OA 
BRANCH   5   6
HETATM    6  C   UNL     1      -7.946   9.440  66.768  1.00  0.00    -0.108 C  
HETATM    7  O   UNL     1      -7.595   8.540  67.515  1.00  0.00    -0.095 OA 
BRANCH   6   8
HETATM    8  C   UNL     1      -7.779  10.884  67.084  1.00  0.00    -0.123 C  
HETATM    9  C   UNL     1      -6.583  11.523  67.034  1.00  0.00    -0.138 C  
HETATM   10  C   UNL     1      -5.199  10.949  66.824  1.00  0.00    -0.063 C  
HETATM   11  N   UNL     1      -6.551  12.895  67.164  1.00  0.00    -0.159 NA 
HETATM   12  C   UNL     1      -7.617  13.696  67.501  1.00  0.00    -0.170 C  
HETATM   13  C   UNL     1      -8.859  13.164  67.611  1.00  0.00    -0.191 C  
HETATM   14  C   UNL     1      -7.257  15.143  67.736  1.00  0.00    -0.185 C  
HETATM   15  C   UNL     1      -9.093  11.672  67.314  1.00  0.00    -0.167 C  
BRANCH  13  16
HETATM   16  C   UNL     1      -9.952  14.030  68.130  1.00  0.00    -0.242 C  
HETATM   17  O   UNL     1      -9.876  14.643  69.186  1.00  0.00    -0.202 OA 
BRANCH  16  18
HETATM   18  O   UNL     1     -11.047  14.043  67.326  1.00  0.00    -0.289 OA 
BRANCH  18  19
HETATM   19  C   UNL     1     -11.122  15.204  66.465  1.00  0.00    -0.305 C  
HETATM   20  C   UNL     1     -10.355  16.361  67.099  1.00  0.00    -0.290 C  
HETATM   21  C   UNL     1     -10.540  14.848  65.104  1.00  0.00    -0.450 C  
ENDBRANCH  18  19
ENDBRANCH  16  18
ENDBRANCH  13  16
BRANCH  15  22
HETATM   22  C   UNL     1      -9.941  10.993  68.396  1.00  0.00    -0.194 A  
HETATM   23  C   UNL     1     -11.346  11.006  68.303  1.00  0.00    -0.366 A  
HETATM   24  C   UNL     1      -9.341  10.337  69.482  1.00  0.00    -0.200 A  
HETATM   25  C   UNL     1     -12.136  10.383  69.271  1.00  0.00    -0.022 A  
HETATM   26  O   UNL     1      -8.264   9.028  71.631  1.00  0.00    -0.330 OA 
HETATM   27  O   UNL     1     -10.239   8.486  72.416  1.00  0.00    -0.312 OA 
HETATM   28  C   UNL     1     -10.140   9.715  70.451  1.00  0.00    -0.276 A  
HETATM   29  N   UNL     1      -9.499   9.027  71.579  1.00  0.00    -0.273 N  
HETATM   30  C   UNL     1     -11.535   9.735  70.350  1.00  0.00    -0.347 A  
ENDBRANCH  15  22
ENDBRANCH   6   8
ENDBRANCH   5   6
ENDBRANCH   4   5
ENDBRANCH   3   4
ENDBRANCH   2   3
TORSDOF 9
ENDMDL
MODEL      177
REMARK 921   NORMALIZED FREE ENERGY PREDICTED BY IDOCK:   -3.24 KCAL/MOL
REMARK 922        TOTAL FREE ENERGY PREDICTED BY IDOCK:   -6.53 KCAL/MOL
REMARK 923 INTER-LIGAND FREE ENERGY PREDICTED BY IDOCK:   -6.07 KCAL/MOL
REMARK 924 INTRA-LIGAND FREE ENERGY PREDICTED BY IDOCK:   -0.46 KCAL/MOL
REMARK 927      BINDING AFFINITY PREDICTED BY RF-SCORE:    0.00 PKD
ROOT
HETATM    1  C   UNL     1     -11.548  11.895  63.285  1.00  0.00    -0.286 C  
HETATM    2  O   UNL     1     -11.394  13.292  63.484  1.00  0.00    -0.277 OA 
ENDROOT
BRANCH   2   3
HETATM    3  C   UNL     1     -11.112  13.596  64.851  1.00  0.00    -0.351 C  
BRANCH   3   4
HETATM    4  C   UNL     1     -12.276  13.095  65.678  1.00  0.00    -0.466 C  
BRANCH   4   5
HETATM    5  O   UNL     1     -11.894  12.135  66.671  1.00  0.00    -0.566 OA 
BRANCH   5   6
HETATM    6  C   UNL     1     -11.845  12.652  67.921  1.00  0.00    -0.332 C  
HETATM    7  O   UNL     1     -12.278  13.750  68.232  1.00  0.00    -0.335 OA 
BRANCH   6   8
HETATM    8  C   UNL     1     -11.145  11.744  68.868  1.00  0.00    -0.297 C  
HETATM    9  C   UNL     1     -11.760  11.157  69.927  1.00  0.00    -0.355 C  
HETATM   10  C   UNL     1     -13.153  11.382  70.470  1.00  0.00     0.153 C  
HETATM   11  N   UNL     1     -11.083  10.192  70.643  1.00  0.00    -0.323 NA 
HETATM   12  C   UNL     1      -9.758   9.858  70.489  1.00  0.00    -0.012 C  
HETATM   13  C   UNL     1      -9.031  10.405  69.484  1.00  0.00    -0.127 C  
HETATM   14  C   UNL     1      -9.239   8.884  71.520  1.00  0.00    -0.322 C  
HETATM   15  C   UNL     1      -9.694  11.365  68.480  1.00  0.00    -0.199 C  
BRANCH  13  16
HETATM   16  C   UNL     1      -7.567  10.139  69.450  1.00  0.00    -0.133 C  
HETATM   17  O   UNL     1      -6.809  10.453  70.356  1.00  0.00    -0.227 OA 
BRANCH  16  18
HETATM   18  O   UNL     1      -7.162   9.542  68.298  1.00  0.00    -0.075 OA 
BRANCH  18  19
HETATM   19  C   UNL     1      -7.585   8.163  68.179  1.00  0.00    -0.105 C  
HETATM   20  C   UNL     1      -8.318   7.966  66.855  1.00  0.00    -0.116 C  
HETATM   21  C   UNL     1      -6.362   7.261  68.263  1.00  0.00    -0.040 C  
ENDBRANCH  18  19
ENDBRANCH  16  18
ENDBRANCH  13  16
BRANCH  15  22
HETATM   22  C   UNL     1      -8.856  12.628  68.248  1.00  0.00    -0.172 A  
HETATM   23  C   UNL     1      -7.689  12.565  67.462  1.00  0.00    -0.165 A  
HETATM   24  C   UNL     1      -9.238  13.862  68.794  1.00  0.00    -0.013 A  
HETATM   25  C   UNL     1      -6.918  13.705  67.228  1.00  0.00     0.083 A  
HETATM   26  O   UNL     1      -9.905  16.315  69.809  1.00  0.00    -0.166 OA 
HETATM   27  O   UNL     1      -8.160  17.279  68.895  1.00  0.00    -0.257 OA 
HETATM   28  C   UNL     1      -8.459  15.003  68.556  1.00  0.00    -0.163 A  
HETATM   29  N   UNL     1      -8.874  16.290  69.128  1.00  0.00    -0.244 N  
HETATM   30  C   UNL     1      -7.300  14.929  67.775  1.00  0.00    -0.183 A  
ENDBRANCH  15  22
ENDBRANCH   6   8
ENDBRANCH   5   6
ENDBRANCH   4   5
ENDBRANCH   3   4
ENDBRANCH   2   3
TORSDOF 9
ENDMDL
MODEL      178
REMARK 921   NORMALIZED FREE ENERGY PREDICTED BY IDOCK:   -3.24 KCAL/MOL
REMARK 922        TOTAL FREE ENERGY PREDICTED BY IDOCK:   -6.52 KCAL/MOL
REMARK 923 INTER-LIGAND FREE ENERGY PREDICTED BY IDOCK:   -6.39 KCAL/MOL
REMARK 924 INTRA-LIGAND FREE ENERGY PREDICTED BY IDOCK:   -0.13 KCAL/MOL
REMARK 927      BINDING AFFINITY PREDICTED BY RF-SCORE:    0.00 PKD
ROOT
HETATM    1  C   UNL     1     -10.103   4.481  65.428  1.00  0.00    -0.192 C  
HETATM    2  O   UNL     1      -9.860   5.635  66.219  1.00  0.00    -0.158 OA 
ENDROOT
BRANCH   2   3
HETATM    3  C   UNL     1     -10.848   5.784  67.240  1.00  0.00    -0.197 C  
BRANCH   3   4
HETATM    4  C   UNL     1     -10.209   6.540  68.384  1.00  0.00    -0.172 C  
BRANCH   4   5
HETATM    5  O   UNL     1     -10.310   7.963  68.251  1.00  0.00    -0.199 OA 
BRANCH   5   6
HETATM    6  C   UNL     1      -9.142   8.551  67.901  1.00  0.00    -0.140 C  
HETATM    7  O   UNL     1      -8.191   8.699  68.654  1.00  0.00    -0.118 OA 
BRANCH   6   8
HETATM    8  C   UNL     1      -9.170   9.050  66.501  1.00  0.00    -0.226 C  
HETATM    9  C   UNL     1      -8.285   8.652  65.552  1.00  0.00    -0.135 C  
HETATM   10  C   UNL     1      -7.046   7.797  65.696  1.00  0.00    -0.060 C  
HETATM   11  N   UNL     1      -8.497   9.026  64.242  1.00  0.00    -0.181 NA 
HETATM   12  C   UNL     1      -9.452   9.912  63.802  1.00  0.00    -0.120 C  
HETATM   13  C   UNL     1     -10.373  10.403  64.667  1.00  0.00    -0.190 C  
HETATM   14  C   UNL     1      -9.347  10.263  62.337  1.00  0.00    -0.301 C  
HETATM   15  C   UNL     1     -10.386   9.937  66.134  1.00  0.00    -0.223 C  
BRANCH  13  16
HETATM   16  C   UNL     1     -11.287  11.476  64.188  1.00  0.00    -0.267 C  
HETATM   17  O   UNL     1     -11.682  11.552  63.034  1.00  0.00    -0.091 OA 
BRANCH  16  18
HETATM   18  O   UNL     1     -11.608  12.373  65.157  1.00  0.00    -0.336 OA 
BRANCH  18  19
HETATM   19  C   UNL     1     -11.777  13.723  64.666  1.00  0.00    -0.395 C  
HETATM   20  C   UNL     1     -12.865  14.429  65.472  1.00  0.00    -0.243 C  
HETATM   21  C   UNL     1     -10.450  14.462  64.782  1.00  0.00    -0.394 C  
ENDBRANCH  18  19
ENDBRANCH  16  18
ENDBRANCH  13  16
BRANCH  15  22
HETATM   22  C   UNL     1     -10.505  11.112  67.113  1.00  0.00    -0.270 A  
HETATM   23  C   UNL     1     -11.663  11.258  67.901  1.00  0.00    -0.289 A  
HETATM   24  C   UNL     1      -9.467  12.046  67.254  1.00  0.00    -0.181 A  
HETATM   25  C   UNL     1     -11.787  12.313  68.807  1.00  0.00    -0.356 A  
HETATM   26  O   UNL     1      -7.498  13.913  67.606  1.00  0.00    -0.148 OA 
HETATM   27  O   UNL     1      -8.654  14.993  69.125  1.00  0.00    -0.196 OA 
HETATM   28  C   UNL     1      -9.599  13.104  68.165  1.00  0.00    -0.227 A  
HETATM   29  N   UNL     1      -8.503  14.070  68.308  1.00  0.00    -0.165 N  
HETATM   30  C   UNL     1     -10.755  13.241  68.941  1.00  0.00    -0.215 A  
ENDBRANCH  15  22
ENDBRANCH   6   8
ENDBRANCH   5   6
ENDBRANCH   4   5
ENDBRANCH   3   4
ENDBRANCH   2   3
TORSDOF 9
ENDMDL
MODEL      179
REMARK 921   NORMALIZED FREE ENERGY PREDICTED BY IDOCK:   -3.23 KCAL/MOL
REMARK 922        TOTAL FREE ENERGY PREDICTED BY IDOCK:   -6.51 KCAL/MOL
REMARK 923 INTER-LIGAND FREE ENERGY PREDICTED BY IDOCK:   -5.73 KCAL/MOL
REMARK 924 INTRA-LIGAND FREE ENERGY PREDICTED BY IDOCK:   -0.78 KCAL/MOL
REMARK 927      BINDING AFFINITY PREDICTED BY RF-SCORE:    0.00 PKD
ROOT
HETATM    1  C   UNL     1     -10.713  12.448  65.536  1.00  0.00    -0.280 C  
HETATM    2  O   UNL     1     -10.191  12.772  64.256  1.00  0.00    -0.367 OA 
ENDROOT
BRANCH   2   3
HETATM    3  C   UNL     1     -10.190  11.636  63.391  1.00  0.00    -0.433 C  
BRANCH   3   4
HETATM    4  C   UNL     1      -9.751  10.441  64.209  1.00  0.00    -0.326 C  
BRANCH   4   5
HETATM    5  O   UNL     1      -8.788   9.619  63.539  1.00  0.00    -0.219 OA 
BRANCH   5   6
HETATM    6  C   UNL     1      -8.215   8.699  64.350  1.00  0.00    -0.162 C  
HETATM    7  O   UNL     1      -8.227   7.495  64.145  1.00  0.00    -0.090 OA 
BRANCH   6   8
HETATM    8  C   UNL     1      -7.615   9.322  65.559  1.00  0.00    -0.091 C  
HETATM    9  C   UNL     1      -6.404   9.934  65.557  1.00  0.00    -0.086 C  
HETATM   10  C   UNL     1      -5.363   9.993  64.461  1.00  0.00    -0.090 C  
HETATM   11  N   UNL     1      -6.009  10.640  66.674  1.00  0.00    -0.070 NA 
HETATM   12  C   UNL     1      -6.664  10.667  67.883  1.00  0.00    -0.064 C  
HETATM   13  C   UNL     1      -7.870  10.062  68.015  1.00  0.00    -0.089 C  
HETATM   14  C   UNL     1      -5.917  11.388  68.978  1.00  0.00    -0.051 C  
HETATM   15  C   UNL     1      -8.536   9.385  66.804  1.00  0.00    -0.129 C  
BRANCH  13  16
HETATM   16  C   UNL     1      -8.469   9.977  69.375  1.00  0.00    -0.170 C  
HETATM   17  O   UNL     1      -8.042   9.237  70.249  1.00  0.00    -0.116 OA 
BRANCH  16  18
HETATM   18  O   UNL     1      -9.551  10.784  69.531  1.00  0.00    -0.110 OA 
BRANCH  18  19
HETATM   19  C   UNL     1     -10.790  10.062  69.727  1.00  0.00    -0.273 C  
HETATM   20  C   UNL     1     -10.760   9.353  71.079  1.00  0.00    -0.407 C  
HETATM   21  C   UNL     1     -11.952  11.043  69.654  1.00  0.00    -0.424 C  
ENDBRANCH  18  19
ENDBRANCH  16  18
ENDBRANCH  13  16
BRANCH  15  22
HETATM   22  C   UNL     1      -9.070   7.988  67.144  1.00  0.00    -0.159 A  
HETATM   23  C   UNL     1     -10.450   7.722  67.066  1.00  0.00    -0.419 A  
HETATM   24  C   UNL     1      -8.201   6.951  67.520  1.00  0.00    -0.116 A  
HETATM   25  C   UNL     1     -10.956   6.454  67.360  1.00  0.00    -0.463 A  
HETATM   26  O   UNL     1      -6.589   4.866  68.256  1.00  0.00    -0.043 OA 
HETATM   27  O   UNL     1      -8.287   3.492  68.453  1.00  0.00    -0.079 OA 
HETATM   28  C   UNL     1      -8.716   5.681  67.815  1.00  0.00    -0.107 A  
HETATM   29  N   UNL     1      -7.796   4.604  68.201  1.00  0.00    -0.081 N  
HETATM   30  C   UNL     1     -10.090   5.429  67.736  1.00  0.00    -0.215 A  
ENDBRANCH  15  22
ENDBRANCH   6   8
ENDBRANCH   5   6
ENDBRANCH   4   5
ENDBRANCH   3   4
ENDBRANCH   2   3
TORSDOF 9
ENDMDL
MODEL      180
REMARK 921   NORMALIZED FREE ENERGY PREDICTED BY IDOCK:   -3.23 KCAL/MOL
REMARK 922        TOTAL FREE ENERGY PREDICTED BY IDOCK:   -6.51 KCAL/MOL
REMARK 923 INTER-LIGAND FREE ENERGY PREDICTED BY IDOCK:   -4.66 KCAL/MOL
REMARK 924 INTRA-LIGAND FREE ENERGY PREDICTED BY IDOCK:   -1.85 KCAL/MOL
REMARK 927      BINDING AFFINITY PREDICTED BY RF-SCORE:    0.00 PKD
ROOT
HETATM    1  C   UNL     1      -8.664   2.658  63.696  1.00  0.00    -0.085 C  
HETATM    2  O   UNL     1      -9.212   3.962  63.817  1.00  0.00    -0.118 OA 
ENDROOT
BRANCH   2   3
HETATM    3  C   UNL     1     -10.303   3.985  64.738  1.00  0.00    -0.197 C  
BRANCH   3   4
HETATM    4  C   UNL     1      -9.800   4.604  66.024  1.00  0.00    -0.224 C  
BRANCH   4   5
HETATM    5  O   UNL     1      -9.622   6.023  65.938  1.00  0.00    -0.061 OA 
BRANCH   5   6
HETATM    6  C   UNL     1     -10.337   6.708  66.862  1.00  0.00    -0.254 C  
HETATM    7  O   UNL     1     -11.511   6.497  67.121  1.00  0.00    -0.221 OA 
BRANCH   6   8
HETATM    8  C   UNL     1      -9.536   7.792  67.490  1.00  0.00    -0.184 C  
HETATM    9  C   UNL     1      -9.189   8.932  66.840  1.00  0.00    -0.147 C  
HETATM   10  C   UNL     1      -9.369   9.296  65.383  1.00  0.00    -0.292 C  
HETATM   11  N   UNL     1      -8.605   9.957  67.553  1.00  0.00    -0.122 NA 
HETATM   12  C   UNL     1      -8.184   9.890  68.860  1.00  0.00    -0.118 C  
HETATM   13  C   UNL     1      -8.446   8.786  69.603  1.00  0.00    -0.129 C  
HETATM   14  C   UNL     1      -7.428  11.108  69.333  1.00  0.00    -0.029 C  
HETATM   15  C   UNL     1      -9.256   7.622  69.004  1.00  0.00    -0.140 C  
BRANCH  13  16
HETATM   16  C   UNL     1      -7.837   8.689  70.958  1.00  0.00    -0.111 C  
HETATM   17  O   UNL     1      -6.680   8.344  71.148  1.00  0.00    -0.043 OA 
BRANCH  16  18
HETATM   18  O   UNL     1      -8.708   8.993  71.955  1.00  0.00    -0.363 OA 
BRANCH  18  19
HETATM   19  C   UNL     1      -9.057   7.862  72.787  1.00  0.00    -0.211 C  
HETATM   20  C   UNL     1      -8.358   7.985  74.138  1.00  0.00    -0.311 C  
HETATM   21  C   UNL     1     -10.570   7.822  72.960  1.00  0.00    -0.441 C  
ENDBRANCH  18  19
ENDBRANCH  16  18
ENDBRANCH  13  16
BRANCH  15  22
HETATM   22  C   UNL     1      -8.603   6.262  69.278  1.00  0.00    -0.124 A  
HETATM   23  C   UNL     1      -7.394   5.919  68.641  1.00  0.00    -0.085 A  
HETATM   24  C   UNL     1      -9.180   5.347  70.171  1.00  0.00    -0.177 A  
HETATM   25  C   UNL     1      -6.776   4.691  68.885  1.00  0.00    -0.049 A  
HETATM   26  O   UNL     1     -10.225   3.500  71.900  1.00  0.00    -0.141 OA 
HETATM   27  O   UNL     1      -8.585   2.089  71.541  1.00  0.00    -0.060 OA 
HETATM   28  C   UNL     1      -8.555   4.115  70.411  1.00  0.00    -0.073 A  
HETATM   29  N   UNL     1      -9.167   3.170  71.353  1.00  0.00    -0.107 N  
HETATM   30  C   UNL     1      -7.356   3.784  69.771  1.00  0.00    -0.042 A  
ENDBRANCH  15  22
ENDBRANCH   6   8
ENDBRANCH   5   6
ENDBRANCH   4   5
ENDBRANCH   3   4
ENDBRANCH   2   3
TORSDOF 9
ENDMDL
MODEL      181
REMARK 921   NORMALIZED FREE ENERGY PREDICTED BY IDOCK:   -3.23 KCAL/MOL
REMARK 922        TOTAL FREE ENERGY PREDICTED BY IDOCK:   -6.50 KCAL/MOL
REMARK 923 INTER-LIGAND FREE ENERGY PREDICTED BY IDOCK:   -7.62 KCAL/MOL
REMARK 924 INTRA-LIGAND FREE ENERGY PREDICTED BY IDOCK:    1.12 KCAL/MOL
REMARK 927      BINDING AFFINITY PREDICTED BY RF-SCORE:    0.00 PKD
ROOT
HETATM    1  C   UNL     1     -10.089  18.566  66.340  1.00  0.00    -0.405 C  
HETATM    2  O   UNL     1     -10.623  17.605  65.441  1.00  0.00    -0.657 OA 
ENDROOT
BRANCH   2   3
HETATM    3  C   UNL     1     -10.075  16.308  65.680  1.00  0.00    -0.312 C  
BRANCH   3   4
HETATM    4  C   UNL     1     -11.107  15.291  65.244  1.00  0.00    -0.376 C  
BRANCH   4   5
HETATM    5  O   UNL     1     -11.797  14.677  66.340  1.00  0.00    -0.365 OA 
BRANCH   5   6
HETATM    6  C   UNL     1     -12.261  13.439  66.053  1.00  0.00    -0.437 C  
HETATM    7  O   UNL     1     -13.444  13.149  65.962  1.00  0.00     0.440 OA 
BRANCH   6   8
HETATM    8  C   UNL     1     -11.158  12.451  65.915  1.00  0.00    -0.349 C  
HETATM    9  C   UNL     1     -10.944  11.728  64.786  1.00  0.00    -0.303 C  
HETATM   10  C   UNL     1     -11.795  11.624  63.540  1.00  0.00    -0.365 C  
HETATM   11  N   UNL     1      -9.795  10.973  64.683  1.00  0.00    -0.261 NA 
HETATM   12  C   UNL     1      -8.888  10.747  65.691  1.00  0.00    -0.190 C  
HETATM   13  C   UNL     1      -9.016  11.390  66.878  1.00  0.00    -0.171 C  
HETATM   14  C   UNL     1      -7.811   9.747  65.346  1.00  0.00    -0.122 C  
HETATM   15  C   UNL     1     -10.147  12.412  67.088  1.00  0.00    -0.221 C  
BRANCH  13  16
HETATM   16  C   UNL     1      -8.109  10.999  67.992  1.00  0.00    -0.121 C  
HETATM   17  O   UNL     1      -7.875   9.836  68.286  1.00  0.00    -0.088 OA 
BRANCH  16  18
HETATM   18  O   UNL     1      -7.599  12.065  68.661  1.00  0.00    -0.122 OA 
BRANCH  18  19
HETATM   19  C   UNL     1      -6.239  12.389  68.287  1.00  0.00    -0.056 C  
HETATM   20  C   UNL     1      -5.809  11.513  67.113  1.00  0.00    -0.110 C  
HETATM   21  C   UNL     1      -6.165  13.865  67.918  1.00  0.00    -0.164 C  
ENDBRANCH  18  19
ENDBRANCH  16  18
ENDBRANCH  13  16
BRANCH  15  22
HETATM   22  C   UNL     1     -10.881  12.197  68.418  1.00  0.00    -0.255 A  
HETATM   23  C   UNL     1     -11.566  13.267  69.026  1.00  0.00    -0.359 A  
HETATM   24  C   UNL     1     -10.898  10.940  69.041  1.00  0.00    -0.275 A  
HETATM   25  C   UNL     1     -12.250  13.090  70.230  1.00  0.00    -0.368 A  
HETATM   26  O   UNL     1     -10.996   8.527  70.330  1.00  0.00    -0.242 OA 
HETATM   27  O   UNL     1     -12.222   9.334  71.959  1.00  0.00    -0.364 OA 
HETATM   28  C   UNL     1     -11.586  10.770  70.251  1.00  0.00    -0.338 A  
HETATM   29  N   UNL     1     -11.602   9.448  70.889  1.00  0.00    -0.293 N  
HETATM   30  C   UNL     1     -12.262  11.840  70.848  1.00  0.00    -0.378 A  
ENDBRANCH  15  22
ENDBRANCH   6   8
ENDBRANCH   5   6
ENDBRANCH   4   5
ENDBRANCH   3   4
ENDBRANCH   2   3
TORSDOF 9
ENDMDL
MODEL      182
REMARK 921   NORMALIZED FREE ENERGY PREDICTED BY IDOCK:   -3.18 KCAL/MOL
REMARK 922        TOTAL FREE ENERGY PREDICTED BY IDOCK:   -6.43 KCAL/MOL
REMARK 923 INTER-LIGAND FREE ENERGY PREDICTED BY IDOCK:   -5.27 KCAL/MOL
REMARK 924 INTRA-LIGAND FREE ENERGY PREDICTED BY IDOCK:   -1.17 KCAL/MOL
REMARK 927      BINDING AFFINITY PREDICTED BY RF-SCORE:    0.00 PKD
ROOT
HETATM    1  C   UNL     1      -8.569  16.644  69.012  1.00  0.00    -0.190 C  
HETATM    2  O   UNL     1      -9.730  15.834  68.903  1.00  0.00    -0.201 OA 
ENDROOT
BRANCH   2   3
HETATM    3  C   UNL     1      -9.505  14.715  68.043  1.00  0.00    -0.207 C  
BRANCH   3   4
HETATM    4  C   UNL     1      -8.012  14.598  67.829  1.00  0.00    -0.156 C  
BRANCH   4   5
HETATM    5  O   UNL     1      -7.387  13.652  68.706  1.00  0.00    -0.105 OA 
BRANCH   5   6
HETATM    6  C   UNL     1      -6.947  12.543  68.068  1.00  0.00    -0.095 C  
HETATM    7  O   UNL     1      -6.500  12.531  66.931  1.00  0.00    -0.138 OA 
BRANCH   6   8
HETATM    8  C   UNL     1      -7.124  11.321  68.895  1.00  0.00    -0.104 C  
HETATM    9  C   UNL     1      -6.410  11.077  70.024  1.00  0.00    -0.146 C  
HETATM   10  C   UNL     1      -5.235  11.838  70.597  1.00  0.00    -0.131 C  
HETATM   11  N   UNL     1      -6.767  10.011  70.824  1.00  0.00    -0.309 NA 
HETATM   12  C   UNL     1      -7.699   9.049  70.514  1.00  0.00    -0.119 C  
HETATM   13  C   UNL     1      -8.452   9.168  69.393  1.00  0.00    -0.130 C  
HETATM   14  C   UNL     1      -7.765   7.908  71.500  1.00  0.00    -0.090 C  
HETATM   15  C   UNL     1      -8.303  10.403  68.486  1.00  0.00    -0.124 C  
BRANCH  13  16
HETATM   16  C   UNL     1      -9.333   8.030  69.013  1.00  0.00    -0.147 C  
HETATM   17  O   UNL     1      -8.905   6.962  68.600  1.00  0.00    -0.125 OA 
BRANCH  16  18
HETATM   18  O   UNL     1     -10.655   8.315  69.145  1.00  0.00    -0.219 OA 
BRANCH  18  19
HETATM   19  C   UNL     1     -11.128   8.255  70.511  1.00  0.00    -0.249 C  
HETATM   20  C   UNL     1     -11.692   9.614  70.917  1.00  0.00    -0.412 C  
HETATM   21  C   UNL     1     -12.193   7.172  70.618  1.00  0.00    -0.245 C  
ENDBRANCH  18  19
ENDBRANCH  16  18
ENDBRANCH  13  16
BRANCH  15  22
HETATM   22  C   UNL     1      -8.194  10.022  67.005  1.00  0.00    -0.117 A  
HETATM   23  C   UNL     1      -7.130   9.214  66.560  1.00  0.00    -0.081 A  
HETATM   24  C   UNL     1      -9.152  10.452  66.073  1.00  0.00    -0.187 A  
HETATM   25  C   UNL     1      -7.019   8.845  65.218  1.00  0.00    -0.076 A  
HETATM   26  O   UNL     1     -10.971  11.235  64.184  1.00  0.00    -0.372 OA 
HETATM   27  O   UNL     1      -9.909  10.181  62.581  1.00  0.00    -0.174 OA 
HETATM   28  C   UNL     1      -9.034  10.079  64.727  1.00  0.00    -0.212 A  
HETATM   29  N   UNL     1     -10.046  10.531  63.764  1.00  0.00    -0.268 N  
HETATM   30  C   UNL     1      -7.971   9.278  64.296  1.00  0.00    -0.135 A  
ENDBRANCH  15  22
ENDBRANCH   6   8
ENDBRANCH   5   6
ENDBRANCH   4   5
ENDBRANCH   3   4
ENDBRANCH   2   3
TORSDOF 9
ENDMDL
MODEL      183
REMARK 921   NORMALIZED FREE ENERGY PREDICTED BY IDOCK:   -3.18 KCAL/MOL
REMARK 922        TOTAL FREE ENERGY PREDICTED BY IDOCK:   -6.42 KCAL/MOL
REMARK 923 INTER-LIGAND FREE ENERGY PREDICTED BY IDOCK:   -7.01 KCAL/MOL
REMARK 924 INTRA-LIGAND FREE ENERGY PREDICTED BY IDOCK:    0.58 KCAL/MOL
REMARK 927      BINDING AFFINITY PREDICTED BY RF-SCORE:    0.00 PKD
ROOT
HETATM    1  C   UNL     1      -6.685   8.165  72.595  1.00  0.00    -0.086 C  
HETATM    2  O   UNL     1      -7.612   8.370  73.650  1.00  0.00    -0.266 OA 
ENDROOT
BRANCH   2   3
HETATM    3  C   UNL     1      -8.942   8.520  73.152  1.00  0.00    -0.020 C  
BRANCH   3   4
HETATM    4  C   UNL     1      -8.864   8.541  71.641  1.00  0.00    -0.207 C  
BRANCH   4   5
HETATM    5  O   UNL     1      -9.831   9.408  71.035  1.00  0.00    -0.283 OA 
BRANCH   5   6
HETATM    6  C   UNL     1     -10.490   8.832  70.003  1.00  0.00    -0.212 C  
HETATM    7  O   UNL     1     -11.275   7.903  70.117  1.00  0.00    -0.242 OA 
BRANCH   6   8
HETATM    8  C   UNL     1     -10.104   9.428  68.697  1.00  0.00    -0.208 C  
HETATM    9  C   UNL     1      -8.995   9.056  68.009  1.00  0.00    -0.132 C  
HETATM   10  C   UNL     1      -7.870   8.136  68.430  1.00  0.00    -0.118 C  
HETATM   11  N   UNL     1      -8.813   9.529  66.726  1.00  0.00    -0.130 NA 
HETATM   12  C   UNL     1      -9.580  10.487  66.106  1.00  0.00    -0.190 C  
HETATM   13  C   UNL     1     -10.697  10.960  66.711  1.00  0.00    -0.309 C  
HETATM   14  C   UNL     1      -9.051  10.933  64.764  1.00  0.00    -0.197 C  
HETATM   15  C   UNL     1     -11.141  10.395  68.071  1.00  0.00    -0.359 C  
BRANCH  13  16
HETATM   16  C   UNL     1     -11.408  12.105  66.079  1.00  0.00    -0.358 C  
HETATM   17  O   UNL     1     -12.464  11.986  65.475  1.00  0.00    -0.409 OA 
BRANCH  16  18
HETATM   18  O   UNL     1     -10.746  13.283  66.219  1.00  0.00    -0.282 OA 
BRANCH  18  19
HETATM   19  C   UNL     1     -11.171  14.303  65.283  1.00  0.00    -0.337 C  
HETATM   20  C   UNL     1     -12.672  14.536  65.427  1.00  0.00    -0.190 C  
HETATM   21  C   UNL     1     -10.394  15.583  65.560  1.00  0.00    -0.419 C  
ENDBRANCH  18  19
ENDBRANCH  16  18
ENDBRANCH  13  16
BRANCH  15  22
HETATM   22  C   UNL     1     -11.506  11.503  69.067  1.00  0.00    -0.355 A  
HETATM   23  C   UNL     1     -12.501  11.280  70.037  1.00  0.00    -0.251 A  
HETATM   24  C   UNL     1     -10.851  12.744  69.042  1.00  0.00    -0.192 A  
HETATM   25  C   UNL     1     -12.841  12.270  70.960  1.00  0.00    -0.251 A  
HETATM   26  O   UNL     1      -9.627  15.192  69.079  1.00  0.00    -0.211 OA 
HETATM   27  O   UNL     1     -10.832  15.879  70.777  1.00  0.00    -0.286 OA 
HETATM   28  C   UNL     1     -11.197  13.735  69.971  1.00  0.00     0.077 A  
HETATM   29  N   UNL     1     -10.500  15.027  69.939  1.00  0.00    -0.197 N  
HETATM   30  C   UNL     1     -12.190  13.503  70.930  1.00  0.00    -0.387 A  
ENDBRANCH  15  22
ENDBRANCH   6   8
ENDBRANCH   5   6
ENDBRANCH   4   5
ENDBRANCH   3   4
ENDBRANCH   2   3
TORSDOF 9
ENDMDL
MODEL      184
REMARK 921   NORMALIZED FREE ENERGY PREDICTED BY IDOCK:   -3.16 KCAL/MOL
REMARK 922        TOTAL FREE ENERGY PREDICTED BY IDOCK:   -6.40 KCAL/MOL
REMARK 923 INTER-LIGAND FREE ENERGY PREDICTED BY IDOCK:   -6.16 KCAL/MOL
REMARK 924 INTRA-LIGAND FREE ENERGY PREDICTED BY IDOCK:   -0.24 KCAL/MOL
REMARK 927      BINDING AFFINITY PREDICTED BY RF-SCORE:    0.00 PKD
ROOT
HETATM    1  C   UNL     1      -6.065   6.637  69.903  1.00  0.00    -0.027 C  
HETATM    2  O   UNL     1      -5.157   6.687  68.813  1.00  0.00    -0.011 OA 
ENDROOT
BRANCH   2   3
HETATM    3  C   UNL     1      -5.824   7.020  67.595  1.00  0.00    -0.021 C  
BRANCH   3   4
HETATM    4  C   UNL     1      -6.868   5.954  67.341  1.00  0.00    -0.063 C  
BRANCH   4   5
HETATM    5  O   UNL     1      -7.792   6.302  66.303  1.00  0.00    -0.100 OA 
BRANCH   5   6
HETATM    6  C   UNL     1      -8.444   7.465  66.536  1.00  0.00    -0.128 C  
HETATM    7  O   UNL     1      -8.237   8.506  65.932  1.00  0.00    -0.112 OA 
BRANCH   6   8
HETATM    8  C   UNL     1      -9.409   7.344  67.660  1.00  0.00    -0.145 C  
HETATM    9  C   UNL     1     -10.423   6.442  67.676  1.00  0.00    -0.228 C  
HETATM   10  C   UNL     1     -10.897   5.515  66.578  1.00  0.00    -0.237 C  
HETATM   11  N   UNL     1     -11.155   6.277  68.833  1.00  0.00    -0.365 NA 
HETATM   12  C   UNL     1     -11.065   7.060  69.960  1.00  0.00    -0.278 C  
HETATM   13  C   UNL     1     -10.109   8.017  70.048  1.00  0.00    -0.196 C  
HETATM   14  C   UNL     1     -12.103   6.755  71.013  1.00  0.00    -0.426 C  
HETATM   15  C   UNL     1      -9.090   8.203  68.909  1.00  0.00    -0.147 C  
BRANCH  13  16
HETATM   16  C   UNL     1     -10.146   8.944  71.213  1.00  0.00    -0.295 C  
HETATM   17  O   UNL     1      -9.763   8.629  72.330  1.00  0.00    -0.295 OA 
BRANCH  16  18
HETATM   18  O   UNL     1     -10.675  10.158  70.909  1.00  0.00    -0.249 OA 
BRANCH  18  19
HETATM   19  C   UNL     1     -12.115  10.143  70.763  1.00  0.00    -0.343 C  
HETATM   20  C   UNL     1     -12.767  10.033  72.139  1.00  0.00    -0.354 C  
HETATM   21  C   UNL     1     -12.553  11.418  70.055  1.00  0.00    -0.125 C  
ENDBRANCH  18  19
ENDBRANCH  16  18
ENDBRANCH  13  16
BRANCH  15  22
HETATM   22  C   UNL     1      -8.925   9.676  68.516  1.00  0.00    -0.124 A  
HETATM   23  C   UNL     1      -7.696  10.329  68.727  1.00  0.00    -0.096 A  
HETATM   24  C   UNL     1      -9.980  10.392  67.929  1.00  0.00    -0.192 A  
HETATM   25  C   UNL     1      -7.521  11.666  68.365  1.00  0.00    -0.107 A  
HETATM   26  O   UNL     1     -11.972  11.870  66.772  1.00  0.00    -0.613 OA 
HETATM   27  O   UNL     1     -10.708  13.657  66.643  1.00  0.00    -0.278 OA 
HETATM   28  C   UNL     1      -9.797  11.735  67.569  1.00  0.00    -0.186 A  
HETATM   29  N   UNL     1     -10.907  12.471  66.950  1.00  0.00    -0.243 N  
HETATM   30  C   UNL     1      -8.572  12.375  67.785  1.00  0.00    -0.172 A  
ENDBRANCH  15  22
ENDBRANCH   6   8
ENDBRANCH   5   6
ENDBRANCH   4   5
ENDBRANCH   3   4
ENDBRANCH   2   3
TORSDOF 9
ENDMDL
MODEL      185
REMARK 921   NORMALIZED FREE ENERGY PREDICTED BY IDOCK:   -3.14 KCAL/MOL
REMARK 922        TOTAL FREE ENERGY PREDICTED BY IDOCK:   -6.37 KCAL/MOL
REMARK 923 INTER-LIGAND FREE ENERGY PREDICTED BY IDOCK:   -5.89 KCAL/MOL
REMARK 924 INTRA-LIGAND FREE ENERGY PREDICTED BY IDOCK:   -0.48 KCAL/MOL
REMARK 927      BINDING AFFINITY PREDICTED BY RF-SCORE:    0.00 PKD
ROOT
HETATM    1  C   UNL     1     -13.193   8.124  71.639  1.00  0.00    -0.332 C  
HETATM    2  O   UNL     1     -13.512   9.507  71.612  1.00  0.00    -0.377 OA 
ENDROOT
BRANCH   2   3
HETATM    3  C   UNL     1     -12.334  10.313  71.557  1.00  0.00    -0.390 C  
BRANCH   3   4
HETATM    4  C   UNL     1     -12.359  11.068  70.246  1.00  0.00    -0.328 C  
BRANCH   4   5
HETATM    5  O   UNL     1     -11.094  11.080  69.574  1.00  0.00    -0.238 OA 
BRANCH   5   6
HETATM    6  C   UNL     1     -11.205  11.167  68.228  1.00  0.00    -0.279 C  
HETATM    7  O   UNL     1     -12.260  11.307  67.630  1.00  0.00    -0.423 OA 
BRANCH   6   8
HETATM    8  C   UNL     1      -9.889  11.014  67.553  1.00  0.00    -0.190 C  
HETATM    9  C   UNL     1      -9.488  11.799  66.521  1.00  0.00    -0.214 C  
HETATM   10  C   UNL     1     -10.270  12.836  65.746  1.00  0.00    -0.302 C  
HETATM   11  N   UNL     1      -8.186  11.706  66.077  1.00  0.00     0.073 NA 
HETATM   12  C   UNL     1      -7.264  10.768  66.478  1.00  0.00    -0.139 C  
HETATM   13  C   UNL     1      -7.563   9.907  67.482  1.00  0.00    -0.091 C  
HETATM   14  C   UNL     1      -5.968  10.799  65.704  1.00  0.00    -0.108 C  
HETATM   15  C   UNL     1      -8.916  10.004  68.209  1.00  0.00    -0.119 C  
BRANCH  13  16
HETATM   16  C   UNL     1      -6.602   8.809  67.777  1.00  0.00    -0.061 C  
HETATM   17  O   UNL     1      -6.795   7.646  67.454  1.00  0.00    -0.065 OA 
BRANCH  16  18
HETATM   18  O   UNL     1      -5.509   9.231  68.466  1.00  0.00    -0.037 OA 
BRANCH  18  19
HETATM   19  C   UNL     1      -5.531   8.871  69.867  1.00  0.00    -0.029 C  
HETATM   20  C   UNL     1      -6.459   9.817  70.624  1.00  0.00    -0.109 C  
HETATM   21  C   UNL     1      -6.002   7.429  70.000  1.00  0.00    -0.024 C  
ENDBRANCH  18  19
ENDBRANCH  16  18
ENDBRANCH  13  16
BRANCH  15  22
HETATM   22  C   UNL     1      -9.589   8.634  68.362  1.00  0.00    -0.157 A  
HETATM   23  C   UNL     1     -10.203   8.023  67.252  1.00  0.00    -0.345 A  
HETATM   24  C   UNL     1      -9.594   7.962  69.593  1.00  0.00    -0.164 A  
HETATM   25  C   UNL     1     -10.812   6.771  67.366  1.00  0.00    -0.417 A  
HETATM   26  O   UNL     1      -9.649   6.569  71.949  1.00  0.00    -0.153 OA 
HETATM   27  O   UNL     1     -10.751   4.899  71.051  1.00  0.00    -0.086 OA 
HETATM   28  C   UNL     1     -10.207   6.706  69.701  1.00  0.00    -0.186 A  
HETATM   29  N   UNL     1     -10.199   6.010  70.994  1.00  0.00    -0.195 N  
HETATM   30  C   UNL     1     -10.817   6.108  68.592  1.00  0.00    -0.403 A  
ENDBRANCH  15  22
ENDBRANCH   6   8
ENDBRANCH   5   6
ENDBRANCH   4   5
ENDBRANCH   3   4
ENDBRANCH   2   3
TORSDOF 9
ENDMDL
MODEL      186
REMARK 921   NORMALIZED FREE ENERGY PREDICTED BY IDOCK:   -3.12 KCAL/MOL
REMARK 922        TOTAL FREE ENERGY PREDICTED BY IDOCK:   -6.34 KCAL/MOL
REMARK 923 INTER-LIGAND FREE ENERGY PREDICTED BY IDOCK:   -4.80 KCAL/MOL
REMARK 924 INTRA-LIGAND FREE ENERGY PREDICTED BY IDOCK:   -1.54 KCAL/MOL
REMARK 927      BINDING AFFINITY PREDICTED BY RF-SCORE:    0.00 PKD
ROOT
HETATM    1  C   UNL     1      -8.932   5.117  62.813  1.00  0.00     0.024 C  
HETATM    2  O   UNL     1      -8.923   4.209  63.903  1.00  0.00    -0.126 OA 
ENDROOT
BRANCH   2   3
HETATM    3  C   UNL     1     -10.012   4.452  64.794  1.00  0.00    -0.091 C  
BRANCH   3   4
HETATM    4  C   UNL     1      -9.427   4.818  66.141  1.00  0.00    -0.163 C  
BRANCH   4   5
HETATM    5  O   UNL     1      -9.117   6.211  66.265  1.00  0.00    -0.150 OA 
BRANCH   5   6
HETATM    6  C   UNL     1      -9.693   6.792  67.343  1.00  0.00    -0.133 C  
HETATM    7  O   UNL     1     -10.886   6.740  67.601  1.00  0.00    -0.255 OA 
BRANCH   6   8
HETATM    8  C   UNL     1      -8.708   7.555  68.154  1.00  0.00    -0.122 C  
HETATM    9  C   UNL     1      -8.216   7.110  69.338  1.00  0.00    -0.132 C  
HETATM   10  C   UNL     1      -8.628   5.904  70.154  1.00  0.00    -0.134 C  
HETATM   11  N   UNL     1      -7.175   7.794  69.929  1.00  0.00    -0.066 NA 
HETATM   12  C   UNL     1      -6.666   9.002  69.513  1.00  0.00    -0.047 C  
HETATM   13  C   UNL     1      -7.104   9.562  68.359  1.00  0.00    -0.071 C  
HETATM   14  C   UNL     1      -5.640   9.599  70.446  1.00  0.00    -0.045 C  
HETATM   15  C   UNL     1      -8.136   8.829  67.484  1.00  0.00    -0.106 C  
BRANCH  13  16
HETATM   16  C   UNL     1      -6.646  10.939  68.027  1.00  0.00    -0.062 C  
HETATM   17  O   UNL     1      -5.826  11.179  67.153  1.00  0.00    -0.055 OA 
BRANCH  16  18
HETATM   18  O   UNL     1      -7.211  11.891  68.816  1.00  0.00    -0.104 OA 
BRANCH  18  19
HETATM   19  C   UNL     1      -7.317  13.185  68.177  1.00  0.00    -0.119 C  
HETATM   20  C   UNL     1      -8.646  13.282  67.433  1.00  0.00    -0.204 C  
HETATM   21  C   UNL     1      -7.211  14.271  69.240  1.00  0.00    -0.083 C  
ENDBRANCH  18  19
ENDBRANCH  16  18
ENDBRANCH  13  16
BRANCH  15  22
HETATM   22  C   UNL     1      -9.275   9.754  67.036  1.00  0.00    -0.166 A  
HETATM   23  C   UNL     1     -10.174  10.276  67.985  1.00  0.00    -0.200 A  
HETATM   24  C   UNL     1      -9.433  10.109  65.687  1.00  0.00    -0.275 A  
HETATM   25  C   UNL     1     -11.210  11.129  67.600  1.00  0.00    -0.364 A  
HETATM   26  O   UNL     1      -9.819  10.863  63.085  1.00  0.00    -0.313 OA 
HETATM   27  O   UNL     1     -11.560  12.094  63.596  1.00  0.00    -0.417 OA 
HETATM   28  C   UNL     1     -10.476  10.965  65.308  1.00  0.00    -0.230 A  
HETATM   29  N   UNL     1     -10.626  11.333  63.894  1.00  0.00    -0.373 N  
HETATM   30  C   UNL     1     -11.365  11.476  66.259  1.00  0.00    -0.222 A  
ENDBRANCH  15  22
ENDBRANCH   6   8
ENDBRANCH   5   6
ENDBRANCH   4   5
ENDBRANCH   3   4
ENDBRANCH   2   3
TORSDOF 9
ENDMDL
MODEL      187
REMARK 921   NORMALIZED FREE ENERGY PREDICTED BY IDOCK:   -3.12 KCAL/MOL
REMARK 922        TOTAL FREE ENERGY PREDICTED BY IDOCK:   -6.34 KCAL/MOL
REMARK 923 INTER-LIGAND FREE ENERGY PREDICTED BY IDOCK:   -5.22 KCAL/MOL
REMARK 924 INTRA-LIGAND FREE ENERGY PREDICTED BY IDOCK:   -1.11 KCAL/MOL
REMARK 927      BINDING AFFINITY PREDICTED BY RF-SCORE:    0.00 PKD
ROOT
HETATM    1  C   UNL     1      -5.311   8.043  71.172  1.00  0.00    -0.030 C  
HETATM    2  O   UNL     1      -6.375   8.333  70.278  1.00  0.00    -0.035 OA 
ENDROOT
BRANCH   2   3
HETATM    3  C   UNL     1      -6.879   9.654  70.480  1.00  0.00    -0.126 C  
BRANCH   3   4
HETATM    4  C   UNL     1      -8.387   9.586  70.382  1.00  0.00    -0.192 C  
BRANCH   4   5
HETATM    5  O   UNL     1      -8.974   8.658  71.303  1.00  0.00    -0.171 OA 
BRANCH   5   6
HETATM    6  C   UNL     1     -10.121   8.104  70.845  1.00  0.00    -0.188 C  
HETATM    7  O   UNL     1     -11.231   8.590  70.996  1.00  0.00    -0.253 OA 
BRANCH   6   8
HETATM    8  C   UNL     1      -9.878   6.796  70.182  1.00  0.00    -0.187 C  
HETATM    9  C   UNL     1      -9.423   5.701  70.842  1.00  0.00    -0.166 C  
HETATM   10  C   UNL     1      -8.930   5.577  72.267  1.00  0.00    -0.143 C  
HETATM   11  N   UNL     1      -9.400   4.487  70.187  1.00  0.00    -0.131 NA 
HETATM   12  C   UNL     1      -9.652   4.289  68.850  1.00  0.00    -0.157 C  
HETATM   13  C   UNL     1     -10.083   5.319  68.080  1.00  0.00    -0.208 C  
HETATM   14  C   UNL     1      -9.392   2.881  68.370  1.00  0.00    -0.252 C  
HETATM   15  C   UNL     1     -10.337   6.702  68.705  1.00  0.00    -0.214 C  
BRANCH  13  16
HETATM   16  C   UNL     1     -10.192   5.101  66.611  1.00  0.00    -0.261 C  
HETATM   17  O   UNL     1     -11.243   5.203  65.996  1.00  0.00    -0.045 OA 
BRANCH  16  18
HETATM   18  O   UNL     1      -9.011   4.749  66.038  1.00  0.00    -0.119 OA 
BRANCH  18  19
HETATM   19  C   UNL     1      -9.162   4.074  64.767  1.00  0.00    -0.152 C  
HETATM   20  C   UNL     1      -8.579   4.942  63.654  1.00  0.00    -0.124 C  
HETATM   21  C   UNL     1      -8.451   2.729  64.834  1.00  0.00    -0.094 C  
ENDBRANCH  18  19
ENDBRANCH  16  18
ENDBRANCH  13  16
BRANCH  15  22
HETATM   22  C   UNL     1      -9.715   7.833  67.879  1.00  0.00    -0.181 A  
HETATM   23  C   UNL     1      -8.393   7.716  67.406  1.00  0.00    -0.116 A  
HETATM   24  C   UNL     1     -10.446   8.989  67.565  1.00  0.00    -0.338 A  
HETATM   25  C   UNL     1      -7.811   8.729  66.641  1.00  0.00    -0.100 A  
HETATM   26  O   UNL     1     -11.792  11.276  66.896  1.00  0.00    -0.423 OA 
HETATM   27  O   UNL     1     -10.078  12.080  65.790  1.00  0.00    -0.227 OA 
HETATM   28  C   UNL     1      -9.855  10.003  66.798  1.00  0.00    -0.198 A  
HETATM   29  N   UNL     1     -10.634  11.204  66.472  1.00  0.00    -0.256 N  
HETATM   30  C   UNL     1      -8.541   9.877  66.335  1.00  0.00    -0.136 A  
ENDBRANCH  15  22
ENDBRANCH   6   8
ENDBRANCH   5   6
ENDBRANCH   4   5
ENDBRANCH   3   4
ENDBRANCH   2   3
TORSDOF 9
ENDMDL
MODEL      188
REMARK 921   NORMALIZED FREE ENERGY PREDICTED BY IDOCK:   -3.10 KCAL/MOL
REMARK 922        TOTAL FREE ENERGY PREDICTED BY IDOCK:   -6.31 KCAL/MOL
REMARK 923 INTER-LIGAND FREE ENERGY PREDICTED BY IDOCK:   -6.07 KCAL/MOL
REMARK 924 INTRA-LIGAND FREE ENERGY PREDICTED BY IDOCK:   -0.24 KCAL/MOL
REMARK 927      BINDING AFFINITY PREDICTED BY RF-SCORE:    0.00 PKD
ROOT
HETATM    1  C   UNL     1     -13.129   8.361  71.814  1.00  0.00    -0.351 C  
HETATM    2  O   UNL     1     -13.609   9.660  71.500  1.00  0.00    -0.361 OA 
ENDROOT
BRANCH   2   3
HETATM    3  C   UNL     1     -12.548  10.616  71.479  1.00  0.00    -0.412 C  
BRANCH   3   4
HETATM    4  C   UNL     1     -12.775  11.523  70.290  1.00  0.00    -0.010 C  
BRANCH   4   5
HETATM    5  O   UNL     1     -11.588  12.201  69.858  1.00  0.00    -0.285 OA 
BRANCH   5   6
HETATM    6  C   UNL     1     -11.453  12.236  68.512  1.00  0.00    -0.303 C  
HETATM    7  O   UNL     1     -12.131  11.584  67.733  1.00  0.00    -0.626 OA 
BRANCH   6   8
HETATM    8  C   UNL     1     -10.337  13.123  68.091  1.00  0.00    -0.247 C  
HETATM    9  C   UNL     1     -10.504  14.434  67.785  1.00  0.00    -0.245 C  
HETATM   10  C   UNL     1     -11.783  15.229  67.645  1.00  0.00    -0.181 C  
HETATM   11  N   UNL     1      -9.390  15.221  67.581  1.00  0.00    -0.198 NA 
HETATM   12  C   UNL     1      -8.092  14.774  67.502  1.00  0.00    -0.181 C  
HETATM   13  C   UNL     1      -7.805  13.473  67.757  1.00  0.00    -0.167 C  
HETATM   14  C   UNL     1      -7.092  15.833  67.106  1.00  0.00    -0.225 C  
HETATM   15  C   UNL     1      -8.920  12.501  68.182  1.00  0.00    -0.199 C  
BRANCH  13  16
HETATM   16  C   UNL     1      -6.417  12.997  67.506  1.00  0.00    -0.154 C  
HETATM   17  O   UNL     1      -6.146  12.125  66.694  1.00  0.00    -0.189 OA 
BRANCH  16  18
HETATM   18  O   UNL     1      -5.495  13.610  68.294  1.00  0.00    -0.090 OA 
BRANCH  18  19
HETATM   19  C   UNL     1      -5.262  12.931  69.551  1.00  0.00    -0.077 C  
HETATM   20  C   UNL     1      -5.992  13.667  70.672  1.00  0.00    -0.143 C  
HETATM   21  C   UNL     1      -5.753  11.494  69.436  1.00  0.00    -0.060 C  
ENDBRANCH  18  19
ENDBRANCH  16  18
ENDBRANCH  13  16
BRANCH  15  22
HETATM   22  C   UNL     1      -8.865  11.182  67.403  1.00  0.00    -0.139 A  
HETATM   23  C   UNL     1      -9.172  11.160  66.029  1.00  0.00    -0.223 A  
HETATM   24  C   UNL     1      -8.495   9.983  68.032  1.00  0.00    -0.117 A  
HETATM   25  C   UNL     1      -9.116   9.972  65.298  1.00  0.00    -0.243 A  
HETATM   26  O   UNL     1      -7.779   7.598  69.167  1.00  0.00    -0.104 OA 
HETATM   27  O   UNL     1      -8.010   6.514  67.275  1.00  0.00    -0.110 OA 
HETATM   28  C   UNL     1      -8.442   8.793  67.292  1.00  0.00    -0.111 A  
HETATM   29  N   UNL     1      -8.047   7.547  67.962  1.00  0.00    -0.122 N  
HETATM   30  C   UNL     1      -8.751   8.783  65.928  1.00  0.00    -0.198 A  
ENDBRANCH  15  22
ENDBRANCH   6   8
ENDBRANCH   5   6
ENDBRANCH   4   5
ENDBRANCH   3   4
ENDBRANCH   2   3
TORSDOF 9
ENDMDL
MODEL      189
REMARK 921   NORMALIZED FREE ENERGY PREDICTED BY IDOCK:   -3.09 KCAL/MOL
REMARK 922        TOTAL FREE ENERGY PREDICTED BY IDOCK:   -6.29 KCAL/MOL
REMARK 923 INTER-LIGAND FREE ENERGY PREDICTED BY IDOCK:   -6.23 KCAL/MOL
REMARK 924 INTRA-LIGAND FREE ENERGY PREDICTED BY IDOCK:   -0.06 KCAL/MOL
REMARK 927      BINDING AFFINITY PREDICTED BY RF-SCORE:    0.00 PKD
ROOT
HETATM    1  C   UNL     1     -13.110   8.337  71.777  1.00  0.00    -0.344 C  
HETATM    2  O   UNL     1     -13.586   9.636  71.459  1.00  0.00    -0.361 OA 
ENDROOT
BRANCH   2   3
HETATM    3  C   UNL     1     -12.529  10.597  71.479  1.00  0.00    -0.366 C  
BRANCH   3   4
HETATM    4  C   UNL     1     -12.742  11.532  70.309  1.00  0.00    -0.010 C  
BRANCH   4   5
HETATM    5  O   UNL     1     -11.578  12.300  69.977  1.00  0.00    -0.260 OA 
BRANCH   5   6
HETATM    6  C   UNL     1     -11.425  12.490  68.646  1.00  0.00    -0.306 C  
HETATM    7  O   UNL     1     -12.063  11.901  67.787  1.00  0.00    -0.564 OA 
BRANCH   6   8
HETATM    8  C   UNL     1     -10.344  13.465  68.346  1.00  0.00    -0.253 C  
HETATM    9  C   UNL     1     -10.555  14.802  68.245  1.00  0.00    -0.241 C  
HETATM   10  C   UNL     1     -11.860  15.568  68.247  1.00  0.00    -0.189 C  
HETATM   11  N   UNL     1      -9.469  15.645  68.145  1.00  0.00    -0.194 NA 
HETATM   12  C   UNL     1      -8.160  15.256  67.979  1.00  0.00    -0.137 C  
HETATM   13  C   UNL     1      -7.831  13.941  68.029  1.00  0.00    -0.154 C  
HETATM   14  C   UNL     1      -7.200  16.394  67.732  1.00  0.00    -0.155 C  
HETATM   15  C   UNL     1      -8.909  12.882  68.319  1.00  0.00    -0.168 C  
BRANCH  13  16
HETATM   16  C   UNL     1      -6.435  13.553  67.687  1.00  0.00    -0.160 C  
HETATM   17  O   UNL     1      -6.158  12.794  66.770  1.00  0.00    -0.068 OA 
BRANCH  16  18
HETATM   18  O   UNL     1      -5.512  14.104  68.517  1.00  0.00    -0.085 OA 
BRANCH  18  19
HETATM   19  C   UNL     1      -5.159  13.258  69.637  1.00  0.00    -0.084 C  
HETATM   20  C   UNL     1      -5.898  13.729  70.886  1.00  0.00    -0.187 C  
HETATM   21  C   UNL     1      -5.521  11.818  69.302  1.00  0.00    -0.053 C  
ENDBRANCH  18  19
ENDBRANCH  16  18
ENDBRANCH  13  16
BRANCH  15  22
HETATM   22  C   UNL     1      -8.831  11.698  67.348  1.00  0.00    -0.160 A  
HETATM   23  C   UNL     1      -8.312  10.463  67.782  1.00  0.00    -0.114 A  
HETATM   24  C   UNL     1      -9.286  11.813  66.025  1.00  0.00    -0.231 A  
HETATM   25  C   UNL     1      -8.244   9.368  66.918  1.00  0.00    -0.116 A  
HETATM   26  O   UNL     1     -10.154  11.937  63.433  1.00  0.00    -0.410 OA 
HETATM   27  O   UNL     1      -9.620   9.845  63.049  1.00  0.00    -0.204 OA 
HETATM   28  C   UNL     1      -9.214  10.710  65.163  1.00  0.00    -0.207 A  
HETATM   29  N   UNL     1      -9.699  10.843  63.784  1.00  0.00    -0.277 N  
HETATM   30  C   UNL     1      -8.694   9.489  65.604  1.00  0.00    -0.173 A  
ENDBRANCH  15  22
ENDBRANCH   6   8
ENDBRANCH   5   6
ENDBRANCH   4   5
ENDBRANCH   3   4
ENDBRANCH   2   3
TORSDOF 9
ENDMDL
MODEL      190
REMARK 921   NORMALIZED FREE ENERGY PREDICTED BY IDOCK:   -3.08 KCAL/MOL
REMARK 922        TOTAL FREE ENERGY PREDICTED BY IDOCK:   -6.28 KCAL/MOL
REMARK 923 INTER-LIGAND FREE ENERGY PREDICTED BY IDOCK:   -7.42 KCAL/MOL
REMARK 924 INTRA-LIGAND FREE ENERGY PREDICTED BY IDOCK:    1.14 KCAL/MOL
REMARK 927      BINDING AFFINITY PREDICTED BY RF-SCORE:    0.00 PKD
ROOT
HETATM    1  C   UNL     1     -11.961   7.647  71.776  1.00  0.00    -0.299 C  
HETATM    2  O   UNL     1     -13.064   8.505  71.529  1.00  0.00    -0.325 OA 
ENDROOT
BRANCH   2   3
HETATM    3  C   UNL     1     -12.677   9.879  71.583  1.00  0.00    -0.429 C  
BRANCH   3   4
HETATM    4  C   UNL     1     -12.728  10.423  70.172  1.00  0.00    -0.083 C  
BRANCH   4   5
HETATM    5  O   UNL     1     -11.968  11.626  70.000  1.00  0.00    -0.317 OA 
BRANCH   5   6
HETATM    6  C   UNL     1     -12.434  12.662  70.736  1.00  0.00    -0.270 C  
HETATM    7  O   UNL     1     -13.211  12.550  71.671  1.00  0.00    -0.399 OA 
BRANCH   6   8
HETATM    8  C   UNL     1     -11.932  13.968  70.234  1.00  0.00    -0.409 C  
HETATM    9  C   UNL     1     -12.496  15.158  70.564  1.00  0.00    -0.379 C  
HETATM   10  C   UNL     1     -13.771  15.434  71.330  1.00  0.00    -0.591 C  
HETATM   11  N   UNL     1     -11.857  16.324  70.201  1.00  0.00    -0.098 NA 
HETATM   12  C   UNL     1     -10.755  16.418  69.383  1.00  0.00    -0.324 C  
HETATM   13  C   UNL     1     -10.124  15.293  68.962  1.00  0.00    -0.239 C  
HETATM   14  C   UNL     1     -10.368  17.831  69.020  1.00  0.00    -0.234 C  
HETATM   15  C   UNL     1     -10.607  13.910  69.434  1.00  0.00     0.019 C  
BRANCH  13  16
HETATM   16  C   UNL     1      -9.037  15.432  67.954  1.00  0.00    -0.178 C  
HETATM   17  O   UNL     1      -9.248  15.570  66.758  1.00  0.00    -0.215 OA 
BRANCH  16  18
HETATM   18  O   UNL     1      -7.795  15.359  68.500  1.00  0.00    -0.125 OA 
BRANCH  18  19
HETATM   19  C   UNL     1      -6.731  15.338  67.519  1.00  0.00    -0.168 C  
HETATM   20  C   UNL     1      -5.902  16.614  67.636  1.00  0.00    -0.166 C  
HETATM   21  C   UNL     1      -5.867  14.106  67.753  1.00  0.00    -0.090 C  
ENDBRANCH  18  19
ENDBRANCH  16  18
ENDBRANCH  13  16
BRANCH  15  22
HETATM   22  C   UNL     1     -10.726  12.913  68.274  1.00  0.00    -0.261 A  
HETATM   23  C   UNL     1     -11.695  13.110  67.272  1.00  0.00    -0.425 A  
HETATM   24  C   UNL     1      -9.870  11.805  68.181  1.00  0.00    -0.190 A  
HETATM   25  C   UNL     1     -11.812  12.221  66.201  1.00  0.00    -0.398 A  
HETATM   26  O   UNL     1      -8.245   9.620  67.906  1.00  0.00    -0.106 OA 
HETATM   27  O   UNL     1      -9.227   8.999  66.046  1.00  0.00    -0.192 OA 
HETATM   28  C   UNL     1      -9.994  10.916  67.104  1.00  0.00    -0.189 A  
HETATM   29  N   UNL     1      -9.088   9.764  67.014  1.00  0.00    -0.137 N  
HETATM   30  C   UNL     1     -10.962  11.120  66.114  1.00  0.00    -0.203 A  
ENDBRANCH  15  22
ENDBRANCH   6   8
ENDBRANCH   5   6
ENDBRANCH   4   5
ENDBRANCH   3   4
ENDBRANCH   2   3
TORSDOF 9
ENDMDL
MODEL      191
REMARK 921   NORMALIZED FREE ENERGY PREDICTED BY IDOCK:   -3.07 KCAL/MOL
REMARK 922        TOTAL FREE ENERGY PREDICTED BY IDOCK:   -6.27 KCAL/MOL
REMARK 923 INTER-LIGAND FREE ENERGY PREDICTED BY IDOCK:   -6.93 KCAL/MOL
REMARK 924 INTRA-LIGAND FREE ENERGY PREDICTED BY IDOCK:    0.67 KCAL/MOL
REMARK 927      BINDING AFFINITY PREDICTED BY RF-SCORE:    0.00 PKD
ROOT
HETATM    1  C   UNL     1      -8.967   5.923  68.424  1.00  0.00    -0.112 C  
HETATM    2  O   UNL     1      -9.099   5.680  69.816  1.00  0.00    -0.134 OA 
ENDROOT
BRANCH   2   3
HETATM    3  C   UNL     1      -8.030   6.276  70.553  1.00  0.00    -0.112 C  
BRANCH   3   4
HETATM    4  C   UNL     1      -7.377   7.305  69.656  1.00  0.00    -0.088 C  
BRANCH   4   5
HETATM    5  O   UNL     1      -8.255   8.377  69.290  1.00  0.00    -0.113 OA 
BRANCH   5   6
HETATM    6  C   UNL     1      -8.056   9.502  70.016  1.00  0.00    -0.167 C  
HETATM    7  O   UNL     1      -7.725   9.515  71.191  1.00  0.00    -0.325 OA 
BRANCH   6   8
HETATM    8  C   UNL     1      -8.345  10.728  69.228  1.00  0.00    -0.072 C  
HETATM    9  C   UNL     1      -7.429  11.707  69.012  1.00  0.00    -0.051 C  
HETATM   10  C   UNL     1      -6.046  11.870  69.603  1.00  0.00    -0.124 C  
HETATM   11  N   UNL     1      -7.725  12.717  68.122  1.00  0.00    -0.132 NA 
HETATM   12  C   UNL     1      -8.945  12.930  67.524  1.00  0.00    -0.193 C  
HETATM   13  C   UNL     1      -9.950  12.036  67.692  1.00  0.00    -0.196 C  
HETATM   14  C   UNL     1      -9.030  14.208  66.724  1.00  0.00    -0.229 C  
HETATM   15  C   UNL     1      -9.719  10.754  68.512  1.00  0.00    -0.184 C  
BRANCH  13  16
HETATM   16  C   UNL     1     -11.297  12.383  67.162  1.00  0.00    -0.329 C  
HETATM   17  O   UNL     1     -12.144  12.968  67.820  1.00  0.00    -0.318 OA 
BRANCH  16  18
HETATM   18  O   UNL     1     -11.492  11.955  65.887  1.00  0.00    -0.340 OA 
BRANCH  18  19
HETATM   19  C   UNL     1     -12.379  12.802  65.119  1.00  0.00    -0.496 C  
HETATM   20  C   UNL     1     -11.626  14.049  64.662  1.00  0.00    -0.400 C  
HETATM   21  C   UNL     1     -12.904  12.017  63.925  1.00  0.00    -0.400 C  
ENDBRANCH  18  19
ENDBRANCH  16  18
ENDBRANCH  13  16
BRANCH  15  22
HETATM   22  C   UNL     1     -10.849  10.498  69.516  1.00  0.00    -0.298 A  
HETATM   23  C   UNL     1     -11.471  11.579  70.169  1.00  0.00    -0.258 A  
HETATM   24  C   UNL     1     -11.294   9.195  69.791  1.00  0.00     0.011 A  
HETATM   25  C   UNL     1     -12.510  11.370  71.078  1.00  0.00    -0.486 A  
HETATM   26  O   UNL     1     -12.235   6.696  70.388  1.00  0.00    -0.332 OA 
HETATM   27  O   UNL     1     -13.722   7.482  71.793  1.00  0.00    -0.356 OA 
HETATM   28  C   UNL     1     -12.336   8.992  70.705  1.00  0.00    -0.021 A  
HETATM   29  N   UNL     1     -12.796   7.624  70.979  1.00  0.00    -0.162 N  
HETATM   30  C   UNL     1     -12.946  10.074  71.350  1.00  0.00    -0.517 A  
ENDBRANCH  15  22
ENDBRANCH   6   8
ENDBRANCH   5   6
ENDBRANCH   4   5
ENDBRANCH   3   4
ENDBRANCH   2   3
TORSDOF 9
ENDMDL
MODEL      192
REMARK 921   NORMALIZED FREE ENERGY PREDICTED BY IDOCK:   -3.07 KCAL/MOL
REMARK 922        TOTAL FREE ENERGY PREDICTED BY IDOCK:   -6.27 KCAL/MOL
REMARK 923 INTER-LIGAND FREE ENERGY PREDICTED BY IDOCK:   -6.86 KCAL/MOL
REMARK 924 INTRA-LIGAND FREE ENERGY PREDICTED BY IDOCK:    0.60 KCAL/MOL
REMARK 927      BINDING AFFINITY PREDICTED BY RF-SCORE:    0.00 PKD
ROOT
HETATM    1  C   UNL     1      -5.125  12.727  71.646  1.00  0.00    -0.118 C  
HETATM    2  O   UNL     1      -5.765  11.478  71.430  1.00  0.00    -0.368 OA 
ENDROOT
BRANCH   2   3
HETATM    3  C   UNL     1      -6.221  11.352  70.082  1.00  0.00    -0.138 C  
BRANCH   3   4
HETATM    4  C   UNL     1      -5.218  12.057  69.195  1.00  0.00    -0.055 C  
BRANCH   4   5
HETATM    5  O   UNL     1      -5.743  13.233  68.568  1.00  0.00    -0.074 OA 
BRANCH   5   6
HETATM    6  C   UNL     1      -6.711  12.968  67.661  1.00  0.00    -0.157 C  
HETATM    7  O   UNL     1      -6.544  12.309  66.646  1.00  0.00     0.002 OA 
BRANCH   6   8
HETATM    8  C   UNL     1      -7.998  13.623  68.015  1.00  0.00    -0.154 C  
HETATM    9  C   UNL     1      -8.091  14.653  68.893  1.00  0.00    -0.147 C  
HETATM   10  C   UNL     1      -7.026  15.246  69.789  1.00  0.00    -0.168 C  
HETATM   11  N   UNL     1      -9.293  15.315  69.023  1.00  0.00    -0.218 NA 
HETATM   12  C   UNL     1     -10.486  14.936  68.454  1.00  0.00    -0.243 C  
HETATM   13  C   UNL     1     -10.524  13.898  67.582  1.00  0.00    -0.245 C  
HETATM   14  C   UNL     1     -11.675  15.752  68.901  1.00  0.00    -0.404 C  
HETATM   15  C   UNL     1      -9.227  13.169  67.188  1.00  0.00    -0.227 C  
BRANCH  13  16
HETATM   16  C   UNL     1     -11.854  13.421  67.113  1.00  0.00    -0.382 C  
HETATM   17  O   UNL     1     -12.313  12.327  67.406  1.00  0.00    -0.344 OA 
BRANCH  16  18
HETATM   18  O   UNL     1     -12.484  14.315  66.306  1.00  0.00    -0.445 OA 
BRANCH  18  19
HETATM   19  C   UNL     1     -12.234  14.100  64.897  1.00  0.00    -0.438 C  
HETATM   20  C   UNL     1     -11.037  14.939  64.456  1.00  0.00    -0.249 C  
HETATM   21  C   UNL     1     -11.976  12.618  64.660  1.00  0.00    -0.463 C  
ENDBRANCH  18  19
ENDBRANCH  16  18
ENDBRANCH  13  16
BRANCH  15  22
HETATM   22  C   UNL     1      -9.380  11.644  67.251  1.00  0.00    -0.170 A  
HETATM   23  C   UNL     1      -9.375  10.886  66.065  1.00  0.00    -0.215 A  
HETATM   24  C   UNL     1      -9.510  10.978  68.479  1.00  0.00    -0.188 A  
HETATM   25  C   UNL     1      -9.500   9.495  66.100  1.00  0.00    -0.281 A  
HETATM   26  O   UNL     1      -9.763   9.589  70.824  1.00  0.00    -0.269 OA 
HETATM   27  O   UNL     1      -9.875   7.661  69.786  1.00  0.00    -0.178 OA 
HETATM   28  C   UNL     1      -9.637   9.582  68.507  1.00  0.00    -0.142 A  
HETATM   29  N   UNL     1      -9.766   8.898  69.800  1.00  0.00    -0.171 N  
HETATM   30  C   UNL     1      -9.632   8.839  67.322  1.00  0.00    -0.214 A  
ENDBRANCH  15  22
ENDBRANCH   6   8
ENDBRANCH   5   6
ENDBRANCH   4   5
ENDBRANCH   3   4
ENDBRANCH   2   3
TORSDOF 9
ENDMDL
MODEL      193
REMARK 921   NORMALIZED FREE ENERGY PREDICTED BY IDOCK:   -3.05 KCAL/MOL
REMARK 922        TOTAL FREE ENERGY PREDICTED BY IDOCK:   -6.24 KCAL/MOL
REMARK 923 INTER-LIGAND FREE ENERGY PREDICTED BY IDOCK:   -4.58 KCAL/MOL
REMARK 924 INTRA-LIGAND FREE ENERGY PREDICTED BY IDOCK:   -1.66 KCAL/MOL
REMARK 927      BINDING AFFINITY PREDICTED BY RF-SCORE:    0.00 PKD
ROOT
HETATM    1  C   UNL     1      -6.136   4.038  72.558  1.00  0.00    -0.016 C  
HETATM    2  O   UNL     1      -6.645   3.269  71.479  1.00  0.00    -0.021 OA 
ENDROOT
BRANCH   2   3
HETATM    3  C   UNL     1      -7.576   4.020  70.698  1.00  0.00    -0.048 C  
BRANCH   3   4
HETATM    4  C   UNL     1      -7.334   5.486  70.985  1.00  0.00    -0.084 C  
BRANCH   4   5
HETATM    5  O   UNL     1      -8.532   6.272  70.966  1.00  0.00    -0.125 OA 
BRANCH   5   6
HETATM    6  C   UNL     1      -8.323   7.571  71.284  1.00  0.00    -0.111 C  
HETATM    7  O   UNL     1      -7.468   7.962  72.063  1.00  0.00    -0.071 OA 
BRANCH   6   8
HETATM    8  C   UNL     1      -9.299   8.469  70.613  1.00  0.00    -0.202 C  
HETATM    9  C   UNL     1     -10.568   8.654  71.057  1.00  0.00    -0.221 C  
HETATM   10  C   UNL     1     -11.310   7.933  72.160  1.00  0.00    -0.367 C  
HETATM   11  N   UNL     1     -11.342   9.640  70.482  1.00  0.00    -0.277 NA 
HETATM   12  C   UNL     1     -11.010  10.377  69.369  1.00  0.00    -0.251 C  
HETATM   13  C   UNL     1      -9.778  10.254  68.815  1.00  0.00    -0.178 C  
HETATM   14  C   UNL     1     -12.117  11.269  68.861  1.00  0.00    -0.292 C  
HETATM   15  C   UNL     1      -8.729   9.327  69.454  1.00  0.00    -0.148 C  
BRANCH  13  16
HETATM   16  C   UNL     1      -9.515  10.947  67.524  1.00  0.00    -0.155 C  
HETATM   17  O   UNL     1      -9.105  12.096  67.454  1.00  0.00    -0.170 OA 
BRANCH  16  18
HETATM   18  O   UNL     1      -9.805  10.180  66.441  1.00  0.00    -0.200 OA 
BRANCH  18  19
HETATM   19  C   UNL     1      -9.107  10.585  65.239  1.00  0.00    -0.190 C  
HETATM   20  C   UNL     1      -8.512   9.357  64.556  1.00  0.00    -0.189 C  
HETATM   21  C   UNL     1     -10.085  11.299  64.316  1.00  0.00    -0.366 C  
ENDBRANCH  18  19
ENDBRANCH  16  18
ENDBRANCH  13  16
BRANCH  15  22
HETATM   22  C   UNL     1      -8.039   8.432  68.417  1.00  0.00    -0.123 A  
HETATM   23  C   UNL     1      -6.746   8.750  67.960  1.00  0.00    -0.069 A  
HETATM   24  C   UNL     1      -8.669   7.281  67.918  1.00  0.00    -0.123 A  
HETATM   25  C   UNL     1      -6.095   7.942  67.026  1.00  0.00    -0.053 A  
HETATM   26  O   UNL     1      -9.811   5.015  66.893  1.00  0.00    -0.154 OA 
HETATM   27  O   UNL     1      -8.064   4.582  65.641  1.00  0.00    -0.104 OA 
HETATM   28  C   UNL     1      -8.011   6.476  66.979  1.00  0.00    -0.112 A  
HETATM   29  N   UNL     1      -8.679   5.271  66.471  1.00  0.00    -0.115 N  
HETATM   30  C   UNL     1      -6.726   6.802  66.531  1.00  0.00    -0.049 A  
ENDBRANCH  15  22
ENDBRANCH   6   8
ENDBRANCH   5   6
ENDBRANCH   4   5
ENDBRANCH   3   4
ENDBRANCH   2   3
TORSDOF 9
ENDMDL
MODEL      194
REMARK 921   NORMALIZED FREE ENERGY PREDICTED BY IDOCK:   -3.02 KCAL/MOL
REMARK 922        TOTAL FREE ENERGY PREDICTED BY IDOCK:   -6.19 KCAL/MOL
REMARK 923 INTER-LIGAND FREE ENERGY PREDICTED BY IDOCK:   -4.65 KCAL/MOL
REMARK 924 INTRA-LIGAND FREE ENERGY PREDICTED BY IDOCK:   -1.54 KCAL/MOL
REMARK 927      BINDING AFFINITY PREDICTED BY RF-SCORE:    0.00 PKD
ROOT
HETATM    1  C   UNL     1      -8.344  10.398  69.474  1.00  0.00    -0.113 C  
HETATM    2  O   UNL     1      -9.399  11.147  68.891  1.00  0.00    -0.175 OA 
ENDROOT
BRANCH   2   3
HETATM    3  C   UNL     1     -10.358  10.295  68.264  1.00  0.00    -0.181 C  
BRANCH   3   4
HETATM    4  C   UNL     1     -10.631  10.853  66.884  1.00  0.00    -0.261 C  
BRANCH   4   5
HETATM    5  O   UNL     1     -10.237   9.970  65.827  1.00  0.00    -0.265 OA 
BRANCH   5   6
HETATM    6  C   UNL     1      -8.903   9.972  65.599  1.00  0.00    -0.160 C  
HETATM    7  O   UNL     1      -8.145  10.865  65.944  1.00  0.00    -0.160 OA 
BRANCH   6   8
HETATM    8  C   UNL     1      -8.471   8.779  64.824  1.00  0.00    -0.179 C  
HETATM    9  C   UNL     1      -8.469   8.734  63.468  1.00  0.00    -0.105 C  
HETATM   10  C   UNL     1      -9.014   9.738  62.476  1.00  0.00    -0.280 C  
HETATM   11  N   UNL     1      -7.884   7.658  62.835  1.00  0.00    -0.127 NA 
HETATM   12  C   UNL     1      -7.422   6.517  63.448  1.00  0.00    -0.075 C  
HETATM   13  C   UNL     1      -7.404   6.433  64.802  1.00  0.00    -0.076 C  
HETATM   14  C   UNL     1      -6.982   5.433  62.494  1.00  0.00    -0.036 C  
HETATM   15  C   UNL     1      -7.854   7.628  65.659  1.00  0.00    -0.109 C  
BRANCH  13  16
HETATM   16  C   UNL     1      -7.047   5.127  65.420  1.00  0.00    -0.067 C  
HETATM   17  O   UNL     1      -6.203   5.010  66.297  1.00  0.00    -0.033 OA 
BRANCH  16  18
HETATM   18  O   UNL     1      -7.734   4.082  64.889  1.00  0.00    -0.079 OA 
BRANCH  18  19
HETATM   19  C   UNL     1      -9.097   3.980  65.367  1.00  0.00    -0.142 C  
HETATM   20  C   UNL     1      -9.967   3.328  64.296  1.00  0.00    -0.166 C  
HETATM   21  C   UNL     1      -9.110   3.160  66.650  1.00  0.00    -0.177 C  
ENDBRANCH  18  19
ENDBRANCH  16  18
ENDBRANCH  13  16
BRANCH  15  22
HETATM   22  C   UNL     1      -8.814   7.208  66.779  1.00  0.00    -0.137 A  
HETATM   23  C   UNL     1     -10.143   6.857  66.474  1.00  0.00    -0.140 A  
HETATM   24  C   UNL     1      -8.387   7.148  68.115  1.00  0.00    -0.124 A  
HETATM   25  C   UNL     1     -11.030   6.459  67.477  1.00  0.00    -0.454 A  
HETATM   26  O   UNL     1      -7.649   6.994  70.745  1.00  0.00    -0.087 OA 
HETATM   27  O   UNL     1      -9.642   6.326  71.369  1.00  0.00    -0.157 OA 
HETATM   28  C   UNL     1      -9.283   6.749  69.117  1.00  0.00    -0.137 A  
HETATM   29  N   UNL     1      -8.822   6.685  70.509  1.00  0.00    -0.150 N  
HETATM   30  C   UNL     1     -10.602   6.405  68.803  1.00  0.00    -0.295 A  
ENDBRANCH  15  22
ENDBRANCH   6   8
ENDBRANCH   5   6
ENDBRANCH   4   5
ENDBRANCH   3   4
ENDBRANCH   2   3
TORSDOF 9
ENDMDL
MODEL      195
REMARK 921   NORMALIZED FREE ENERGY PREDICTED BY IDOCK:   -3.02 KCAL/MOL
REMARK 922        TOTAL FREE ENERGY PREDICTED BY IDOCK:   -6.19 KCAL/MOL
REMARK 923 INTER-LIGAND FREE ENERGY PREDICTED BY IDOCK:   -5.01 KCAL/MOL
REMARK 924 INTRA-LIGAND FREE ENERGY PREDICTED BY IDOCK:   -1.18 KCAL/MOL
REMARK 927      BINDING AFFINITY PREDICTED BY RF-SCORE:    0.00 PKD
ROOT
HETATM    1  C   UNL     1      -6.011  18.438  66.401  1.00  0.00    -0.161 C  
HETATM    2  O   UNL     1      -6.647  18.216  67.651  1.00  0.00    -0.182 OA 
ENDROOT
BRANCH   2   3
HETATM    3  C   UNL     1      -8.065  18.356  67.546  1.00  0.00    -0.247 C  
BRANCH   3   4
HETATM    4  C   UNL     1      -8.431  18.204  66.086  1.00  0.00    -0.111 C  
BRANCH   4   5
HETATM    5  O   UNL     1      -8.740  16.854  65.717  1.00  0.00    -0.512 OA 
BRANCH   5   6
HETATM    6  C   UNL     1     -10.064  16.642  65.528  1.00  0.00    -0.134 C  
HETATM    7  O   UNL     1     -10.907  17.524  65.503  1.00  0.00    -0.448 OA 
BRANCH   6   8
HETATM    8  C   UNL     1     -10.382  15.195  65.410  1.00  0.00    -0.415 C  
HETATM    9  C   UNL     1     -11.346  14.710  64.587  1.00  0.00    -0.369 C  
HETATM   10  C   UNL     1     -12.372  15.461  63.767  1.00  0.00     0.441 C  
HETATM   11  N   UNL     1     -11.448  13.346  64.407  1.00  0.00    -0.369 NA 
HETATM   12  C   UNL     1     -10.757  12.388  65.110  1.00  0.00    -0.292 C  
HETATM   13  C   UNL     1      -9.789  12.753  65.987  1.00  0.00    -0.258 C  
HETATM   14  C   UNL     1     -11.190  10.971  64.819  1.00  0.00     0.083 C  
HETATM   15  C   UNL     1      -9.426  14.238  66.166  1.00  0.00    -0.250 C  
BRANCH  13  16
HETATM   16  C   UNL     1      -9.178  11.698  66.840  1.00  0.00    -0.184 C  
HETATM   17  O   UNL     1      -9.617  11.389  67.939  1.00  0.00    -0.168 OA 
BRANCH  16  18
HETATM   18  O   UNL     1      -8.071  11.140  66.284  1.00  0.00    -0.168 OA 
BRANCH  18  19
HETATM   19  C   UNL     1      -6.990  10.936  67.224  1.00  0.00    -0.089 C  
HETATM   20  C   UNL     1      -6.213   9.678  66.844  1.00  0.00    -0.065 C  
HETATM   21  C   UNL     1      -6.083  12.159  67.208  1.00  0.00    -0.153 C  
ENDBRANCH  18  19
ENDBRANCH  16  18
ENDBRANCH  13  16
BRANCH  15  22
HETATM   22  C   UNL     1      -9.330  14.635  67.644  1.00  0.00    -0.200 A  
HETATM   23  C   UNL     1      -8.070  14.842  68.238  1.00  0.00    -0.132 A  
HETATM   24  C   UNL     1     -10.483  14.816  68.422  1.00  0.00    -0.243 A  
HETATM   25  C   UNL     1      -7.961  15.217  69.579  1.00  0.00    -0.175 A  
HETATM   26  O   UNL     1     -12.673  15.198  70.019  1.00  0.00    -0.264 OA 
HETATM   27  O   UNL     1     -11.439  15.714  71.757  1.00  0.00    -0.398 OA 
HETATM   28  C   UNL     1     -10.366  15.190  69.768  1.00  0.00    -0.210 A  
HETATM   29  N   UNL     1     -11.582  15.382  70.570  1.00  0.00    -0.295 N  
HETATM   30  C   UNL     1      -9.110  15.391  70.349  1.00  0.00     0.956 A  
ENDBRANCH  15  22
ENDBRANCH   6   8
ENDBRANCH   5   6
ENDBRANCH   4   5
ENDBRANCH   3   4
ENDBRANCH   2   3
TORSDOF 9
ENDMDL
MODEL      196
REMARK 921   NORMALIZED FREE ENERGY PREDICTED BY IDOCK:   -3.01 KCAL/MOL
REMARK 922        TOTAL FREE ENERGY PREDICTED BY IDOCK:   -6.17 KCAL/MOL
REMARK 923 INTER-LIGAND FREE ENERGY PREDICTED BY IDOCK:   -4.89 KCAL/MOL
REMARK 924 INTRA-LIGAND FREE ENERGY PREDICTED BY IDOCK:   -1.28 KCAL/MOL
REMARK 927      BINDING AFFINITY PREDICTED BY RF-SCORE:    0.00 PKD
ROOT
HETATM    1  C   UNL     1     -12.839  12.877  71.363  1.00  0.00    -0.283 C  
HETATM    2  O   UNL     1     -13.312  11.629  71.846  1.00  0.00    -0.445 OA 
ENDROOT
BRANCH   2   3
HETATM    3  C   UNL     1     -12.369  10.585  71.601  1.00  0.00    -0.274 C  
BRANCH   3   4
HETATM    4  C   UNL     1     -11.981  10.654  70.141  1.00  0.00    -0.334 C  
BRANCH   4   5
HETATM    5  O   UNL     1     -11.390   9.443  69.653  1.00  0.00    -0.139 OA 
BRANCH   5   6
HETATM    6  C   UNL     1     -10.156   9.211  70.155  1.00  0.00    -0.202 C  
HETATM    7  O   UNL     1      -9.287  10.061  70.273  1.00  0.00    -0.162 OA 
BRANCH   6   8
HETATM    8  C   UNL     1      -9.958   7.778  70.498  1.00  0.00    -0.187 C  
HETATM    9  C   UNL     1     -10.369   7.229  71.670  1.00  0.00    -0.197 C  
HETATM   10  C   UNL     1     -10.939   7.907  72.896  1.00  0.00    -0.452 C  
HETATM   11  N   UNL     1     -10.307   5.861  71.826  1.00  0.00    -0.210 NA 
HETATM   12  C   UNL     1      -9.714   4.977  70.955  1.00  0.00    -0.190 C  
HETATM   13  C   UNL     1      -9.236   5.415  69.763  1.00  0.00    -0.169 C  
HETATM   14  C   UNL     1      -9.648   3.556  71.460  1.00  0.00    -0.232 C  
HETATM   15  C   UNL     1      -9.396   6.891  69.359  1.00  0.00    -0.146 C  
BRANCH  13  16
HETATM   16  C   UNL     1      -8.464   4.460  68.922  1.00  0.00    -0.083 C  
HETATM   17  O   UNL     1      -7.305   4.148  69.157  1.00  0.00    -0.053 OA 
BRANCH  16  18
HETATM   18  O   UNL     1      -9.169   4.000  67.857  1.00  0.00    -0.134 OA 
BRANCH  18  19
HETATM   19  C   UNL     1      -8.356   3.753  66.685  1.00  0.00    -0.104 C  
HETATM   20  C   UNL     1      -9.033   2.708  65.803  1.00  0.00    -0.133 C  
HETATM   21  C   UNL     1      -8.168   5.062  65.929  1.00  0.00    -0.114 C  
ENDBRANCH  18  19
ENDBRANCH  16  18
ENDBRANCH  13  16
BRANCH  15  22
HETATM   22  C   UNL     1      -8.092   7.485  68.812  1.00  0.00    -0.128 A  
HETATM   23  C   UNL     1      -6.969   7.613  69.652  1.00  0.00    -0.052 A  
HETATM   24  C   UNL     1      -7.986   7.893  67.474  1.00  0.00    -0.123 A  
HETATM   25  C   UNL     1      -5.769   8.139  69.172  1.00  0.00    -0.034 A  
HETATM   26  O   UNL     1      -7.679   8.711  64.880  1.00  0.00    -0.095 OA 
HETATM   27  O   UNL     1      -5.594   9.303  65.209  1.00  0.00    -0.051 OA 
HETATM   28  C   UNL     1      -6.778   8.422  66.999  1.00  0.00    -0.062 A  
HETATM   29  N   UNL     1      -6.679   8.840  65.594  1.00  0.00    -0.067 N  
HETATM   30  C   UNL     1      -5.669   8.547  67.842  1.00  0.00    -0.039 A  
ENDBRANCH  15  22
ENDBRANCH   6   8
ENDBRANCH   5   6
ENDBRANCH   4   5
ENDBRANCH   3   4
ENDBRANCH   2   3
TORSDOF 9
ENDMDL
MODEL      197
REMARK 921   NORMALIZED FREE ENERGY PREDICTED BY IDOCK:   -3.01 KCAL/MOL
REMARK 922        TOTAL FREE ENERGY PREDICTED BY IDOCK:   -6.17 KCAL/MOL
REMARK 923 INTER-LIGAND FREE ENERGY PREDICTED BY IDOCK:   -4.58 KCAL/MOL
REMARK 924 INTRA-LIGAND FREE ENERGY PREDICTED BY IDOCK:   -1.59 KCAL/MOL
REMARK 927      BINDING AFFINITY PREDICTED BY RF-SCORE:    0.00 PKD
ROOT
HETATM    1  C   UNL     1     -10.762   3.246  63.617  1.00  0.00    -0.247 C  
HETATM    2  O   UNL     1      -9.393   3.107  63.968  1.00  0.00    -0.118 OA 
ENDROOT
BRANCH   2   3
HETATM    3  C   UNL     1      -9.235   2.865  65.366  1.00  0.00    -0.131 C  
BRANCH   3   4
HETATM    4  C   UNL     1      -9.541   4.158  66.090  1.00  0.00    -0.196 C  
BRANCH   4   5
HETATM    5  O   UNL     1      -8.707   5.249  65.679  1.00  0.00    -0.136 OA 
BRANCH   5   6
HETATM    6  C   UNL     1      -7.734   5.543  66.572  1.00  0.00    -0.100 C  
HETATM    7  O   UNL     1      -7.211   4.729  67.317  1.00  0.00    -0.071 OA 
BRANCH   6   8
HETATM    8  C   UNL     1      -7.412   6.995  66.582  1.00  0.00    -0.081 C  
HETATM    9  C   UNL     1      -6.389   7.534  65.872  1.00  0.00    -0.042 C  
HETATM   10  C   UNL     1      -5.301   6.841  65.082  1.00  0.00    -0.026 C  
HETATM   11  N   UNL     1      -6.277   8.907  65.797  1.00  0.00    -0.052 NA 
HETATM   12  C   UNL     1      -7.023   9.815  66.511  1.00  0.00    -0.085 C  
HETATM   13  C   UNL     1      -8.054   9.391  67.283  1.00  0.00    -0.110 C  
HETATM   14  C   UNL     1      -6.573  11.248  66.356  1.00  0.00    -0.069 C  
HETATM   15  C   UNL     1      -8.426   7.898  67.328  1.00  0.00    -0.121 C  
BRANCH  13  16
HETATM   16  C   UNL     1      -8.732  10.384  68.160  1.00  0.00    -0.125 C  
HETATM   17  O   UNL     1      -8.166  10.965  69.075  1.00  0.00    -0.151 OA 
BRANCH  16  18
HETATM   18  O   UNL     1     -10.045  10.553  67.855  1.00  0.00    -0.168 OA 
BRANCH  18  19
HETATM   19  C   UNL     1     -10.321  11.774  67.129  1.00  0.00    -0.215 C  
HETATM   20  C   UNL     1     -10.543  11.452  65.653  1.00  0.00    -0.314 C  
HETATM   21  C   UNL     1     -11.550  12.441  67.730  1.00  0.00    -0.413 C  
ENDBRANCH  18  19
ENDBRANCH  16  18
ENDBRANCH  13  16
BRANCH  15  22
HETATM   22  C   UNL     1      -8.634   7.397  68.762  1.00  0.00    -0.129 A  
HETATM   23  C   UNL     1      -7.529   7.237  69.620  1.00  0.00    -0.094 A  
HETATM   24  C   UNL     1      -9.917   7.106  69.250  1.00  0.00    -0.168 A  
HETATM   25  C   UNL     1      -7.697   6.793  70.934  1.00  0.00    -0.093 A  
HETATM   26  O   UNL     1     -12.379   6.520  70.294  1.00  0.00    -0.178 OA 
HETATM   27  O   UNL     1     -11.533   5.974  72.242  1.00  0.00    -0.290 OA 
HETATM   28  C   UNL     1     -10.079   6.660  70.569  1.00  0.00    -0.187 A  
HETATM   29  N   UNL     1     -11.428   6.366  71.068  1.00  0.00    -0.328 N  
HETATM   30  C   UNL     1      -8.974   6.503  71.413  1.00  0.00    -0.140 A  
ENDBRANCH  15  22
ENDBRANCH   6   8
ENDBRANCH   5   6
ENDBRANCH   4   5
ENDBRANCH   3   4
ENDBRANCH   2   3
TORSDOF 9
ENDMDL
MODEL      198
REMARK 921   NORMALIZED FREE ENERGY PREDICTED BY IDOCK:   -2.98 KCAL/MOL
REMARK 922        TOTAL FREE ENERGY PREDICTED BY IDOCK:   -6.13 KCAL/MOL
REMARK 923 INTER-LIGAND FREE ENERGY PREDICTED BY IDOCK:   -5.34 KCAL/MOL
REMARK 924 INTRA-LIGAND FREE ENERGY PREDICTED BY IDOCK:   -0.79 KCAL/MOL
REMARK 927      BINDING AFFINITY PREDICTED BY RF-SCORE:    0.00 PKD
ROOT
HETATM    1  C   UNL     1      -6.049   8.409  63.930  1.00  0.00    -0.071 C  
HETATM    2  O   UNL     1      -7.342   7.827  63.865  1.00  0.00    -0.083 OA 
ENDROOT
BRANCH   2   3
HETATM    3  C   UNL     1      -7.278   6.403  63.958  1.00  0.00    -0.062 C  
BRANCH   3   4
HETATM    4  C   UNL     1      -8.484   5.942  64.746  1.00  0.00    -0.054 C  
BRANCH   4   5
HETATM    5  O   UNL     1      -8.645   6.632  65.992  1.00  0.00    -0.139 OA 
BRANCH   5   6
HETATM    6  C   UNL     1      -9.802   6.328  66.625  1.00  0.00    -0.154 C  
HETATM    7  O   UNL     1     -10.512   5.375  66.345  1.00  0.00    -0.254 OA 
BRANCH   6   8
HETATM    8  C   UNL     1     -10.140   7.327  67.672  1.00  0.00    -0.232 C  
HETATM    9  C   UNL     1     -10.288   8.652  67.415  1.00  0.00    -0.284 C  
HETATM   10  C   UNL     1     -10.011   9.417  66.140  1.00  0.00    -0.351 C  
HETATM   11  N   UNL     1     -10.778   9.475  68.407  1.00  0.00    -0.211 NA 
HETATM   12  C   UNL     1     -10.997   9.115  69.716  1.00  0.00    -0.181 C  
HETATM   13  C   UNL     1     -10.850   7.823  70.099  1.00  0.00    -0.248 C  
HETATM   14  C   UNL     1     -11.379  10.262  70.620  1.00  0.00    -0.431 C  
HETATM   15  C   UNL     1     -10.485   6.744  69.065  1.00  0.00    -0.229 C  
BRANCH  13  16
HETATM   16  C   UNL     1     -10.941   7.505  71.551  1.00  0.00    -0.229 C  
HETATM   17  O   UNL     1     -11.767   6.734  72.016  1.00  0.00    -0.281 OA 
BRANCH  16  18
HETATM   18  O   UNL     1     -10.033   8.183  72.301  1.00  0.00    -0.212 OA 
BRANCH  18  19
HETATM   19  C   UNL     1      -9.186   7.326  73.102  1.00  0.00    -0.159 C  
HETATM   20  C   UNL     1      -8.022   8.138  73.663  1.00  0.00    -0.256 C  
HETATM   21  C   UNL     1     -10.016   6.719  74.225  1.00  0.00    -0.354 C  
ENDBRANCH  18  19
ENDBRANCH  16  18
ENDBRANCH  13  16
BRANCH  15  22
HETATM   22  C   UNL     1      -9.354   5.831  69.556  1.00  0.00    -0.157 A  
HETATM   23  C   UNL     1      -8.031   6.311  69.604  1.00  0.00    -0.112 A  
HETATM   24  C   UNL     1      -9.614   4.519  69.980  1.00  0.00    -0.267 A  
HETATM   25  C   UNL     1      -6.989   5.501  70.060  1.00  0.00    -0.061 A  
HETATM   26  O   UNL     1     -10.021   1.950  70.832  1.00  0.00    -0.056 OA 
HETATM   27  O   UNL     1      -7.894   1.656  71.278  1.00  0.00    -0.039 OA 
HETATM   28  C   UNL     1      -8.563   3.711  70.435  1.00  0.00    -0.066 A  
HETATM   29  N   UNL     1      -8.850   2.341  70.881  1.00  0.00    -0.064 N  
HETATM   30  C   UNL     1      -7.251   4.196  70.476  1.00  0.00    -0.041 A  
ENDBRANCH  15  22
ENDBRANCH   6   8
ENDBRANCH   5   6
ENDBRANCH   4   5
ENDBRANCH   3   4
ENDBRANCH   2   3
TORSDOF 9
ENDMDL
MODEL      199
REMARK 921   NORMALIZED FREE ENERGY PREDICTED BY IDOCK:   -2.98 KCAL/MOL
REMARK 922        TOTAL FREE ENERGY PREDICTED BY IDOCK:   -6.12 KCAL/MOL
REMARK 923 INTER-LIGAND FREE ENERGY PREDICTED BY IDOCK:   -4.93 KCAL/MOL
REMARK 924 INTRA-LIGAND FREE ENERGY PREDICTED BY IDOCK:   -1.19 KCAL/MOL
REMARK 927      BINDING AFFINITY PREDICTED BY RF-SCORE:    0.00 PKD
ROOT
HETATM    1  C   UNL     1      -6.624   7.424  71.494  1.00  0.00    -0.049 C  
HETATM    2  O   UNL     1      -7.802   8.185  71.272  1.00  0.00    -0.083 OA 
ENDROOT
BRANCH   2   3
HETATM    3  C   UNL     1      -8.964   7.491  71.729  1.00  0.00    -0.122 C  
BRANCH   3   4
HETATM    4  C   UNL     1      -9.882   7.307  70.540  1.00  0.00    -0.183 C  
BRANCH   4   5
HETATM    5  O   UNL     1      -9.181   7.185  69.296  1.00  0.00    -0.141 OA 
BRANCH   5   6
HETATM    6  C   UNL     1     -10.000   6.972  68.240  1.00  0.00    -0.153 C  
HETATM    7  O   UNL     1     -11.144   6.554  68.327  1.00  0.00    -0.290 OA 
BRANCH   6   8
HETATM    8  C   UNL     1      -9.322   7.253  66.947  1.00  0.00    -0.192 C  
HETATM    9  C   UNL     1      -8.482   6.376  66.342  1.00  0.00    -0.123 C  
HETATM   10  C   UNL     1      -7.933   5.064  66.858  1.00  0.00    -0.104 C  
HETATM   11  N   UNL     1      -8.043   6.644  65.062  1.00  0.00    -0.128 NA 
HETATM   12  C   UNL     1      -8.249   7.814  64.370  1.00  0.00    -0.037 C  
HETATM   13  C   UNL     1      -9.047   8.780  64.889  1.00  0.00     0.017 C  
HETATM   14  C   UNL     1      -7.513   7.895  63.054  1.00  0.00    -0.118 C  
HETATM   15  C   UNL     1      -9.763   8.555  66.232  1.00  0.00    -0.300 C  
BRANCH  13  16
HETATM   16  C   UNL     1      -9.116  10.089  64.185  1.00  0.00    -0.255 C  
HETATM   17  O   UNL     1      -8.129  10.762  63.925  1.00  0.00    -0.012 OA 
BRANCH  16  18
HETATM   18  O   UNL     1     -10.387  10.468  63.891  1.00  0.00    -0.262 OA 
BRANCH  18  19
HETATM   19  C   UNL     1     -10.552  11.900  63.763  1.00  0.00    -0.422 C  
HETATM   20  C   UNL     1     -11.999  12.218  63.398  1.00  0.00    -0.588 C  
HETATM   21  C   UNL     1     -10.166  12.562  65.079  1.00  0.00    -0.301 C  
ENDBRANCH  18  19
ENDBRANCH  16  18
ENDBRANCH  13  16
BRANCH  15  22
HETATM   22  C   UNL     1      -9.618   9.757  67.174  1.00  0.00    -0.211 A  
HETATM   23  C   UNL     1     -10.763  10.368  67.720  1.00  0.00    -0.327 A  
HETATM   24  C   UNL     1      -8.353  10.258  67.520  1.00  0.00    -0.114 A  
HETATM   25  C   UNL     1     -10.652  11.455  68.589  1.00  0.00    -0.229 A  
HETATM   26  O   UNL     1      -5.934  11.301  68.260  1.00  0.00    -0.046 OA 
HETATM   27  O   UNL     1      -6.868  12.829  69.526  1.00  0.00    -0.029 OA 
HETATM   28  C   UNL     1      -8.250  11.351  68.392  1.00  0.00    -0.151 A  
HETATM   29  N   UNL     1      -6.920  11.861  68.751  1.00  0.00    -0.098 N  
HETATM   30  C   UNL     1      -9.394  11.951  68.927  1.00  0.00     0.117 A  
ENDBRANCH  15  22
ENDBRANCH   6   8
ENDBRANCH   5   6
ENDBRANCH   4   5
ENDBRANCH   3   4
ENDBRANCH   2   3
TORSDOF 9
ENDMDL
MODEL      200
REMARK 921   NORMALIZED FREE ENERGY PREDICTED BY IDOCK:   -2.97 KCAL/MOL
REMARK 922        TOTAL FREE ENERGY PREDICTED BY IDOCK:   -6.12 KCAL/MOL
REMARK 923 INTER-LIGAND FREE ENERGY PREDICTED BY IDOCK:   -4.60 KCAL/MOL
REMARK 924 INTRA-LIGAND FREE ENERGY PREDICTED BY IDOCK:   -1.51 KCAL/MOL
REMARK 927      BINDING AFFINITY PREDICTED BY RF-SCORE:    0.00 PKD
ROOT
HETATM    1  C   UNL     1     -14.395   8.220  71.323  1.00  0.00    -0.258 C  
HETATM    2  O   UNL     1     -13.944   9.067  72.370  1.00  0.00    -0.465 OA 
ENDROOT
BRANCH   2   3
HETATM    3  C   UNL     1     -12.534   9.279  72.298  1.00  0.00    -0.307 C  
BRANCH   3   4
HETATM    4  C   UNL     1     -12.060   8.741  70.965  1.00  0.00    -0.225 C  
BRANCH   4   5
HETATM    5  O   UNL     1     -10.905   9.421  70.458  1.00  0.00    -0.235 OA 
BRANCH   5   6
HETATM    6  C   UNL     1      -9.738   8.878  70.878  1.00  0.00    -0.239 C  
HETATM    7  O   UNL     1      -9.254   9.054  71.985  1.00  0.00    -0.373 OA 
BRANCH   6   8
HETATM    8  C   UNL     1      -9.081   8.082  69.809  1.00  0.00    -0.149 C  
HETATM    9  C   UNL     1      -8.989   6.728  69.838  1.00  0.00    -0.144 C  
HETATM   10  C   UNL     1      -9.355   5.768  70.949  1.00  0.00    -0.185 C  
HETATM   11  N   UNL     1      -8.527   6.064  68.722  1.00  0.00    -0.112 NA 
HETATM   12  C   UNL     1      -7.987   6.652  67.602  1.00  0.00    -0.115 C  
HETATM   13  C   UNL     1      -7.993   8.002  67.473  1.00  0.00    -0.122 C  
HETATM   14  C   UNL     1      -7.410   5.677  66.605  1.00  0.00    -0.083 C  
HETATM   15  C   UNL     1      -8.644   8.882  68.555  1.00  0.00    -0.133 C  
BRANCH  13  16
HETATM   16  C   UNL     1      -7.261   8.602  66.324  1.00  0.00    -0.079 C  
HETATM   17  O   UNL     1      -6.060   8.832  66.344  1.00  0.00    -0.057 OA 
BRANCH  16  18
HETATM   18  O   UNL     1      -8.069   8.893  65.272  1.00  0.00    -0.113 OA 
BRANCH  18  19
HETATM   19  C   UNL     1      -7.418   8.762  63.986  1.00  0.00    -0.116 C  
HETATM   20  C   UNL     1      -8.271   7.891  63.067  1.00  0.00    -0.050 C  
HETATM   21  C   UNL     1      -7.220  10.148  63.389  1.00  0.00    -0.121 C  
ENDBRANCH  18  19
ENDBRANCH  16  18
ENDBRANCH  13  16
BRANCH  15  22
HETATM   22  C   UNL     1      -7.749  10.060  68.957  1.00  0.00    -0.094 A  
HETATM   23  C   UNL     1      -6.609   9.840  69.754  1.00  0.00    -0.060 A  
HETATM   24  C   UNL     1      -8.035  11.366  68.532  1.00  0.00    -0.143 A  
HETATM   25  C   UNL     1      -5.774  10.897  70.122  1.00  0.00    -0.088 A  
HETATM   26  O   UNL     1      -8.505  13.946  67.746  1.00  0.00    -0.158 OA 
HETATM   27  O   UNL     1      -6.733  14.694  68.797  1.00  0.00    -0.081 OA 
HETATM   28  C   UNL     1      -7.194  12.423  68.906  1.00  0.00    -0.061 A  
HETATM   29  N   UNL     1      -7.501  13.784  68.448  1.00  0.00    -0.110 N  
HETATM   30  C   UNL     1      -6.065  12.194  69.699  1.00  0.00    -0.129 A  
ENDBRANCH  15  22
ENDBRANCH   6   8
ENDBRANCH   5   6
ENDBRANCH   4   5
ENDBRANCH   3   4
ENDBRANCH   2   3
TORSDOF 9
ENDMDL
MODEL      201
REMARK 921   NORMALIZED FREE ENERGY PREDICTED BY IDOCK:   -2.97 KCAL/MOL
REMARK 922        TOTAL FREE ENERGY PREDICTED BY IDOCK:   -6.11 KCAL/MOL
REMARK 923 INTER-LIGAND FREE ENERGY PREDICTED BY IDOCK:   -5.63 KCAL/MOL
REMARK 924 INTRA-LIGAND FREE ENERGY PREDICTED BY IDOCK:   -0.47 KCAL/MOL
REMARK 927      BINDING AFFINITY PREDICTED BY RF-SCORE:    0.00 PKD
ROOT
HETATM    1  C   UNL     1     -10.440  15.133  67.480  1.00  0.00    -0.258 C  
HETATM    2  O   UNL     1     -11.727  14.919  68.037  1.00  0.00    -0.333 OA 
ENDROOT
BRANCH   2   3
HETATM    3  C   UNL     1     -11.980  13.528  68.245  1.00  0.00    -0.342 C  
BRANCH   3   4
HETATM    4  C   UNL     1     -11.031  13.048  69.321  1.00  0.00    -0.067 C  
BRANCH   4   5
HETATM    5  O   UNL     1     -10.440  11.776  69.028  1.00  0.00    -0.188 OA 
BRANCH   5   6
HETATM    6  C   UNL     1     -11.322  10.879  68.530  1.00  0.00    -0.299 C  
HETATM    7  O   UNL     1     -12.263  11.165  67.806  1.00  0.00    -0.432 OA 
BRANCH   6   8
HETATM    8  C   UNL     1     -11.045   9.501  69.014  1.00  0.00    -0.060 C  
HETATM    9  C   UNL     1     -11.272   9.102  70.292  1.00  0.00    -0.218 C  
HETATM   10  C   UNL     1     -11.676   9.926  71.494  1.00  0.00    -0.414 C  
HETATM   11  N   UNL     1     -11.158   7.764  70.605  1.00  0.00    -0.255 NA 
HETATM   12  C   UNL     1     -10.677   6.781  69.773  1.00  0.00    -0.249 C  
HETATM   13  C   UNL     1     -10.384   7.068  68.480  1.00  0.00    -0.204 C  
HETATM   14  C   UNL     1     -10.508   5.435  70.435  1.00  0.00    -0.345 C  
HETATM   15  C   UNL     1     -10.633   8.481  67.924  1.00  0.00    -0.219 C  
BRANCH  13  16
HETATM   16  C   UNL     1      -9.718   6.019  67.661  1.00  0.00    -0.115 C  
HETATM   17  O   UNL     1     -10.311   5.337  66.837  1.00  0.00    -0.216 OA 
BRANCH  16  18
HETATM   18  O   UNL     1      -8.397   5.880  67.946  1.00  0.00    -0.111 OA 
BRANCH  18  19
HETATM   19  C   UNL     1      -7.619   5.344  66.850  1.00  0.00    -0.089 C  
HETATM   20  C   UNL     1      -6.538   6.345  66.453  1.00  0.00    -0.048 C  
HETATM   21  C   UNL     1      -7.002   4.021  67.281  1.00  0.00    -0.059 C  
ENDBRANCH  18  19
ENDBRANCH  16  18
ENDBRANCH  13  16
BRANCH  15  22
HETATM   22  C   UNL     1      -9.434   9.007  67.125  1.00  0.00    -0.196 A  
HETATM   23  C   UNL     1      -9.401   8.863  65.725  1.00  0.00    -0.286 A  
HETATM   24  C   UNL     1      -8.363   9.651  67.765  1.00  0.00    -0.121 A  
HETATM   25  C   UNL     1      -8.325   9.346  64.978  1.00  0.00    -0.155 A  
HETATM   26  O   UNL     1      -6.234  10.925  68.918  1.00  0.00    -0.040 OA 
HETATM   27  O   UNL     1      -5.238  11.223  66.987  1.00  0.00    -0.052 OA 
HETATM   28  C   UNL     1      -7.286  10.132  67.009  1.00  0.00    -0.091 A  
HETATM   29  N   UNL     1      -6.175  10.809  67.690  1.00  0.00    -0.051 N  
HETATM   30  C   UNL     1      -7.262   9.982  65.618  1.00  0.00    -0.120 A  
ENDBRANCH  15  22
ENDBRANCH   6   8
ENDBRANCH   5   6
ENDBRANCH   4   5
ENDBRANCH   3   4
ENDBRANCH   2   3
TORSDOF 9
ENDMDL
MODEL      202
REMARK 921   NORMALIZED FREE ENERGY PREDICTED BY IDOCK:   -2.93 KCAL/MOL
REMARK 922        TOTAL FREE ENERGY PREDICTED BY IDOCK:   -6.05 KCAL/MOL
REMARK 923 INTER-LIGAND FREE ENERGY PREDICTED BY IDOCK:   -4.57 KCAL/MOL
REMARK 924 INTRA-LIGAND FREE ENERGY PREDICTED BY IDOCK:   -1.48 KCAL/MOL
REMARK 927      BINDING AFFINITY PREDICTED BY RF-SCORE:    0.00 PKD
ROOT
HETATM    1  C   UNL     1      -9.563  11.971  66.480  1.00  0.00    -0.224 C  
HETATM    2  O   UNL     1      -9.287  11.423  65.200  1.00  0.00    -0.213 OA 
ENDROOT
BRANCH   2   3
HETATM    3  C   UNL     1      -9.749  10.075  65.101  1.00  0.00    -0.311 C  
BRANCH   3   4
HETATM    4  C   UNL     1      -9.589   9.437  66.463  1.00  0.00    -0.208 C  
BRANCH   4   5
HETATM    5  O   UNL     1      -9.913   8.041  66.477  1.00  0.00    -0.249 OA 
BRANCH   5   6
HETATM    6  C   UNL     1      -8.825   7.240  66.405  1.00  0.00    -0.149 C  
HETATM    7  O   UNL     1      -7.771   7.552  65.872  1.00  0.00    -0.091 OA 
BRANCH   6   8
HETATM    8  C   UNL     1      -9.081   5.903  67.003  1.00  0.00    -0.116 C  
HETATM    9  C   UNL     1      -9.704   4.897  66.337  1.00  0.00    -0.189 C  
HETATM   10  C   UNL     1     -10.388   4.922  64.989  1.00  0.00     0.238 C  
HETATM   11  N   UNL     1      -9.735   3.640  66.902  1.00  0.00    -0.149 NA 
HETATM   12  C   UNL     1      -9.325   3.319  68.175  1.00  0.00    -0.187 C  
HETATM   13  C   UNL     1      -8.716   4.252  68.948  1.00  0.00    -0.122 C  
HETATM   14  C   UNL     1      -9.630   1.899  68.587  1.00  0.00    -0.143 C  
HETATM   15  C   UNL     1      -8.439   5.659  68.392  1.00  0.00    -0.105 C  
BRANCH  13  16
HETATM   16  C   UNL     1      -8.432   3.911  70.369  1.00  0.00    -0.061 C  
HETATM   17  O   UNL     1      -9.307   3.653  71.183  1.00  0.00    -0.122 OA 
BRANCH  16  18
HETATM   18  O   UNL     1      -7.108   3.947  70.669  1.00  0.00    -0.033 OA 
BRANCH  18  19
HETATM   19  C   UNL     1      -6.827   3.784  72.080  1.00  0.00    -0.026 C  
HETATM   20  C   UNL     1      -5.545   2.976  72.257  1.00  0.00    -0.008 C  
HETATM   21  C   UNL     1      -6.694   5.160  72.719  1.00  0.00    -0.070 C  
ENDBRANCH  18  19
ENDBRANCH  16  18
ENDBRANCH  13  16
BRANCH  15  22
HETATM   22  C   UNL     1      -8.856   6.762  69.373  1.00  0.00    -0.135 A  
HETATM   23  C   UNL     1      -7.912   7.711  69.809  1.00  0.00    -0.116 A  
HETATM   24  C   UNL     1     -10.176   6.856  69.839  1.00  0.00    -0.214 A  
HETATM   25  C   UNL     1      -8.273   8.730  70.693  1.00  0.00    -0.159 A  
HETATM   26  O   UNL     1     -12.725   7.128  70.798  1.00  0.00    -0.260 OA 
HETATM   27  O   UNL     1     -12.196   8.893  71.987  1.00  0.00    -0.338 OA 
HETATM   28  C   UNL     1     -10.531   7.881  70.727  1.00  0.00    -0.210 A  
HETATM   29  N   UNL     1     -11.918   7.972  71.202  1.00  0.00    -0.292 N  
HETATM   30  C   UNL     1      -9.585   8.818  71.156  1.00  0.00    -0.309 A  
ENDBRANCH  15  22
ENDBRANCH   6   8
ENDBRANCH   5   6
ENDBRANCH   4   5
ENDBRANCH   3   4
ENDBRANCH   2   3
TORSDOF 9
ENDMDL
MODEL      203
REMARK 921   NORMALIZED FREE ENERGY PREDICTED BY IDOCK:   -2.89 KCAL/MOL
REMARK 922        TOTAL FREE ENERGY PREDICTED BY IDOCK:   -6.00 KCAL/MOL
REMARK 923 INTER-LIGAND FREE ENERGY PREDICTED BY IDOCK:   -4.11 KCAL/MOL
REMARK 924 INTRA-LIGAND FREE ENERGY PREDICTED BY IDOCK:   -1.89 KCAL/MOL
REMARK 927      BINDING AFFINITY PREDICTED BY RF-SCORE:    0.00 PKD
ROOT
HETATM    1  C   UNL     1      -7.618   1.578  64.702  1.00  0.00    -0.062 C  
HETATM    2  O   UNL     1      -6.642   1.529  65.731  1.00  0.00    -0.023 OA 
ENDROOT
BRANCH   2   3
HETATM    3  C   UNL     1      -6.289   2.839  66.179  1.00  0.00    -0.028 C  
BRANCH   3   4
HETATM    4  C   UNL     1      -5.550   2.688  67.490  1.00  0.00    -0.018 C  
BRANCH   4   5
HETATM    5  O   UNL     1      -6.411   2.731  68.635  1.00  0.00    -0.028 OA 
BRANCH   5   6
HETATM    6  C   UNL     1      -6.328   3.895  69.321  1.00  0.00    -0.029 C  
HETATM    7  O   UNL     1      -5.321   4.581  69.398  1.00  0.00    -0.007 OA 
BRANCH   6   8
HETATM    8  C   UNL     1      -7.599   4.215  70.024  1.00  0.00    -0.052 C  
HETATM    9  C   UNL     1      -7.997   3.591  71.162  1.00  0.00    -0.059 C  
HETATM   10  C   UNL     1      -7.387   2.398  71.863  1.00  0.00    -0.040 C  
HETATM   11  N   UNL     1      -9.095   4.076  71.841  1.00  0.00    -0.117 NA 
HETATM   12  C   UNL     1      -9.947   5.059  71.396  1.00  0.00    -0.193 C  
HETATM   13  C   UNL     1      -9.670   5.732  70.252  1.00  0.00    -0.223 C  
HETATM   14  C   UNL     1     -11.160   5.272  72.270  1.00  0.00    -0.219 C  
HETATM   15  C   UNL     1      -8.378   5.435  69.471  1.00  0.00    -0.100 C  
BRANCH  13  16
HETATM   16  C   UNL     1     -10.695   6.674  69.724  1.00  0.00    -0.257 C  
HETATM   17  O   UNL     1     -11.772   6.308  69.278  1.00  0.00    -0.262 OA 
BRANCH  16  18
HETATM   18  O   UNL     1     -10.294   7.971  69.763  1.00  0.00    -0.209 OA 
BRANCH  18  19
HETATM   19  C   UNL     1     -10.955   8.753  70.786  1.00  0.00    -0.247 C  
HETATM   20  C   UNL     1     -10.045   8.877  72.004  1.00  0.00    -0.351 C  
HETATM   21  C   UNL     1     -11.292  10.126  70.219  1.00  0.00    -0.387 C  
ENDBRANCH  18  19
ENDBRANCH  16  18
ENDBRANCH  13  16
BRANCH  15  22
HETATM   22  C   UNL     1      -8.637   5.267  67.969  1.00  0.00    -0.103 A  
HETATM   23  C   UNL     1      -9.438   4.206  67.505  1.00  0.00    -0.225 A  
HETATM   24  C   UNL     1      -8.100   6.167  67.035  1.00  0.00    -0.106 A  
HETATM   25  C   UNL     1      -9.696   4.042  66.143  1.00  0.00    -0.198 A  
HETATM   26  O   UNL     1      -7.105   7.873  65.141  1.00  0.00    -0.058 OA 
HETATM   27  O   UNL     1      -8.054   6.767  63.503  1.00  0.00    -0.094 OA 
HETATM   28  C   UNL     1      -8.362   5.996  65.669  1.00  0.00    -0.145 A  
HETATM   29  N   UNL     1      -7.800   6.949  64.704  1.00  0.00    -0.113 N  
HETATM   30  C   UNL     1      -9.158   4.937  65.219  1.00  0.00    -0.154 A  
ENDBRANCH  15  22
ENDBRANCH   6   8
ENDBRANCH   5   6
ENDBRANCH   4   5
ENDBRANCH   3   4
ENDBRANCH   2   3
TORSDOF 9
ENDMDL
MODEL      204
REMARK 921   NORMALIZED FREE ENERGY PREDICTED BY IDOCK:   -2.88 KCAL/MOL
REMARK 922        TOTAL FREE ENERGY PREDICTED BY IDOCK:   -5.97 KCAL/MOL
REMARK 923 INTER-LIGAND FREE ENERGY PREDICTED BY IDOCK:   -4.71 KCAL/MOL
REMARK 924 INTRA-LIGAND FREE ENERGY PREDICTED BY IDOCK:   -1.26 KCAL/MOL
REMARK 927      BINDING AFFINITY PREDICTED BY RF-SCORE:    0.00 PKD
ROOT
HETATM    1  C   UNL     1     -14.411   7.818  71.210  1.00  0.00    -0.296 C  
HETATM    2  O   UNL     1     -13.865   8.390  72.388  1.00  0.00    -0.303 OA 
ENDROOT
BRANCH   2   3
HETATM    3  C   UNL     1     -12.438   8.437  72.332  1.00  0.00    -0.331 C  
BRANCH   3   4
HETATM    4  C   UNL     1     -12.007   7.686  71.091  1.00  0.00    -0.297 C  
BRANCH   4   5
HETATM    5  O   UNL     1     -11.089   8.422  70.273  1.00  0.00    -0.249 OA 
BRANCH   5   6
HETATM    6  C   UNL     1      -9.815   8.380  70.730  1.00  0.00    -0.182 C  
HETATM    7  O   UNL     1      -9.405   9.015  71.689  1.00  0.00    -0.265 OA 
BRANCH   6   8
HETATM    8  C   UNL     1      -8.953   7.510  69.888  1.00  0.00    -0.141 C  
HETATM    9  C   UNL     1      -8.269   6.444  70.377  1.00  0.00    -0.121 C  
HETATM   10  C   UNL     1      -8.087   5.999  71.811  1.00  0.00    -0.114 C  
HETATM   11  N   UNL     1      -7.642   5.589  69.495  1.00  0.00    -0.070 NA 
HETATM   12  C   UNL     1      -7.503   5.790  68.141  1.00  0.00    -0.078 C  
HETATM   13  C   UNL     1      -8.117   6.841  67.543  1.00  0.00    -0.115 C  
HETATM   14  C   UNL     1      -6.628   4.773  67.449  1.00  0.00    -0.047 C  
HETATM   15  C   UNL     1      -9.010   7.788  68.365  1.00  0.00    -0.132 C  
BRANCH  13  16
HETATM   16  C   UNL     1      -7.813   7.111  66.111  1.00  0.00    -0.105 C  
HETATM   17  O   UNL     1      -8.615   6.915  65.209  1.00  0.00    -0.105 OA 
BRANCH  16  18
HETATM   18  O   UNL     1      -6.548   7.566  65.914  1.00  0.00    -0.044 OA 
BRANCH  18  19
HETATM   19  C   UNL     1      -6.188   7.692  64.518  1.00  0.00    -0.044 C  
HETATM   20  C   UNL     1      -5.440   9.004  64.299  1.00  0.00    -0.056 C  
HETATM   21  C   UNL     1      -5.325   6.502  64.120  1.00  0.00    -0.026 C  
ENDBRANCH  18  19
ENDBRANCH  16  18
ENDBRANCH  13  16
BRANCH  15  22
HETATM   22  C   UNL     1      -8.704   9.263  68.079  1.00  0.00    -0.125 A  
HETATM   23  C   UNL     1      -7.567   9.870  68.646  1.00  0.00    -0.080 A  
HETATM   24  C   UNL     1      -9.532  10.026  67.242  1.00  0.00    -0.179 A  
HETATM   25  C   UNL     1      -7.263  11.209  68.390  1.00  0.00    -0.083 A  
HETATM   26  O   UNL     1     -11.082  11.594  65.620  1.00  0.00    -0.300 OA 
HETATM   27  O   UNL     1      -9.788  13.342  65.906  1.00  0.00    -0.277 OA 
HETATM   28  C   UNL     1      -9.222  11.370  66.990  1.00  0.00    -0.169 A  
HETATM   29  N   UNL     1     -10.094  12.155  66.107  1.00  0.00    -0.223 N  
HETATM   30  C   UNL     1      -8.091  11.964  67.560  1.00  0.00    -0.156 A  
ENDBRANCH  15  22
ENDBRANCH   6   8
ENDBRANCH   5   6
ENDBRANCH   4   5
ENDBRANCH   3   4
ENDBRANCH   2   3
TORSDOF 9
ENDMDL
MODEL      205
REMARK 921   NORMALIZED FREE ENERGY PREDICTED BY IDOCK:   -2.87 KCAL/MOL
REMARK 922        TOTAL FREE ENERGY PREDICTED BY IDOCK:   -5.96 KCAL/MOL
REMARK 923 INTER-LIGAND FREE ENERGY PREDICTED BY IDOCK:   -5.63 KCAL/MOL
REMARK 924 INTRA-LIGAND FREE ENERGY PREDICTED BY IDOCK:   -0.32 KCAL/MOL
REMARK 927      BINDING AFFINITY PREDICTED BY RF-SCORE:    0.00 PKD
ROOT
HETATM    1  C   UNL     1     -10.518   3.582  62.811  1.00  0.00    -0.199 C  
HETATM    2  O   UNL     1     -10.257   3.202  64.153  1.00  0.00    -0.172 OA 
ENDROOT
BRANCH   2   3
HETATM    3  C   UNL     1      -9.798   4.310  64.929  1.00  0.00    -0.175 C  
BRANCH   3   4
HETATM    4  C   UNL     1     -10.460   4.221  66.287  1.00  0.00     0.166 C  
BRANCH   4   5
HETATM    5  O   UNL     1     -10.767   5.501  66.853  1.00  0.00    -0.280 OA 
BRANCH   5   6
HETATM    6  C   UNL     1      -9.709   6.083  67.463  1.00  0.00    -0.116 C  
HETATM    7  O   UNL     1      -8.991   5.526  68.279  1.00  0.00    -0.108 OA 
BRANCH   6   8
HETATM    8  C   UNL     1      -9.553   7.507  67.066  1.00  0.00    -0.221 C  
HETATM    9  C   UNL     1      -8.853   7.901  65.972  1.00  0.00    -0.158 C  
HETATM   10  C   UNL     1      -7.984   7.081  65.044  1.00  0.00    -0.129 C  
HETATM   11  N   UNL     1      -8.913   9.222  65.580  1.00  0.00    -0.192 NA 
HETATM   12  C   UNL     1      -9.502  10.245  66.285  1.00  0.00    -0.177 C  
HETATM   13  C   UNL     1     -10.204   9.976  67.414  1.00  0.00    -0.269 C  
HETATM   14  C   UNL     1      -9.272  11.617  65.699  1.00  0.00    -0.150 C  
HETATM   15  C   UNL     1     -10.386   8.523  67.886  1.00  0.00    -0.281 C  
BRANCH  13  16
HETATM   16  C   UNL     1     -10.689  11.123  68.230  1.00  0.00    -0.196 C  
HETATM   17  O   UNL     1      -9.940  11.942  68.743  1.00  0.00    -0.184 OA 
BRANCH  16  18
HETATM   18  O   UNL     1     -12.040  11.143  68.368  1.00  0.00    -0.605 OA 
BRANCH  18  19
HETATM   19  C   UNL     1     -12.496  11.909  69.508  1.00  0.00     0.126 C  
HETATM   20  C   UNL     1     -11.886  11.338  70.785  1.00  0.00    -0.288 C  
HETATM   21  C   UNL     1     -12.094  13.365  69.319  1.00  0.00    -0.312 C  
ENDBRANCH  18  19
ENDBRANCH  16  18
ENDBRANCH  13  16
BRANCH  15  22
HETATM   22  C   UNL     1     -10.101   8.362  69.385  1.00  0.00    -0.198 A  
HETATM   23  C   UNL     1     -11.112   7.901  70.249  1.00  0.00    -0.232 A  
HETATM   24  C   UNL     1      -8.835   8.652  69.917  1.00  0.00    -0.144 A  
HETATM   25  C   UNL     1     -10.870   7.735  71.614  1.00  0.00    -0.265 A  
HETATM   26  O   UNL     1      -6.401   9.185  71.048  1.00  0.00    -0.057 OA 
HETATM   27  O   UNL     1      -7.097   8.626  73.050  1.00  0.00    -0.297 OA 
HETATM   28  C   UNL     1      -8.600   8.485  71.289  1.00  0.00    -0.176 A  
HETATM   29  N   UNL     1      -7.269   8.787  71.831  1.00  0.00    -0.064 N  
HETATM   30  C   UNL     1      -9.612   8.028  72.139  1.00  0.00    -0.277 A  
ENDBRANCH  15  22
ENDBRANCH   6   8
ENDBRANCH   5   6
ENDBRANCH   4   5
ENDBRANCH   3   4
ENDBRANCH   2   3
TORSDOF 9
ENDMDL
MODEL      206
REMARK 921   NORMALIZED FREE ENERGY PREDICTED BY IDOCK:   -2.85 KCAL/MOL
REMARK 922        TOTAL FREE ENERGY PREDICTED BY IDOCK:   -5.92 KCAL/MOL
REMARK 923 INTER-LIGAND FREE ENERGY PREDICTED BY IDOCK:   -5.06 KCAL/MOL
REMARK 924 INTRA-LIGAND FREE ENERGY PREDICTED BY IDOCK:   -0.86 KCAL/MOL
REMARK 927      BINDING AFFINITY PREDICTED BY RF-SCORE:    0.00 PKD
ROOT
HETATM    1  C   UNL     1      -9.103   3.737  66.280  1.00  0.00    -0.150 C  
HETATM    2  O   UNL     1      -9.499   4.723  67.222  1.00  0.00    -0.129 OA 
ENDROOT
BRANCH   2   3
HETATM    3  C   UNL     1      -9.703   5.990  66.594  1.00  0.00    -0.157 C  
BRANCH   3   4
HETATM    4  C   UNL     1      -8.668   6.944  67.148  1.00  0.00    -0.120 C  
BRANCH   4   5
HETATM    5  O   UNL     1      -8.744   7.100  68.570  1.00  0.00    -0.126 OA 
BRANCH   5   6
HETATM    6  C   UNL     1      -8.192   8.255  69.011  1.00  0.00    -0.119 C  
HETATM    7  O   UNL     1      -7.036   8.367  69.389  1.00  0.00    -0.048 OA 
BRANCH   6   8
HETATM    8  C   UNL     1      -9.178   9.367  69.036  1.00  0.00    -0.145 C  
HETATM    9  C   UNL     1     -10.394   9.269  69.629  1.00  0.00    -0.217 C  
HETATM   10  C   UNL     1     -11.074   8.056  70.226  1.00  0.00    -0.224 C  
HETATM   11  N   UNL     1     -11.168  10.403  69.761  1.00  0.00    -0.272 NA 
HETATM   12  C   UNL     1     -10.897  11.631  69.204  1.00  0.00    -0.184 C  
HETATM   13  C   UNL     1      -9.724  11.840  68.557  1.00  0.00    -0.181 C  
HETATM   14  C   UNL     1     -12.001  12.647  69.373  1.00  0.00    -0.318 C  
HETATM   15  C   UNL     1      -8.669  10.722  68.483  1.00  0.00    -0.149 C  
BRANCH  13  16
HETATM   16  C   UNL     1      -9.539  13.128  67.834  1.00  0.00    -0.218 C  
HETATM   17  O   UNL     1     -10.019  13.352  66.733  1.00  0.00    -0.251 OA 
BRANCH  16  18
HETATM   18  O   UNL     1      -8.760  14.010  68.512  1.00  0.00    -0.181 OA 
BRANCH  18  19
HETATM   19  C   UNL     1      -7.828  14.729  67.670  1.00  0.00    -0.175 C  
HETATM   20  C   UNL     1      -8.084  16.229  67.786  1.00  0.00    -0.160 C  
HETATM   21  C   UNL     1      -6.408  14.387  68.099  1.00  0.00    -0.144 C  
ENDBRANCH  18  19
ENDBRANCH  16  18
ENDBRANCH  13  16
BRANCH  15  22
HETATM   22  C   UNL     1      -8.112  10.545  67.065  1.00  0.00    -0.118 A  
HETATM   23  C   UNL     1      -6.730  10.364  66.868  1.00  0.00    -0.083 A  
HETATM   24  C   UNL     1      -8.961  10.544  65.948  1.00  0.00    -0.185 A  
HETATM   25  C   UNL     1      -6.203  10.190  65.586  1.00  0.00    -0.101 A  
HETATM   26  O   UNL     1     -10.535  10.520  63.709  1.00  0.00    -0.149 OA 
HETATM   27  O   UNL     1      -8.816  10.205  62.383  1.00  0.00    -0.189 OA 
HETATM   28  C   UNL     1      -8.426  10.369  64.664  1.00  0.00    -0.173 A  
HETATM   29  N   UNL     1      -9.326  10.364  63.504  1.00  0.00    -0.273 N  
HETATM   30  C   UNL     1      -7.050  10.193  64.479  1.00  0.00    -0.119 A  
ENDBRANCH  15  22
ENDBRANCH   6   8
ENDBRANCH   5   6
ENDBRANCH   4   5
ENDBRANCH   3   4
ENDBRANCH   2   3
TORSDOF 9
ENDMDL
MODEL      207
REMARK 921   NORMALIZED FREE ENERGY PREDICTED BY IDOCK:   -2.84 KCAL/MOL
REMARK 922        TOTAL FREE ENERGY PREDICTED BY IDOCK:   -5.92 KCAL/MOL
REMARK 923 INTER-LIGAND FREE ENERGY PREDICTED BY IDOCK:   -4.57 KCAL/MOL
REMARK 924 INTRA-LIGAND FREE ENERGY PREDICTED BY IDOCK:   -1.35 KCAL/MOL
REMARK 927      BINDING AFFINITY PREDICTED BY RF-SCORE:    0.00 PKD
ROOT
HETATM    1  C   UNL     1      -7.219  15.258  69.615  1.00  0.00    -0.187 C  
HETATM    2  O   UNL     1      -7.402  14.791  68.287  1.00  0.00    -0.102 OA 
ENDROOT
BRANCH   2   3
HETATM    3  C   UNL     1      -6.458  13.770  67.959  1.00  0.00    -0.140 C  
BRANCH   3   4
HETATM    4  C   UNL     1      -7.235  12.587  67.425  1.00  0.00    -0.146 C  
BRANCH   4   5
HETATM    5  O   UNL     1      -7.318  11.498  68.353  1.00  0.00    -0.084 OA 
BRANCH   5   6
HETATM    6  C   UNL     1      -8.582  11.050  68.539  1.00  0.00    -0.158 C  
HETATM    7  O   UNL     1      -9.566  11.770  68.602  1.00  0.00    -0.186 OA 
BRANCH   6   8
HETATM    8  C   UNL     1      -8.627   9.575  68.715  1.00  0.00    -0.123 C  
HETATM    9  C   UNL     1      -8.028   8.931  69.749  1.00  0.00    -0.100 C  
HETATM   10  C   UNL     1      -7.101   9.479  70.811  1.00  0.00    -0.106 C  
HETATM   11  N   UNL     1      -8.274   7.586  69.932  1.00  0.00    -0.129 NA 
HETATM   12  C   UNL     1      -8.960   6.768  69.065  1.00  0.00    -0.131 C  
HETATM   13  C   UNL     1      -9.575   7.294  67.977  1.00  0.00    -0.148 C  
HETATM   14  C   UNL     1      -8.933   5.306  69.438  1.00  0.00    -0.124 C  
HETATM   15  C   UNL     1      -9.549   8.813  67.730  1.00  0.00    -0.177 C  
BRANCH  13  16
HETATM   16  C   UNL     1     -10.169   6.359  66.984  1.00  0.00    -0.205 C  
HETATM   17  O   UNL     1     -11.373   6.187  66.863  1.00  0.00    -0.199 OA 
BRANCH  16  18
HETATM   18  O   UNL     1      -9.234   5.698  66.251  1.00  0.00    -0.150 OA 
BRANCH  18  19
HETATM   19  C   UNL     1      -9.493   4.280  66.124  1.00  0.00    -0.178 C  
HETATM   20  C   UNL     1     -10.074   3.987  64.743  1.00  0.00    -0.222 C  
HETATM   21  C   UNL     1      -8.191   3.519  66.336  1.00  0.00    -0.100 C  
ENDBRANCH  18  19
ENDBRANCH  16  18
ENDBRANCH  13  16
BRANCH  15  22
HETATM   22  C   UNL     1      -9.185   9.158  66.281  1.00  0.00    -0.246 A  
HETATM   23  C   UNL     1     -10.101   9.853  65.470  1.00  0.00    -0.297 A  
HETATM   24  C   UNL     1      -7.937   8.805  65.744  1.00  0.00    -0.105 A  
HETATM   25  C   UNL     1      -9.784  10.188  64.151  1.00  0.00    -0.301 A  
HETATM   26  O   UNL     1      -5.529   8.168  64.610  1.00  0.00    -0.039 OA 
HETATM   27  O   UNL     1      -6.073   9.090  62.697  1.00  0.00    -0.094 OA 
HETATM   28  C   UNL     1      -7.626   9.143  64.420  1.00  0.00    -0.115 A  
HETATM   29  N   UNL     1      -6.314   8.774  63.873  1.00  0.00    -0.076 N  
HETATM   30  C   UNL     1      -8.545   9.832  63.621  1.00  0.00    -0.207 A  
ENDBRANCH  15  22
ENDBRANCH   6   8
ENDBRANCH   5   6
ENDBRANCH   4   5
ENDBRANCH   3   4
ENDBRANCH   2   3
TORSDOF 9
ENDMDL
MODEL      208
REMARK 921   NORMALIZED FREE ENERGY PREDICTED BY IDOCK:   -2.82 KCAL/MOL
REMARK 922        TOTAL FREE ENERGY PREDICTED BY IDOCK:   -5.88 KCAL/MOL
REMARK 923 INTER-LIGAND FREE ENERGY PREDICTED BY IDOCK:   -5.12 KCAL/MOL
REMARK 924 INTRA-LIGAND FREE ENERGY PREDICTED BY IDOCK:   -0.76 KCAL/MOL
REMARK 927      BINDING AFFINITY PREDICTED BY RF-SCORE:    0.00 PKD
ROOT
HETATM    1  C   UNL     1     -13.579   9.636  71.027  1.00  0.00    -0.101 C  
HETATM    2  O   UNL     1     -13.132   9.433  72.359  1.00  0.00    -0.416 OA 
ENDROOT
BRANCH   2   3
HETATM    3  C   UNL     1     -11.847   8.812  72.389  1.00  0.00    -0.286 C  
BRANCH   3   4
HETATM    4  C   UNL     1     -11.452   8.512  70.959  1.00  0.00    -0.273 C  
BRANCH   4   5
HETATM    5  O   UNL     1     -10.431   9.383  70.458  1.00  0.00    -0.232 OA 
BRANCH   5   6
HETATM    6  C   UNL     1      -9.191   8.843  70.518  1.00  0.00    -0.203 C  
HETATM    7  O   UNL     1      -8.176   9.472  70.771  1.00  0.00    -0.251 OA 
BRANCH   6   8
HETATM    8  C   UNL     1      -9.202   7.394  70.183  1.00  0.00    -0.151 C  
HETATM    9  C   UNL     1      -8.944   6.419  71.091  1.00  0.00    -0.146 C  
HETATM   10  C   UNL     1      -8.461   6.544  72.519  1.00  0.00    -0.121 C  
HETATM   11  N   UNL     1      -9.154   5.103  70.737  1.00  0.00    -0.133 NA 
HETATM   12  C   UNL     1      -9.459   4.648  69.475  1.00  0.00    -0.166 C  
HETATM   13  C   UNL     1      -9.706   5.530  68.476  1.00  0.00    -0.175 C  
HETATM   14  C   UNL     1      -9.467   3.144  69.342  1.00  0.00    -0.189 C  
HETATM   15  C   UNL     1      -9.693   7.043  68.756  1.00  0.00    -0.143 C  
BRANCH  13  16
HETATM   16  C   UNL     1      -9.875   5.000  67.095  1.00  0.00    -0.182 C  
HETATM   17  O   UNL     1     -10.798   5.324  66.363  1.00  0.00    -0.292 OA 
BRANCH  16  18
HETATM   18  O   UNL     1      -8.916   4.101  66.751  1.00  0.00    -0.115 OA 
BRANCH  18  19
HETATM   19  C   UNL     1      -7.649   4.708  66.404  1.00  0.00    -0.090 C  
HETATM   20  C   UNL     1      -6.506   3.834  66.914  1.00  0.00    -0.041 C  
HETATM   21  C   UNL     1      -7.575   4.870  64.892  1.00  0.00    -0.077 C  
ENDBRANCH  18  19
ENDBRANCH  16  18
ENDBRANCH  13  16
BRANCH  15  22
HETATM   22  C   UNL     1      -8.887   7.819  67.708  1.00  0.00    -0.126 A  
HETATM   23  C   UNL     1      -7.500   7.611  67.589  1.00  0.00    -0.104 A  
HETATM   24  C   UNL     1      -9.511   8.731  66.842  1.00  0.00    -0.231 A  
HETATM   25  C   UNL     1      -6.749   8.297  66.632  1.00  0.00    -0.064 A  
HETATM   26  O   UNL     1     -10.637  10.523  65.107  1.00  0.00    -0.221 OA 
HETATM   27  O   UNL     1      -8.713  10.954  64.147  1.00  0.00    -0.119 OA 
HETATM   28  C   UNL     1      -8.751   9.418  65.885  1.00  0.00    -0.154 A  
HETATM   29  N   UNL     1      -9.418  10.365  64.982  1.00  0.00    -0.228 N  
HETATM   30  C   UNL     1      -7.373   9.205  65.777  1.00  0.00    -0.090 A  
ENDBRANCH  15  22
ENDBRANCH   6   8
ENDBRANCH   5   6
ENDBRANCH   4   5
ENDBRANCH   3   4
ENDBRANCH   2   3
TORSDOF 9
ENDMDL
MODEL      209
REMARK 921   NORMALIZED FREE ENERGY PREDICTED BY IDOCK:   -2.82 KCAL/MOL
REMARK 922        TOTAL FREE ENERGY PREDICTED BY IDOCK:   -5.88 KCAL/MOL
REMARK 923 INTER-LIGAND FREE ENERGY PREDICTED BY IDOCK:   -4.17 KCAL/MOL
REMARK 924 INTRA-LIGAND FREE ENERGY PREDICTED BY IDOCK:   -1.70 KCAL/MOL
REMARK 927      BINDING AFFINITY PREDICTED BY RF-SCORE:    0.00 PKD
ROOT
HETATM    1  C   UNL     1     -10.893   7.625  73.019  1.00  0.00    -0.400 C  
HETATM    2  O   UNL     1     -10.223   8.632  72.276  1.00  0.00    -0.320 OA 
ENDROOT
BRANCH   2   3
HETATM    3  C   UNL     1     -11.100   9.255  71.336  1.00  0.00    -0.367 C  
BRANCH   3   4
HETATM    4  C   UNL     1     -10.935   8.537  70.015  1.00  0.00    -0.196 C  
BRANCH   4   5
HETATM    5  O   UNL     1     -10.473   9.389  68.959  1.00  0.00    -0.208 OA 
BRANCH   5   6
HETATM    6  C   UNL     1      -9.162   9.220  68.671  1.00  0.00    -0.135 C  
HETATM    7  O   UNL     1      -8.247   9.758  69.274  1.00  0.00    -0.111 OA 
BRANCH   6   8
HETATM    8  C   UNL     1      -8.964   8.340  67.489  1.00  0.00    -0.141 C  
HETATM    9  C   UNL     1      -9.401   8.658  66.244  1.00  0.00    -0.220 C  
HETATM   10  C   UNL     1     -10.272   9.812  65.800  1.00  0.00    -0.222 C  
HETATM   11  N   UNL     1      -9.015   7.872  65.178  1.00  0.00     0.144 NA 
HETATM   12  C   UNL     1      -8.341   6.676  65.263  1.00  0.00    -0.111 C  
HETATM   13  C   UNL     1      -7.881   6.239  66.462  1.00  0.00    -0.104 C  
HETATM   14  C   UNL     1      -8.197   5.949  63.948  1.00  0.00    -0.056 C  
HETATM   15  C   UNL     1      -8.071   7.097  67.725  1.00  0.00    -0.115 C  
BRANCH  13  16
HETATM   16  C   UNL     1      -7.298   4.871  66.534  1.00  0.00    -0.082 C  
HETATM   17  O   UNL     1      -6.095   4.658  66.568  1.00  0.00    -0.029 OA 
BRANCH  16  18
HETATM   18  O   UNL     1      -8.240   3.891  66.529  1.00  0.00    -0.100 OA 
BRANCH  18  19
HETATM   19  C   UNL     1      -7.734   2.598  66.937  1.00  0.00    -0.071 C  
HETATM   20  C   UNL     1      -8.021   2.382  68.421  1.00  0.00    -0.064 C  
HETATM   21  C   UNL     1      -8.398   1.519  66.093  1.00  0.00    -0.090 C  
ENDBRANCH  18  19
ENDBRANCH  16  18
ENDBRANCH  13  16
BRANCH  15  22
HETATM   22  C   UNL     1      -8.600   6.276  68.907  1.00  0.00    -0.125 A  
HETATM   23  C   UNL     1      -9.806   5.561  68.786  1.00  0.00    -0.206 A  
HETATM   24  C   UNL     1      -7.892   6.207  70.117  1.00  0.00    -0.102 A  
HETATM   25  C   UNL     1     -10.300   4.797  69.845  1.00  0.00    -0.121 A  
HETATM   26  O   UNL     1      -6.581   6.006  72.511  1.00  0.00    -0.064 OA 
HETATM   27  O   UNL     1      -8.113   4.682  73.352  1.00  0.00    -0.098 OA 
HETATM   28  C   UNL     1      -8.393   5.440  71.178  1.00  0.00    -0.124 A  
HETATM   29  N   UNL     1      -7.639   5.372  72.436  1.00  0.00    -0.096 N  
HETATM   30  C   UNL     1      -9.594   4.735  71.047  1.00  0.00    -0.242 A  
ENDBRANCH  15  22
ENDBRANCH   6   8
ENDBRANCH   5   6
ENDBRANCH   4   5
ENDBRANCH   3   4
ENDBRANCH   2   3
TORSDOF 9
ENDMDL
MODEL      210
REMARK 921   NORMALIZED FREE ENERGY PREDICTED BY IDOCK:   -2.76 KCAL/MOL
REMARK 922        TOTAL FREE ENERGY PREDICTED BY IDOCK:   -5.79 KCAL/MOL
REMARK 923 INTER-LIGAND FREE ENERGY PREDICTED BY IDOCK:   -4.44 KCAL/MOL
REMARK 924 INTRA-LIGAND FREE ENERGY PREDICTED BY IDOCK:   -1.35 KCAL/MOL
REMARK 927      BINDING AFFINITY PREDICTED BY RF-SCORE:    0.00 PKD
ROOT
HETATM    1  C   UNL     1      -6.928  10.435  67.829  1.00  0.00    -0.083 C  
HETATM    2  O   UNL     1      -6.540  10.324  66.468  1.00  0.00    -0.075 OA 
ENDROOT
BRANCH   2   3
HETATM    3  C   UNL     1      -6.122   8.996  66.151  1.00  0.00    -0.059 C  
BRANCH   3   4
HETATM    4  C   UNL     1      -6.490   8.112  67.323  1.00  0.00    -0.057 C  
BRANCH   4   5
HETATM    5  O   UNL     1      -7.034   6.846  66.929  1.00  0.00    -0.066 OA 
BRANCH   5   6
HETATM    6  C   UNL     1      -8.357   6.729  67.186  1.00  0.00    -0.121 C  
HETATM    7  O   UNL     1      -9.196   7.562  66.879  1.00  0.00    -0.136 OA 
BRANCH   6   8
HETATM    8  C   UNL     1      -8.667   5.487  67.942  1.00  0.00    -0.106 C  
HETATM    9  C   UNL     1      -9.291   4.416  67.390  1.00  0.00    -0.155 C  
HETATM   10  C   UNL     1      -9.927   4.277  66.024  1.00  0.00    -0.234 C  
HETATM   11  N   UNL     1      -9.374   3.244  68.112  1.00  0.00    -0.190 NA 
HETATM   12  C   UNL     1      -9.017   3.084  69.430  1.00  0.00    -0.113 C  
HETATM   13  C   UNL     1      -8.413   4.098  70.099  1.00  0.00    -0.091 C  
HETATM   14  C   UNL     1      -9.372   1.736  70.011  1.00  0.00    -0.165 C  
HETATM   15  C   UNL     1      -8.081   5.415  69.375  1.00  0.00    -0.093 C  
BRANCH  13  16
HETATM   16  C   UNL     1      -8.189   3.940  71.562  1.00  0.00    -0.073 C  
HETATM   17  O   UNL     1      -7.092   4.063  72.087  1.00  0.00    -0.047 OA 
BRANCH  16  18
HETATM   18  O   UNL     1      -9.320   3.618  72.241  1.00  0.00    -0.112 OA 
BRANCH  18  19
HETATM   19  C   UNL     1      -9.637   4.540  73.312  1.00  0.00    -0.125 C  
HETATM   20  C   UNL     1     -11.141   4.530  73.568  1.00  0.00    -0.398 C  
HETATM   21  C   UNL     1      -8.871   4.128  74.562  1.00  0.00    -0.100 C  
ENDBRANCH  18  19
ENDBRANCH  16  18
ENDBRANCH  13  16
BRANCH  15  22
HETATM   22  C   UNL     1      -8.505   6.644  70.188  1.00  0.00    -0.136 A  
HETATM   23  C   UNL     1      -7.529   7.499  70.734  1.00  0.00    -0.076 A  
HETATM   24  C   UNL     1      -9.860   6.949  70.389  1.00  0.00    -0.187 A  
HETATM   25  C   UNL     1      -7.893   8.630  71.467  1.00  0.00    -0.163 A  
HETATM   26  O   UNL     1     -12.474   7.630  70.829  1.00  0.00    -0.148 OA 
HETATM   27  O   UNL     1     -11.920   9.411  71.982  1.00  0.00    -0.355 OA 
HETATM   28  C   UNL     1     -10.219   8.085  71.127  1.00  0.00    -0.193 A  
HETATM   29  N   UNL     1     -11.640   8.396  71.324  1.00  0.00    -0.276 N  
HETATM   30  C   UNL     1      -9.241   8.927  71.667  1.00  0.00    -0.302 A  
ENDBRANCH  15  22
ENDBRANCH   6   8
ENDBRANCH   5   6
ENDBRANCH   4   5
ENDBRANCH   3   4
ENDBRANCH   2   3
TORSDOF 9
ENDMDL
MODEL      211
REMARK 921   NORMALIZED FREE ENERGY PREDICTED BY IDOCK:   -2.74 KCAL/MOL
REMARK 922        TOTAL FREE ENERGY PREDICTED BY IDOCK:   -5.75 KCAL/MOL
REMARK 923 INTER-LIGAND FREE ENERGY PREDICTED BY IDOCK:   -4.40 KCAL/MOL
REMARK 924 INTRA-LIGAND FREE ENERGY PREDICTED BY IDOCK:   -1.35 KCAL/MOL
REMARK 927      BINDING AFFINITY PREDICTED BY RF-SCORE:    0.00 PKD
ROOT
HETATM    1  C   UNL     1     -11.371   4.477  73.584  1.00  0.00    -0.204 C  
HETATM    2  O   UNL     1     -10.280   4.660  72.694  1.00  0.00    -0.171 OA 
ENDROOT
BRANCH   2   3
HETATM    3  C   UNL     1      -9.142   5.196  73.370  1.00  0.00    -0.124 C  
BRANCH   3   4
HETATM    4  C   UNL     1      -8.046   5.379  72.342  1.00  0.00    -0.107 C  
BRANCH   4   5
HETATM    5  O   UNL     1      -8.478   6.089  71.174  1.00  0.00    -0.122 OA 
BRANCH   5   6
HETATM    6  C   UNL     1      -7.950   7.332  71.079  1.00  0.00    -0.098 C  
HETATM    7  O   UNL     1      -6.898   7.676  71.594  1.00  0.00    -0.052 OA 
BRANCH   6   8
HETATM    8  C   UNL     1      -8.835   8.252  70.317  1.00  0.00    -0.141 C  
HETATM    9  C   UNL     1      -9.960   8.803  70.839  1.00  0.00    -0.222 C  
HETATM   10  C   UNL     1     -10.641   8.521  72.160  1.00  0.00    -0.419 C  
HETATM   11  N   UNL     1     -10.618   9.783  70.125  1.00  0.00    -0.264 NA 
HETATM   12  C   UNL     1     -10.334  10.168  68.836  1.00  0.00    -0.206 C  
HETATM   13  C   UNL     1      -9.250   9.660  68.198  1.00  0.00    -0.130 C  
HETATM   14  C   UNL     1     -11.322  11.146  68.247  1.00  0.00    -0.365 C  
HETATM   15  C   UNL     1      -8.305   8.689  68.928  1.00  0.00    -0.124 C  
BRANCH  13  16
HETATM   16  C   UNL     1      -9.070   9.979  66.756  1.00  0.00    -0.139 C  
HETATM   17  O   UNL     1      -9.654   9.385  65.861  1.00  0.00    -0.232 OA 
BRANCH  16  18
HETATM   18  O   UNL     1      -8.169  10.973  66.540  1.00  0.00    -0.150 OA 
BRANCH  18  19
HETATM   19  C   UNL     1      -7.158  11.074  67.571  1.00  0.00    -0.091 C  
HETATM   20  C   UNL     1      -5.782  10.810  66.965  1.00  0.00    -0.053 C  
HETATM   21  C   UNL     1      -7.220  12.464  68.190  1.00  0.00    -0.100 C  
ENDBRANCH  18  19
ENDBRANCH  16  18
ENDBRANCH  13  16
BRANCH  15  22
HETATM   22  C   UNL     1      -7.967   7.460  68.075  1.00  0.00    -0.119 A  
HETATM   23  C   UNL     1      -6.631   7.192  67.723  1.00  0.00    -0.053 A  
HETATM   24  C   UNL     1      -8.970   6.578  67.645  1.00  0.00    -0.114 A  
HETATM   25  C   UNL     1      -6.300   6.072  66.957  1.00  0.00    -0.042 A  
HETATM   26  O   UNL     1     -10.853   4.796  66.766  1.00  0.00    -0.023 OA 
HETATM   27  O   UNL     1      -9.352   3.555  65.759  1.00  0.00    -0.155 OA 
HETATM   28  C   UNL     1      -8.631   5.456  66.876  1.00  0.00    -0.109 A  
HETATM   29  N   UNL     1      -9.690   4.538  66.438  1.00  0.00    -0.188 N  
HETATM   30  C   UNL     1      -7.300   5.200  66.530  1.00  0.00    -0.086 A  
ENDBRANCH  15  22
ENDBRANCH   6   8
ENDBRANCH   5   6
ENDBRANCH   4   5
ENDBRANCH   3   4
ENDBRANCH   2   3
TORSDOF 9
ENDMDL
MODEL      212
REMARK 921   NORMALIZED FREE ENERGY PREDICTED BY IDOCK:   -2.68 KCAL/MOL
REMARK 922        TOTAL FREE ENERGY PREDICTED BY IDOCK:   -5.67 KCAL/MOL
REMARK 923 INTER-LIGAND FREE ENERGY PREDICTED BY IDOCK:   -5.62 KCAL/MOL
REMARK 924 INTRA-LIGAND FREE ENERGY PREDICTED BY IDOCK:   -0.05 KCAL/MOL
REMARK 927      BINDING AFFINITY PREDICTED BY RF-SCORE:    0.00 PKD
ROOT
HETATM    1  C   UNL     1      -6.690   8.274  74.152  1.00  0.00    -0.134 C  
HETATM    2  O   UNL     1      -7.937   8.723  73.644  1.00  0.00    -0.404 OA 
ENDROOT
BRANCH   2   3
HETATM    3  C   UNL     1      -8.086   8.392  72.263  1.00  0.00    -0.127 C  
BRANCH   3   4
HETATM    4  C   UNL     1      -9.405   8.967  71.796  1.00  0.00    -0.234 C  
BRANCH   4   5
HETATM    5  O   UNL     1      -9.349   9.514  70.473  1.00  0.00    -0.252 OA 
BRANCH   5   6
HETATM    6  C   UNL     1     -10.342   9.068  69.668  1.00  0.00    -0.212 C  
HETATM    7  O   UNL     1     -11.494   8.883  70.031  1.00  0.00    -0.131 OA 
BRANCH   6   8
HETATM    8  C   UNL     1      -9.853   8.773  68.296  1.00  0.00    -0.185 C  
HETATM    9  C   UNL     1      -9.164   7.648  67.977  1.00  0.00    -0.137 C  
HETATM   10  C   UNL     1      -8.617   6.571  68.887  1.00  0.00    -0.125 C  
HETATM   11  N   UNL     1      -8.910   7.372  66.650  1.00  0.00    -0.136 NA 
HETATM   12  C   UNL     1      -9.153   8.216  65.592  1.00  0.00    -0.035 C  
HETATM   13  C   UNL     1      -9.808   9.386  65.793  1.00  0.00    -0.345 C  
HETATM   14  C   UNL     1      -8.622   7.722  64.268  1.00  0.00     0.284 C  
HETATM   15  C   UNL     1     -10.325   9.756  67.194  1.00  0.00    -0.311 C  
BRANCH  13  16
HETATM   16  C   UNL     1      -9.911  10.339  64.654  1.00  0.00    -0.327 C  
HETATM   17  O   UNL     1      -9.074  10.412  63.766  1.00  0.00    -0.203 OA 
BRANCH  16  18
HETATM   18  O   UNL     1     -11.011  11.133  64.723  1.00  0.00    -0.260 OA 
BRANCH  18  19
HETATM   19  C   UNL     1     -11.159  12.020  63.589  1.00  0.00    -0.452 C  
HETATM   20  C   UNL     1     -12.591  12.545  63.533  1.00  0.00    -0.475 C  
HETATM   21  C   UNL     1     -10.166  13.167  63.724  1.00  0.00     0.346 C  
ENDBRANCH  18  19
ENDBRANCH  16  18
ENDBRANCH  13  16
BRANCH  15  22
HETATM   22  C   UNL     1      -9.972  11.198  67.579  1.00  0.00    -0.204 A  
HETATM   23  C   UNL     1      -8.668  11.516  68.004  1.00  0.00    -0.151 A  
HETATM   24  C   UNL     1     -10.927  12.223  67.500  1.00  0.00    -0.298 A  
HETATM   25  C   UNL     1      -8.322  12.825  68.346  1.00  0.00    -0.119 A  
HETATM   26  O   UNL     1     -12.715  14.291  67.373  1.00  0.00     0.149 OA 
HETATM   27  O   UNL     1     -11.232  15.749  68.068  1.00  0.00    -0.342 OA 
HETATM   28  C   UNL     1     -10.574  13.535  67.847  1.00  0.00    -0.248 A  
HETATM   29  N   UNL     1     -11.581  14.599  67.754  1.00  0.00    -0.346 N  
HETATM   30  C   UNL     1      -9.275  13.839  68.270  1.00  0.00    -0.204 A  
ENDBRANCH  15  22
ENDBRANCH   6   8
ENDBRANCH   5   6
ENDBRANCH   4   5
ENDBRANCH   3   4
ENDBRANCH   2   3
TORSDOF 9
ENDMDL
MODEL      213
REMARK 921   NORMALIZED FREE ENERGY PREDICTED BY IDOCK:   -2.64 KCAL/MOL
REMARK 922        TOTAL FREE ENERGY PREDICTED BY IDOCK:   -5.60 KCAL/MOL
REMARK 923 INTER-LIGAND FREE ENERGY PREDICTED BY IDOCK:   -4.06 KCAL/MOL
REMARK 924 INTRA-LIGAND FREE ENERGY PREDICTED BY IDOCK:   -1.54 KCAL/MOL
REMARK 927      BINDING AFFINITY PREDICTED BY RF-SCORE:    0.00 PKD
ROOT
HETATM    1  C   UNL     1      -9.293   4.197  62.910  1.00  0.00    -0.129 C  
HETATM    2  O   UNL     1      -9.540   3.387  64.050  1.00  0.00    -0.125 OA 
ENDROOT
BRANCH   2   3
HETATM    3  C   UNL     1     -10.369   4.062  64.997  1.00  0.00    -0.160 C  
BRANCH   3   4
HETATM    4  C   UNL     1      -9.461   4.676  66.041  1.00  0.00    -0.171 C  
BRANCH   4   5
HETATM    5  O   UNL     1      -9.356   6.101  65.934  1.00  0.00    -0.116 OA 
BRANCH   5   6
HETATM    6  C   UNL     1     -10.107   6.761  66.846  1.00  0.00    -0.202 C  
HETATM    7  O   UNL     1     -11.316   6.635  66.966  1.00  0.00    -0.348 OA 
BRANCH   6   8
HETATM    8  C   UNL     1      -9.294   7.707  67.653  1.00  0.00    -0.158 C  
HETATM    9  C   UNL     1      -8.615   8.752  67.114  1.00  0.00    -0.117 C  
HETATM   10  C   UNL     1      -8.392   9.101  65.660  1.00  0.00    -0.131 C  
HETATM   11  N   UNL     1      -8.038   9.680  67.955  1.00  0.00    -0.105 NA 
HETATM   12  C   UNL     1      -7.943   9.578  69.323  1.00  0.00    -0.094 C  
HETATM   13  C   UNL     1      -8.555   8.556  69.973  1.00  0.00    -0.134 C  
HETATM   14  C   UNL     1      -7.113  10.659  69.972  1.00  0.00    -0.095 C  
HETATM   15  C   UNL     1      -9.398   7.534  69.190  1.00  0.00    -0.147 C  
BRANCH  13  16
HETATM   16  C   UNL     1      -8.297   8.393  71.429  1.00  0.00    -0.145 C  
HETATM   17  O   UNL     1      -9.033   8.846  72.294  1.00  0.00    -0.388 OA 
BRANCH  16  18
HETATM   18  O   UNL     1      -7.147   7.719  71.692  1.00  0.00    -0.060 OA 
BRANCH  18  19
HETATM   19  C   UNL     1      -6.809   7.674  73.099  1.00  0.00    -0.072 C  
HETATM   20  C   UNL     1      -6.511   6.234  73.508  1.00  0.00    -0.066 C  
HETATM   21  C   UNL     1      -5.602   8.569  73.346  1.00  0.00    -0.085 C  
ENDBRANCH  18  19
ENDBRANCH  16  18
ENDBRANCH  13  16
BRANCH  15  22
HETATM   22  C   UNL     1      -9.072   6.090  69.588  1.00  0.00    -0.139 A  
HETATM   23  C   UNL     1     -10.017   5.324  70.297  1.00  0.00    -0.310 A  
HETATM   24  C   UNL     1      -7.846   5.502  69.244  1.00  0.00    -0.091 A  
HETATM   25  C   UNL     1      -9.746   4.003  70.659  1.00  0.00    -0.266 A  
HETATM   26  O   UNL     1      -5.486   4.267  68.613  1.00  0.00    -0.011 OA 
HETATM   27  O   UNL     1      -6.093   2.394  69.580  1.00  0.00    -0.023 OA 
HETATM   28  C   UNL     1      -7.579   4.176  69.611  1.00  0.00    -0.053 A  
HETATM   29  N   UNL     1      -6.293   3.571  69.239  1.00  0.00    -0.028 N  
HETATM   30  C   UNL     1      -8.524   3.424  70.318  1.00  0.00    -0.094 A  
ENDBRANCH  15  22
ENDBRANCH   6   8
ENDBRANCH   5   6
ENDBRANCH   4   5
ENDBRANCH   3   4
ENDBRANCH   2   3
TORSDOF 9
ENDMDL
MODEL      214
REMARK 921   NORMALIZED FREE ENERGY PREDICTED BY IDOCK:   -2.62 KCAL/MOL
REMARK 922        TOTAL FREE ENERGY PREDICTED BY IDOCK:   -5.57 KCAL/MOL
REMARK 923 INTER-LIGAND FREE ENERGY PREDICTED BY IDOCK:   -6.12 KCAL/MOL
REMARK 924 INTRA-LIGAND FREE ENERGY PREDICTED BY IDOCK:    0.55 KCAL/MOL
REMARK 927      BINDING AFFINITY PREDICTED BY RF-SCORE:    0.00 PKD
ROOT
HETATM    1  C   UNL     1      -5.132  10.445  71.783  1.00  0.00    -0.052 C  
HETATM    2  O   UNL     1      -5.244   9.513  70.718  1.00  0.00    -0.033 OA 
ENDROOT
BRANCH   2   3
HETATM    3  C   UNL     1      -6.056  10.025  69.661  1.00  0.00    -0.044 C  
BRANCH   3   4
HETATM    4  C   UNL     1      -5.287  11.149  69.000  1.00  0.00    -0.040 C  
BRANCH   4   5
HETATM    5  O   UNL     1      -6.006  12.388  68.975  1.00  0.00    -0.063 OA 
BRANCH   5   6
HETATM    6  C   UNL     1      -6.664  12.600  67.811  1.00  0.00    -0.127 C  
HETATM    7  O   UNL     1      -6.229  12.307  66.709  1.00  0.00    -0.185 OA 
BRANCH   6   8
HETATM    8  C   UNL     1      -7.964  13.288  68.028  1.00  0.00    -0.152 C  
HETATM    9  C   UNL     1      -8.101  14.390  68.808  1.00  0.00    -0.127 C  
HETATM   10  C   UNL     1      -7.088  15.054  69.714  1.00  0.00    -0.170 C  
HETATM   11  N   UNL     1      -9.303  15.066  68.805  1.00  0.00    -0.194 NA 
HETATM   12  C   UNL     1     -10.462  14.645  68.197  1.00  0.00    -0.237 C  
HETATM   13  C   UNL     1     -10.456  13.536  67.416  1.00  0.00    -0.247 C  
HETATM   14  C   UNL     1     -11.669  15.500  68.498  1.00  0.00    -0.351 C  
HETATM   15  C   UNL     1      -9.144  12.770  67.167  1.00  0.00    -0.219 C  
BRANCH  13  16
HETATM   16  C   UNL     1     -11.758  13.026  66.907  1.00  0.00    -0.383 C  
HETATM   17  O   UNL     1     -12.102  11.857  67.003  1.00  0.00    -0.600 OA 
BRANCH  16  18
HETATM   18  O   UNL     1     -12.505  13.987  66.302  1.00  0.00    -0.465 OA 
BRANCH  18  19
HETATM   19  C   UNL     1     -12.491  13.909  64.857  1.00  0.00    -0.391 C  
HETATM   20  C   UNL     1     -11.810  15.149  64.284  1.00  0.00    -0.263 C  
HETATM   21  C   UNL     1     -11.756  12.643  64.437  1.00  0.00    -0.431 C  
ENDBRANCH  18  19
ENDBRANCH  16  18
ENDBRANCH  13  16
BRANCH  15  22
HETATM   22  C   UNL     1      -9.314  11.257  67.350  1.00  0.00    -0.168 A  
HETATM   23  C   UNL     1      -9.795  10.744  68.570  1.00  0.00    -0.182 A  
HETATM   24  C   UNL     1      -9.014  10.363  66.311  1.00  0.00    -0.172 A  
HETATM   25  C   UNL     1      -9.970   9.371  68.753  1.00  0.00    -0.191 A  
HETATM   26  O   UNL     1      -8.462   8.542  64.344  1.00  0.00    -0.154 OA 
HETATM   27  O   UNL     1      -9.047   6.849  65.609  1.00  0.00    -0.028 OA 
HETATM   28  C   UNL     1      -9.190   8.986  66.502  1.00  0.00    -0.179 A  
HETATM   29  N   UNL     1      -8.877   8.062  65.404  1.00  0.00    -0.079 N  
HETATM   30  C   UNL     1      -9.666   8.486  67.719  1.00  0.00    -0.199 A  
ENDBRANCH  15  22
ENDBRANCH   6   8
ENDBRANCH   5   6
ENDBRANCH   4   5
ENDBRANCH   3   4
ENDBRANCH   2   3
TORSDOF 9
ENDMDL
MODEL      215
REMARK 921   NORMALIZED FREE ENERGY PREDICTED BY IDOCK:   -2.61 KCAL/MOL
REMARK 922        TOTAL FREE ENERGY PREDICTED BY IDOCK:   -5.56 KCAL/MOL
REMARK 923 INTER-LIGAND FREE ENERGY PREDICTED BY IDOCK:   -5.48 KCAL/MOL
REMARK 924 INTRA-LIGAND FREE ENERGY PREDICTED BY IDOCK:   -0.08 KCAL/MOL
REMARK 927      BINDING AFFINITY PREDICTED BY RF-SCORE:    0.00 PKD
ROOT
HETATM    1  C   UNL     1     -10.601  17.868  65.918  1.00  0.00    -0.215 C  
HETATM    2  O   UNL     1     -10.475  16.705  66.723  1.00  0.00    -0.298 OA 
ENDROOT
BRANCH   2   3
HETATM    3  C   UNL     1     -10.378  17.039  68.108  1.00  0.00    -0.347 C  
BRANCH   3   4
HETATM    4  C   UNL     1      -8.930  17.372  68.395  1.00  0.00    -0.277 C  
BRANCH   4   5
HETATM    5  O   UNL     1      -8.015  16.372  67.931  1.00  0.00    -0.150 OA 
BRANCH   5   6
HETATM    6  C   UNL     1      -7.807  15.380  68.828  1.00  0.00    -0.155 C  
HETATM    7  O   UNL     1      -7.924  15.508  70.037  1.00  0.00    -0.005 OA 
BRANCH   6   8
HETATM    8  C   UNL     1      -7.361  14.123  68.172  1.00  0.00    -0.130 C  
HETATM    9  C   UNL     1      -6.174  14.003  67.525  1.00  0.00     0.017 C  
HETATM   10  C   UNL     1      -5.154  15.069  67.188  1.00  0.00     0.727 C  
HETATM   11  N   UNL     1      -5.764  12.755  67.105  1.00  0.00    -0.341 NA 
HETATM   12  C   UNL     1      -6.520  11.607  67.137  1.00  0.00    -0.137 C  
HETATM   13  C   UNL     1      -7.739  11.612  67.731  1.00  0.00    -0.126 C  
HETATM   14  C   UNL     1      -5.877  10.420  66.460  1.00  0.00    -0.068 C  
HETATM   15  C   UNL     1      -8.264  12.888  68.413  1.00  0.00    -0.121 C  
BRANCH  13  16
HETATM   16  C   UNL     1      -8.588  10.396  67.605  1.00  0.00    -0.118 C  
HETATM   17  O   UNL     1      -8.382   9.368  68.234  1.00  0.00    -0.117 OA 
BRANCH  16  18
HETATM   18  O   UNL     1      -9.591  10.540  66.700  1.00  0.00    -0.165 OA 
BRANCH  18  19
HETATM   19  C   UNL     1      -9.440   9.705  65.528  1.00  0.00    -0.266 C  
HETATM   20  C   UNL     1      -8.687  10.473  64.445  1.00  0.00    -0.187 C  
HETATM   21  C   UNL     1      -8.689   8.438  65.917  1.00  0.00    -0.197 C  
ENDBRANCH  18  19
ENDBRANCH  16  18
ENDBRANCH  13  16
BRANCH  15  22
HETATM   22  C   UNL     1      -9.713  13.200  68.019  1.00  0.00    -0.224 A  
HETATM   23  C   UNL     1     -10.701  13.332  69.013  1.00  0.00    -0.156 A  
HETATM   24  C   UNL     1     -10.077  13.376  66.675  1.00  0.00    -0.275 A  
HETATM   25  C   UNL     1     -12.024  13.628  68.677  1.00  0.00    -0.395 A  
HETATM   26  O   UNL     1     -10.882  13.742  64.086  1.00  0.00    -0.302 OA 
HETATM   27  O   UNL     1     -12.959  14.121  64.680  1.00  0.00    -0.629 OA 
HETATM   28  C   UNL     1     -11.406  13.671  66.345  1.00  0.00    -0.316 A  
HETATM   29  N   UNL     1     -11.772  13.859  64.935  1.00  0.00    -0.350 N  
HETATM   30  C   UNL     1     -12.381  13.798  67.340  1.00  0.00    -0.156 A  
ENDBRANCH  15  22
ENDBRANCH   6   8
ENDBRANCH   5   6
ENDBRANCH   4   5
ENDBRANCH   3   4
ENDBRANCH   2   3
TORSDOF 9
ENDMDL
MODEL      216
REMARK 921   NORMALIZED FREE ENERGY PREDICTED BY IDOCK:   -2.60 KCAL/MOL
REMARK 922        TOTAL FREE ENERGY PREDICTED BY IDOCK:   -5.55 KCAL/MOL
REMARK 923 INTER-LIGAND FREE ENERGY PREDICTED BY IDOCK:   -5.47 KCAL/MOL
REMARK 924 INTRA-LIGAND FREE ENERGY PREDICTED BY IDOCK:   -0.08 KCAL/MOL
REMARK 927      BINDING AFFINITY PREDICTED BY RF-SCORE:    0.00 PKD
ROOT
HETATM    1  C   UNL     1     -13.020  13.751  71.083  1.00  0.00    -0.298 C  
HETATM    2  O   UNL     1     -13.672  13.023  72.112  1.00  0.00    -0.506 OA 
ENDROOT
BRANCH   2   3
HETATM    3  C   UNL     1     -13.391  11.626  72.020  1.00  0.00    -0.300 C  
BRANCH   3   4
HETATM    4  C   UNL     1     -12.413  11.432  70.881  1.00  0.00    -0.379 C  
BRANCH   4   5
HETATM    5  O   UNL     1     -12.477  10.126  70.296  1.00  0.00    -0.214 OA 
BRANCH   5   6
HETATM    6  C   UNL     1     -11.449   9.325  70.664  1.00  0.00    -0.274 C  
HETATM    7  O   UNL     1     -10.908   9.356  71.758  1.00  0.00    -0.354 OA 
BRANCH   6   8
HETATM    8  C   UNL     1     -11.015   8.436  69.554  1.00  0.00    -0.051 C  
HETATM    9  C   UNL     1     -11.178   7.088  69.574  1.00  0.00    -0.145 C  
HETATM   10  C   UNL     1     -11.653   6.198  70.701  1.00  0.00    -0.256 C  
HETATM   11  N   UNL     1     -10.913   6.366  68.430  1.00  0.00    -0.309 NA 
HETATM   12  C   UNL     1     -10.338   6.858  67.282  1.00  0.00    -0.251 C  
HETATM   13  C   UNL     1     -10.097   8.187  67.158  1.00  0.00    -0.334 C  
HETATM   14  C   UNL     1     -10.011   5.807  66.249  1.00  0.00    -0.129 C  
HETATM   15  C   UNL     1     -10.509   9.157  68.280  1.00  0.00    -0.254 C  
BRANCH  13  16
HETATM   16  C   UNL     1      -9.332   8.656  65.971  1.00  0.00    -0.218 C  
HETATM   17  O   UNL     1      -8.158   8.375  65.778  1.00  0.00    -0.105 OA 
BRANCH  16  18
HETATM   18  O   UNL     1     -10.065   9.450  65.147  1.00  0.00     0.011 OA 
BRANCH  18  19
HETATM   19  C   UNL     1      -9.295  10.035  64.069  1.00  0.00    -0.270 C  
HETATM   20  C   UNL     1      -7.983  10.587  64.619  1.00  0.00    -0.037 C  
HETATM   21  C   UNL     1      -9.036   8.970  63.012  1.00  0.00     0.074 C  
ENDBRANCH  18  19
ENDBRANCH  16  18
ENDBRANCH  13  16
BRANCH  15  22
HETATM   22  C   UNL     1      -9.387  10.142  68.634  1.00  0.00    -0.161 A  
HETATM   23  C   UNL     1      -9.346  11.411  68.027  1.00  0.00    -0.171 A  
HETATM   24  C   UNL     1      -8.398   9.808  69.571  1.00  0.00    -0.165 A  
HETATM   25  C   UNL     1      -8.341  12.327  68.343  1.00  0.00    -0.144 A  
HETATM   26  O   UNL     1      -6.431   9.252  71.391  1.00  0.00    -0.126 OA 
HETATM   27  O   UNL     1      -5.491  11.215  71.124  1.00  0.00    -0.248 OA 
HETATM   28  C   UNL     1      -7.391  10.731  69.884  1.00  0.00     0.005 A  
HETATM   29  N   UNL     1      -6.366  10.371  70.872  1.00  0.00     0.006 N  
HETATM   30  C   UNL     1      -7.358  11.990  69.273  1.00  0.00     0.126 A  
ENDBRANCH  15  22
ENDBRANCH   6   8
ENDBRANCH   5   6
ENDBRANCH   4   5
ENDBRANCH   3   4
ENDBRANCH   2   3
TORSDOF 9
ENDMDL
MODEL      217
REMARK 921   NORMALIZED FREE ENERGY PREDICTED BY IDOCK:   -2.57 KCAL/MOL
REMARK 922        TOTAL FREE ENERGY PREDICTED BY IDOCK:   -5.50 KCAL/MOL
REMARK 923 INTER-LIGAND FREE ENERGY PREDICTED BY IDOCK:   -5.39 KCAL/MOL
REMARK 924 INTRA-LIGAND FREE ENERGY PREDICTED BY IDOCK:   -0.11 KCAL/MOL
REMARK 927      BINDING AFFINITY PREDICTED BY RF-SCORE:    0.00 PKD
ROOT
HETATM    1  C   UNL     1     -13.031  12.952  71.293  1.00  0.00    -0.228 C  
HETATM    2  O   UNL     1     -12.631  11.590  71.252  1.00  0.00    -0.383 OA 
ENDROOT
BRANCH   2   3
HETATM    3  C   UNL     1     -13.543  10.758  71.970  1.00  0.00    -0.064 C  
BRANCH   3   4
HETATM    4  C   UNL     1     -12.924   9.380  72.063  1.00  0.00    -0.423 C  
BRANCH   4   5
HETATM    5  O   UNL     1     -11.656   9.282  71.404  1.00  0.00    -0.310 OA 
BRANCH   5   6
HETATM    6  C   UNL     1     -10.896   8.257  71.857  1.00  0.00    -0.283 C  
HETATM    7  O   UNL     1     -10.484   8.157  73.002  1.00  0.00    -0.325 OA 
BRANCH   6   8
HETATM    8  C   UNL     1     -10.571   7.289  70.777  1.00  0.00    -0.237 C  
HETATM    9  C   UNL     1     -10.548   5.945  70.966  1.00  0.00    -0.250 C  
HETATM   10  C   UNL     1     -10.673   5.156  72.250  1.00  0.00    -0.266 C  
HETATM   11  N   UNL     1     -10.415   5.118  69.870  1.00  0.00    -0.281 NA 
HETATM   12  C   UNL     1     -10.144   5.523  68.584  1.00  0.00    -0.183 C  
HETATM   13  C   UNL     1     -10.110   6.844  68.281  1.00  0.00    -0.182 C  
HETATM   14  C   UNL     1      -9.887   4.392  67.618  1.00  0.00    -0.168 C  
HETATM   15  C   UNL     1     -10.421   7.896  69.360  1.00  0.00    -0.222 C  
BRANCH  13  16
HETATM   16  C   UNL     1      -9.658   7.241  66.919  1.00  0.00    -0.174 C  
HETATM   17  O   UNL     1     -10.116   8.201  66.316  1.00  0.00    -0.197 OA 
BRANCH  16  18
HETATM   18  O   UNL     1      -8.710   6.411  66.411  1.00  0.00    -0.128 OA 
BRANCH  18  19
HETATM   19  C   UNL     1      -7.473   7.081  66.072  1.00  0.00    -0.080 C  
HETATM   20  C   UNL     1      -6.290   6.262  66.584  1.00  0.00    -0.041 C  
HETATM   21  C   UNL     1      -7.401   7.253  64.561  1.00  0.00    -0.080 C  
ENDBRANCH  18  19
ENDBRANCH  16  18
ENDBRANCH  13  16
BRANCH  15  22
HETATM   22  C   UNL     1      -9.392   9.033  69.372  1.00  0.00    -0.158 A  
HETATM   23  C   UNL     1      -9.700  10.269  68.770  1.00  0.00    -0.178 A  
HETATM   24  C   UNL     1      -8.143   8.874  69.991  1.00  0.00    -0.116 A  
HETATM   25  C   UNL     1      -8.783  11.321  68.780  1.00  0.00    -0.105 A  
HETATM   26  O   UNL     1      -5.686   8.664  71.177  1.00  0.00    -0.033 OA 
HETATM   27  O   UNL     1      -5.140  10.719  70.640  1.00  0.00    -0.063 OA 
HETATM   28  C   UNL     1      -7.226   9.935  69.997  1.00  0.00    -0.146 A  
HETATM   29  N   UNL     1      -5.925   9.757  70.653  1.00  0.00    -0.069 N  
HETATM   30  C   UNL     1      -7.541  11.158  69.394  1.00  0.00    -0.013 A  
ENDBRANCH  15  22
ENDBRANCH   6   8
ENDBRANCH   5   6
ENDBRANCH   4   5
ENDBRANCH   3   4
ENDBRANCH   2   3
TORSDOF 9
ENDMDL
MODEL      218
REMARK 921   NORMALIZED FREE ENERGY PREDICTED BY IDOCK:   -2.52 KCAL/MOL
REMARK 922        TOTAL FREE ENERGY PREDICTED BY IDOCK:   -5.42 KCAL/MOL
REMARK 923 INTER-LIGAND FREE ENERGY PREDICTED BY IDOCK:   -8.01 KCAL/MOL
REMARK 924 INTRA-LIGAND FREE ENERGY PREDICTED BY IDOCK:    2.58 KCAL/MOL
REMARK 927      BINDING AFFINITY PREDICTED BY RF-SCORE:    0.00 PKD
ROOT
HETATM    1  C   UNL     1     -10.707  18.669  65.641  1.00  0.00    -0.086 C  
HETATM    2  O   UNL     1      -9.877  17.520  65.569  1.00  0.00    -0.508 OA 
ENDROOT
BRANCH   2   3
HETATM    3  C   UNL     1     -10.652  16.320  65.530  1.00  0.00    -0.353 C  
BRANCH   3   4
HETATM    4  C   UNL     1     -10.093  15.383  66.578  1.00  0.00    -0.271 C  
BRANCH   4   5
HETATM    5  O   UNL     1     -10.155  14.003  66.196  1.00  0.00    -0.290 OA 
BRANCH   5   6
HETATM    6  C   UNL     1      -9.244  13.232  66.833  1.00  0.00    -0.241 C  
HETATM    7  O   UNL     1      -8.144  13.619  67.197  1.00  0.00    -0.160 OA 
BRANCH   6   8
HETATM    8  C   UNL     1      -9.716  11.831  66.990  1.00  0.00    -0.198 C  
HETATM    9  C   UNL     1      -9.881  10.980  65.945  1.00  0.00    -0.232 C  
HETATM   10  C   UNL     1      -9.793  11.258  64.461  1.00  0.00    -0.317 C  
HETATM   11  N   UNL     1     -10.147   9.651  66.200  1.00  0.00    -0.277 NA 
HETATM   12  C   UNL     1     -10.423   9.108  67.433  1.00  0.00    -0.271 C  
HETATM   13  C   UNL     1     -10.322   9.870  68.550  1.00  0.00    -0.221 C  
HETATM   14  C   UNL     1     -10.841   7.658  67.393  1.00  0.00    -0.240 C  
HETATM   15  C   UNL     1      -9.854  11.333  68.451  1.00  0.00    -0.200 C  
BRANCH  13  16
HETATM   16  C   UNL     1     -10.781   9.290  69.841  1.00  0.00    -0.234 C  
HETATM   17  O   UNL     1     -11.958   9.092  70.105  1.00  0.00     0.030 OA 
BRANCH  16  18
HETATM   18  O   UNL     1      -9.760   9.033  70.700  1.00  0.00    -0.196 OA 
BRANCH  18  19
HETATM   19  C   UNL     1     -10.090   8.060  71.719  1.00  0.00    -0.191 C  
HETATM   20  C   UNL     1     -10.030   6.655  71.124  1.00  0.00    -0.198 C  
HETATM   21  C   UNL     1      -9.108   8.201  72.875  1.00  0.00    -0.337 C  
ENDBRANCH  18  19
ENDBRANCH  16  18
ENDBRANCH  13  16
BRANCH  15  22
HETATM   22  C   UNL     1     -10.749  12.282  69.257  1.00  0.00    -0.011 A  
HETATM   23  C   UNL     1     -10.721  13.666  68.999  1.00  0.00    -0.194 A  
HETATM   24  C   UNL     1     -11.618  11.795  70.246  1.00  0.00    -0.210 A  
HETATM   25  C   UNL     1     -11.537  14.547  69.713  1.00  0.00    -0.345 A  
HETATM   26  O   UNL     1     -13.347  10.941  72.187  1.00  0.00    -0.443 OA 
HETATM   27  O   UNL     1     -14.049  12.978  72.598  1.00  0.00    -0.643 OA 
HETATM   28  C   UNL     1     -12.433  12.685  70.959  1.00  0.00    -0.260 A  
HETATM   29  N   UNL     1     -13.341  12.161  71.987  1.00  0.00    -0.467 N  
HETATM   30  C   UNL     1     -12.396  14.058  70.697  1.00  0.00    -0.446 A  
ENDBRANCH  15  22
ENDBRANCH   6   8
ENDBRANCH   5   6
ENDBRANCH   4   5
ENDBRANCH   3   4
ENDBRANCH   2   3
TORSDOF 9
ENDMDL
MODEL      219
REMARK 921   NORMALIZED FREE ENERGY PREDICTED BY IDOCK:   -2.51 KCAL/MOL
REMARK 922        TOTAL FREE ENERGY PREDICTED BY IDOCK:   -5.41 KCAL/MOL
REMARK 923 INTER-LIGAND FREE ENERGY PREDICTED BY IDOCK:   -4.61 KCAL/MOL
REMARK 924 INTRA-LIGAND FREE ENERGY PREDICTED BY IDOCK:   -0.80 KCAL/MOL
REMARK 927      BINDING AFFINITY PREDICTED BY RF-SCORE:    0.00 PKD
ROOT
HETATM    1  C   UNL     1     -11.087   9.539  71.478  1.00  0.00    -0.336 C  
HETATM    2  O   UNL     1      -9.702   9.332  71.245  1.00  0.00    -0.282 OA 
ENDROOT
BRANCH   2   3
HETATM    3  C   UNL     1      -9.345   9.658  69.902  1.00  0.00    -0.228 C  
BRANCH   3   4
HETATM    4  C   UNL     1      -7.843   9.518  69.783  1.00  0.00    -0.128 C  
BRANCH   4   5
HETATM    5  O   UNL     1      -7.438   8.596  68.763  1.00  0.00    -0.088 OA 
BRANCH   5   6
HETATM    6  C   UNL     1      -8.208   8.657  67.652  1.00  0.00    -0.110 C  
HETATM    7  O   UNL     1      -8.841   9.642  67.305  1.00  0.00    -0.131 OA 
BRANCH   6   8
HETATM    8  C   UNL     1      -8.239   7.360  66.928  1.00  0.00    -0.121 C  
HETATM    9  C   UNL     1      -8.197   7.262  65.575  1.00  0.00    -0.139 C  
HETATM   10  C   UNL     1      -8.266   8.356  64.533  1.00  0.00    -0.149 C  
HETATM   11  N   UNL     1      -8.047   6.018  64.998  1.00  0.00    -0.129 NA 
HETATM   12  C   UNL     1      -8.091   4.814  65.660  1.00  0.00    -0.111 C  
HETATM   13  C   UNL     1      -8.165   4.784  67.014  1.00  0.00    -0.106 C  
HETATM   14  C   UNL     1      -8.065   3.605  64.755  1.00  0.00    -0.090 C  
HETATM   15  C   UNL     1      -8.154   6.096  67.820  1.00  0.00    -0.113 C  
BRANCH  13  16
HETATM   16  C   UNL     1      -8.370   3.469  67.679  1.00  0.00    -0.089 C  
HETATM   17  O   UNL     1      -9.476   3.000  67.909  1.00  0.00    -0.207 OA 
BRANCH  16  18
HETATM   18  O   UNL     1      -7.205   2.863  68.028  1.00  0.00    -0.049 OA 
BRANCH  18  19
HETATM   19  C   UNL     1      -6.743   3.214  69.354  1.00  0.00    -0.034 C  
HETATM   20  C   UNL     1      -7.310   2.227  70.371  1.00  0.00    -0.033 C  
HETATM   21  C   UNL     1      -5.220   3.192  69.368  1.00  0.00    -0.011 C  
ENDBRANCH  18  19
ENDBRANCH  16  18
ENDBRANCH  13  16
BRANCH  15  22
HETATM   22  C   UNL     1      -9.249   6.124  68.893  1.00  0.00    -0.125 A  
HETATM   23  C   UNL     1     -10.580   6.411  68.535  1.00  0.00    -0.302 A  
HETATM   24  C   UNL     1      -8.953   5.852  70.238  1.00  0.00    -0.152 A  
HETATM   25  C   UNL     1     -11.594   6.430  69.494  1.00  0.00    -0.303 A  
HETATM   26  O   UNL     1      -8.478   5.329  72.882  1.00  0.00    -0.115 OA 
HETATM   27  O   UNL     1     -10.586   5.609  73.419  1.00  0.00    -0.223 OA 
HETATM   28  C   UNL     1      -9.976   5.874  71.196  1.00  0.00    -0.189 A  
HETATM   29  N   UNL     1      -9.654   5.581  72.598  1.00  0.00    -0.150 N  
HETATM   30  C   UNL     1     -11.295   6.162  70.830  1.00  0.00    -0.364 A  
ENDBRANCH  15  22
ENDBRANCH   6   8
ENDBRANCH   5   6
ENDBRANCH   4   5
ENDBRANCH   3   4
ENDBRANCH   2   3
TORSDOF 9
ENDMDL
MODEL      220
REMARK 921   NORMALIZED FREE ENERGY PREDICTED BY IDOCK:   -2.44 KCAL/MOL
REMARK 922        TOTAL FREE ENERGY PREDICTED BY IDOCK:   -5.30 KCAL/MOL
REMARK 923 INTER-LIGAND FREE ENERGY PREDICTED BY IDOCK:   -5.14 KCAL/MOL
REMARK 924 INTRA-LIGAND FREE ENERGY PREDICTED BY IDOCK:   -0.16 KCAL/MOL
REMARK 927      BINDING AFFINITY PREDICTED BY RF-SCORE:    0.00 PKD
ROOT
HETATM    1  C   UNL     1     -10.147  19.738  68.451  1.00  0.00    -0.454 C  
HETATM    2  O   UNL     1      -9.494  18.571  68.926  1.00  0.00    -0.315 OA 
ENDROOT
BRANCH   2   3
HETATM    3  C   UNL     1     -10.252  17.396  68.638  1.00  0.00    -0.361 C  
BRANCH   3   4
HETATM    4  C   UNL     1      -9.361  16.202  68.906  1.00  0.00    -0.235 C  
BRANCH   4   5
HETATM    5  O   UNL     1      -9.942  14.958  68.497  1.00  0.00    -0.211 OA 
BRANCH   5   6
HETATM    6  C   UNL     1      -9.643  14.623  67.220  1.00  0.00    -0.221 C  
HETATM    7  O   UNL     1      -9.392  15.427  66.336  1.00  0.00    -0.253 OA 
BRANCH   6   8
HETATM    8  C   UNL     1      -9.711  13.154  67.002  1.00  0.00    -0.241 C  
HETATM    9  C   UNL     1     -10.877  12.460  66.966  1.00  0.00    -0.246 C  
HETATM   10  C   UNL     1     -12.281  12.931  67.274  1.00  0.00    -0.119 C  
HETATM   11  N   UNL     1     -10.856  11.137  66.579  1.00  0.00    -0.269 NA 
HETATM   12  C   UNL     1      -9.729  10.378  66.367  1.00  0.00    -0.201 C  
HETATM   13  C   UNL     1      -8.503  10.955  66.408  1.00  0.00    -0.163 C  
HETATM   14  C   UNL     1     -10.004   8.915  66.114  1.00  0.00    -0.290 C  
HETATM   15  C   UNL     1      -8.367  12.469  66.647  1.00  0.00     0.040 C  
BRANCH  13  16
HETATM   16  C   UNL     1      -7.307  10.073  66.331  1.00  0.00    -0.104 C  
HETATM   17  O   UNL     1      -6.671   9.898  65.302  1.00  0.00    -0.093 OA 
BRANCH  16  18
HETATM   18  O   UNL     1      -7.019   9.463  67.511  1.00  0.00    -0.076 OA 
BRANCH  18  19
HETATM   19  C   UNL     1      -6.494   8.123  67.359  1.00  0.00    -0.057 C  
HETATM   20  C   UNL     1      -5.549   7.810  68.516  1.00  0.00    -0.028 C  
HETATM   21  C   UNL     1      -7.655   7.138  67.326  1.00  0.00    -0.104 C  
ENDBRANCH  18  19
ENDBRANCH  16  18
ENDBRANCH  13  16
BRANCH  15  22
HETATM   22  C   UNL     1      -7.305  12.795  67.705  1.00  0.00    -0.144 A  
HETATM   23  C   UNL     1      -6.490  13.934  67.559  1.00  0.00    -0.077 A  
HETATM   24  C   UNL     1      -7.137  11.982  68.837  1.00  0.00    -0.104 A  
HETATM   25  C   UNL     1      -5.526  14.255  68.517  1.00  0.00    -0.098 A  
HETATM   26  O   UNL     1      -6.737  10.465  71.079  1.00  0.00    -0.318 OA 
HETATM   27  O   UNL     1      -5.136  11.777  71.803  1.00  0.00    -0.298 OA 
HETATM   28  C   UNL     1      -6.166  12.310  69.793  1.00  0.00    -0.125 A  
HETATM   29  N   UNL     1      -6.005  11.455  70.976  1.00  0.00     0.115 N  
HETATM   30  C   UNL     1      -5.360  13.443  69.638  1.00  0.00    -0.088 A  
ENDBRANCH  15  22
ENDBRANCH   6   8
ENDBRANCH   5   6
ENDBRANCH   4   5
ENDBRANCH   3   4
ENDBRANCH   2   3
TORSDOF 9
ENDMDL
MODEL      221
REMARK 921   NORMALIZED FREE ENERGY PREDICTED BY IDOCK:   -2.38 KCAL/MOL
REMARK 922        TOTAL FREE ENERGY PREDICTED BY IDOCK:   -5.21 KCAL/MOL
REMARK 923 INTER-LIGAND FREE ENERGY PREDICTED BY IDOCK:   -4.03 KCAL/MOL
REMARK 924 INTRA-LIGAND FREE ENERGY PREDICTED BY IDOCK:   -1.18 KCAL/MOL
REMARK 927      BINDING AFFINITY PREDICTED BY RF-SCORE:    0.00 PKD
ROOT
HETATM    1  C   UNL     1      -6.326   8.920  63.538  1.00  0.00    -0.089 C  
HETATM    2  O   UNL     1      -7.362   7.964  63.709  1.00  0.00    -0.090 OA 
ENDROOT
BRANCH   2   3
HETATM    3  C   UNL     1      -7.143   7.161  64.870  1.00  0.00    -0.064 C  
BRANCH   3   4
HETATM    4  C   UNL     1      -8.409   7.203  65.698  1.00  0.00    -0.136 C  
BRANCH   4   5
HETATM    5  O   UNL     1      -8.625   8.466  66.339  1.00  0.00    -0.116 OA 
BRANCH   5   6
HETATM    6  C   UNL     1      -9.933   8.738  66.554  1.00  0.00    -0.290 C  
HETATM    7  O   UNL     1     -10.792   7.891  66.743  1.00  0.00    -0.234 OA 
BRANCH   6   8
HETATM    8  C   UNL     1     -10.216  10.195  66.478  1.00  0.00    -0.288 C  
HETATM    9  C   UNL     1     -10.241  10.888  65.311  1.00  0.00    -0.288 C  
HETATM   10  C   UNL     1      -9.858  10.434  63.920  1.00  0.00    -0.332 C  
HETATM   11  N   UNL     1     -10.689  12.192  65.316  1.00  0.00    -0.278 NA 
HETATM   12  C   UNL     1     -10.979  12.939  66.434  1.00  0.00    -0.285 C  
HETATM   13  C   UNL     1     -10.957  12.362  67.661  1.00  0.00    -0.276 C  
HETATM   14  C   UNL     1     -11.289  14.389  66.149  1.00  0.00    -0.350 C  
HETATM   15  C   UNL     1     -10.654  10.861  67.807  1.00  0.00    -0.255 C  
BRANCH  13  16
HETATM   16  C   UNL     1     -11.121  13.239  68.853  1.00  0.00    -0.261 C  
HETATM   17  O   UNL     1     -12.205  13.475  69.365  1.00  0.00    -0.307 OA 
BRANCH  16  18
HETATM   18  O   UNL     1      -9.948  13.768  69.288  1.00  0.00     0.088 OA 
BRANCH  18  19
HETATM   19  C   UNL     1     -10.022  15.183  69.580  1.00  0.00    -0.171 C  
HETATM   20  C   UNL     1     -10.657  15.390  70.953  1.00  0.00    -0.019 C  
HETATM   21  C   UNL     1      -8.618  15.771  69.538  1.00  0.00    -0.144 C  
ENDBRANCH  18  19
ENDBRANCH  16  18
ENDBRANCH  13  16
BRANCH  15  22
HETATM   22  C   UNL     1      -9.623  10.583  68.908  1.00  0.00    -0.199 A  
HETATM   23  C   UNL     1     -10.018   9.945  70.099  1.00  0.00    -0.291 A  
HETATM   24  C   UNL     1      -8.276  10.941  68.747  1.00  0.00    -0.151 A  
HETATM   25  C   UNL     1      -9.093   9.671  71.109  1.00  0.00     0.378 A  
HETATM   26  O   UNL     1      -5.628  11.595  68.523  1.00  0.00    -0.046 OA 
HETATM   27  O   UNL     1      -5.157  10.779  70.503  1.00  0.00    -0.059 OA 
HETATM   28  C   UNL     1      -7.353  10.666  69.765  1.00  0.00    -0.108 A  
HETATM   29  N   UNL     1      -5.945  11.040  69.581  1.00  0.00    -0.060 N  
HETATM   30  C   UNL     1      -7.757  10.032  70.946  1.00  0.00     0.691 A  
ENDBRANCH  15  22
ENDBRANCH   6   8
ENDBRANCH   5   6
ENDBRANCH   4   5
ENDBRANCH   3   4
ENDBRANCH   2   3
TORSDOF 9
ENDMDL
MODEL      222
REMARK 921   NORMALIZED FREE ENERGY PREDICTED BY IDOCK:   -2.38 KCAL/MOL
REMARK 922        TOTAL FREE ENERGY PREDICTED BY IDOCK:   -5.21 KCAL/MOL
REMARK 923 INTER-LIGAND FREE ENERGY PREDICTED BY IDOCK:   -4.92 KCAL/MOL
REMARK 924 INTRA-LIGAND FREE ENERGY PREDICTED BY IDOCK:   -0.29 KCAL/MOL
REMARK 927      BINDING AFFINITY PREDICTED BY RF-SCORE:    0.00 PKD
ROOT
HETATM    1  C   UNL     1      -7.548   8.314  72.363  1.00  0.00    -0.120 C  
HETATM    2  O   UNL     1      -8.905   8.723  72.282  1.00  0.00    -0.367 OA 
ENDROOT
BRANCH   2   3
HETATM    3  C   UNL     1      -9.780   7.737  72.831  1.00  0.00    -0.249 C  
BRANCH   3   4
HETATM    4  C   UNL     1     -10.584   7.154  71.689  1.00  0.00    -0.207 C  
BRANCH   4   5
HETATM    5  O   UNL     1      -9.785   6.436  70.742  1.00  0.00    -0.178 OA 
BRANCH   5   6
HETATM    6  C   UNL     1     -10.423   6.204  69.571  1.00  0.00    -0.254 C  
HETATM    7  O   UNL     1     -11.637   6.199  69.437  1.00  0.00    -0.372 OA 
BRANCH   6   8
HETATM    8  C   UNL     1      -9.471   5.897  68.472  1.00  0.00    -0.134 C  
HETATM    9  C   UNL     1      -8.790   4.727  68.382  1.00  0.00    -0.104 C  
HETATM   10  C   UNL     1      -8.702   3.592  69.378  1.00  0.00    -0.130 C  
HETATM   11  N   UNL     1      -8.070   4.458  67.237  1.00  0.00    -0.100 NA 
HETATM   12  C   UNL     1      -7.837   5.338  66.207  1.00  0.00    -0.103 C  
HETATM   13  C   UNL     1      -8.439   6.553  66.203  1.00  0.00    -0.137 C  
HETATM   14  C   UNL     1      -6.877   4.829  65.159  1.00  0.00    -0.057 C  
HETATM   15  C   UNL     1      -9.423   6.936  67.323  1.00  0.00    -0.161 C  
BRANCH  13  16
HETATM   16  C   UNL     1      -8.038   7.533  65.156  1.00  0.00    -0.130 C  
HETATM   17  O   UNL     1      -8.758   7.843  64.219  1.00  0.00     0.173 OA 
BRANCH  16  18
HETATM   18  O   UNL     1      -6.783   8.020  65.339  1.00  0.00    -0.053 OA 
BRANCH  18  19
HETATM   19  C   UNL     1      -6.306   8.824  64.233  1.00  0.00    -0.071 C  
HETATM   20  C   UNL     1      -6.061   7.931  63.020  1.00  0.00    -0.068 C  
HETATM   21  C   UNL     1      -7.340   9.896  63.919  1.00  0.00    -0.131 C  
ENDBRANCH  18  19
ENDBRANCH  16  18
ENDBRANCH  13  16
BRANCH  15  22
HETATM   22  C   UNL     1      -9.147   8.337  67.881  1.00  0.00    -0.137 A  
HETATM   23  C   UNL     1      -7.898   8.632  68.461  1.00  0.00    -0.108 A  
HETATM   24  C   UNL     1     -10.116   9.350  67.811  1.00  0.00    -0.246 A  
HETATM   25  C   UNL     1      -7.622   9.905  68.964  1.00  0.00    -0.086 A  
HETATM   26  O   UNL     1     -11.938  11.390  67.714  1.00  0.00    -0.637 OA 
HETATM   27  O   UNL     1     -10.567  12.794  68.692  1.00  0.00    -0.247 OA 
HETATM   28  C   UNL     1      -9.832  10.625  68.319  1.00  0.00    -0.163 A  
HETATM   29  N   UNL     1     -10.854  11.677  68.233  1.00  0.00    -0.207 N  
HETATM   30  C   UNL     1      -8.589  10.906  68.895  1.00  0.00    -0.143 A  
ENDBRANCH  15  22
ENDBRANCH   6   8
ENDBRANCH   5   6
ENDBRANCH   4   5
ENDBRANCH   3   4
ENDBRANCH   2   3
TORSDOF 9
ENDMDL
MODEL      223
REMARK 921   NORMALIZED FREE ENERGY PREDICTED BY IDOCK:   -2.36 KCAL/MOL
REMARK 922        TOTAL FREE ENERGY PREDICTED BY IDOCK:   -5.17 KCAL/MOL
REMARK 923 INTER-LIGAND FREE ENERGY PREDICTED BY IDOCK:   -3.54 KCAL/MOL
REMARK 924 INTRA-LIGAND FREE ENERGY PREDICTED BY IDOCK:   -1.63 KCAL/MOL
REMARK 927      BINDING AFFINITY PREDICTED BY RF-SCORE:    0.00 PKD
ROOT
HETATM    1  C   UNL     1      -8.443   8.444  64.569  1.00  0.00    -0.060 C  
HETATM    2  O   UNL     1      -8.620   8.668  65.959  1.00  0.00    -0.137 OA 
ENDROOT
BRANCH   2   3
HETATM    3  C   UNL     1     -10.003   8.660  66.317  1.00  0.00    -0.217 C  
BRANCH   3   4
HETATM    4  C   UNL     1     -10.174   7.676  67.454  1.00  0.00    -0.251 C  
BRANCH   4   5
HETATM    5  O   UNL     1      -9.266   6.569  67.387  1.00  0.00    -0.121 OA 
BRANCH   5   6
HETATM    6  C   UNL     1      -9.840   5.388  67.717  1.00  0.00    -0.143 C  
HETATM    7  O   UNL     1     -11.019   5.122  67.548  1.00  0.00     0.114 OA 
BRANCH   6   8
HETATM    8  C   UNL     1      -8.872   4.466  68.368  1.00  0.00    -0.130 C  
HETATM    9  C   UNL     1      -8.430   3.321  67.788  1.00  0.00    -0.088 C  
HETATM   10  C   UNL     1      -8.890   2.657  66.509  1.00  0.00    -0.140 C  
HETATM   11  N   UNL     1      -7.401   2.624  68.383  1.00  0.00    -0.048 NA 
HETATM   12  C   UNL     1      -6.858   2.888  69.619  1.00  0.00    -0.034 C  
HETATM   13  C   UNL     1      -7.246   3.989  70.310  1.00  0.00    -0.042 C  
HETATM   14  C   UNL     1      -5.858   1.861  70.091  1.00  0.00    -0.018 C  
HETATM   15  C   UNL     1      -8.257   4.973  69.696  1.00  0.00    -0.088 C  
BRANCH  13  16
HETATM   16  C   UNL     1      -6.755   4.152  71.706  1.00  0.00    -0.030 C  
HETATM   17  O   UNL     1      -7.146   3.464  72.637  1.00  0.00    -0.041 OA 
BRANCH  16  18
HETATM   18  O   UNL     1      -5.854   5.161  71.837  1.00  0.00    -0.021 OA 
BRANCH  18  19
HETATM   19  C   UNL     1      -6.400   6.350  72.454  1.00  0.00    -0.054 C  
HETATM   20  C   UNL     1      -5.838   6.499  73.865  1.00  0.00    -0.059 C  
HETATM   21  C   UNL     1      -6.045   7.559  71.599  1.00  0.00    -0.036 C  
ENDBRANCH  18  19
ENDBRANCH  16  18
ENDBRANCH  13  16
BRANCH  15  22
HETATM   22  C   UNL     1      -9.364   5.356  70.686  1.00  0.00    -0.204 A  
HETATM   23  C   UNL     1     -10.074   4.353  71.372  1.00  0.00    -0.210 A  
HETATM   24  C   UNL     1      -9.677   6.701  70.939  1.00  0.00    -0.190 A  
HETATM   25  C   UNL     1     -11.078   4.680  72.287  1.00  0.00     0.077 A  
HETATM   26  O   UNL     1     -10.356   9.291  71.503  1.00  0.00    -0.336 OA 
HETATM   27  O   UNL     1     -11.899   8.680  72.937  1.00  0.00    -0.159 OA 
HETATM   28  C   UNL     1     -10.686   7.022  71.857  1.00  0.00    -0.217 A  
HETATM   29  N   UNL     1     -11.000   8.433  72.116  1.00  0.00    -0.317 N  
HETATM   30  C   UNL     1     -11.388   6.017  72.532  1.00  0.00    -0.344 A  
ENDBRANCH  15  22
ENDBRANCH   6   8
ENDBRANCH   5   6
ENDBRANCH   4   5
ENDBRANCH   3   4
ENDBRANCH   2   3
TORSDOF 9
ENDMDL
MODEL      224
REMARK 921   NORMALIZED FREE ENERGY PREDICTED BY IDOCK:   -2.35 KCAL/MOL
REMARK 922        TOTAL FREE ENERGY PREDICTED BY IDOCK:   -5.17 KCAL/MOL
REMARK 923 INTER-LIGAND FREE ENERGY PREDICTED BY IDOCK:   -6.04 KCAL/MOL
REMARK 924 INTRA-LIGAND FREE ENERGY PREDICTED BY IDOCK:    0.88 KCAL/MOL
REMARK 927      BINDING AFFINITY PREDICTED BY RF-SCORE:    0.00 PKD
ROOT
HETATM    1  C   UNL     1     -10.748  11.075  62.896  1.00  0.00     0.378 C  
HETATM    2  O   UNL     1     -11.699  11.263  63.933  1.00  0.00    -0.131 OA 
ENDROOT
BRANCH   2   3
HETATM    3  C   UNL     1     -12.575  12.354  63.645  1.00  0.00    -0.443 C  
BRANCH   3   4
HETATM    4  C   UNL     1     -11.736  13.613  63.605  1.00  0.00    -0.163 C  
BRANCH   4   5
HETATM    5  O   UNL     1     -10.436  13.447  64.184  1.00  0.00    -0.393 OA 
BRANCH   5   6
HETATM    6  C   UNL     1     -10.080  14.466  64.999  1.00  0.00    -0.286 C  
HETATM    7  O   UNL     1      -9.361  15.396  64.668  1.00  0.00     0.705 OA 
BRANCH   6   8
HETATM    8  C   UNL     1     -10.624  14.294  66.372  1.00  0.00    -0.286 C  
HETATM    9  C   UNL     1     -10.908  15.334  67.196  1.00  0.00    -0.322 C  
HETATM   10  C   UNL     1     -10.618  16.807  67.013  1.00  0.00    -0.234 C  
HETATM   11  N   UNL     1     -11.577  15.089  68.377  1.00  0.00    -0.323 NA 
HETATM   12  C   UNL     1     -11.861  13.849  68.898  1.00  0.00    -0.358 C  
HETATM   13  C   UNL     1     -11.592  12.731  68.179  1.00  0.00    -0.380 C  
HETATM   14  C   UNL     1     -12.454  13.879  70.286  1.00  0.00    -0.380 C  
HETATM   15  C   UNL     1     -11.013  12.844  66.758  1.00  0.00    -0.300 C  
BRANCH  13  16
HETATM   16  C   UNL     1     -11.767  11.409  68.841  1.00  0.00    -0.343 C  
HETATM   17  O   UNL     1     -12.778  10.733  68.727  1.00  0.00    -0.054 OA 
BRANCH  16  18
HETATM   18  O   UNL     1     -10.701  11.053  69.605  1.00  0.00    -0.224 OA 
BRANCH  18  19
HETATM   19  C   UNL     1     -10.699   9.656  69.983  1.00  0.00    -0.259 C  
HETATM   20  C   UNL     1      -9.280   9.102  69.887  1.00  0.00    -0.194 C  
HETATM   21  C   UNL     1     -11.237   9.527  71.402  1.00  0.00    -0.452 C  
ENDBRANCH  18  19
ENDBRANCH  16  18
ENDBRANCH  13  16
BRANCH  15  22
HETATM   22  C   UNL     1      -9.826  11.897  66.540  1.00  0.00    -0.225 A  
HETATM   23  C   UNL     1     -10.043  10.597  66.045  1.00  0.00    -0.308 A  
HETATM   24  C   UNL     1      -8.512  12.307  66.812  1.00  0.00    -0.119 A  
HETATM   25  C   UNL     1      -8.976   9.723  65.828  1.00  0.00    -0.195 A  
HETATM   26  O   UNL     1      -5.915  13.015  67.305  1.00  0.00    -0.319 OA 
HETATM   27  O   UNL     1      -5.156  11.059  66.669  1.00  0.00    -0.059 OA 
HETATM   28  C   UNL     1      -7.445  11.424  66.593  1.00  0.00    -0.110 A  
HETATM   29  N   UNL     1      -6.075  11.868  66.876  1.00  0.00    -0.151 N  
HETATM   30  C   UNL     1      -7.673  10.133  66.102  1.00  0.00    -0.113 A  
ENDBRANCH  15  22
ENDBRANCH   6   8
ENDBRANCH   5   6
ENDBRANCH   4   5
ENDBRANCH   3   4
ENDBRANCH   2   3
TORSDOF 9
ENDMDL
MODEL      225
REMARK 921   NORMALIZED FREE ENERGY PREDICTED BY IDOCK:   -2.32 KCAL/MOL
REMARK 922        TOTAL FREE ENERGY PREDICTED BY IDOCK:   -5.12 KCAL/MOL
REMARK 923 INTER-LIGAND FREE ENERGY PREDICTED BY IDOCK:   -5.35 KCAL/MOL
REMARK 924 INTRA-LIGAND FREE ENERGY PREDICTED BY IDOCK:    0.23 KCAL/MOL
REMARK 927      BINDING AFFINITY PREDICTED BY RF-SCORE:    0.00 PKD
ROOT
HETATM    1  C   UNL     1      -7.955  10.881  68.868  1.00  0.00    -0.146 C  
HETATM    2  O   UNL     1      -9.282  10.649  68.422  1.00  0.00    -0.146 OA 
ENDROOT
BRANCH   2   3
HETATM    3  C   UNL     1     -10.208  10.664  69.510  1.00  0.00    -0.158 C  
BRANCH   3   4
HETATM    4  C   UNL     1     -11.472  11.337  69.023  1.00  0.00    -0.302 C  
BRANCH   4   5
HETATM    5  O   UNL     1     -11.297  12.730  68.733  1.00  0.00    -0.249 OA 
BRANCH   5   6
HETATM    6  C   UNL     1     -11.309  13.511  69.838  1.00  0.00    -0.031 C  
HETATM    7  O   UNL     1     -11.827  13.199  70.898  1.00  0.00    -0.111 OA 
BRANCH   6   8
HETATM    8  C   UNL     1     -10.661  14.827  69.593  1.00  0.00    -0.207 C  
HETATM    9  C   UNL     1     -10.856  15.911  70.386  1.00  0.00    -0.313 C  
HETATM   10  C   UNL     1     -11.827  16.097  71.531  1.00  0.00    -0.528 C  
HETATM   11  N   UNL     1     -10.078  17.032  70.190  1.00  0.00     0.551 NA 
HETATM   12  C   UNL     1      -9.202  17.232  69.149  1.00  0.00    -0.014 C  
HETATM   13  C   UNL     1      -8.950  16.229  68.271  1.00  0.00    -0.192 C  
HETATM   14  C   UNL     1      -8.608  18.619  69.094  1.00  0.00     0.025 C  
HETATM   15  C   UNL     1      -9.603  14.849  68.461  1.00  0.00    -0.215 C  
BRANCH  13  16
HETATM   16  C   UNL     1      -8.122  16.536  67.072  1.00  0.00    -0.201 C  
HETATM   17  O   UNL     1      -8.483  17.298  66.188  1.00  0.00    -0.418 OA 
BRANCH  16  18
HETATM   18  O   UNL     1      -6.945  15.858  67.052  1.00  0.00    -0.205 OA 
BRANCH  18  19
HETATM   19  C   UNL     1      -6.069  16.182  68.158  1.00  0.00    -0.115 C  
HETATM   20  C   UNL     1      -5.172  14.987  68.468  1.00  0.00    -0.101 C  
HETATM   21  C   UNL     1      -5.238  17.403  67.789  1.00  0.00    -0.123 C  
ENDBRANCH  18  19
ENDBRANCH  16  18
ENDBRANCH  13  16
BRANCH  15  22
HETATM   22  C   UNL     1     -10.203  14.309  67.158  1.00  0.00    -0.254 A  
HETATM   23  C   UNL     1     -11.380  14.879  66.634  1.00  0.00    -0.326 A  
HETATM   24  C   UNL     1      -9.591  13.258  66.458  1.00  0.00    -0.267 A  
HETATM   25  C   UNL     1     -11.936  14.410  65.442  1.00  0.00    -0.369 A  
HETATM   26  O   UNL     1      -8.468  11.219  65.019  1.00  0.00     0.078 OA 
HETATM   27  O   UNL     1     -10.029  11.310  63.482  1.00  0.00    -0.300 OA 
HETATM   28  C   UNL     1     -10.156  12.792  65.263  1.00  0.00    -0.246 A  
HETATM   29  N   UNL     1      -9.501  11.695  64.538  1.00  0.00    -0.105 N  
HETATM   30  C   UNL     1     -11.326  13.363  64.752  1.00  0.00    -0.356 A  
ENDBRANCH  15  22
ENDBRANCH   6   8
ENDBRANCH   5   6
ENDBRANCH   4   5
ENDBRANCH   3   4
ENDBRANCH   2   3
TORSDOF 9
ENDMDL
MODEL      226
REMARK 921   NORMALIZED FREE ENERGY PREDICTED BY IDOCK:   -2.29 KCAL/MOL
REMARK 922        TOTAL FREE ENERGY PREDICTED BY IDOCK:   -5.07 KCAL/MOL
REMARK 923 INTER-LIGAND FREE ENERGY PREDICTED BY IDOCK:   -6.29 KCAL/MOL
REMARK 924 INTRA-LIGAND FREE ENERGY PREDICTED BY IDOCK:    1.22 KCAL/MOL
REMARK 927      BINDING AFFINITY PREDICTED BY RF-SCORE:    0.00 PKD
ROOT
HETATM    1  C   UNL     1      -8.587   5.580  68.313  1.00  0.00    -0.096 C  
HETATM    2  O   UNL     1      -8.747   5.397  69.711  1.00  0.00    -0.104 OA 
ENDROOT
BRANCH   2   3
HETATM    3  C   UNL     1      -8.123   6.449  70.449  1.00  0.00    -0.117 C  
BRANCH   3   4
HETATM    4  C   UNL     1      -7.626   7.472  69.451  1.00  0.00    -0.092 C  
BRANCH   4   5
HETATM    5  O   UNL     1      -8.603   8.468  69.125  1.00  0.00    -0.130 OA 
BRANCH   5   6
HETATM    6  C   UNL     1      -8.643   9.488  70.013  1.00  0.00    -0.215 C  
HETATM    7  O   UNL     1      -8.795   9.350  71.217  1.00  0.00    -0.287 OA 
BRANCH   6   8
HETATM    8  C   UNL     1      -8.538  10.811  69.343  1.00  0.00     0.017 C  
HETATM    9  C   UNL     1      -7.376  11.506  69.249  1.00  0.00    -0.009 C  
HETATM   10  C   UNL     1      -6.035  11.221  69.889  1.00  0.00    -0.117 C  
HETATM   11  N   UNL     1      -7.333  12.633  68.456  1.00  0.00    -0.112 NA 
HETATM   12  C   UNL     1      -8.412  13.234  67.851  1.00  0.00    -0.177 C  
HETATM   13  C   UNL     1      -9.634  12.647  67.904  1.00  0.00    -0.211 C  
HETATM   14  C   UNL     1      -8.097  14.549  67.180  1.00  0.00    -0.196 C  
HETATM   15  C   UNL     1      -9.811  11.285  68.598  1.00  0.00    -0.208 C  
BRANCH  13  16
HETATM   16  C   UNL     1     -10.802  13.405  67.376  1.00  0.00    -0.268 C  
HETATM   17  O   UNL     1     -11.220  14.432  67.890  1.00  0.00    -0.265 OA 
BRANCH  16  18
HETATM   18  O   UNL     1     -11.366  12.819  66.288  1.00  0.00    -0.291 OA 
BRANCH  18  19
HETATM   19  C   UNL     1     -11.560  13.726  65.176  1.00  0.00    -0.331 C  
HETATM   20  C   UNL     1     -12.995  14.245  65.183  1.00  0.00    -0.136 C  
HETATM   21  C   UNL     1     -10.567  14.874  65.295  1.00  0.00    -0.421 C  
ENDBRANCH  18  19
ENDBRANCH  16  18
ENDBRANCH  13  16
BRANCH  15  22
HETATM   22  C   UNL     1     -11.019  11.271  69.543  1.00  0.00    -0.249 A  
HETATM   23  C   UNL     1     -11.720  10.071  69.774  1.00  0.00    -0.144 A  
HETATM   24  C   UNL     1     -11.437  12.436  70.204  1.00  0.00    -0.018 A  
HETATM   25  C   UNL     1     -12.814  10.033  70.639  1.00  0.00    -0.263 A  
HETATM   26  O   UNL     1     -12.323  14.653  71.542  1.00  0.00    -0.320 OA 
HETATM   27  O   UNL     1     -13.938  13.538  72.521  1.00  0.00    -0.701 OA 
HETATM   28  C   UNL     1     -12.538  12.391  71.071  1.00  0.00    -0.254 A  
HETATM   29  N   UNL     1     -12.960  13.617  71.760  1.00  0.00    -0.354 N  
HETATM   30  C   UNL     1     -13.228  11.194  71.291  1.00  0.00    -0.216 A  
ENDBRANCH  15  22
ENDBRANCH   6   8
ENDBRANCH   5   6
ENDBRANCH   4   5
ENDBRANCH   3   4
ENDBRANCH   2   3
TORSDOF 9
ENDMDL
MODEL      227
REMARK 921   NORMALIZED FREE ENERGY PREDICTED BY IDOCK:   -2.16 KCAL/MOL
REMARK 922        TOTAL FREE ENERGY PREDICTED BY IDOCK:   -4.88 KCAL/MOL
REMARK 923 INTER-LIGAND FREE ENERGY PREDICTED BY IDOCK:   -3.89 KCAL/MOL
REMARK 924 INTRA-LIGAND FREE ENERGY PREDICTED BY IDOCK:   -0.99 KCAL/MOL
REMARK 927      BINDING AFFINITY PREDICTED BY RF-SCORE:    0.00 PKD
ROOT
HETATM    1  C   UNL     1     -10.408  11.620  66.547  1.00  0.00    -0.224 C  
HETATM    2  O   UNL     1      -9.795  11.865  65.290  1.00  0.00    -0.245 OA 
ENDROOT
BRANCH   2   3
HETATM    3  C   UNL     1     -10.045  10.798  64.373  1.00  0.00    -0.353 C  
BRANCH   3   4
HETATM    4  C   UNL     1      -9.608   9.512  65.040  1.00  0.00    -0.148 C  
BRANCH   4   5
HETATM    5  O   UNL     1      -8.504   8.879  64.382  1.00  0.00    -0.172 OA 
BRANCH   5   6
HETATM    6  C   UNL     1      -7.668   8.242  65.235  1.00  0.00    -0.106 C  
HETATM    7  O   UNL     1      -7.372   7.059  65.157  1.00  0.00    -0.073 OA 
BRANCH   6   8
HETATM    8  C   UNL     1      -7.193   9.140  66.320  1.00  0.00    -0.091 C  
HETATM    9  C   UNL     1      -6.411  10.226  66.097  1.00  0.00    -0.094 C  
HETATM   10  C   UNL     1      -5.739  10.676  64.818  1.00  0.00    -0.066 C  
HETATM   11  N   UNL     1      -6.169  11.102  67.134  1.00  0.00    -0.073 NA 
HETATM   12  C   UNL     1      -6.521  10.907  68.450  1.00  0.00    -0.057 C  
HETATM   13  C   UNL     1      -7.277   9.838  68.800  1.00  0.00    -0.072 C  
HETATM   14  C   UNL     1      -5.983  11.952  69.398  1.00  0.00    -0.084 C  
HETATM   15  C   UNL     1      -7.786   8.862  67.724  1.00  0.00    -0.101 C  
BRANCH  13  16
HETATM   16  C   UNL     1      -7.501   9.579  70.248  1.00  0.00    -0.143 C  
HETATM   17  O   UNL     1      -6.686   9.009  70.960  1.00  0.00    -0.071 OA 
BRANCH  16  18
HETATM   18  O   UNL     1      -8.712  10.013  70.685  1.00  0.00     0.003 OA 
BRANCH  18  19
HETATM   19  C   UNL     1      -9.723   8.977  70.717  1.00  0.00    -0.246 C  
HETATM   20  C   UNL     1      -9.578   8.160  71.998  1.00  0.00    -0.284 C  
HETATM   21  C   UNL     1     -11.098   9.626  70.640  1.00  0.00    -0.384 C  
ENDBRANCH  18  19
ENDBRANCH  16  18
ENDBRANCH  13  16
BRANCH  15  22
HETATM   22  C   UNL     1      -7.560   7.397  68.119  1.00  0.00    -0.114 A  
HETATM   23  C   UNL     1      -6.261   6.853  68.094  1.00  0.00    -0.034 A  
HETATM   24  C   UNL     1      -8.628   6.582  68.525  1.00  0.00    -0.123 A  
HETATM   25  C   UNL     1      -6.031   5.525  68.461  1.00  0.00    -0.021 A  
HETATM   26  O   UNL     1     -10.642   4.917  69.336  1.00  0.00    -0.086 OA 
HETATM   27  O   UNL     1      -9.267   3.236  69.638  1.00  0.00    -0.123 OA 
HETATM   28  C   UNL     1      -8.390   5.250  68.891  1.00  0.00    -0.092 A  
HETATM   29  N   UNL     1      -9.516   4.411  69.320  1.00  0.00    -0.164 N  
HETATM   30  C   UNL     1      -7.096   4.718  68.860  1.00  0.00    -0.053 A  
ENDBRANCH  15  22
ENDBRANCH   6   8
ENDBRANCH   5   6
ENDBRANCH   4   5
ENDBRANCH   3   4
ENDBRANCH   2   3
TORSDOF 9
ENDMDL
MODEL      228
REMARK 921   NORMALIZED FREE ENERGY PREDICTED BY IDOCK:   -2.08 KCAL/MOL
REMARK 922        TOTAL FREE ENERGY PREDICTED BY IDOCK:   -4.75 KCAL/MOL
REMARK 923 INTER-LIGAND FREE ENERGY PREDICTED BY IDOCK:   -3.53 KCAL/MOL
REMARK 924 INTRA-LIGAND FREE ENERGY PREDICTED BY IDOCK:   -1.22 KCAL/MOL
REMARK 927      BINDING AFFINITY PREDICTED BY RF-SCORE:    0.00 PKD
ROOT
HETATM    1  C   UNL     1      -6.475  10.621  65.197  1.00  0.00     0.019 C  
HETATM    2  O   UNL     1      -7.330  10.913  66.292  1.00  0.00    -0.138 OA 
ENDROOT
BRANCH   2   3
HETATM    3  C   UNL     1      -8.616  10.314  66.124  1.00  0.00    -0.139 C  
BRANCH   3   4
HETATM    4  C   UNL     1      -9.422  10.606  67.371  1.00  0.00    -0.154 C  
BRANCH   4   5
HETATM    5  O   UNL     1      -9.073   9.768  68.480  1.00  0.00    -0.126 OA 
BRANCH   5   6
HETATM    6  C   UNL     1      -9.564   8.511  68.375  1.00  0.00    -0.147 C  
HETATM    7  O   UNL     1     -10.748   8.242  68.244  1.00  0.00    -0.142 OA 
BRANCH   6   8
HETATM    8  C   UNL     1      -8.495   7.486  68.497  1.00  0.00    -0.129 C  
HETATM    9  C   UNL     1      -8.098   6.699  67.464  1.00  0.00    -0.118 C  
HETATM   10  C   UNL     1      -8.699   6.556  66.084  1.00  0.00    -0.153 C  
HETATM   11  N   UNL     1      -6.980   5.907  67.619  1.00  0.00    -0.067 NA 
HETATM   12  C   UNL     1      -6.291   5.706  68.792  1.00  0.00    -0.038 C  
HETATM   13  C   UNL     1      -6.618   6.413  69.901  1.00  0.00    -0.048 C  
HETATM   14  C   UNL     1      -5.209   4.658  68.705  1.00  0.00    -0.004 C  
HETATM   15  C   UNL     1      -7.729   7.478  69.844  1.00  0.00    -0.098 C  
BRANCH  13  16
HETATM   16  C   UNL     1      -5.957   6.054  71.185  1.00  0.00    -0.030 C  
HETATM   17  O   UNL     1      -5.370   6.865  71.886  1.00  0.00    -0.034 OA 
BRANCH  16  18
HETATM   18  O   UNL     1      -6.049   4.730  71.478  1.00  0.00    -0.016 OA 
BRANCH  18  19
HETATM   19  C   UNL     1      -5.870   4.432  72.882  1.00  0.00    -0.012 C  
HETATM   20  C   UNL     1      -7.172   4.696  73.632  1.00  0.00    -0.073 C  
HETATM   21  C   UNL     1      -5.445   2.977  73.029  1.00  0.00     0.000 C  
ENDBRANCH  18  19
ENDBRANCH  16  18
ENDBRANCH  13  16
BRANCH  15  22
HETATM   22  C   UNL     1      -8.710   7.354  71.016  1.00  0.00    -0.139 A  
HETATM   23  C   UNL     1      -9.042   8.489  71.780  1.00  0.00    -0.304 A  
HETATM   24  C   UNL     1      -9.304   6.124  71.337  1.00  0.00    -0.163 A  
HETATM   25  C   UNL     1      -9.942   8.401  72.844  1.00  0.00    -0.209 A  
HETATM   26  O   UNL     1     -10.518   3.773  72.037  1.00  0.00    -0.072 OA 
HETATM   27  O   UNL     1     -11.620   4.716  73.682  1.00  0.00    -0.225 OA 
HETATM   28  C   UNL     1     -10.206   6.042  72.407  1.00  0.00    -0.189 A  
HETATM   29  N   UNL     1     -10.825   4.750  72.729  1.00  0.00    -0.219 N  
HETATM   30  C   UNL     1     -10.527   7.176  73.162  1.00  0.00    -0.361 A  
ENDBRANCH  15  22
ENDBRANCH   6   8
ENDBRANCH   5   6
ENDBRANCH   4   5
ENDBRANCH   3   4
ENDBRANCH   2   3
TORSDOF 9
ENDMDL
MODEL      229
REMARK 921   NORMALIZED FREE ENERGY PREDICTED BY IDOCK:   -2.05 KCAL/MOL
REMARK 922        TOTAL FREE ENERGY PREDICTED BY IDOCK:   -4.70 KCAL/MOL
REMARK 923 INTER-LIGAND FREE ENERGY PREDICTED BY IDOCK:   -4.89 KCAL/MOL
REMARK 924 INTRA-LIGAND FREE ENERGY PREDICTED BY IDOCK:    0.20 KCAL/MOL
REMARK 927      BINDING AFFINITY PREDICTED BY RF-SCORE:    0.00 PKD
ROOT
HETATM    1  C   UNL     1     -11.280   9.335  71.323  1.00  0.00    -0.355 C  
HETATM    2  O   UNL     1     -10.000   9.694  70.826  1.00  0.00    -0.270 OA 
ENDROOT
BRANCH   2   3
HETATM    3  C   UNL     1     -10.075  10.153  69.476  1.00  0.00    -0.235 C  
BRANCH   3   4
HETATM    4  C   UNL     1      -8.740  10.775  69.131  1.00  0.00    -0.091 C  
BRANCH   4   5
HETATM    5  O   UNL     1      -8.252  10.391  67.839  1.00  0.00    -0.106 OA 
BRANCH   5   6
HETATM    6  C   UNL     1      -9.226  10.313  66.902  1.00  0.00    -0.150 C  
HETATM    7  O   UNL     1     -10.299  10.892  66.972  1.00  0.00    -0.211 OA 
BRANCH   6   8
HETATM    8  C   UNL     1      -8.860   9.388  65.798  1.00  0.00    -0.204 C  
HETATM    9  C   UNL     1      -8.958   9.721  64.485  1.00  0.00    -0.238 C  
HETATM   10  C   UNL     1      -9.568  10.953  63.853  1.00  0.00    -0.326 C  
HETATM   11  N   UNL     1      -8.427   8.872  63.538  1.00  0.00    -0.174 NA 
HETATM   12  C   UNL     1      -7.928   7.612  63.775  1.00  0.00    -0.090 C  
HETATM   13  C   UNL     1      -7.811   7.156  65.047  1.00  0.00    -0.125 C  
HETATM   14  C   UNL     1      -7.566   6.842  62.529  1.00  0.00    -0.093 C  
HETATM   15  C   UNL     1      -8.191   8.061  66.233  1.00  0.00    -0.116 C  
BRANCH  13  16
HETATM   16  C   UNL     1      -7.418   5.735  65.252  1.00  0.00    -0.078 C  
HETATM   17  O   UNL     1      -8.228   4.833  65.403  1.00  0.00    -0.112 OA 
BRANCH  16  18
HETATM   18  O   UNL     1      -6.071   5.556  65.282  1.00  0.00    -0.025 OA 
BRANCH  18  19
HETATM   19  C   UNL     1      -5.645   4.515  66.192  1.00  0.00    -0.017 C  
HETATM   20  C   UNL     1      -6.331   4.702  67.542  1.00  0.00    -0.041 C  
HETATM   21  C   UNL     1      -5.992   3.160  65.590  1.00  0.00    -0.019 C  
ENDBRANCH  18  19
ENDBRANCH  16  18
ENDBRANCH  13  16
BRANCH  15  22
HETATM   22  C   UNL     1      -9.067   7.332  67.259  1.00  0.00    -0.133 A  
HETATM   23  C   UNL     1     -10.414   7.049  66.961  1.00  0.00    -0.386 A  
HETATM   24  C   UNL     1      -8.547   6.921  68.496  1.00  0.00    -0.123 A  
HETATM   25  C   UNL     1     -11.227   6.375  67.875  1.00  0.00    -0.262 A  
HETATM   26  O   UNL     1      -7.624   6.075  70.929  1.00  0.00    -0.092 OA 
HETATM   27  O   UNL     1      -9.567   5.221  71.481  1.00  0.00    -0.147 OA 
HETATM   28  C   UNL     1      -9.369   6.246  69.410  1.00  0.00    -0.140 A  
HETATM   29  N   UNL     1      -8.810   5.817  70.698  1.00  0.00    -0.138 N  
HETATM   30  C   UNL     1     -10.706   5.972  69.104  1.00  0.00    -0.399 A  
ENDBRANCH  15  22
ENDBRANCH   6   8
ENDBRANCH   5   6
ENDBRANCH   4   5
ENDBRANCH   3   4
ENDBRANCH   2   3
TORSDOF 9
ENDMDL
MODEL      230
REMARK 921   NORMALIZED FREE ENERGY PREDICTED BY IDOCK:   -1.93 KCAL/MOL
REMARK 922        TOTAL FREE ENERGY PREDICTED BY IDOCK:   -4.52 KCAL/MOL
REMARK 923 INTER-LIGAND FREE ENERGY PREDICTED BY IDOCK:   -4.70 KCAL/MOL
REMARK 924 INTRA-LIGAND FREE ENERGY PREDICTED BY IDOCK:    0.18 KCAL/MOL
REMARK 927      BINDING AFFINITY PREDICTED BY RF-SCORE:    0.00 PKD
ROOT
HETATM    1  C   UNL     1      -5.392   9.276  68.389  1.00  0.00    -0.037 C  
HETATM    2  O   UNL     1      -6.078  10.005  69.396  1.00  0.00    -0.040 OA 
ENDROOT
BRANCH   2   3
HETATM    3  C   UNL     1      -7.457   9.637  69.457  1.00  0.00    -0.096 C  
BRANCH   3   4
HETATM    4  C   UNL     1      -8.238  10.669  68.673  1.00  0.00    -0.135 C  
BRANCH   4   5
HETATM    5  O   UNL     1      -7.597  11.950  68.625  1.00  0.00    -0.122 OA 
BRANCH   5   6
HETATM    6  C   UNL     1      -7.796  12.603  67.456  1.00  0.00    -0.175 C  
HETATM    7  O   UNL     1      -8.250  12.088  66.446  1.00  0.00    -0.053 OA 
BRANCH   6   8
HETATM    8  C   UNL     1      -7.343  14.017  67.528  1.00  0.00    -0.187 C  
HETATM    9  C   UNL     1      -6.162  14.393  68.081  1.00  0.00    -0.139 C  
HETATM   10  C   UNL     1      -5.159  13.563  68.852  1.00  0.00    -0.067 C  
HETATM   11  N   UNL     1      -5.743  15.699  67.941  1.00  0.00    -0.131 NA 
HETATM   12  C   UNL     1      -6.485  16.731  67.417  1.00  0.00    -0.162 C  
HETATM   13  C   UNL     1      -7.698  16.482  66.862  1.00  0.00    -0.266 C  
HETATM   14  C   UNL     1      -5.837  18.088  67.540  1.00  0.00    -0.154 C  
HETATM   15  C   UNL     1      -8.229  15.041  66.774  1.00  0.00    -0.124 C  
BRANCH  13  16
HETATM   16  C   UNL     1      -8.534  17.643  66.451  1.00  0.00    -0.246 C  
HETATM   17  O   UNL     1      -9.024  17.752  65.337  1.00  0.00     0.164 OA 
BRANCH  16  18
HETATM   18  O   UNL     1      -8.668  18.574  67.431  1.00  0.00    -0.258 OA 
BRANCH  18  19
HETATM   19  C   UNL     1      -9.973  19.200  67.462  1.00  0.00    -0.351 C  
HETATM   20  C   UNL     1     -10.864  18.579  66.390  1.00  0.00    -0.080 C  
HETATM   21  C   UNL     1     -10.579  19.012  68.847  1.00  0.00     0.281 C  
ENDBRANCH  18  19
ENDBRANCH  16  18
ENDBRANCH  13  16
BRANCH  15  22
HETATM   22  C   UNL     1      -9.686  14.932  67.241  1.00  0.00    -0.228 A  
HETATM   23  C   UNL     1     -10.698  14.592  66.323  1.00  0.00    -0.309 A  
HETATM   24  C   UNL     1     -10.035  15.151  68.583  1.00  0.00    -0.220 A  
HETATM   25  C   UNL     1     -12.028  14.475  66.730  1.00  0.00    -0.364 A  
HETATM   26  O   UNL     1     -10.814  15.552  71.176  1.00  0.00    -0.304 OA 
HETATM   27  O   UNL     1     -12.918  15.146  70.711  1.00  0.00    -0.393 OA 
HETATM   28  C   UNL     1     -11.373  15.034  68.984  1.00  0.00    -0.290 A  
HETATM   29  N   UNL     1     -11.724  15.259  70.392  1.00  0.00    -0.283 N  
HETATM   30  C   UNL     1     -12.371  14.697  68.063  1.00  0.00     0.074 A  
ENDBRANCH  15  22
ENDBRANCH   6   8
ENDBRANCH   5   6
ENDBRANCH   4   5
ENDBRANCH   3   4
ENDBRANCH   2   3
TORSDOF 9
ENDMDL
MODEL      231
REMARK 921   NORMALIZED FREE ENERGY PREDICTED BY IDOCK:   -1.91 KCAL/MOL
REMARK 922        TOTAL FREE ENERGY PREDICTED BY IDOCK:   -4.49 KCAL/MOL
REMARK 923 INTER-LIGAND FREE ENERGY PREDICTED BY IDOCK:   -4.99 KCAL/MOL
REMARK 924 INTRA-LIGAND FREE ENERGY PREDICTED BY IDOCK:    0.50 KCAL/MOL
REMARK 927      BINDING AFFINITY PREDICTED BY RF-SCORE:    0.00 PKD
ROOT
HETATM    1  C   UNL     1     -10.883   5.398  71.953  1.00  0.00    -0.186 C  
HETATM    2  O   UNL     1     -11.201   6.358  70.956  1.00  0.00    -0.282 OA 
ENDROOT
BRANCH   2   3
HETATM    3  C   UNL     1     -10.162   6.460  69.981  1.00  0.00    -0.180 C  
BRANCH   3   4
HETATM    4  C   UNL     1     -10.748   7.135  68.760  1.00  0.00    -0.169 C  
BRANCH   4   5
HETATM    5  O   UNL     1     -10.551   8.554  68.747  1.00  0.00    -0.208 OA 
BRANCH   5   6
HETATM    6  C   UNL     1     -10.275   9.043  67.515  1.00  0.00    -0.241 C  
HETATM    7  O   UNL     1     -10.885   8.744  66.501  1.00  0.00     0.010 OA 
BRANCH   6   8
HETATM    8  C   UNL     1      -9.097   9.950  67.531  1.00  0.00    -0.145 C  
HETATM    9  C   UNL     1      -7.823   9.512  67.703  1.00  0.00    -0.102 C  
HETATM   10  C   UNL     1      -7.326   8.128  68.056  1.00  0.00    -0.096 C  
HETATM   11  N   UNL     1      -6.782  10.398  67.522  1.00  0.00    -0.070 NA 
HETATM   12  C   UNL     1      -6.902  11.754  67.331  1.00  0.00    -0.122 C  
HETATM   13  C   UNL     1      -8.129  12.312  67.178  1.00  0.00    -0.173 C  
HETATM   14  C   UNL     1      -5.590  12.501  67.330  1.00  0.00    -0.112 C  
HETATM   15  C   UNL     1      -9.388  11.428  67.170  1.00  0.00    -0.180 C  
BRANCH  13  16
HETATM   16  C   UNL     1      -8.225  13.797  67.133  1.00  0.00    -0.108 C  
HETATM   17  O   UNL     1      -8.823  14.402  66.256  1.00  0.00    -0.099 OA 
BRANCH  16  18
HETATM   18  O   UNL     1      -7.555  14.404  68.148  1.00  0.00    -0.107 OA 
BRANCH  18  19
HETATM   19  C   UNL     1      -8.284  15.497  68.753  1.00  0.00    -0.177 C  
HETATM   20  C   UNL     1      -9.161  14.964  69.884  1.00  0.00     0.330 C  
HETATM   21  C   UNL     1      -7.290  16.526  69.276  1.00  0.00    -0.201 C  
ENDBRANCH  18  19
ENDBRANCH  16  18
ENDBRANCH  13  16
BRANCH  15  22
HETATM   22  C   UNL     1     -10.495  11.990  68.070  1.00  0.00    -0.224 A  
HETATM   23  C   UNL     1     -11.134  13.199  67.731  1.00  0.00    -0.287 A  
HETATM   24  C   UNL     1     -10.903  11.311  69.228  1.00  0.00    -0.259 A  
HETATM   25  C   UNL     1     -12.152  13.722  68.530  1.00  0.00    -0.327 A  
HETATM   26  O   UNL     1     -11.771  10.058  71.501  1.00  0.00    -0.365 OA 
HETATM   27  O   UNL     1     -13.256  11.618  71.914  1.00  0.00    -0.485 OA 
HETATM   28  C   UNL     1     -11.925  11.842  70.026  1.00  0.00    -0.332 A  
HETATM   29  N   UNL     1     -12.346  11.118  71.232  1.00  0.00    -0.331 N  
HETATM   30  C   UNL     1     -12.551  13.045  69.682  1.00  0.00     0.240 A  
ENDBRANCH  15  22
ENDBRANCH   6   8
ENDBRANCH   5   6
ENDBRANCH   4   5
ENDBRANCH   3   4
ENDBRANCH   2   3
TORSDOF 9
ENDMDL
MODEL      232
REMARK 921   NORMALIZED FREE ENERGY PREDICTED BY IDOCK:   -1.91 KCAL/MOL
REMARK 922        TOTAL FREE ENERGY PREDICTED BY IDOCK:   -4.49 KCAL/MOL
REMARK 923 INTER-LIGAND FREE ENERGY PREDICTED BY IDOCK:   -3.53 KCAL/MOL
REMARK 924 INTRA-LIGAND FREE ENERGY PREDICTED BY IDOCK:   -0.96 KCAL/MOL
REMARK 927      BINDING AFFINITY PREDICTED BY RF-SCORE:    0.00 PKD
ROOT
HETATM    1  C   UNL     1      -6.741  12.592  69.471  1.00  0.00     0.019 C  
HETATM    2  O   UNL     1      -6.679  12.698  68.057  1.00  0.00    -0.073 OA 
ENDROOT
BRANCH   2   3
HETATM    3  C   UNL     1      -7.922  13.144  67.513  1.00  0.00    -0.179 C  
BRANCH   3   4
HETATM    4  C   UNL     1      -8.410  12.078  66.557  1.00  0.00    -0.024 C  
BRANCH   4   5
HETATM    5  O   UNL     1      -9.521  11.327  67.064  1.00  0.00    -0.169 OA 
BRANCH   5   6
HETATM    6  C   UNL     1      -9.503  10.027  66.688  1.00  0.00    -0.171 C  
HETATM    7  O   UNL     1     -10.278   9.529  65.887  1.00  0.00    -0.266 OA 
BRANCH   6   8
HETATM    8  C   UNL     1      -8.457   9.256  67.411  1.00  0.00    -0.122 C  
HETATM    9  C   UNL     1      -7.447   8.602  66.783  1.00  0.00    -0.086 C  
HETATM   10  C   UNL     1      -7.231   8.369  65.305  1.00  0.00    -0.082 C  
HETATM   11  N   UNL     1      -6.425   8.068  67.539  1.00  0.00    -0.055 NA 
HETATM   12  C   UNL     1      -6.393   7.991  68.911  1.00  0.00    -0.040 C  
HETATM   13  C   UNL     1      -7.368   8.581  69.648  1.00  0.00    -0.060 C  
HETATM   14  C   UNL     1      -5.228   7.206  69.463  1.00  0.00    -0.015 C  
HETATM   15  C   UNL     1      -8.487   9.379  68.956  1.00  0.00    -0.129 C  
BRANCH  13  16
HETATM   16  C   UNL     1      -7.383   8.339  71.116  1.00  0.00    -0.070 C  
HETATM   17  O   UNL     1      -6.708   8.983  71.907  1.00  0.00    -0.229 OA 
BRANCH  16  18
HETATM   18  O   UNL     1      -8.199   7.315  71.478  1.00  0.00    -0.104 OA 
BRANCH  18  19
HETATM   19  C   UNL     1      -7.550   6.021  71.458  1.00  0.00    -0.099 C  
HETATM   20  C   UNL     1      -6.864   5.772  72.798  1.00  0.00    -0.075 C  
HETATM   21  C   UNL     1      -8.593   4.949  71.175  1.00  0.00    -0.131 C  
ENDBRANCH  18  19
ENDBRANCH  16  18
ENDBRANCH  13  16
BRANCH  15  22
HETATM   22  C   UNL     1      -9.875   9.014  69.494  1.00  0.00    -0.181 A  
HETATM   23  C   UNL     1     -10.312   7.676  69.468  1.00  0.00    -0.217 A  
HETATM   24  C   UNL     1     -10.724   9.992  70.034  1.00  0.00    -0.348 A  
HETATM   25  C   UNL     1     -11.568   7.319  69.965  1.00  0.00    -0.088 A  
HETATM   26  O   UNL     1     -12.447  11.826  71.112  1.00  0.00    -0.358 OA 
HETATM   27  O   UNL     1     -13.967  10.301  71.528  1.00  0.00     0.068 OA 
HETATM   28  C   UNL     1     -11.984   9.628  70.530  1.00  0.00    -0.172 A  
HETATM   29  N   UNL     1     -12.859  10.661  71.098  1.00  0.00    -0.393 N  
HETATM   30  C   UNL     1     -12.409   8.296  70.497  1.00  0.00     0.321 A  
ENDBRANCH  15  22
ENDBRANCH   6   8
ENDBRANCH   5   6
ENDBRANCH   4   5
ENDBRANCH   3   4
ENDBRANCH   2   3
TORSDOF 9
ENDMDL
MODEL      233
REMARK 921   NORMALIZED FREE ENERGY PREDICTED BY IDOCK:   -1.85 KCAL/MOL
REMARK 922        TOTAL FREE ENERGY PREDICTED BY IDOCK:   -4.40 KCAL/MOL
REMARK 923 INTER-LIGAND FREE ENERGY PREDICTED BY IDOCK:   -5.27 KCAL/MOL
REMARK 924 INTRA-LIGAND FREE ENERGY PREDICTED BY IDOCK:    0.87 KCAL/MOL
REMARK 927      BINDING AFFINITY PREDICTED BY RF-SCORE:    0.00 PKD
ROOT
HETATM    1  C   UNL     1     -10.072   4.598  66.009  1.00  0.00    -0.264 C  
HETATM    2  O   UNL     1      -9.854   5.548  67.041  1.00  0.00    -0.133 OA 
ENDROOT
BRANCH   2   3
HETATM    3  C   UNL     1     -11.089   6.043  67.562  1.00  0.00    -0.121 C  
BRANCH   3   4
HETATM    4  C   UNL     1     -10.814   6.580  68.950  1.00  0.00    -0.301 C  
BRANCH   4   5
HETATM    5  O   UNL     1     -10.783   8.011  69.008  1.00  0.00    -0.190 OA 
BRANCH   5   6
HETATM    6  C   UNL     1      -9.632   8.500  69.526  1.00  0.00    -0.170 C  
HETATM    7  O   UNL     1      -9.531   8.993  70.639  1.00  0.00    -0.196 OA 
BRANCH   6   8
HETATM    8  C   UNL     1      -8.509   8.418  68.556  1.00  0.00    -0.132 C  
HETATM    9  C   UNL     1      -7.354   7.752  68.810  1.00  0.00    -0.087 C  
HETATM   10  C   UNL     1      -6.880   7.114  70.097  1.00  0.00    -0.060 C  
HETATM   11  N   UNL     1      -6.445   7.576  67.788  1.00  0.00    -0.052 NA 
HETATM   12  C   UNL     1      -6.515   8.150  66.541  1.00  0.00    -0.055 C  
HETATM   13  C   UNL     1      -7.609   8.867  66.183  1.00  0.00    -0.091 C  
HETATM   14  C   UNL     1      -5.297   7.917  65.680  1.00  0.00    -0.029 C  
HETATM   15  C   UNL     1      -8.798   9.002  67.150  1.00  0.00    -0.130 C  
BRANCH  13  16
HETATM   16  C   UNL     1      -7.576   9.601  64.888  1.00  0.00    -0.117 C  
HETATM   17  O   UNL     1      -6.685  10.380  64.584  1.00  0.00    -0.109 OA 
BRANCH  16  18
HETATM   18  O   UNL     1      -8.652   9.338  64.101  1.00  0.00    -0.184 OA 
BRANCH  18  19
HETATM   19  C   UNL     1      -8.562   9.924  62.781  1.00  0.00    -0.189 C  
HETATM   20  C   UNL     1      -9.741  10.868  62.559  1.00  0.00    -0.171 C  
HETATM   21  C   UNL     1      -7.240  10.669  62.659  1.00  0.00    -0.069 C  
ENDBRANCH  18  19
ENDBRANCH  16  18
ENDBRANCH  13  16
BRANCH  15  22
HETATM   22  C   UNL     1      -9.289  10.450  67.264  1.00  0.00    -0.164 A  
HETATM   23  C   UNL     1      -8.700  11.323  68.199  1.00  0.00    -0.155 A  
HETATM   24  C   UNL     1     -10.313  10.936  66.437  1.00  0.00    -0.306 A  
HETATM   25  C   UNL     1      -9.123  12.649  68.311  1.00  0.00    -0.181 A  
HETATM   26  O   UNL     1     -12.296  11.978  64.864  1.00  0.00    -0.367 OA 
HETATM   27  O   UNL     1     -12.147  13.951  65.810  1.00  0.00    -0.378 OA 
HETATM   28  C   UNL     1     -10.733  12.268  66.555  1.00  0.00    -0.246 A  
HETATM   29  N   UNL     1     -11.801  12.765  65.678  1.00  0.00    -0.402 N  
HETATM   30  C   UNL     1     -10.143  13.126  67.489  1.00  0.00    -0.222 A  
ENDBRANCH  15  22
ENDBRANCH   6   8
ENDBRANCH   5   6
ENDBRANCH   4   5
ENDBRANCH   3   4
ENDBRANCH   2   3
TORSDOF 9
ENDMDL
MODEL      234
REMARK 921   NORMALIZED FREE ENERGY PREDICTED BY IDOCK:   -1.83 KCAL/MOL
REMARK 922        TOTAL FREE ENERGY PREDICTED BY IDOCK:   -4.38 KCAL/MOL
REMARK 923 INTER-LIGAND FREE ENERGY PREDICTED BY IDOCK:   -2.60 KCAL/MOL
REMARK 924 INTRA-LIGAND FREE ENERGY PREDICTED BY IDOCK:   -1.78 KCAL/MOL
REMARK 927      BINDING AFFINITY PREDICTED BY RF-SCORE:    0.00 PKD
ROOT
HETATM    1  C   UNL     1     -10.520  20.420  70.035  1.00  0.00     0.822 C  
HETATM    2  O   UNL     1      -9.435  19.763  69.400  1.00  0.00    -0.216 OA 
ENDROOT
BRANCH   2   3
HETATM    3  C   UNL     1      -9.683  19.577  68.005  1.00  0.00    -0.376 C  
BRANCH   3   4
HETATM    4  C   UNL     1      -9.277  18.162  67.655  1.00  0.00    -0.259 C  
BRANCH   4   5
HETATM    5  O   UNL     1     -10.134  17.550  66.683  1.00  0.00    -0.301 OA 
BRANCH   5   6
HETATM    6  C   UNL     1      -9.525  16.570  65.976  1.00  0.00    -0.282 C  
HETATM    7  O   UNL     1      -8.366  16.612  65.594  1.00  0.00    -0.280 OA 
BRANCH   6   8
HETATM    8  C   UNL     1     -10.454  15.451  65.666  1.00  0.00    -0.391 C  
HETATM    9  C   UNL     1     -11.337  15.482  64.636  1.00  0.00    -0.357 C  
HETATM   10  C   UNL     1     -11.693  16.627  63.714  1.00  0.00     2.058 C  
HETATM   11  N   UNL     1     -12.029  14.333  64.313  1.00  0.00    -0.446 NA 
HETATM   12  C   UNL     1     -12.033  13.166  65.040  1.00  0.00    -0.383 C  
HETATM   13  C   UNL     1     -11.213  13.029  66.112  1.00  0.00    -0.320 C  
HETATM   14  C   UNL     1     -13.010  12.128  64.543  1.00  0.00     0.027 C  
HETATM   15  C   UNL     1     -10.241  14.159  66.493  1.00  0.00    -0.278 C  
BRANCH  13  16
HETATM   16  C   UNL     1     -11.363  11.816  66.961  1.00  0.00    -0.321 C  
HETATM   17  O   UNL     1     -12.248  11.689  67.795  1.00  0.00    -0.560 OA 
BRANCH  16  18
HETATM   18  O   UNL     1     -10.399  10.886  66.734  1.00  0.00    -0.222 OA 
BRANCH  18  19
HETATM   19  C   UNL     1      -9.866  10.295  67.942  1.00  0.00    -0.157 C  
HETATM   20  C   UNL     1      -9.832   8.776  67.797  1.00  0.00    -0.217 C  
HETATM   21  C   UNL     1      -8.469  10.848  68.189  1.00  0.00    -0.131 C  
ENDBRANCH  18  19
ENDBRANCH  16  18
ENDBRANCH  13  16
BRANCH  15  22
HETATM   22  C   UNL     1     -10.279  14.472  67.994  1.00  0.00    -0.233 A  
HETATM   23  C   UNL     1      -9.106  14.369  68.766  1.00  0.00    -0.133 A  
HETATM   24  C   UNL     1     -11.467  14.881  68.619  1.00  0.00    -0.326 A  
HETATM   25  C   UNL     1      -9.117  14.662  70.131  1.00  0.00     0.993 A  
HETATM   26  O   UNL     1     -13.731  15.691  69.926  1.00  0.00     0.524 OA 
HETATM   27  O   UNL     1     -12.684  15.855  71.846  1.00  0.00    -0.445 OA 
HETATM   28  C   UNL     1     -11.471  15.172  69.990  1.00  0.00    -0.286 A  
HETATM   29  N   UNL     1     -12.720  15.604  70.630  1.00  0.00    -0.446 N  
HETATM   30  C   UNL     1     -10.300  15.064  70.749  1.00  0.00     0.344 A  
ENDBRANCH  15  22
ENDBRANCH   6   8
ENDBRANCH   5   6
ENDBRANCH   4   5
ENDBRANCH   3   4
ENDBRANCH   2   3
TORSDOF 9
ENDMDL
MODEL      235
REMARK 921   NORMALIZED FREE ENERGY PREDICTED BY IDOCK:   -1.78 KCAL/MOL
REMARK 922        TOTAL FREE ENERGY PREDICTED BY IDOCK:   -4.29 KCAL/MOL
REMARK 923 INTER-LIGAND FREE ENERGY PREDICTED BY IDOCK:   -5.83 KCAL/MOL
REMARK 924 INTRA-LIGAND FREE ENERGY PREDICTED BY IDOCK:    1.54 KCAL/MOL
REMARK 927      BINDING AFFINITY PREDICTED BY RF-SCORE:    0.00 PKD
ROOT
HETATM    1  C   UNL     1     -11.480   9.401  71.352  1.00  0.00    -0.379 C  
HETATM    2  O   UNL     1     -10.520   9.240  70.318  1.00  0.00    -0.198 OA 
ENDROOT
BRANCH   2   3
HETATM    3  C   UNL     1     -10.817  10.075  69.198  1.00  0.00    -0.222 C  
BRANCH   3   4
HETATM    4  C   UNL     1      -9.948   9.619  68.046  1.00  0.00    -0.160 C  
BRANCH   4   5
HETATM    5  O   UNL     1      -8.566   9.963  68.207  1.00  0.00    -0.113 OA 
BRANCH   5   6
HETATM    6  C   UNL     1      -8.134  10.873  67.303  1.00  0.00    -0.123 C  
HETATM    7  O   UNL     1      -8.173  10.715  66.092  1.00  0.00    -0.145 OA 
BRANCH   6   8
HETATM    8  C   UNL     1      -7.551  12.073  67.959  1.00  0.00    -0.120 C  
HETATM    9  C   UNL     1      -6.717  12.004  69.028  1.00  0.00    -0.100 C  
HETATM   10  C   UNL     1      -6.327  10.804  69.862  1.00  0.00    -0.118 C  
HETATM   11  N   UNL     1      -6.083  13.151  69.456  1.00  0.00    -0.107 NA 
HETATM   12  C   UNL     1      -6.328  14.425  68.999  1.00  0.00    -0.097 C  
HETATM   13  C   UNL     1      -7.169  14.622  67.954  1.00  0.00    -0.171 C  
HETATM   14  C   UNL     1      -5.607  15.509  69.763  1.00  0.00    -0.120 C  
HETATM   15  C   UNL     1      -7.817  13.421  67.243  1.00  0.00    -0.107 C  
BRANCH  13  16
HETATM   16  C   UNL     1      -7.529  16.021  67.594  1.00  0.00    -0.150 C  
HETATM   17  O   UNL     1      -6.959  16.653  66.716  1.00  0.00    -0.206 OA 
BRANCH  16  18
HETATM   18  O   UNL     1      -8.530  16.525  68.361  1.00  0.00    -0.191 OA 
BRANCH  18  19
HETATM   19  C   UNL     1      -8.329  17.907  68.743  1.00  0.00    -0.216 C  
HETATM   20  C   UNL     1      -7.392  18.583  67.745  1.00  0.00    -0.238 C  
HETATM   21  C   UNL     1      -9.678  18.611  68.784  1.00  0.00    -0.407 C  
ENDBRANCH  18  19
ENDBRANCH  16  18
ENDBRANCH  13  16
BRANCH  15  22
HETATM   22  C   UNL     1      -9.322  13.621  67.024  1.00  0.00    -0.249 A  
HETATM   23  C   UNL     1     -10.249  12.991  67.877  1.00  0.00    -0.234 A  
HETATM   24  C   UNL     1      -9.801  14.442  65.992  1.00  0.00    -0.342 A  
HETATM   25  C   UNL     1     -11.623  13.170  67.703  1.00  0.00    -0.392 A  
HETATM   26  O   UNL     1     -10.833  16.026  64.013  1.00  0.00    -0.182 OA 
HETATM   27  O   UNL     1     -12.899  15.614  64.622  1.00  0.00     0.329 OA 
HETATM   28  C   UNL     1     -11.182  14.616  65.822  1.00  0.00    -0.336 A  
HETATM   29  N   UNL     1     -11.670  15.483  64.741  1.00  0.00    -0.250 N  
HETATM   30  C   UNL     1     -12.094  13.984  66.673  1.00  0.00    -0.487 A  
ENDBRANCH  15  22
ENDBRANCH   6   8
ENDBRANCH   5   6
ENDBRANCH   4   5
ENDBRANCH   3   4
ENDBRANCH   2   3
TORSDOF 9
ENDMDL
MODEL      236
REMARK 921   NORMALIZED FREE ENERGY PREDICTED BY IDOCK:   -1.66 KCAL/MOL
REMARK 922        TOTAL FREE ENERGY PREDICTED BY IDOCK:   -4.12 KCAL/MOL
REMARK 923 INTER-LIGAND FREE ENERGY PREDICTED BY IDOCK:   -7.38 KCAL/MOL
REMARK 924 INTRA-LIGAND FREE ENERGY PREDICTED BY IDOCK:    3.26 KCAL/MOL
REMARK 927      BINDING AFFINITY PREDICTED BY RF-SCORE:    0.00 PKD
ROOT
HETATM    1  C   UNL     1     -10.284  19.754  67.382  1.00  0.00    -0.440 C  
HETATM    2  O   UNL     1     -10.620  18.388  67.568  1.00  0.00    -0.408 OA 
ENDROOT
BRANCH   2   3
HETATM    3  C   UNL     1     -10.294  17.946  68.886  1.00  0.00    -0.268 C  
BRANCH   3   4
HETATM    4  C   UNL     1     -11.278  16.858  69.258  1.00  0.00     0.131 C  
BRANCH   4   5
HETATM    5  O   UNL     1     -10.697  15.549  69.277  1.00  0.00    -0.218 OA 
BRANCH   5   6
HETATM    6  C   UNL     1     -11.382  14.650  68.533  1.00  0.00    -0.284 C  
HETATM    7  O   UNL     1     -11.821  14.871  67.415  1.00  0.00    -0.348 OA 
BRANCH   6   8
HETATM    8  C   UNL     1     -11.590  13.371  69.261  1.00  0.00    -0.365 C  
HETATM    9  C   UNL     1     -12.211  13.293  70.466  1.00  0.00    -0.340 C  
HETATM   10  C   UNL     1     -12.668  14.407  71.380  1.00  0.00    -0.413 C  
HETATM   11  N   UNL     1     -12.519  12.052  70.980  1.00  0.00    -0.341 NA 
HETATM   12  C   UNL     1     -12.118  10.843  70.461  1.00  0.00    -0.371 C  
HETATM   13  C   UNL     1     -11.461  10.796  69.276  1.00  0.00    -0.369 C  
HETATM   14  C   UNL     1     -12.461   9.652  71.323  1.00  0.00    -0.445 C  
HETATM   15  C   UNL     1     -11.201  12.089  68.482  1.00  0.00    -0.306 C  
BRANCH  13  16
HETATM   16  C   UNL     1     -10.907   9.489  68.830  1.00  0.00    -0.142 C  
HETATM   17  O   UNL     1     -10.614   9.249  67.668  1.00  0.00    -0.263 OA 
BRANCH  16  18
HETATM   18  O   UNL     1     -10.793   8.588  69.840  1.00  0.00    -0.237 OA 
BRANCH  18  19
HETATM   19  C   UNL     1      -9.423   8.280  70.191  1.00  0.00    -0.167 C  
HETATM   20  C   UNL     1      -8.542   9.499  69.932  1.00  0.00    -0.217 C  
HETATM   21  C   UNL     1      -9.367   7.872  71.657  1.00  0.00    -0.189 C  
ENDBRANCH  18  19
ENDBRANCH  16  18
ENDBRANCH  13  16
BRANCH  15  22
HETATM   22  C   UNL     1      -9.752  12.182  67.988  1.00  0.00    -0.203 A  
HETATM   23  C   UNL     1      -9.213  11.158  67.187  1.00  0.00    -0.165 A  
HETATM   24  C   UNL     1      -8.947  13.287  68.307  1.00  0.00    -0.176 A  
HETATM   25  C   UNL     1      -7.900  11.229  66.716  1.00  0.00    -0.155 A  
HETATM   26  O   UNL     1      -7.303  15.401  68.869  1.00  0.00    -0.126 OA 
HETATM   27  O   UNL     1      -5.639  14.539  67.729  1.00  0.00    -0.254 OA 
HETATM   28  C   UNL     1      -7.630  13.351  67.832  1.00  0.00    -0.151 A  
HETATM   29  N   UNL     1      -6.801  14.516  68.168  1.00  0.00    -0.111 N  
HETATM   30  C   UNL     1      -7.103  12.327  67.039  1.00  0.00    -0.040 A  
ENDBRANCH  15  22
ENDBRANCH   6   8
ENDBRANCH   5   6
ENDBRANCH   4   5
ENDBRANCH   3   4
ENDBRANCH   2   3
TORSDOF 9
ENDMDL
MODEL      237
REMARK 921   NORMALIZED FREE ENERGY PREDICTED BY IDOCK:   -1.65 KCAL/MOL
REMARK 922        TOTAL FREE ENERGY PREDICTED BY IDOCK:   -4.09 KCAL/MOL
REMARK 923 INTER-LIGAND FREE ENERGY PREDICTED BY IDOCK:   -5.79 KCAL/MOL
REMARK 924 INTRA-LIGAND FREE ENERGY PREDICTED BY IDOCK:    1.70 KCAL/MOL
REMARK 927      BINDING AFFINITY PREDICTED BY RF-SCORE:    0.00 PKD
ROOT
HETATM    1  C   UNL     1     -10.296  19.802  67.404  1.00  0.00    -0.447 C  
HETATM    2  O   UNL     1     -10.532  18.404  67.470  1.00  0.00    -0.384 OA 
ENDROOT
BRANCH   2   3
HETATM    3  C   UNL     1     -10.338  17.905  68.794  1.00  0.00    -0.307 C  
BRANCH   3   4
HETATM    4  C   UNL     1     -11.078  16.589  68.899  1.00  0.00    -0.300 C  
BRANCH   4   5
HETATM    5  O   UNL     1     -10.208  15.453  68.965  1.00  0.00    -0.212 OA 
BRANCH   5   6
HETATM    6  C   UNL     1     -10.380  14.587  67.939  1.00  0.00    -0.231 C  
HETATM    7  O   UNL     1     -10.570  14.921  66.779  1.00  0.00    -0.293 OA 
BRANCH   6   8
HETATM    8  C   UNL     1     -10.368  13.174  68.398  1.00  0.00    -0.257 C  
HETATM    9  C   UNL     1     -11.309  12.652  69.226  1.00  0.00    -0.245 C  
HETATM   10  C   UNL     1     -12.426  13.353  69.966  1.00  0.00    -0.202 C  
HETATM   11  N   UNL     1     -11.320  11.292  69.453  1.00  0.00    -0.267 NA 
HETATM   12  C   UNL     1     -10.360  10.399  69.039  1.00  0.00    -0.214 C  
HETATM   13  C   UNL     1      -9.351  10.811  68.232  1.00  0.00    -0.161 C  
HETATM   14  C   UNL     1     -10.544   8.998  69.571  1.00  0.00    -0.231 C  
HETATM   15  C   UNL     1      -9.299  12.267  67.737  1.00  0.00    -0.194 C  
BRANCH  13  16
HETATM   16  C   UNL     1      -8.250   9.853  67.939  1.00  0.00    -0.113 C  
HETATM   17  O   UNL     1      -7.692   9.191  68.801  1.00  0.00    -0.085 OA 
BRANCH  16  18
HETATM   18  O   UNL     1      -7.915   9.817  66.622  1.00  0.00    -0.111 OA 
BRANCH  18  19
HETATM   19  C   UNL     1      -8.515   8.716  65.900  1.00  0.00    -0.146 C  
HETATM   20  C   UNL     1      -9.387   9.259  64.771  1.00  0.00    -0.080 C  
HETATM   21  C   UNL     1      -7.410   7.823  65.352  1.00  0.00    -0.077 C  
ENDBRANCH  18  19
ENDBRANCH  16  18
ENDBRANCH  13  16
BRANCH  15  22
HETATM   22  C   UNL     1      -7.904  12.882  67.896  1.00  0.00    -0.151 A  
HETATM   23  C   UNL     1      -6.764  12.159  67.495  1.00  0.00    -0.129 A  
HETATM   24  C   UNL     1      -7.736  14.172  68.423  1.00  0.00    -0.140 A  
HETATM   25  C   UNL     1      -5.485  12.705  67.620  1.00  0.00    -0.124 A  
HETATM   26  O   UNL     1      -7.307  16.680  69.432  1.00  0.00    -0.222 OA 
HETATM   27  O   UNL     1      -5.134  16.515  69.187  1.00  0.00    -0.119 OA 
HETATM   28  C   UNL     1      -6.449  14.714  68.546  1.00  0.00    -0.089 A  
HETATM   29  N   UNL     1      -6.288  16.067  69.093  1.00  0.00    -0.141 N  
HETATM   30  C   UNL     1      -5.323  13.986  68.147  1.00  0.00    -0.120 A  
ENDBRANCH  15  22
ENDBRANCH   6   8
ENDBRANCH   5   6
ENDBRANCH   4   5
ENDBRANCH   3   4
ENDBRANCH   2   3
TORSDOF 9
ENDMDL
MODEL      238
REMARK 921   NORMALIZED FREE ENERGY PREDICTED BY IDOCK:   -1.63 KCAL/MOL
REMARK 922        TOTAL FREE ENERGY PREDICTED BY IDOCK:   -4.06 KCAL/MOL
REMARK 923 INTER-LIGAND FREE ENERGY PREDICTED BY IDOCK:   -4.82 KCAL/MOL
REMARK 924 INTRA-LIGAND FREE ENERGY PREDICTED BY IDOCK:    0.76 KCAL/MOL
REMARK 927      BINDING AFFINITY PREDICTED BY RF-SCORE:    0.00 PKD
ROOT
HETATM    1  C   UNL     1     -11.787  12.547  66.379  1.00  0.00    -0.381 C  
HETATM    2  O   UNL     1     -11.910  11.463  67.287  1.00  0.00    -0.594 OA 
ENDROOT
BRANCH   2   3
HETATM    3  C   UNL     1     -10.913  11.522  68.307  1.00  0.00    -0.224 C  
BRANCH   3   4
HETATM    4  C   UNL     1      -9.697  12.202  67.717  1.00  0.00    -0.197 C  
BRANCH   4   5
HETATM    5  O   UNL     1      -8.857  11.314  66.971  1.00  0.00    -0.146 OA 
BRANCH   5   6
HETATM    6  C   UNL     1      -8.314  10.331  67.727  1.00  0.00    -0.110 C  
HETATM    7  O   UNL     1      -7.563  10.521  68.670  1.00  0.00    -0.087 OA 
BRANCH   6   8
HETATM    8  C   UNL     1      -8.696   8.980  67.237  1.00  0.00    -0.122 C  
HETATM    9  C   UNL     1      -9.170   8.749  65.987  1.00  0.00    -0.222 C  
HETATM   10  C   UNL     1      -9.557   9.740  64.911  1.00  0.00    -0.316 C  
HETATM   11  N   UNL     1      -9.326   7.447  65.560  1.00  0.00     0.306 NA 
HETATM   12  C   UNL     1      -9.192   6.323  66.341  1.00  0.00    -0.156 C  
HETATM   13  C   UNL     1      -8.755   6.432  67.620  1.00  0.00    -0.114 C  
HETATM   14  C   UNL     1      -9.583   5.037  65.653  1.00  0.00    -0.138 C  
HETATM   15  C   UNL     1      -8.360   7.806  68.190  1.00  0.00    -0.124 C  
BRANCH  13  16
HETATM   16  C   UNL     1      -8.776   5.215  68.477  1.00  0.00    -0.097 C  
HETATM   17  O   UNL     1      -9.545   5.072  69.416  1.00  0.00    -0.137 OA 
BRANCH  16  18
HETATM   18  O   UNL     1      -7.835   4.301  68.124  1.00  0.00    -0.078 OA 
BRANCH  18  19
HETATM   19  C   UNL     1      -6.512   4.607  68.624  1.00  0.00    -0.037 C  
HETATM   20  C   UNL     1      -5.847   5.638  67.715  1.00  0.00    -0.013 C  
HETATM   21  C   UNL     1      -6.630   5.135  70.048  1.00  0.00    -0.036 C  
ENDBRANCH  18  19
ENDBRANCH  16  18
ENDBRANCH  13  16
BRANCH  15  22
HETATM   22  C   UNL     1      -8.968   8.053  69.577  1.00  0.00    -0.148 A  
HETATM   23  C   UNL     1     -10.340   8.343  69.704  1.00  0.00    -0.218 A  
HETATM   24  C   UNL     1      -8.181   7.979  70.737  1.00  0.00    -0.113 A  
HETATM   25  C   UNL     1     -10.916   8.559  70.957  1.00  0.00    -0.296 A  
HETATM   26  O   UNL     1      -6.734   7.851  73.056  1.00  0.00    -0.070 OA 
HETATM   27  O   UNL     1      -8.485   8.310  74.292  1.00  0.00    -0.227 OA 
HETATM   28  C   UNL     1      -8.766   8.198  71.992  1.00  0.00    -0.164 A  
HETATM   29  N   UNL     1      -7.933   8.112  73.198  1.00  0.00    -0.165 N  
HETATM   30  C   UNL     1     -10.130   8.488  72.106  1.00  0.00    -0.393 A  
ENDBRANCH  15  22
ENDBRANCH   6   8
ENDBRANCH   5   6
ENDBRANCH   4   5
ENDBRANCH   3   4
ENDBRANCH   2   3
TORSDOF 9
ENDMDL
MODEL      239
REMARK 921   NORMALIZED FREE ENERGY PREDICTED BY IDOCK:   -1.53 KCAL/MOL
REMARK 922        TOTAL FREE ENERGY PREDICTED BY IDOCK:   -3.91 KCAL/MOL
REMARK 923 INTER-LIGAND FREE ENERGY PREDICTED BY IDOCK:   -3.16 KCAL/MOL
REMARK 924 INTRA-LIGAND FREE ENERGY PREDICTED BY IDOCK:   -0.75 KCAL/MOL
REMARK 927      BINDING AFFINITY PREDICTED BY RF-SCORE:    0.00 PKD
ROOT
HETATM    1  C   UNL     1     -12.046  14.625  64.106  1.00  0.00    -0.320 C  
HETATM    2  O   UNL     1     -12.706  13.854  63.114  1.00  0.00    -0.718 OA 
ENDROOT
BRANCH   2   3
HETATM    3  C   UNL     1     -12.796  12.481  63.495  1.00  0.00    -0.112 C  
BRANCH   3   4
HETATM    4  C   UNL     1     -11.634  12.188  64.419  1.00  0.00    -0.350 C  
BRANCH   4   5
HETATM    5  O   UNL     1     -12.011  12.120  65.800  1.00  0.00    -0.536 OA 
BRANCH   5   6
HETATM    6  C   UNL     1     -11.039  12.544  66.641  1.00  0.00    -0.283 C  
HETATM    7  O   UNL     1     -10.189  13.372  66.351  1.00  0.00    -0.280 OA 
BRANCH   6   8
HETATM    8  C   UNL     1     -11.091  11.840  67.949  1.00  0.00    -0.302 C  
HETATM    9  C   UNL     1     -12.092  12.015  68.848  1.00  0.00    -0.145 C  
HETATM   10  C   UNL     1     -13.232  13.009  68.830  1.00  0.00     2.922 C  
HETATM   11  N   UNL     1     -12.153  11.189  69.951  1.00  0.00    -0.330 NA 
HETATM   12  C   UNL     1     -11.194  10.278  70.328  1.00  0.00    -0.323 C  
HETATM   13  C   UNL     1     -10.129  10.040  69.523  1.00  0.00    -0.248 C  
HETATM   14  C   UNL     1     -11.446   9.629  71.668  1.00  0.00    -0.376 C  
HETATM   15  C   UNL     1     -10.010  10.751  68.163  1.00  0.00    -0.176 C  
BRANCH  13  16
HETATM   16  C   UNL     1      -9.038   9.169  70.039  1.00  0.00    -0.192 C  
HETATM   17  O   UNL     1      -8.901   8.001  69.707  1.00  0.00    -0.142 OA 
BRANCH  16  18
HETATM   18  O   UNL     1      -8.235   9.799  70.936  1.00  0.00    -0.234 OA 
BRANCH  18  19
HETATM   19  C   UNL     1      -7.091   9.011  71.344  1.00  0.00    -0.050 C  
HETATM   20  C   UNL     1      -5.811   9.809  71.109  1.00  0.00    -0.071 C  
HETATM   21  C   UNL     1      -7.241   8.647  72.815  1.00  0.00     0.020 C  
ENDBRANCH  18  19
ENDBRANCH  16  18
ENDBRANCH  13  16
BRANCH  15  22
HETATM   22  C   UNL     1      -8.610  11.336  67.937  1.00  0.00    -0.134 A  
HETATM   23  C   UNL     1      -7.776  10.803  66.936  1.00  0.00    -0.130 A  
HETATM   24  C   UNL     1      -8.142  12.414  68.705  1.00  0.00    -0.020 A  
HETATM   25  C   UNL     1      -6.503  11.328  66.705  1.00  0.00    -0.136 A  
HETATM   26  O   UNL     1      -7.144  14.518  70.142  1.00  0.00    -0.061 OA 
HETATM   27  O   UNL     1      -5.250  14.504  69.036  1.00  0.00    -0.088 OA 
HETATM   28  C   UNL     1      -6.863  12.936  68.469  1.00  0.00    -0.095 A  
HETATM   29  N   UNL     1      -6.388  14.068  69.274  1.00  0.00    -0.104 N  
HETATM   30  C   UNL     1      -6.041  12.397  67.472  1.00  0.00    -0.148 A  
ENDBRANCH  15  22
ENDBRANCH   6   8
ENDBRANCH   5   6
ENDBRANCH   4   5
ENDBRANCH   3   4
ENDBRANCH   2   3
TORSDOF 9
ENDMDL
MODEL      240
REMARK 921   NORMALIZED FREE ENERGY PREDICTED BY IDOCK:   -1.46 KCAL/MOL
REMARK 922        TOTAL FREE ENERGY PREDICTED BY IDOCK:   -3.81 KCAL/MOL
REMARK 923 INTER-LIGAND FREE ENERGY PREDICTED BY IDOCK:   -4.48 KCAL/MOL
REMARK 924 INTRA-LIGAND FREE ENERGY PREDICTED BY IDOCK:    0.67 KCAL/MOL
REMARK 927      BINDING AFFINITY PREDICTED BY RF-SCORE:    0.00 PKD
ROOT
HETATM    1  C   UNL     1     -12.205  11.938  69.880  1.00  0.00    -0.199 C  
HETATM    2  O   UNL     1     -11.166  11.075  69.442  1.00  0.00    -0.227 OA 
ENDROOT
BRANCH   2   3
HETATM    3  C   UNL     1     -11.227   9.810  70.102  1.00  0.00    -0.272 C  
BRANCH   3   4
HETATM    4  C   UNL     1      -9.825   9.463  70.551  1.00  0.00    -0.270 C  
BRANCH   4   5
HETATM    5  O   UNL     1      -8.808  10.176  69.837  1.00  0.00    -0.174 OA 
BRANCH   5   6
HETATM    6  C   UNL     1      -7.555   9.760  70.135  1.00  0.00    -0.171 C  
HETATM    7  O   UNL     1      -6.732  10.427  70.744  1.00  0.00    -0.340 OA 
BRANCH   6   8
HETATM    8  C   UNL     1      -7.273   8.410  69.580  1.00  0.00    -0.057 C  
HETATM    9  C   UNL     1      -6.426   7.527  70.167  1.00  0.00    -0.034 C  
HETATM   10  C   UNL     1      -5.501   7.727  71.347  1.00  0.00    -0.034 C  
HETATM   11  N   UNL     1      -6.365   6.236  69.685  1.00  0.00    -0.033 NA 
HETATM   12  C   UNL     1      -6.976   5.775  68.542  1.00  0.00    -0.068 C  
HETATM   13  C   UNL     1      -7.821   6.579  67.851  1.00  0.00    -0.108 C  
HETATM   14  C   UNL     1      -6.601   4.362  68.165  1.00  0.00    -0.042 C  
HETATM   15  C   UNL     1      -8.140   7.994  68.365  1.00  0.00    -0.122 C  
BRANCH  13  16
HETATM   16  C   UNL     1      -8.335   6.097  66.540  1.00  0.00    -0.113 C  
HETATM   17  O   UNL     1      -7.642   5.501  65.728  1.00  0.00    -0.080 OA 
BRANCH  16  18
HETATM   18  O   UNL     1      -9.639   6.417  66.330  1.00  0.00    -0.164 OA 
BRANCH  18  19
HETATM   19  C   UNL     1     -10.568   5.453  66.880  1.00  0.00    -0.250 C  
HETATM   20  C   UNL     1      -9.865   4.110  67.061  1.00  0.00    -0.190 C  
HETATM   21  C   UNL     1     -11.092   5.975  68.212  1.00  0.00    -0.259 C  
ENDBRANCH  18  19
ENDBRANCH  16  18
ENDBRANCH  13  16
BRANCH  15  22
HETATM   22  C   UNL     1      -8.045   9.047  67.255  1.00  0.00    -0.103 A  
HETATM   23  C   UNL     1      -6.838   9.222  66.550  1.00  0.00    -0.080 A  
HETATM   24  C   UNL     1      -9.151   9.839  66.910  1.00  0.00    -0.162 A  
HETATM   25  C   UNL     1      -6.734  10.167  65.528  1.00  0.00    -0.122 A  
HETATM   26  O   UNL     1     -11.252  11.425  66.161  1.00  0.00    -0.254 OA 
HETATM   27  O   UNL     1     -10.069  12.433  64.614  1.00  0.00    -0.283 OA 
HETATM   28  C   UNL     1      -9.038  10.787  65.883  1.00  0.00    -0.188 A  
HETATM   29  N   UNL     1     -10.205  11.605  65.529  1.00  0.00    -0.249 N  
HETATM   30  C   UNL     1      -7.834  10.954  65.191  1.00  0.00     0.173 A  
ENDBRANCH  15  22
ENDBRANCH   6   8
ENDBRANCH   5   6
ENDBRANCH   4   5
ENDBRANCH   3   4
ENDBRANCH   2   3
TORSDOF 9
ENDMDL
MODEL      241
REMARK 921   NORMALIZED FREE ENERGY PREDICTED BY IDOCK:   -1.45 KCAL/MOL
REMARK 922        TOTAL FREE ENERGY PREDICTED BY IDOCK:   -3.78 KCAL/MOL
REMARK 923 INTER-LIGAND FREE ENERGY PREDICTED BY IDOCK:   -3.79 KCAL/MOL
REMARK 924 INTRA-LIGAND FREE ENERGY PREDICTED BY IDOCK:    0.00 KCAL/MOL
REMARK 927      BINDING AFFINITY PREDICTED BY RF-SCORE:    0.00 PKD
ROOT
HETATM    1  C   UNL     1     -11.867   7.604  70.542  1.00  0.00    -0.080 C  
HETATM    2  O   UNL     1     -11.477   8.906  70.133  1.00  0.00    -0.177 OA 
ENDROOT
BRANCH   2   3
HETATM    3  C   UNL     1     -10.972   9.667  71.232  1.00  0.00    -0.329 C  
BRANCH   3   4
HETATM    4  C   UNL     1      -9.953   8.809  71.950  1.00  0.00    -0.331 C  
BRANCH   4   5
HETATM    5  O   UNL     1     -10.427   7.488  72.239  1.00  0.00    -0.210 OA 
BRANCH   5   6
HETATM    6  C   UNL     1      -9.536   6.742  72.933  1.00  0.00    -0.149 C  
HETATM    7  O   UNL     1      -8.947   7.122  73.932  1.00  0.00    -0.166 OA 
BRANCH   6   8
HETATM    8  C   UNL     1      -9.314   5.415  72.300  1.00  0.00    -0.158 C  
HETATM    9  C   UNL     1      -9.607   4.240  72.914  1.00  0.00    -0.125 C  
HETATM   10  C   UNL     1     -10.045   3.987  74.339  1.00  0.00    -0.225 C  
HETATM   11  N   UNL     1      -9.539   3.070  72.187  1.00  0.00    -0.129 NA 
HETATM   12  C   UNL     1      -9.044   2.944  70.910  1.00  0.00    -0.114 C  
HETATM   13  C   UNL     1      -8.687   4.047  70.207  1.00  0.00    -0.120 C  
HETATM   14  C   UNL     1      -8.936   1.519  70.423  1.00  0.00    -0.130 C  
HETATM   15  C   UNL     1      -8.877   5.449  70.814  1.00  0.00    -0.145 C  
BRANCH  13  16
HETATM   16  C   UNL     1      -8.010   3.857  68.895  1.00  0.00    -0.059 C  
HETATM   17  O   UNL     1      -6.798   3.922  68.752  1.00  0.00    -0.045 OA 
BRANCH  16  18
HETATM   18  O   UNL     1      -8.880   3.635  67.876  1.00  0.00    -0.100 OA 
BRANCH  18  19
HETATM   19  C   UNL     1      -8.888   4.686  66.880  1.00  0.00    -0.111 C  
HETATM   20  C   UNL     1      -8.781   4.071  65.487  1.00  0.00    -0.119 C  
HETATM   21  C   UNL     1     -10.173   5.491  67.020  1.00  0.00    -0.265 C  
ENDBRANCH  18  19
ENDBRANCH  16  18
ENDBRANCH  13  16
BRANCH  15  22
HETATM   22  C   UNL     1      -7.632   6.327  70.643  1.00  0.00    -0.096 A  
HETATM   23  C   UNL     1      -6.518   6.143  71.485  1.00  0.00    -0.050 A  
HETATM   24  C   UNL     1      -7.570   7.311  69.644  1.00  0.00    -0.099 A  
HETATM   25  C   UNL     1      -5.370   6.923  71.338  1.00  0.00    -0.027 A  
HETATM   26  O   UNL     1      -7.351   9.248  67.724  1.00  0.00    -0.083 OA 
HETATM   27  O   UNL     1      -5.321   9.785  68.355  1.00  0.00    -0.033 OA 
HETATM   28  C   UNL     1      -6.414   8.092  69.504  1.00  0.00    -0.034 A  
HETATM   29  N   UNL     1      -6.361   9.113  68.450  1.00  0.00    -0.053 N  
HETATM   30  C   UNL     1      -5.314   7.902  70.347  1.00  0.00    -0.023 A  
ENDBRANCH  15  22
ENDBRANCH   6   8
ENDBRANCH   5   6
ENDBRANCH   4   5
ENDBRANCH   3   4
ENDBRANCH   2   3
TORSDOF 9
ENDMDL
MODEL      242
REMARK 921   NORMALIZED FREE ENERGY PREDICTED BY IDOCK:   -1.41 KCAL/MOL
REMARK 922        TOTAL FREE ENERGY PREDICTED BY IDOCK:   -3.73 KCAL/MOL
REMARK 923 INTER-LIGAND FREE ENERGY PREDICTED BY IDOCK:   -3.74 KCAL/MOL
REMARK 924 INTRA-LIGAND FREE ENERGY PREDICTED BY IDOCK:    0.01 KCAL/MOL
REMARK 927      BINDING AFFINITY PREDICTED BY RF-SCORE:    0.00 PKD
ROOT
HETATM    1  C   UNL     1     -11.166   9.719  70.958  1.00  0.00    -0.381 C  
HETATM    2  O   UNL     1      -9.751   9.826  70.931  1.00  0.00    -0.151 OA 
ENDROOT
BRANCH   2   3
HETATM    3  C   UNL     1      -9.278  10.155  69.624  1.00  0.00    -0.183 C  
BRANCH   3   4
HETATM    4  C   UNL     1      -7.810   9.791  69.566  1.00  0.00    -0.128 C  
BRANCH   4   5
HETATM    5  O   UNL     1      -7.574   8.465  69.075  1.00  0.00    -0.088 OA 
BRANCH   5   6
HETATM    6  C   UNL     1      -8.605   7.972  68.351  1.00  0.00    -0.127 C  
HETATM    7  O   UNL     1      -9.399   8.657  67.725  1.00  0.00    -0.140 OA 
BRANCH   6   8
HETATM    8  C   UNL     1      -8.695   6.492  68.452  1.00  0.00    -0.121 C  
HETATM    9  C   UNL     1      -8.819   5.833  69.632  1.00  0.00    -0.122 C  
HETATM   10  C   UNL     1      -8.740   6.372  71.043  1.00  0.00    -0.135 C  
HETATM   11  N   UNL     1      -9.078   4.478  69.617  1.00  0.00    -0.100 NA 
HETATM   12  C   UNL     1      -9.072   3.669  68.505  1.00  0.00    -0.147 C  
HETATM   13  C   UNL     1      -8.924   4.212  67.271  1.00  0.00    -0.142 C  
HETATM   14  C   UNL     1      -9.224   2.198  68.806  1.00  0.00    -0.221 C  
HETATM   15  C   UNL     1      -8.809   5.737  67.103  1.00  0.00    -0.107 C  
BRANCH  13  16
HETATM   16  C   UNL     1      -8.765   3.291  66.112  1.00  0.00    -0.128 C  
HETATM   17  O   UNL     1      -7.824   2.519  65.996  1.00  0.00    -0.079 OA 
BRANCH  16  18
HETATM   18  O   UNL     1      -9.755   3.421  65.191  1.00  0.00    -0.157 OA 
BRANCH  18  19
HETATM   19  C   UNL     1      -9.336   3.107  63.841  1.00  0.00    -0.114 C  
HETATM   20  C   UNL     1     -10.559   3.028  62.932  1.00  0.00    -0.188 C  
HETATM   21  C   UNL     1      -8.370   4.180  63.360  1.00  0.00    -0.096 C  
ENDBRANCH  18  19
ENDBRANCH  16  18
ENDBRANCH  13  16
BRANCH  15  22
HETATM   22  C   UNL     1      -7.657   6.131  66.171  1.00  0.00    -0.090 A  
HETATM   23  C   UNL     1      -6.359   5.640  66.409  1.00  0.00    -0.035 A  
HETATM   24  C   UNL     1      -7.872   6.966  65.065  1.00  0.00    -0.121 A  
HETATM   25  C   UNL     1      -5.297   5.976  65.566  1.00  0.00    -0.013 A  
HETATM   26  O   UNL     1      -8.192   8.582  62.879  1.00  0.00    -0.178 OA 
HETATM   27  O   UNL     1      -6.071   8.444  62.341  1.00  0.00    -0.086 OA 
HETATM   28  C   UNL     1      -6.802   7.301  64.223  1.00  0.00    -0.048 A  
HETATM   29  N   UNL     1      -7.042   8.171  63.065  1.00  0.00    -0.086 N  
HETATM   30  C   UNL     1      -5.515   6.809  64.470  1.00  0.00    -0.027 A  
ENDBRANCH  15  22
ENDBRANCH   6   8
ENDBRANCH   5   6
ENDBRANCH   4   5
ENDBRANCH   3   4
ENDBRANCH   2   3
TORSDOF 9
ENDMDL
MODEL      243
REMARK 921   NORMALIZED FREE ENERGY PREDICTED BY IDOCK:   -1.40 KCAL/MOL
REMARK 922        TOTAL FREE ENERGY PREDICTED BY IDOCK:   -3.72 KCAL/MOL
REMARK 923 INTER-LIGAND FREE ENERGY PREDICTED BY IDOCK:   -2.66 KCAL/MOL
REMARK 924 INTRA-LIGAND FREE ENERGY PREDICTED BY IDOCK:   -1.06 KCAL/MOL
REMARK 927      BINDING AFFINITY PREDICTED BY RF-SCORE:    0.00 PKD
ROOT
HETATM    1  C   UNL     1     -10.496  20.900  69.176  1.00  0.00     0.848 C  
HETATM    2  O   UNL     1     -10.060  19.568  68.949  1.00  0.00    -0.442 OA 
ENDROOT
BRANCH   2   3
HETATM    3  C   UNL     1     -10.569  19.056  67.716  1.00  0.00    -0.404 C  
BRANCH   3   4
HETATM    4  C   UNL     1     -10.615  17.548  67.833  1.00  0.00    -0.390 C  
BRANCH   4   5
HETATM    5  O   UNL     1     -11.111  16.903  66.653  1.00  0.00     0.059 OA 
BRANCH   5   6
HETATM    6  C   UNL     1     -10.134  16.354  65.894  1.00  0.00    -0.347 C  
HETATM    7  O   UNL     1      -9.344  16.994  65.217  1.00  0.00     0.016 OA 
BRANCH   6   8
HETATM    8  C   UNL     1     -10.170  14.869  65.934  1.00  0.00    -0.333 C  
HETATM    9  C   UNL     1     -11.218  14.137  65.477  1.00  0.00    -0.317 C  
HETATM   10  C   UNL     1     -12.575  14.604  64.999  1.00  0.00    -0.162 C  
HETATM   11  N   UNL     1     -11.089  12.767  65.387  1.00  0.00    -0.279 NA 
HETATM   12  C   UNL     1     -10.036  12.025  65.867  1.00  0.00    -0.236 C  
HETATM   13  C   UNL     1      -8.943  12.645  66.378  1.00  0.00    -0.056 C  
HETATM   14  C   UNL     1     -10.237  10.531  65.779  1.00  0.00    -0.310 C  
HETATM   15  C   UNL     1      -8.854  14.182  66.380  1.00  0.00     0.031 C  
BRANCH  13  16
HETATM   16  C   UNL     1      -7.899  11.808  67.030  1.00  0.00    -0.161 C  
HETATM   17  O   UNL     1      -6.961  11.316  66.421  1.00  0.00    -0.124 OA 
BRANCH  16  18
HETATM   18  O   UNL     1      -8.117  11.627  68.359  1.00  0.00    -0.141 OA 
BRANCH  18  19
HETATM   19  C   UNL     1      -7.901  10.267  68.802  1.00  0.00    -0.106 C  
HETATM   20  C   UNL     1      -6.952  10.262  69.997  1.00  0.00    -0.152 C  
HETATM   21  C   UNL     1      -9.243   9.648  69.172  1.00  0.00    -0.168 C  
ENDBRANCH  18  19
ENDBRANCH  16  18
ENDBRANCH  13  16
BRANCH  15  22
HETATM   22  C   UNL     1      -8.397  14.732  67.736  1.00  0.00    -0.166 A  
HETATM   23  C   UNL     1      -9.067  14.351  68.914  1.00  0.00    -0.069 A  
HETATM   24  C   UNL     1      -7.303  15.606  67.833  1.00  0.00    -0.151 A  
HETATM   25  C   UNL     1      -8.660  14.831  70.161  1.00  0.00     0.846 A  
HETATM   26  O   UNL     1      -5.179  17.307  68.124  1.00  0.00    -0.118 OA 
HETATM   27  O   UNL     1      -5.421  17.397  70.301  1.00  0.00    -0.222 OA 
HETATM   28  C   UNL     1      -6.900  16.085  69.087  1.00  0.00    -0.180 A  
HETATM   29  N   UNL     1      -5.750  16.994  69.174  1.00  0.00    -0.156 N  
HETATM   30  C   UNL     1      -7.574  15.701  70.251  1.00  0.00     0.728 A  
ENDBRANCH  15  22
ENDBRANCH   6   8
ENDBRANCH   5   6
ENDBRANCH   4   5
ENDBRANCH   3   4
ENDBRANCH   2   3
TORSDOF 9
ENDMDL
MODEL      244
REMARK 921   NORMALIZED FREE ENERGY PREDICTED BY IDOCK:   -1.39 KCAL/MOL
REMARK 922        TOTAL FREE ENERGY PREDICTED BY IDOCK:   -3.70 KCAL/MOL
REMARK 923 INTER-LIGAND FREE ENERGY PREDICTED BY IDOCK:   -4.26 KCAL/MOL
REMARK 924 INTRA-LIGAND FREE ENERGY PREDICTED BY IDOCK:    0.56 KCAL/MOL
REMARK 927      BINDING AFFINITY PREDICTED BY RF-SCORE:    0.00 PKD
ROOT
HETATM    1  C   UNL     1      -5.469   8.732  70.158  1.00  0.00    -0.027 C  
HETATM    2  O   UNL     1      -6.034   9.302  68.987  1.00  0.00    -0.042 OA 
ENDROOT
BRANCH   2   3
HETATM    3  C   UNL     1      -6.256  10.704  69.146  1.00  0.00    -0.043 C  
BRANCH   3   4
HETATM    4  C   UNL     1      -7.703  10.978  68.798  1.00  0.00    -0.135 C  
BRANCH   4   5
HETATM    5  O   UNL     1      -8.628  10.416  69.737  1.00  0.00    -0.118 OA 
BRANCH   5   6
HETATM    6  C   UNL     1      -9.721   9.874  69.151  1.00  0.00    -0.198 C  
HETATM    7  O   UNL     1     -10.717  10.504  68.832  1.00  0.00    -0.192 OA 
BRANCH   6   8
HETATM    8  C   UNL     1      -9.591   8.402  68.992  1.00  0.00    -0.160 C  
HETATM    9  C   UNL     1      -9.255   7.570  70.011  1.00  0.00    -0.151 C  
HETATM   10  C   UNL     1      -8.802   7.909  71.414  1.00  0.00    -0.158 C  
HETATM   11  N   UNL     1      -9.336   6.207  69.816  1.00  0.00    -0.150 NA 
HETATM   12  C   UNL     1      -9.581   5.578  68.618  1.00  0.00    -0.135 C  
HETATM   13  C   UNL     1      -9.898   6.308  67.520  1.00  0.00    -0.139 C  
HETATM   14  C   UNL     1      -9.447   4.075  68.666  1.00  0.00    -0.220 C  
HETATM   15  C   UNL     1     -10.031   7.838  67.617  1.00  0.00    -0.230 C  
BRANCH  13  16
HETATM   16  C   UNL     1     -10.000   5.604  66.213  1.00  0.00    -0.115 C  
HETATM   17  O   UNL     1     -11.012   5.029  65.840  1.00  0.00    -0.218 OA 
BRANCH  16  18
HETATM   18  O   UNL     1      -8.845   5.642  65.498  1.00  0.00    -0.154 OA 
BRANCH  18  19
HETATM   19  C   UNL     1      -8.401   4.341  65.043  1.00  0.00    -0.115 C  
HETATM   20  C   UNL     1      -7.048   4.015  65.670  1.00  0.00    -0.063 C  
HETATM   21  C   UNL     1      -9.443   3.300  65.428  1.00  0.00    -0.119 C  
ENDBRANCH  18  19
ENDBRANCH  16  18
ENDBRANCH  13  16
BRANCH  15  22
HETATM   22  C   UNL     1      -9.288   8.556  66.484  1.00  0.00    -0.260 A  
HETATM   23  C   UNL     1      -9.918   9.600  65.778  1.00  0.00    -0.342 A  
HETATM   24  C   UNL     1      -7.974   8.204  66.140  1.00  0.00    -0.102 A  
HETATM   25  C   UNL     1      -9.256  10.275  64.751  1.00  0.00    -0.287 A  
HETATM   26  O   UNL     1      -5.410   7.594  65.402  1.00  0.00    -0.028 OA 
HETATM   27  O   UNL     1      -5.387   9.136  63.842  1.00  0.00    -0.060 OA 
HETATM   28  C   UNL     1      -7.315   8.885  65.107  1.00  0.00    -0.092 A  
HETATM   29  N   UNL     1      -5.938   8.510  64.762  1.00  0.00    -0.062 N  
HETATM   30  C   UNL     1      -7.951   9.918  64.411  1.00  0.00    -0.146 A  
ENDBRANCH  15  22
ENDBRANCH   6   8
ENDBRANCH   5   6
ENDBRANCH   4   5
ENDBRANCH   3   4
ENDBRANCH   2   3
TORSDOF 9
ENDMDL
MODEL      245
REMARK 921   NORMALIZED FREE ENERGY PREDICTED BY IDOCK:   -1.37 KCAL/MOL
REMARK 922        TOTAL FREE ENERGY PREDICTED BY IDOCK:   -3.67 KCAL/MOL
REMARK 923 INTER-LIGAND FREE ENERGY PREDICTED BY IDOCK:   -5.86 KCAL/MOL
REMARK 924 INTRA-LIGAND FREE ENERGY PREDICTED BY IDOCK:    2.20 KCAL/MOL
REMARK 927      BINDING AFFINITY PREDICTED BY RF-SCORE:    0.00 PKD
ROOT
HETATM    1  C   UNL     1     -10.565   4.695  66.199  1.00  0.00    -0.156 C  
HETATM    2  O   UNL     1     -10.798   5.656  67.218  1.00  0.00    -0.250 OA 
ENDROOT
BRANCH   2   3
HETATM    3  C   UNL     1     -11.003   6.958  66.668  1.00  0.00     0.079 C  
BRANCH   3   4
HETATM    4  C   UNL     1      -9.912   7.857  67.205  1.00  0.00    -0.215 C  
BRANCH   4   5
HETATM    5  O   UNL     1      -9.215   7.296  68.324  1.00  0.00    -0.134 OA 
BRANCH   5   6
HETATM    6  C   UNL     1      -8.786   8.227  69.208  1.00  0.00    -0.143 C  
HETATM    7  O   UNL     1      -7.651   8.284  69.655  1.00  0.00    -0.089 OA 
BRANCH   6   8
HETATM    8  C   UNL     1      -9.881   9.145  69.620  1.00  0.00    -0.188 C  
HETATM    9  C   UNL     1     -10.963   8.740  70.332  1.00  0.00    -0.235 C  
HETATM   10  C   UNL     1     -11.386   7.340  70.719  1.00  0.00    -0.312 C  
HETATM   11  N   UNL     1     -11.834   9.689  70.824  1.00  0.00    -0.294 NA 
HETATM   12  C   UNL     1     -11.807  11.033  70.534  1.00  0.00    -0.367 C  
HETATM   13  C   UNL     1     -10.789  11.550  69.802  1.00  0.00     0.049 C  
HETATM   14  C   UNL     1     -12.981  11.810  71.079  1.00  0.00    -0.200 C  
HETATM   15  C   UNL     1      -9.635  10.647  69.332  1.00  0.00    -0.120 C  
BRANCH  13  16
HETATM   16  C   UNL     1     -10.880  12.974  69.378  1.00  0.00     0.099 C  
HETATM   17  O   UNL     1      -9.947  13.584  68.877  1.00  0.00    -0.126 OA 
BRANCH  16  18
HETATM   18  O   UNL     1     -12.095  13.528  69.633  1.00  0.00    -0.316 OA 
BRANCH  18  19
HETATM   19  C   UNL     1     -12.021  14.885  70.130  1.00  0.00    -0.317 C  
HETATM   20  C   UNL     1     -11.740  15.839  68.971  1.00  0.00    -0.405 C  
HETATM   21  C   UNL     1     -13.336  15.234  70.813  1.00  0.00    -0.402 C  
ENDBRANCH  18  19
ENDBRANCH  16  18
ENDBRANCH  13  16
BRANCH  15  22
HETATM   22  C   UNL     1      -9.301  10.860  67.850  1.00  0.00    -0.159 A  
HETATM   23  C   UNL     1      -7.981  10.685  67.393  1.00  0.00    -0.111 A  
HETATM   24  C   UNL     1     -10.297  11.212  66.926  1.00  0.00    -0.272 A  
HETATM   25  C   UNL     1      -7.658  10.861  66.046  1.00  0.00    -0.094 A  
HETATM   26  O   UNL     1     -12.168  11.893  65.048  1.00  0.00    -0.306 OA 
HETATM   27  O   UNL     1     -10.687  11.898  63.431  1.00  0.00    -0.401 OA 
HETATM   28  C   UNL     1      -9.965  11.389  65.576  1.00  0.00    -0.239 A  
HETATM   29  N   UNL     1     -11.018  11.751  64.618  1.00  0.00    -0.305 N  
HETATM   30  C   UNL     1      -8.650  11.215  65.132  1.00  0.00     0.069 A  
ENDBRANCH  15  22
ENDBRANCH   6   8
ENDBRANCH   5   6
ENDBRANCH   4   5
ENDBRANCH   3   4
ENDBRANCH   2   3
TORSDOF 9
ENDMDL
MODEL      246
REMARK 921   NORMALIZED FREE ENERGY PREDICTED BY IDOCK:   -1.13 KCAL/MOL
REMARK 922        TOTAL FREE ENERGY PREDICTED BY IDOCK:   -3.31 KCAL/MOL
REMARK 923 INTER-LIGAND FREE ENERGY PREDICTED BY IDOCK:   -3.45 KCAL/MOL
REMARK 924 INTRA-LIGAND FREE ENERGY PREDICTED BY IDOCK:    0.15 KCAL/MOL
REMARK 927      BINDING AFFINITY PREDICTED BY RF-SCORE:    0.00 PKD
ROOT
HETATM    1  C   UNL     1      -5.201   8.072  70.835  1.00  0.00    -0.026 C  
HETATM    2  O   UNL     1      -5.922   8.463  69.676  1.00  0.00    -0.032 OA 
ENDROOT
BRANCH   2   3
HETATM    3  C   UNL     1      -6.363   9.818  69.769  1.00  0.00    -0.050 C  
BRANCH   3   4
HETATM    4  C   UNL     1      -7.851   9.832  69.496  1.00  0.00    -0.128 C  
BRANCH   4   5
HETATM    5  O   UNL     1      -8.535   8.687  70.020  1.00  0.00    -0.121 OA 
BRANCH   5   6
HETATM    6  C   UNL     1      -9.420   8.148  69.149  1.00  0.00    -0.155 C  
HETATM    7  O   UNL     1     -10.531   8.602  68.925  1.00  0.00    -0.215 OA 
BRANCH   6   8
HETATM    8  C   UNL     1      -8.901   6.899  68.533  1.00  0.00    -0.124 C  
HETATM    9  C   UNL     1      -8.434   5.851  69.257  1.00  0.00    -0.113 C  
HETATM   10  C   UNL     1      -8.186   5.750  70.746  1.00  0.00    -0.123 C  
HETATM   11  N   UNL     1      -8.144   4.667  68.611  1.00  0.00    -0.082 NA 
HETATM   12  C   UNL     1      -8.131   4.475  67.250  1.00  0.00    -0.101 C  
HETATM   13  C   UNL     1      -8.547   5.464  66.420  1.00  0.00    -0.119 C  
HETATM   14  C   UNL     1      -7.615   3.124  66.817  1.00  0.00    -0.076 C  
HETATM   15  C   UNL     1      -9.080   6.788  66.998  1.00  0.00    -0.139 C  
BRANCH  13  16
HETATM   16  C   UNL     1      -8.369   5.275  64.955  1.00  0.00    -0.144 C  
HETATM   17  O   UNL     1      -8.054   6.181  64.197  1.00  0.00    -0.120 OA 
BRANCH  16  18
HETATM   18  O   UNL     1      -8.622   4.003  64.549  1.00  0.00    -0.105 OA 
BRANCH  18  19
HETATM   19  C   UNL     1      -9.947   3.822  63.997  1.00  0.00    -0.190 C  
HETATM   20  C   UNL     1     -10.214   2.334  63.784  1.00  0.00    -0.115 C  
HETATM   21  C   UNL     1     -10.968   4.425  64.953  1.00  0.00    -0.040 C  
ENDBRANCH  18  19
ENDBRANCH  16  18
ENDBRANCH  13  16
BRANCH  15  22
HETATM   22  C   UNL     1      -8.470   8.010  66.299  1.00  0.00    -0.138 A  
HETATM   23  C   UNL     1      -7.081   8.231  66.350  1.00  0.00    -0.071 A  
HETATM   24  C   UNL     1      -9.274   8.914  65.588  1.00  0.00    -0.268 A  
HETATM   25  C   UNL     1      -6.504   9.330  65.711  1.00  0.00    -0.068 A  
HETATM   26  O   UNL     1     -10.755  10.729  64.173  1.00  0.00    -0.295 OA 
HETATM   27  O   UNL     1      -8.986  11.915  63.651  1.00  0.00     0.257 OA 
HETATM   28  C   UNL     1      -8.688  10.017  64.950  1.00  0.00    -0.182 A  
HETATM   29  N   UNL     1      -9.540  10.952  64.204  1.00  0.00    -0.253 N  
HETATM   30  C   UNL     1      -7.306  10.228  65.009  1.00  0.00    -0.117 A  
ENDBRANCH  15  22
ENDBRANCH   6   8
ENDBRANCH   5   6
ENDBRANCH   4   5
ENDBRANCH   3   4
ENDBRANCH   2   3
TORSDOF 9
ENDMDL
MODEL      247
REMARK 921   NORMALIZED FREE ENERGY PREDICTED BY IDOCK:   -1.04 KCAL/MOL
REMARK 922        TOTAL FREE ENERGY PREDICTED BY IDOCK:   -3.17 KCAL/MOL
REMARK 923 INTER-LIGAND FREE ENERGY PREDICTED BY IDOCK:   -2.86 KCAL/MOL
REMARK 924 INTRA-LIGAND FREE ENERGY PREDICTED BY IDOCK:   -0.31 KCAL/MOL
REMARK 927      BINDING AFFINITY PREDICTED BY RF-SCORE:    0.00 PKD
ROOT
HETATM    1  C   UNL     1      -8.857  11.373  65.160  1.00  0.00     0.109 C  
HETATM    2  O   UNL     1      -8.397  10.701  63.998  1.00  0.00    -0.129 OA 
ENDROOT
BRANCH   2   3
HETATM    3  C   UNL     1      -8.631   9.295  64.082  1.00  0.00    -0.188 C  
BRANCH   3   4
HETATM    4  C   UNL     1      -8.601   8.915  65.546  1.00  0.00    -0.168 C  
BRANCH   4   5
HETATM    5  O   UNL     1      -8.223   7.551  65.770  1.00  0.00    -0.122 OA 
BRANCH   5   6
HETATM    6  C   UNL     1      -7.085   7.424  66.492  1.00  0.00    -0.074 C  
HETATM    7  O   UNL     1      -6.093   8.121  66.345  1.00  0.00    -0.044 OA 
BRANCH   6   8
HETATM    8  C   UNL     1      -7.162   6.292  67.453  1.00  0.00    -0.075 C  
HETATM    9  C   UNL     1      -7.214   4.992  67.068  1.00  0.00    -0.077 C  
HETATM   10  C   UNL     1      -7.360   4.409  65.680  1.00  0.00    -0.080 C  
HETATM   11  N   UNL     1      -7.100   4.006  68.025  1.00  0.00    -0.058 NA 
HETATM   12  C   UNL     1      -7.092   4.202  69.386  1.00  0.00    -0.050 C  
HETATM   13  C   UNL     1      -7.072   5.461  69.891  1.00  0.00    -0.062 C  
HETATM   14  C   UNL     1      -7.125   2.930  70.198  1.00  0.00    -0.034 C  
HETATM   15  C   UNL     1      -7.009   6.674  68.947  1.00  0.00    -0.079 C  
BRANCH  13  16
HETATM   16  C   UNL     1      -7.224   5.631  71.362  1.00  0.00    -0.077 C  
HETATM   17  O   UNL     1      -8.212   5.260  71.979  1.00  0.00    -0.114 OA 
BRANCH  16  18
HETATM   18  O   UNL     1      -6.169   6.267  71.935  1.00  0.00    -0.040 OA 
BRANCH  18  19
HETATM   19  C   UNL     1      -6.549   7.211  72.964  1.00  0.00    -0.064 C  
HETATM   20  C   UNL     1      -5.297   7.838  73.571  1.00  0.00    -0.045 C  
HETATM   21  C   UNL     1      -7.447   8.277  72.349  1.00  0.00    -0.153 C  
ENDBRANCH  18  19
ENDBRANCH  16  18
ENDBRANCH  13  16
BRANCH  15  22
HETATM   22  C   UNL     1      -8.027   7.757  69.328  1.00  0.00    -0.125 A  
HETATM   23  C   UNL     1      -7.632   9.107  69.383  1.00  0.00    -0.079 A  
HETATM   24  C   UNL     1      -9.362   7.430  69.611  1.00  0.00    -0.149 A  
HETATM   25  C   UNL     1      -8.545  10.110  69.716  1.00  0.00    -0.148 A  
HETATM   26  O   UNL     1     -11.986   6.893  70.172  1.00  0.00    -0.271 OA 
HETATM   27  O   UNL     1     -12.447   9.008  70.525  1.00  0.00     0.043 OA 
HETATM   28  C   UNL     1     -10.273   8.441  69.946  1.00  0.00    -0.201 A  
HETATM   29  N   UNL     1     -11.668   8.085  70.233  1.00  0.00    -0.011 N  
HETATM   30  C   UNL     1      -9.869   9.780  70.000  1.00  0.00    -0.295 A  
ENDBRANCH  15  22
ENDBRANCH   6   8
ENDBRANCH   5   6
ENDBRANCH   4   5
ENDBRANCH   3   4
ENDBRANCH   2   3
TORSDOF 9
ENDMDL
MODEL      248
REMARK 921   NORMALIZED FREE ENERGY PREDICTED BY IDOCK:   -0.83 KCAL/MOL
REMARK 922        TOTAL FREE ENERGY PREDICTED BY IDOCK:   -2.85 KCAL/MOL
REMARK 923 INTER-LIGAND FREE ENERGY PREDICTED BY IDOCK:   -3.40 KCAL/MOL
REMARK 924 INTRA-LIGAND FREE ENERGY PREDICTED BY IDOCK:    0.55 KCAL/MOL
REMARK 927      BINDING AFFINITY PREDICTED BY RF-SCORE:    0.00 PKD
ROOT
HETATM    1  C   UNL     1     -11.473  20.091  66.739  1.00  0.00     1.020 C  
HETATM    2  O   UNL     1     -10.742  18.982  66.239  1.00  0.00    -0.406 OA 
ENDROOT
BRANCH   2   3
HETATM    3  C   UNL     1      -9.747  18.552  67.168  1.00  0.00    -0.304 C  
BRANCH   3   4
HETATM    4  C   UNL     1      -8.443  18.422  66.412  1.00  0.00    -0.245 C  
BRANCH   4   5
HETATM    5  O   UNL     1      -8.258  17.130  65.819  1.00  0.00    -0.515 OA 
BRANCH   5   6
HETATM    6  C   UNL     1      -7.669  16.240  66.652  1.00  0.00    -0.251 C  
HETATM    7  O   UNL     1      -6.541  15.798  66.503  1.00  0.00     0.018 OA 
BRANCH   6   8
HETATM    8  C   UNL     1      -8.583  15.816  67.745  1.00  0.00    -0.164 C  
HETATM    9  C   UNL     1      -8.387  16.142  69.047  1.00  0.00    -0.247 C  
HETATM   10  C   UNL     1      -7.203  16.825  69.695  1.00  0.00     0.183 C  
HETATM   11  N   UNL     1      -9.378  15.861  69.964  1.00  0.00     0.178 NA 
HETATM   12  C   UNL     1     -10.514  15.126  69.721  1.00  0.00    -0.233 C  
HETATM   13  C   UNL     1     -10.802  14.716  68.461  1.00  0.00    -0.256 C  
HETATM   14  C   UNL     1     -11.341  14.835  70.950  1.00  0.00    -0.206 C  
HETATM   15  C   UNL     1      -9.885  15.109  67.289  1.00  0.00    -0.228 C  
BRANCH  13  16
HETATM   16  C   UNL     1     -11.953  13.792  68.268  1.00  0.00    -0.357 C  
HETATM   17  O   UNL     1     -12.698  13.846  67.301  1.00  0.00     0.054 OA 
BRANCH  16  18
HETATM   18  O   UNL     1     -12.101  12.908  69.289  1.00  0.00    -0.268 OA 
BRANCH  18  19
HETATM   19  C   UNL     1     -12.257  11.537  68.852  1.00  0.00    -0.064 C  
HETATM   20  C   UNL     1     -11.645  11.370  67.464  1.00  0.00    -0.298 C  
HETATM   21  C   UNL     1     -11.579  10.617  69.858  1.00  0.00    -0.396 C  
ENDBRANCH  18  19
ENDBRANCH  16  18
ENDBRANCH  13  16
BRANCH  15  22
HETATM   22  C   UNL     1      -9.556  13.914  66.386  1.00  0.00    -0.292 A  
HETATM   23  C   UNL     1     -10.219  13.757  65.154  1.00  0.00    -0.367 A  
HETATM   24  C   UNL     1      -8.586  12.970  66.758  1.00  0.00    -0.061 A  
HETATM   25  C   UNL     1      -9.926  12.683  64.311  1.00  0.00    -0.202 A  
HETATM   26  O   UNL     1      -6.707  11.083  67.390  1.00  0.00    -0.072 OA 
HETATM   27  O   UNL     1      -7.046   9.977  65.526  1.00  0.00    -0.117 OA 
HETATM   28  C   UNL     1      -8.298  11.893  65.907  1.00  0.00     0.379 A  
HETATM   29  N   UNL     1      -7.276  10.917  66.305  1.00  0.00    -0.140 N  
HETATM   30  C   UNL     1      -8.964  11.746  64.686  1.00  0.00     0.455 A  
ENDBRANCH  15  22
ENDBRANCH   6   8
ENDBRANCH   5   6
ENDBRANCH   4   5
ENDBRANCH   3   4
ENDBRANCH   2   3
TORSDOF 9
ENDMDL
MODEL      249
REMARK 921   NORMALIZED FREE ENERGY PREDICTED BY IDOCK:   -0.67 KCAL/MOL
REMARK 922        TOTAL FREE ENERGY PREDICTED BY IDOCK:   -2.59 KCAL/MOL
REMARK 923 INTER-LIGAND FREE ENERGY PREDICTED BY IDOCK:   -2.62 KCAL/MOL
REMARK 924 INTRA-LIGAND FREE ENERGY PREDICTED BY IDOCK:    0.02 KCAL/MOL
REMARK 927      BINDING AFFINITY PREDICTED BY RF-SCORE:    0.00 PKD
ROOT
HETATM    1  C   UNL     1      -5.138  16.986  71.487  1.00  0.00     0.147 C  
HETATM    2  O   UNL     1      -5.967  16.528  70.430  1.00  0.00    -0.128 OA 
ENDROOT
BRANCH   2   3
HETATM    3  C   UNL     1      -5.981  15.102  70.359  1.00  0.00    -0.115 C  
BRANCH   3   4
HETATM    4  C   UNL     1      -6.100  14.719  68.900  1.00  0.00    -0.082 C  
BRANCH   4   5
HETATM    5  O   UNL     1      -7.454  14.524  68.473  1.00  0.00    -0.109 OA 
BRANCH   5   6
HETATM    6  C   UNL     1      -7.552  13.925  67.263  1.00  0.00    -0.057 C  
HETATM    7  O   UNL     1      -6.748  13.117  66.826  1.00  0.00     0.228 OA 
BRANCH   6   8
HETATM    8  C   UNL     1      -8.729  14.412  66.498  1.00  0.00    -0.042 C  
HETATM    9  C   UNL     1      -9.466  13.617  65.682  1.00  0.00     0.116 C  
HETATM   10  C   UNL     1      -9.209  12.191  65.246  1.00  0.00     0.221 C  
HETATM   11  N   UNL     1     -10.644  14.106  65.156  1.00  0.00    -0.373 NA 
HETATM   12  C   UNL     1     -11.089  15.404  65.248  1.00  0.00    -0.360 C  
HETATM   13  C   UNL     1     -10.415  16.300  66.011  1.00  0.00    -0.342 C  
HETATM   14  C   UNL     1     -12.328  15.695  64.437  1.00  0.00     0.070 C  
HETATM   15  C   UNL     1      -9.178  15.861  66.815  1.00  0.00    -0.264 C  
BRANCH  13  16
HETATM   16  C   UNL     1     -10.837  17.727  65.958  1.00  0.00     0.041 C  
HETATM   17  O   UNL     1     -10.866  18.377  64.924  1.00  0.00    -0.565 OA 
BRANCH  16  18
HETATM   18  O   UNL     1     -11.156  18.232  67.178  1.00  0.00    -0.175 OA 
BRANCH  18  19
HETATM   19  C   UNL     1     -10.797  19.625  67.341  1.00  0.00    -0.371 C  
HETATM   20  C   UNL     1     -10.163  19.833  68.714  1.00  0.00    -0.473 C  
HETATM   21  C   UNL     1      -9.831  20.020  66.232  1.00  0.00    -0.576 C  
ENDBRANCH  18  19
ENDBRANCH  16  18
ENDBRANCH  13  16
BRANCH  15  22
HETATM   22  C   UNL     1      -8.005  16.833  66.647  1.00  0.00    -0.306 A  
HETATM   23  C   UNL     1      -7.308  16.892  65.425  1.00  0.00     2.013 A  
HETATM   24  C   UNL     1      -7.615  17.687  67.690  1.00  0.00    -0.211 A  
HETATM   25  C   UNL     1      -6.244  17.779  65.246  1.00  0.00     0.202 A  
HETATM   26  O   UNL     1      -6.786  19.394  69.661  1.00  0.00    -0.300 OA 
HETATM   27  O   UNL     1      -5.201  20.238  68.402  1.00  0.00    -0.194 OA 
HETATM   28  C   UNL     1      -6.545  18.574  67.505  1.00  0.00    -0.197 A  
HETATM   29  N   UNL     1      -6.152  19.466  68.603  1.00  0.00    -0.228 N  
HETATM   30  C   UNL     1      -5.858  18.623  66.287  1.00  0.00    -0.187 A  
ENDBRANCH  15  22
ENDBRANCH   6   8
ENDBRANCH   5   6
ENDBRANCH   4   5
ENDBRANCH   3   4
ENDBRANCH   2   3
TORSDOF 9
ENDMDL
MODEL      250
REMARK 921   NORMALIZED FREE ENERGY PREDICTED BY IDOCK:   -0.59 KCAL/MOL
REMARK 922        TOTAL FREE ENERGY PREDICTED BY IDOCK:   -2.47 KCAL/MOL
REMARK 923 INTER-LIGAND FREE ENERGY PREDICTED BY IDOCK:   -4.07 KCAL/MOL
REMARK 924 INTRA-LIGAND FREE ENERGY PREDICTED BY IDOCK:    1.60 KCAL/MOL
REMARK 927      BINDING AFFINITY PREDICTED BY RF-SCORE:    0.00 PKD
ROOT
HETATM    1  C   UNL     1     -10.613  11.702  65.365  1.00  0.00    -0.280 C  
HETATM    2  O   UNL     1     -10.126  10.520  65.983  1.00  0.00    -0.238 OA 
ENDROOT
BRANCH   2   3
HETATM    3  C   UNL     1      -9.341  10.822  67.137  1.00  0.00    -0.155 C  
BRANCH   3   4
HETATM    4  C   UNL     1      -8.025  11.393  66.656  1.00  0.00    -0.148 C  
BRANCH   4   5
HETATM    5  O   UNL     1      -7.080  10.388  66.265  1.00  0.00    -0.108 OA 
BRANCH   5   6
HETATM    6  C   UNL     1      -7.328   9.178  66.818  1.00  0.00    -0.086 C  
HETATM    7  O   UNL     1      -7.348   8.959  68.019  1.00  0.00    -0.082 OA 
BRANCH   6   8
HETATM    8  C   UNL     1      -7.519   8.126  65.786  1.00  0.00    -0.080 C  
HETATM    9  C   UNL     1      -7.472   8.375  64.452  1.00  0.00    -0.104 C  
HETATM   10  C   UNL     1      -7.383   9.700  63.728  1.00  0.00    -0.123 C  
HETATM   11  N   UNL     1      -7.478   7.312  63.573  1.00  0.00    -0.093 NA 
HETATM   12  C   UNL     1      -7.688   5.994  63.904  1.00  0.00    -0.101 C  
HETATM   13  C   UNL     1      -7.784   5.628  65.207  1.00  0.00    -0.088 C  
HETATM   14  C   UNL     1      -7.808   5.067  62.719  1.00  0.00    -0.074 C  
HETATM   15  C   UNL     1      -7.612   6.675  66.321  1.00  0.00    -0.090 C  
BRANCH  13  16
HETATM   16  C   UNL     1      -8.168   4.223  65.516  1.00  0.00    -0.109 C  
HETATM   17  O   UNL     1      -9.319   3.816  65.454  1.00  0.00    -0.144 OA 
BRANCH  16  18
HETATM   18  O   UNL     1      -7.114   3.457  65.900  1.00  0.00    -0.060 OA 
BRANCH  18  19
HETATM   19  C   UNL     1      -7.465   2.078  66.165  1.00  0.00    -0.062 C  
HETATM   20  C   UNL     1      -8.398   2.011  67.371  1.00  0.00    -0.085 C  
HETATM   21  C   UNL     1      -8.133   1.491  64.929  1.00  0.00    -0.073 C  
ENDBRANCH  18  19
ENDBRANCH  16  18
ENDBRANCH  13  16
BRANCH  15  22
HETATM   22  C   UNL     1      -8.708   6.568  67.389  1.00  0.00    -0.117 A  
HETATM   23  C   UNL     1     -10.042   6.877  67.062  1.00  0.00    -0.287 A  
HETATM   24  C   UNL     1      -8.410   6.149  68.694  1.00  0.00    -0.114 A  
HETATM   25  C   UNL     1     -11.058   6.775  68.015  1.00  0.00    -0.246 A  
HETATM   26  O   UNL     1      -7.931   5.335  71.263  1.00  0.00    -0.104 OA 
HETATM   27  O   UNL     1     -10.043   5.527  71.824  1.00  0.00    -0.183 OA 
HETATM   28  C   UNL     1      -9.434   6.050  69.647  1.00  0.00    -0.144 A  
HETATM   29  N   UNL     1      -9.110   5.604  71.008  1.00  0.00    -0.144 N  
HETATM   30  C   UNL     1     -10.757   6.362  69.312  1.00  0.00    -0.349 A  
ENDBRANCH  15  22
ENDBRANCH   6   8
ENDBRANCH   5   6
ENDBRANCH   4   5
ENDBRANCH   3   4
ENDBRANCH   2   3
TORSDOF 9
ENDMDL
MODEL      251
REMARK 921   NORMALIZED FREE ENERGY PREDICTED BY IDOCK:   -0.50 KCAL/MOL
REMARK 922        TOTAL FREE ENERGY PREDICTED BY IDOCK:   -2.34 KCAL/MOL
REMARK 923 INTER-LIGAND FREE ENERGY PREDICTED BY IDOCK:   -2.57 KCAL/MOL
REMARK 924 INTRA-LIGAND FREE ENERGY PREDICTED BY IDOCK:    0.23 KCAL/MOL
REMARK 927      BINDING AFFINITY PREDICTED BY RF-SCORE:    0.00 PKD
ROOT
HETATM    1  C   UNL     1     -11.059   9.219  67.574  1.00  0.00     0.208 C  
HETATM    2  O   UNL     1     -11.729  10.397  67.150  1.00  0.00    -0.007 OA 
ENDROOT
BRANCH   2   3
HETATM    3  C   UNL     1     -11.654  11.424  68.140  1.00  0.00    -0.294 C  
BRANCH   3   4
HETATM    4  C   UNL     1     -11.367  12.726  67.425  1.00  0.00    -0.313 C  
BRANCH   4   5
HETATM    5  O   UNL     1     -11.272  12.583  66.002  1.00  0.00    -0.288 OA 
BRANCH   5   6
HETATM    6  C   UNL     1     -10.062  12.936  65.510  1.00  0.00    -0.257 C  
HETATM    7  O   UNL     1      -9.747  12.860  64.332  1.00  0.00    -0.054 OA 
BRANCH   6   8
HETATM    8  C   UNL     1      -9.134  13.376  66.584  1.00  0.00    -0.180 C  
HETATM    9  C   UNL     1      -8.981  14.675  66.948  1.00  0.00    -0.253 C  
HETATM   10  C   UNL     1      -9.542  15.923  66.303  1.00  0.00    -0.345 C  
HETATM   11  N   UNL     1      -8.237  14.972  68.071  1.00  0.00    -0.132 NA 
HETATM   12  C   UNL     1      -7.485  14.078  68.798  1.00  0.00    -0.124 C  
HETATM   13  C   UNL     1      -7.532  12.755  68.506  1.00  0.00    -0.120 C  
HETATM   14  C   UNL     1      -6.642  14.711  69.878  1.00  0.00    -0.167 C  
HETATM   15  C   UNL     1      -8.461  12.239  67.393  1.00  0.00    -0.176 C  
BRANCH  13  16
HETATM   16  C   UNL     1      -6.586  11.846  69.208  1.00  0.00    -0.110 C  
HETATM   17  O   UNL     1      -5.480  12.198  69.591  1.00  0.00    -0.071 OA 
BRANCH  16  18
HETATM   18  O   UNL     1      -7.069  10.584  69.351  1.00  0.00    -0.082 OA 
BRANCH  18  19
HETATM   19  C   UNL     1      -6.118   9.660  69.931  1.00  0.00    -0.043 C  
HETATM   20  C   UNL     1      -6.486   9.395  71.389  1.00  0.00    -0.000 C  
HETATM   21  C   UNL     1      -6.128   8.368  69.125  1.00  0.00    -0.042 C  
ENDBRANCH  18  19
ENDBRANCH  16  18
ENDBRANCH  13  16
BRANCH  15  22
HETATM   22  C   UNL     1      -7.747  11.262  66.450  1.00  0.00    -0.089 A  
HETATM   23  C   UNL     1      -6.611  11.680  65.732  1.00  0.00     0.949 A  
HETATM   24  C   UNL     1      -8.197   9.942  66.297  1.00  0.00    -0.114 A  
HETATM   25  C   UNL     1      -5.938  10.804  64.877  1.00  0.00     0.059 A  
HETATM   26  O   UNL     1      -8.993   7.348  65.938  1.00  0.00    -0.153 OA 
HETATM   27  O   UNL     1      -7.369   6.941  64.522  1.00  0.00    -0.077 OA 
HETATM   28  C   UNL     1      -7.518   9.068  65.437  1.00  0.00    -0.089 A  
HETATM   29  N   UNL     1      -7.996   7.687  65.291  1.00  0.00    -0.122 N  
HETATM   30  C   UNL     1      -6.391   9.494  64.726  1.00  0.00    -0.083 A  
ENDBRANCH  15  22
ENDBRANCH   6   8
ENDBRANCH   5   6
ENDBRANCH   4   5
ENDBRANCH   3   4
ENDBRANCH   2   3
TORSDOF 9
ENDMDL
MODEL      252
REMARK 921   NORMALIZED FREE ENERGY PREDICTED BY IDOCK:   -0.40 KCAL/MOL
REMARK 922        TOTAL FREE ENERGY PREDICTED BY IDOCK:   -2.18 KCAL/MOL
REMARK 923 INTER-LIGAND FREE ENERGY PREDICTED BY IDOCK:   -3.36 KCAL/MOL
REMARK 924 INTRA-LIGAND FREE ENERGY PREDICTED BY IDOCK:    1.17 KCAL/MOL
REMARK 927      BINDING AFFINITY PREDICTED BY RF-SCORE:    0.00 PKD
ROOT
HETATM    1  C   UNL     1     -11.886   5.160  73.079  1.00  0.00    -0.057 C  
HETATM    2  O   UNL     1     -11.015   4.963  71.975  1.00  0.00    -0.101 OA 
ENDROOT
BRANCH   2   3
HETATM    3  C   UNL     1      -9.660   4.816  72.401  1.00  0.00    -0.144 C  
BRANCH   3   4
HETATM    4  C   UNL     1      -8.789   4.831  71.164  1.00  0.00    -0.119 C  
BRANCH   4   5
HETATM    5  O   UNL     1      -8.130   6.086  70.950  1.00  0.00    -0.116 OA 
BRANCH   5   6
HETATM    6  C   UNL     1      -8.832   7.144  71.418  1.00  0.00    -0.131 C  
HETATM    7  O   UNL     1      -9.200   7.271  72.576  1.00  0.00    -0.136 OA 
BRANCH   6   8
HETATM    8  C   UNL     1      -9.155   8.115  70.340  1.00  0.00    -0.150 C  
HETATM    9  C   UNL     1     -10.377   8.689  70.197  1.00  0.00    -0.207 C  
HETATM   10  C   UNL     1     -11.665   8.393  70.933  1.00  0.00    -0.269 C  
HETATM   11  N   UNL     1     -10.534   9.710  69.284  1.00  0.00    -0.208 NA 
HETATM   12  C   UNL     1      -9.595  10.121  68.367  1.00  0.00    -0.143 C  
HETATM   13  C   UNL     1      -8.346   9.595  68.391  1.00  0.00    -0.117 C  
HETATM   14  C   UNL     1     -10.098  11.149  67.381  1.00  0.00    -0.213 C  
HETATM   15  C   UNL     1      -7.955   8.572  69.472  1.00  0.00    -0.106 C  
BRANCH  13  16
HETATM   16  C   UNL     1      -7.413   9.948  67.286  1.00  0.00    -0.087 C  
HETATM   17  O   UNL     1      -6.353  10.530  67.466  1.00  0.00    -0.056 OA 
BRANCH  16  18
HETATM   18  O   UNL     1      -7.876   9.582  66.062  1.00  0.00    -0.099 OA 
BRANCH  18  19
HETATM   19  C   UNL     1      -7.040   8.609  65.392  1.00  0.00    -0.083 C  
HETATM   20  C   UNL     1      -7.915   7.517  64.781  1.00  0.00    -0.132 C  
HETATM   21  C   UNL     1      -6.224   9.315  64.317  1.00  0.00    -0.077 C  
ENDBRANCH  18  19
ENDBRANCH  16  18
ENDBRANCH  13  16
BRANCH  15  22
HETATM   22  C   UNL     1      -7.228   7.357  68.884  1.00  0.00    -0.089 A  
HETATM   23  C   UNL     1      -5.851   7.178  69.119  1.00  0.00    -0.019 A  
HETATM   24  C   UNL     1      -7.915   6.401  68.121  1.00  0.00    -0.109 A  
HETATM   25  C   UNL     1      -5.172   6.072  68.603  1.00  0.00    -0.007 A  
HETATM   26  O   UNL     1      -9.167   4.479  66.627  1.00  0.00    -0.121 OA 
HETATM   27  O   UNL     1      -7.317   3.330  66.373  1.00  0.00    -0.072 OA 
HETATM   28  C   UNL     1      -7.227   5.294  67.604  1.00  0.00    -0.071 A  
HETATM   29  N   UNL     1      -7.959   4.297  66.813  1.00  0.00    -0.097 N  
HETATM   30  C   UNL     1      -5.858   5.126  67.842  1.00  0.00    -0.018 A  
ENDBRANCH  15  22
ENDBRANCH   6   8
ENDBRANCH   5   6
ENDBRANCH   4   5
ENDBRANCH   3   4
ENDBRANCH   2   3
TORSDOF 9
ENDMDL
MODEL      253
REMARK 921   NORMALIZED FREE ENERGY PREDICTED BY IDOCK:   -0.35 KCAL/MOL
REMARK 922        TOTAL FREE ENERGY PREDICTED BY IDOCK:   -2.12 KCAL/MOL
REMARK 923 INTER-LIGAND FREE ENERGY PREDICTED BY IDOCK:   -2.39 KCAL/MOL
REMARK 924 INTRA-LIGAND FREE ENERGY PREDICTED BY IDOCK:    0.27 KCAL/MOL
REMARK 927      BINDING AFFINITY PREDICTED BY RF-SCORE:    0.00 PKD
ROOT
HETATM    1  C   UNL     1     -12.513  15.622  68.996  1.00  0.00     0.248 C  
HETATM    2  O   UNL     1     -12.020  15.516  70.323  1.00  0.00    -0.322 OA 
ENDROOT
BRANCH   2   3
HETATM    3  C   UNL     1     -10.991  14.530  70.420  1.00  0.00     0.090 C  
BRANCH   3   4
HETATM    4  C   UNL     1      -9.777  15.198  71.028  1.00  0.00     1.647 C  
BRANCH   4   5
HETATM    5  O   UNL     1      -8.868  15.720  70.052  1.00  0.00     0.092 OA 
BRANCH   5   6
HETATM    6  C   UNL     1      -7.848  14.878  69.767  1.00  0.00     0.045 C  
HETATM    7  O   UNL     1      -6.766  14.888  70.334  1.00  0.00    -0.124 OA 
BRANCH   6   8
HETATM    8  C   UNL     1      -8.178  13.969  68.638  1.00  0.00    -0.103 C  
HETATM    9  C   UNL     1      -7.710  12.698  68.545  1.00  0.00    -0.114 C  
HETATM   10  C   UNL     1      -6.686  11.990  69.404  1.00  0.00    -0.070 C  
HETATM   11  N   UNL     1      -8.211  11.871  67.562  1.00  0.00    -0.147 NA 
HETATM   12  C   UNL     1      -9.049  12.251  66.540  1.00  0.00    -0.188 C  
HETATM   13  C   UNL     1      -9.556  13.508  66.509  1.00  0.00    -0.284 C  
HETATM   14  C   UNL     1      -9.304  11.175  65.513  1.00  0.00    -0.247 C  
HETATM   15  C   UNL     1      -9.238  14.501  67.641  1.00  0.00    -0.195 C  
BRANCH  13  16
HETATM   16  C   UNL     1     -10.328  13.926  65.307  1.00  0.00    -0.378 C  
HETATM   17  O   UNL     1      -9.847  13.964  64.184  1.00  0.00     0.221 OA 
BRANCH  16  18
HETATM   18  O   UNL     1     -11.605  14.287  65.594  1.00  0.00    -0.333 OA 
BRANCH  18  19
HETATM   19  C   UNL     1     -12.594  13.633  64.765  1.00  0.00    -0.295 C  
HETATM   20  C   UNL     1     -12.340  13.974  63.299  1.00  0.00     0.373 C  
HETATM   21  C   UNL     1     -12.515  12.130  64.994  1.00  0.00    -0.099 C  
ENDBRANCH  18  19
ENDBRANCH  16  18
ENDBRANCH  13  16
BRANCH  15  22
HETATM   22  C   UNL     1      -8.822  15.876  67.103  1.00  0.00    -0.228 A  
HETATM   23  C   UNL     1      -7.563  16.045  66.497  1.00  0.00    -0.100 A  
HETATM   24  C   UNL     1      -9.685  16.979  67.189  1.00  0.00    -0.259 A  
HETATM   25  C   UNL     1      -7.169  17.285  65.990  1.00  0.00    -0.219 A  
HETATM   26  O   UNL     1     -11.299  19.187  67.302  1.00  0.00    -0.123 OA 
HETATM   27  O   UNL     1      -9.810  20.450  66.306  1.00  0.00    -0.382 OA 
HETATM   28  C   UNL     1      -9.283  18.222  66.679  1.00  0.00    -0.295 A  
HETATM   29  N   UNL     1     -10.199  19.366  66.769  1.00  0.00    -0.384 N  
HETATM   30  C   UNL     1      -8.029  18.379  66.080  1.00  0.00    -0.217 A  
ENDBRANCH  15  22
ENDBRANCH   6   8
ENDBRANCH   5   6
ENDBRANCH   4   5
ENDBRANCH   3   4
ENDBRANCH   2   3
TORSDOF 9
ENDMDL
MODEL      254
REMARK 921   NORMALIZED FREE ENERGY PREDICTED BY IDOCK:   -0.20 KCAL/MOL
REMARK 922        TOTAL FREE ENERGY PREDICTED BY IDOCK:   -1.89 KCAL/MOL
REMARK 923 INTER-LIGAND FREE ENERGY PREDICTED BY IDOCK:   -3.52 KCAL/MOL
REMARK 924 INTRA-LIGAND FREE ENERGY PREDICTED BY IDOCK:    1.63 KCAL/MOL
REMARK 927      BINDING AFFINITY PREDICTED BY RF-SCORE:    0.00 PKD
ROOT
HETATM    1  C   UNL     1     -11.024   4.796  65.429  1.00  0.00     0.073 C  
HETATM    2  O   UNL     1     -10.006   3.916  64.976  1.00  0.00    -0.189 OA 
ENDROOT
BRANCH   2   3
HETATM    3  C   UNL     1      -8.706   4.459  65.212  1.00  0.00    -0.128 C  
BRANCH   3   4
HETATM    4  C   UNL     1      -7.727   3.306  65.233  1.00  0.00    -0.081 C  
BRANCH   4   5
HETATM    5  O   UNL     1      -6.818   3.354  66.339  1.00  0.00    -0.051 OA 
BRANCH   5   6
HETATM    6  C   UNL     1      -6.874   4.519  67.026  1.00  0.00    -0.052 C  
HETATM    7  O   UNL     1      -6.705   5.621  66.529  1.00  0.00    -0.054 OA 
BRANCH   6   8
HETATM    8  C   UNL     1      -7.109   4.296  68.477  1.00  0.00    -0.052 C  
HETATM    9  C   UNL     1      -6.988   3.082  69.072  1.00  0.00    -0.044 C  
HETATM   10  C   UNL     1      -6.762   1.725  68.443  1.00  0.00    -0.029 C  
HETATM   11  N   UNL     1      -7.047   3.003  70.448  1.00  0.00    -0.034 NA 
HETATM   12  C   UNL     1      -7.377   4.030  71.300  1.00  0.00    -0.040 C  
HETATM   13  C   UNL     1      -7.555   5.284  70.815  1.00  0.00    -0.083 C  
HETATM   14  C   UNL     1      -7.526   3.617  72.744  1.00  0.00    -0.060 C  
HETATM   15  C   UNL     1      -7.342   5.575  69.319  1.00  0.00    -0.070 C  
BRANCH  13  16
HETATM   16  C   UNL     1      -8.065   6.331  71.743  1.00  0.00    -0.103 C  
HETATM   17  O   UNL     1      -7.391   7.280  72.116  1.00  0.00    -0.077 OA 
BRANCH  16  18
HETATM   18  O   UNL     1      -9.341   6.103  72.150  1.00  0.00    -0.152 OA 
BRANCH  18  19
HETATM   19  C   UNL     1     -10.116   7.311  72.336  1.00  0.00    -0.185 C  
HETATM   20  C   UNL     1     -10.376   7.528  73.825  1.00  0.00    -0.203 C  
HETATM   21  C   UNL     1      -9.350   8.486  71.743  1.00  0.00    -0.323 C  
ENDBRANCH  18  19
ENDBRANCH  16  18
ENDBRANCH  13  16
BRANCH  15  22
HETATM   22  C   UNL     1      -8.485   6.406  68.723  1.00  0.00    -0.121 A  
HETATM   23  C   UNL     1      -9.801   5.906  68.736  1.00  0.00    -0.177 A  
HETATM   24  C   UNL     1      -8.249   7.676  68.174  1.00  0.00    -0.124 A  
HETATM   25  C   UNL     1     -10.858   6.652  68.210  1.00  0.00    -0.322 A  
HETATM   26  O   UNL     1      -7.889  10.162  67.088  1.00  0.00    -0.099 OA 
HETATM   27  O   UNL     1     -10.022  10.377  66.624  1.00  0.00    -0.194 OA 
HETATM   28  C   UNL     1      -9.314   8.418  67.647  1.00  0.00    -0.137 A  
HETATM   29  N   UNL     1      -9.054   9.748  67.081  1.00  0.00    -0.134 N  
HETATM   30  C   UNL     1     -10.618   7.911  67.662  1.00  0.00    -0.276 A  
ENDBRANCH  15  22
ENDBRANCH   6   8
ENDBRANCH   5   6
ENDBRANCH   4   5
ENDBRANCH   3   4
ENDBRANCH   2   3
TORSDOF 9
ENDMDL
MODEL      255
REMARK 921   NORMALIZED FREE ENERGY PREDICTED BY IDOCK:   -0.00 KCAL/MOL
REMARK 922        TOTAL FREE ENERGY PREDICTED BY IDOCK:   -1.58 KCAL/MOL
REMARK 923 INTER-LIGAND FREE ENERGY PREDICTED BY IDOCK:   -2.23 KCAL/MOL
REMARK 924 INTRA-LIGAND FREE ENERGY PREDICTED BY IDOCK:    0.65 KCAL/MOL
REMARK 927      BINDING AFFINITY PREDICTED BY RF-SCORE:    0.00 PKD
ROOT
HETATM    1  C   UNL     1     -13.340   9.632  71.459  1.00  0.00    -0.388 C  
HETATM    2  O   UNL     1     -13.862  10.939  71.269  1.00  0.00     0.384 OA 
ENDROOT
BRANCH   2   3
HETATM    3  C   UNL     1     -13.042  11.923  71.900  1.00  0.00    -0.369 C  
BRANCH   3   4
HETATM    4  C   UNL     1     -13.053  13.156  71.023  1.00  0.00    -0.045 C  
BRANCH   4   5
HETATM    5  O   UNL     1     -11.759  13.502  70.515  1.00  0.00    -0.220 OA 
BRANCH   5   6
HETATM    6  C   UNL     1     -11.543  14.838  70.470  1.00  0.00    -0.279 C  
HETATM    7  O   UNL     1     -12.108  15.653  71.183  1.00  0.00    -0.336 OA 
BRANCH   6   8
HETATM    8  C   UNL     1     -10.573  15.207  69.406  1.00  0.00    -0.258 C  
HETATM    9  C   UNL     1     -10.516  16.442  68.847  1.00  0.00    -0.285 C  
HETATM   10  C   UNL     1     -11.451  17.618  69.026  1.00  0.00     1.551 C  
HETATM   11  N   UNL     1      -9.470  16.747  68.001  1.00  0.00    -0.230 NA 
HETATM   12  C   UNL     1      -8.533  15.859  67.529  1.00  0.00    -0.165 C  
HETATM   13  C   UNL     1      -8.509  14.584  67.992  1.00  0.00    -0.161 C  
HETATM   14  C   UNL     1      -7.603  16.432  66.487  1.00  0.00    -0.258 C  
HETATM   15  C   UNL     1      -9.500  14.137  69.082  1.00  0.00     0.162 C  
BRANCH  13  16
HETATM   16  C   UNL     1      -7.585  13.616  67.341  1.00  0.00    -0.130 C  
HETATM   17  O   UNL     1      -7.897  12.942  66.370  1.00  0.00     0.500 OA 
BRANCH  16  18
HETATM   18  O   UNL     1      -6.376  13.540  67.957  1.00  0.00    -0.104 OA 
BRANCH  18  19
HETATM   19  C   UNL     1      -6.294  14.321  69.173  1.00  0.00    -0.104 C  
HETATM   20  C   UNL     1      -6.080  13.391  70.364  1.00  0.00    -0.077 C  
HETATM   21  C   UNL     1      -5.147  15.314  69.047  1.00  0.00    -0.095 C  
ENDBRANCH  18  19
ENDBRANCH  16  18
ENDBRANCH  13  16
BRANCH  15  22
HETATM   22  C   UNL     1     -10.167  12.798  68.742  1.00  0.00    -0.094 A  
HETATM   23  C   UNL     1     -11.165  12.738  67.751  1.00  0.00    -0.317 A  
HETATM   24  C   UNL     1      -9.788  11.614  69.394  1.00  0.00     0.452 A  
HETATM   25  C   UNL     1     -11.776  11.528  67.418  1.00  0.00    -0.231 A  
HETATM   26  O   UNL     1      -9.116   9.253  70.603  1.00  0.00    -0.226 OA 
HETATM   27  O   UNL     1     -10.566   8.116  69.415  1.00  0.00    -0.227 OA 
HETATM   28  C   UNL     1     -10.407  10.402  69.056  1.00  0.00    -0.214 A  
HETATM   29  N   UNL     1      -9.997   9.170  69.742  1.00  0.00    -0.184 N  
HETATM   30  C   UNL     1     -11.399  10.355  68.071  1.00  0.00    -0.277 A  
ENDBRANCH  15  22
ENDBRANCH   6   8
ENDBRANCH   5   6
ENDBRANCH   4   5
ENDBRANCH   3   4
ENDBRANCH   2   3
TORSDOF 9
ENDMDL
MODEL      256
REMARK 921   NORMALIZED FREE ENERGY PREDICTED BY IDOCK:    0.22 KCAL/MOL
REMARK 922        TOTAL FREE ENERGY PREDICTED BY IDOCK:   -1.25 KCAL/MOL
REMARK 923 INTER-LIGAND FREE ENERGY PREDICTED BY IDOCK:   -2.73 KCAL/MOL
REMARK 924 INTRA-LIGAND FREE ENERGY PREDICTED BY IDOCK:    1.48 KCAL/MOL
REMARK 927      BINDING AFFINITY PREDICTED BY RF-SCORE:    0.00 PKD
ROOT
HETATM    1  C   UNL     1     -11.263   5.161  65.651  1.00  0.00     0.489 C  
HETATM    2  O   UNL     1     -10.496   3.967  65.671  1.00  0.00    -0.096 OA 
ENDROOT
BRANCH   2   3
HETATM    3  C   UNL     1      -9.171   4.207  66.146  1.00  0.00    -0.150 C  
BRANCH   3   4
HETATM    4  C   UNL     1      -8.777   3.029  67.010  1.00  0.00    -0.126 C  
BRANCH   4   5
HETATM    5  O   UNL     1      -7.742   3.338  67.952  1.00  0.00    -0.063 OA 
BRANCH   5   6
HETATM    6  C   UNL     1      -7.293   4.611  67.853  1.00  0.00    -0.066 C  
HETATM    7  O   UNL     1      -6.670   5.051  66.900  1.00  0.00    -0.052 OA 
BRANCH   6   8
HETATM    8  C   UNL     1      -7.600   5.402  69.074  1.00  0.00    -0.085 C  
HETATM    9  C   UNL     1      -7.900   4.837  70.271  1.00  0.00    -0.058 C  
HETATM   10  C   UNL     1      -8.142   3.383  70.609  1.00  0.00    -0.063 C  
HETATM   11  N   UNL     1      -7.991   5.642  71.387  1.00  0.00    -0.111 NA 
HETATM   12  C   UNL     1      -7.960   7.017  71.392  1.00  0.00    -0.103 C  
HETATM   13  C   UNL     1      -7.700   7.695  70.247  1.00  0.00    -0.091 C  
HETATM   14  C   UNL     1      -8.249   7.640  72.736  1.00  0.00    -0.158 C  
HETATM   15  C   UNL     1      -7.392   6.932  68.946  1.00  0.00    -0.094 C  
BRANCH  13  16
HETATM   16  C   UNL     1      -7.832   9.178  70.262  1.00  0.00    -0.125 C  
HETATM   17  O   UNL     1      -7.067   9.911  70.871  1.00  0.00    -0.323 OA 
BRANCH  16  18
HETATM   18  O   UNL     1      -8.905   9.623  69.557  1.00  0.00    -0.160 OA 
BRANCH  18  19
HETATM   19  C   UNL     1      -8.708  10.927  68.961  1.00  0.00    -0.100 C  
HETATM   20  C   UNL     1      -7.367  10.960  68.233  1.00  0.00    -0.087 C  
HETATM   21  C   UNL     1      -9.854  11.211  68.000  1.00  0.00    -0.185 C  
ENDBRANCH  18  19
ENDBRANCH  16  18
ENDBRANCH  13  16
BRANCH  15  22
HETATM   22  C   UNL     1      -8.182   7.481  67.753  1.00  0.00    -0.119 A  
HETATM   23  C   UNL     1      -9.588   7.406  67.743  1.00  0.00    -0.162 A  
HETATM   24  C   UNL     1      -7.529   8.079  66.664  1.00  0.00    -0.089 A  
HETATM   25  C   UNL     1     -10.328   7.911  66.672  1.00  0.00    -0.270 A  
HETATM   26  O   UNL     1      -6.349   9.267  64.499  1.00  0.00    -0.074 OA 
HETATM   27  O   UNL     1      -8.279   9.647  63.529  1.00  0.00    -0.136 OA 
HETATM   28  C   UNL     1      -8.278   8.583  65.591  1.00  0.00    -0.130 A  
HETATM   29  N   UNL     1      -7.583   9.211  64.461  1.00  0.00    -0.103 N  
HETATM   30  C   UNL     1      -9.675   8.500  65.591  1.00  0.00     0.160 A  
ENDBRANCH  15  22
ENDBRANCH   6   8
ENDBRANCH   5   6
ENDBRANCH   4   5
ENDBRANCH   3   4
ENDBRANCH   2   3
TORSDOF 9
ENDMDL
MODEL      257
REMARK 921   NORMALIZED FREE ENERGY PREDICTED BY IDOCK:    0.44 KCAL/MOL
REMARK 922        TOTAL FREE ENERGY PREDICTED BY IDOCK:   -0.90 KCAL/MOL
REMARK 923 INTER-LIGAND FREE ENERGY PREDICTED BY IDOCK:    0.38 KCAL/MOL
REMARK 924 INTRA-LIGAND FREE ENERGY PREDICTED BY IDOCK:   -1.29 KCAL/MOL
REMARK 927      BINDING AFFINITY PREDICTED BY RF-SCORE:    0.00 PKD
ROOT
HETATM    1  C   UNL     1     -11.651   5.534  62.330  1.00  0.00     3.378 C  
HETATM    2  O   UNL     1     -10.497   4.715  62.445  1.00  0.00     0.016 OA 
ENDROOT
BRANCH   2   3
HETATM    3  C   UNL     1     -10.769   3.535  63.203  1.00  0.00    -0.213 C  
BRANCH   3   4
HETATM    4  C   UNL     1      -9.625   3.345  64.175  1.00  0.00    -0.146 C  
BRANCH   4   5
HETATM    5  O   UNL     1      -9.021   4.577  64.589  1.00  0.00    -0.145 OA 
BRANCH   5   6
HETATM    6  C   UNL     1      -7.773   4.419  65.087  1.00  0.00    -0.085 C  
HETATM    7  O   UNL     1      -7.103   3.405  64.963  1.00  0.00    -0.062 OA 
BRANCH   6   8
HETATM    8  C   UNL     1      -7.329   5.610  65.857  1.00  0.00    -0.073 C  
HETATM    9  C   UNL     1      -6.341   6.441  65.438  1.00  0.00    -0.038 C  
HETATM   10  C   UNL     1      -5.402   6.295  64.261  1.00  0.00    -0.018 C  
HETATM   11  N   UNL     1      -6.121   7.617  66.124  1.00  0.00    -0.038 NA 
HETATM   12  C   UNL     1      -6.710   7.979  67.312  1.00  0.00    -0.065 C  
HETATM   13  C   UNL     1      -7.690   7.209  67.847  1.00  0.00    -0.113 C  
HETATM   14  C   UNL     1      -6.158   9.246  67.920  1.00  0.00    -0.050 C  
HETATM   15  C   UNL     1      -8.182   5.953  67.105  1.00  0.00    -0.105 C  
BRANCH  13  16
HETATM   16  C   UNL     1      -8.188   7.549  69.208  1.00  0.00    -0.130 C  
HETATM   17  O   UNL     1      -7.490   7.491  70.209  1.00  0.00    -0.081 OA 
BRANCH  16  18
HETATM   18  O   UNL     1      -9.501   7.898  69.220  1.00  0.00    -0.152 OA 
BRANCH  18  19
HETATM   19  C   UNL     1     -10.111   7.815  70.530  1.00  0.00    -0.192 C  
HETATM   20  C   UNL     1     -10.250   9.217  71.119  1.00  0.00    -0.384 C  
HETATM   21  C   UNL     1     -11.471   7.143  70.401  1.00  0.00    -0.317 C  
ENDBRANCH  18  19
ENDBRANCH  16  18
ENDBRANCH  13  16
BRANCH  15  22
HETATM   22  C   UNL     1      -8.285   4.737  68.033  1.00  0.00    -0.095 A  
HETATM   23  C   UNL     1      -9.445   3.939  68.023  1.00  0.00    -0.221 A  
HETATM   24  C   UNL     1      -7.230   4.387  68.890  1.00  0.00    -0.052 A  
HETATM   25  C   UNL     1      -9.555   2.820  68.851  1.00  0.00    -0.056 A  
HETATM   26  O   UNL     1      -5.226   3.620  70.589  1.00  0.00    -0.003 OA 
HETATM   27  O   UNL     1      -6.372   1.902  71.325  1.00  0.00    -0.018 OA 
HETATM   28  C   UNL     1      -7.347   3.263  69.719  1.00  0.00    -0.044 A  
HETATM   29  N   UNL     1      -6.233   2.904  70.606  1.00  0.00    -0.022 N  
HETATM   30  C   UNL     1      -8.505   2.478  69.703  1.00  0.00    -0.091 A  
ENDBRANCH  15  22
ENDBRANCH   6   8
ENDBRANCH   5   6
ENDBRANCH   4   5
ENDBRANCH   3   4
ENDBRANCH   2   3
TORSDOF 9
ENDMDL
MODEL      258
REMARK 921   NORMALIZED FREE ENERGY PREDICTED BY IDOCK:    0.53 KCAL/MOL
REMARK 922        TOTAL FREE ENERGY PREDICTED BY IDOCK:   -0.77 KCAL/MOL
REMARK 923 INTER-LIGAND FREE ENERGY PREDICTED BY IDOCK:   -1.48 KCAL/MOL
REMARK 924 INTRA-LIGAND FREE ENERGY PREDICTED BY IDOCK:    0.71 KCAL/MOL
REMARK 927      BINDING AFFINITY PREDICTED BY RF-SCORE:    0.00 PKD
ROOT
HETATM    1  C   UNL     1      -8.501  16.391  69.391  1.00  0.00     0.030 C  
HETATM    2  O   UNL     1      -9.754  15.826  69.746  1.00  0.00    -0.275 OA 
ENDROOT
BRANCH   2   3
HETATM    3  C   UNL     1     -10.003  14.617  69.028  1.00  0.00    -0.193 C  
BRANCH   3   4
HETATM    4  C   UNL     1      -8.821  14.381  68.112  1.00  0.00    -0.180 C  
BRANCH   4   5
HETATM    5  O   UNL     1      -7.799  13.570  68.704  1.00  0.00    -0.134 OA 
BRANCH   5   6
HETATM    6  C   UNL     1      -7.684  12.351  68.128  1.00  0.00    -0.139 C  
HETATM    7  O   UNL     1      -8.135  12.060  67.032  1.00  0.00    -0.164 OA 
BRANCH   6   8
HETATM    8  C   UNL     1      -6.990  11.382  69.017  1.00  0.00    -0.106 C  
HETATM    9  C   UNL     1      -6.306  11.751  70.130  1.00  0.00    -0.034 C  
HETATM   10  C   UNL     1      -5.961  13.138  70.625  1.00  0.00    -0.070 C  
HETATM   11  N   UNL     1      -5.850  10.774  70.989  1.00  0.00    -0.328 NA 
HETATM   12  C   UNL     1      -5.881   9.419  70.757  1.00  0.00    -0.058 C  
HETATM   13  C   UNL     1      -6.510   8.932  69.659  1.00  0.00    -0.042 C  
HETATM   14  C   UNL     1      -5.161   8.593  71.796  1.00  0.00    -0.037 C  
HETATM   15  C   UNL     1      -7.233   9.886  68.692  1.00  0.00    -0.072 C  
BRANCH  13  16
HETATM   16  C   UNL     1      -6.384   7.478  69.363  1.00  0.00    -0.032 C  
HETATM   17  O   UNL     1      -5.323   6.874  69.419  1.00  0.00    -0.014 OA 
BRANCH  16  18
HETATM   18  O   UNL     1      -7.562   6.907  68.998  1.00  0.00    -0.099 OA 
BRANCH  18  19
HETATM   19  C   UNL     1      -8.667   7.248  69.868  1.00  0.00    -0.141 C  
HETATM   20  C   UNL     1      -9.986   6.994  69.142  1.00  0.00    -0.165 C  
HETATM   21  C   UNL     1      -8.575   6.410  71.136  1.00  0.00    -0.128 C  
ENDBRANCH  18  19
ENDBRANCH  16  18
ENDBRANCH  13  16
BRANCH  15  22
HETATM   22  C   UNL     1      -6.888   9.595  67.226  1.00  0.00    -0.083 A  
HETATM   23  C   UNL     1      -5.585   9.835  66.748  1.00  0.00    -0.046 A  
HETATM   24  C   UNL     1      -7.847   9.074  66.345  1.00  0.00    -0.099 A  
HETATM   25  C   UNL     1      -5.246   9.565  65.420  1.00  0.00    -0.040 A  
HETATM   26  O   UNL     1      -9.645   8.051  64.553  1.00  0.00     1.540 OA 
HETATM   27  O   UNL     1      -8.169   8.030  62.932  1.00  0.00    -0.161 OA 
HETATM   28  C   UNL     1      -7.501   8.806  65.013  1.00  0.00    -0.097 A  
HETATM   29  N   UNL     1      -8.513   8.255  64.104  1.00  0.00    -0.039 N  
HETATM   30  C   UNL     1      -6.204   9.050  64.548  1.00  0.00    -0.070 A  
ENDBRANCH  15  22
ENDBRANCH   6   8
ENDBRANCH   5   6
ENDBRANCH   4   5
ENDBRANCH   3   4
ENDBRANCH   2   3
TORSDOF 9
ENDMDL
MODEL      259
REMARK 921   NORMALIZED FREE ENERGY PREDICTED BY IDOCK:    0.74 KCAL/MOL
REMARK 922        TOTAL FREE ENERGY PREDICTED BY IDOCK:   -0.45 KCAL/MOL
REMARK 923 INTER-LIGAND FREE ENERGY PREDICTED BY IDOCK:   -3.75 KCAL/MOL
REMARK 924 INTRA-LIGAND FREE ENERGY PREDICTED BY IDOCK:    3.31 KCAL/MOL
REMARK 927      BINDING AFFINITY PREDICTED BY RF-SCORE:    0.00 PKD
ROOT
HETATM    1  C   UNL     1     -10.946  17.376  67.891  1.00  0.00    -0.155 C  
HETATM    2  O   UNL     1     -11.533  16.216  68.463  1.00  0.00    -0.376 OA 
ENDROOT
BRANCH   2   3
HETATM    3  C   UNL     1     -12.132  15.389  67.464  1.00  0.00     0.415 C  
BRANCH   3   4
HETATM    4  C   UNL     1     -11.547  14.001  67.611  1.00  0.00    -0.354 C  
BRANCH   4   5
HETATM    5  O   UNL     1     -11.303  13.630  68.974  1.00  0.00    -0.257 OA 
BRANCH   5   6
HETATM    6  C   UNL     1     -10.406  12.624  69.101  1.00  0.00     0.190 C  
HETATM    7  O   UNL     1      -9.230  12.705  68.785  1.00  0.00    -0.019 OA 
BRANCH   6   8
HETATM    8  C   UNL     1     -11.037  11.383  69.621  1.00  0.00    -0.241 C  
HETATM    9  C   UNL     1     -12.096  11.385  70.469  1.00  0.00    -0.394 C  
HETATM   10  C   UNL     1     -12.753  12.549  71.177  1.00  0.00    -0.340 C  
HETATM   11  N   UNL     1     -12.728  10.193  70.754  1.00  0.00    -0.327 NA 
HETATM   12  C   UNL     1     -12.293   8.943  70.381  1.00  0.00     0.383 C  
HETATM   13  C   UNL     1     -11.223   8.812  69.559  1.00  0.00     0.112 C  
HETATM   14  C   UNL     1     -13.090   7.805  70.973  1.00  0.00    -0.047 C  
HETATM   15  C   UNL     1     -10.517  10.061  69.001  1.00  0.00    -0.233 C  
BRANCH  13  16
HETATM   16  C   UNL     1     -10.690   7.445  69.308  1.00  0.00    -0.185 C  
HETATM   17  O   UNL     1     -10.849   6.514  70.084  1.00  0.00    -0.236 OA 
BRANCH  16  18
HETATM   18  O   UNL     1      -9.989   7.352  68.148  1.00  0.00    -0.155 OA 
BRANCH  18  19
HETATM   19  C   UNL     1      -9.859   5.998  67.655  1.00  0.00    -0.123 C  
HETATM   20  C   UNL     1      -9.823   5.026  68.832  1.00  0.00    -0.245 C  
HETATM   21  C   UNL     1     -11.032   5.692  66.734  1.00  0.00    -0.180 C  
ENDBRANCH  18  19
ENDBRANCH  16  18
ENDBRANCH  13  16
BRANCH  15  22
HETATM   22  C   UNL     1      -8.992   9.971  69.136  1.00  0.00    -0.172 A  
HETATM   23  C   UNL     1      -8.165  10.398  68.079  1.00  0.00    -0.114 A  
HETATM   24  C   UNL     1      -8.395   9.484  70.308  1.00  0.00    -0.221 A  
HETATM   25  C   UNL     1      -6.774  10.337  68.185  1.00  0.00    -0.058 A  
HETATM   26  O   UNL     1      -7.137   8.555  72.555  1.00  0.00    -0.170 OA 
HETATM   27  O   UNL     1      -5.146   8.879  71.695  1.00  0.00    -0.033 OA 
HETATM   28  C   UNL     1      -6.998   9.424  70.408  1.00  0.00    -0.100 A  
HETATM   29  N   UNL     1      -6.386   8.917  71.643  1.00  0.00    -0.073 N  
HETATM   30  C   UNL     1      -6.185   9.848  69.351  1.00  0.00    -0.044 A  
ENDBRANCH  15  22
ENDBRANCH   6   8
ENDBRANCH   5   6
ENDBRANCH   4   5
ENDBRANCH   3   4
ENDBRANCH   2   3
TORSDOF 9
ENDMDL
MODEL      260
REMARK 921   NORMALIZED FREE ENERGY PREDICTED BY IDOCK:    0.76 KCAL/MOL
REMARK 922        TOTAL FREE ENERGY PREDICTED BY IDOCK:   -0.42 KCAL/MOL
REMARK 923 INTER-LIGAND FREE ENERGY PREDICTED BY IDOCK:   -2.59 KCAL/MOL
REMARK 924 INTRA-LIGAND FREE ENERGY PREDICTED BY IDOCK:    2.16 KCAL/MOL
REMARK 927      BINDING AFFINITY PREDICTED BY RF-SCORE:    0.00 PKD
ROOT
HETATM    1  C   UNL     1     -11.122   7.587  73.024  1.00  0.00    -0.362 C  
HETATM    2  O   UNL     1     -10.835   8.879  72.509  1.00  0.00    -0.179 OA 
ENDROOT
BRANCH   2   3
HETATM    3  C   UNL     1     -11.826   9.295  71.568  1.00  0.00    -0.374 C  
BRANCH   3   4
HETATM    4  C   UNL     1     -12.316   8.059  70.846  1.00  0.00    -0.060 C  
BRANCH   4   5
HETATM    5  O   UNL     1     -11.257   7.184  70.436  1.00  0.00    -0.270 OA 
BRANCH   5   6
HETATM    6  C   UNL     1     -11.006   7.236  69.107  1.00  0.00    -0.068 C  
HETATM    7  O   UNL     1     -11.865   7.352  68.246  1.00  0.00     1.172 OA 
BRANCH   6   8
HETATM    8  C   UNL     1      -9.558   7.078  68.810  1.00  0.00    -0.139 C  
HETATM    9  C   UNL     1      -8.760   6.187  69.452  1.00  0.00    -0.123 C  
HETATM   10  C   UNL     1      -9.069   5.314  70.648  1.00  0.00    -0.175 C  
HETATM   11  N   UNL     1      -7.478   5.982  68.989  1.00  0.00    -0.084 NA 
HETATM   12  C   UNL     1      -6.850   6.715  68.009  1.00  0.00    -0.077 C  
HETATM   13  C   UNL     1      -7.538   7.657  67.318  1.00  0.00    -0.108 C  
HETATM   14  C   UNL     1      -5.390   6.377  67.820  1.00  0.00    -0.005 C  
HETATM   15  C   UNL     1      -9.036   7.880  67.592  1.00  0.00    -0.133 C  
BRANCH  13  16
HETATM   16  C   UNL     1      -6.783   8.533  66.381  1.00  0.00    -0.070 C  
HETATM   17  O   UNL     1      -5.603   8.813  66.531  1.00  0.00    -0.044 OA 
BRANCH  16  18
HETATM   18  O   UNL     1      -7.549   9.009  65.365  1.00  0.00    -0.088 OA 
BRANCH  18  19
HETATM   19  C   UNL     1      -6.838   9.891  64.465  1.00  0.00    -0.124 C  
HETATM   20  C   UNL     1      -6.160   9.069  63.372  1.00  0.00    -0.088 C  
HETATM   21  C   UNL     1      -7.823  10.885  63.864  1.00  0.00     0.387 C  
ENDBRANCH  18  19
ENDBRANCH  16  18
ENDBRANCH  13  16
BRANCH  15  22
HETATM   22  C   UNL     1      -9.381   9.366  67.742  1.00  0.00    -0.144 A  
HETATM   23  C   UNL     1     -10.697   9.811  67.514  1.00  0.00    -0.327 A  
HETATM   24  C   UNL     1      -8.407  10.302  68.124  1.00  0.00    -0.118 A  
HETATM   25  C   UNL     1     -11.036  11.158  67.657  1.00  0.00    -0.323 A  
HETATM   26  O   UNL     1      -6.581  12.199  68.869  1.00  0.00    -0.077 OA 
HETATM   27  O   UNL     1      -8.069  13.807  68.787  1.00  0.00    -0.118 OA 
HETATM   28  C   UNL     1      -8.753  11.653  68.265  1.00  0.00    -0.163 A  
HETATM   29  N   UNL     1      -7.726  12.620  68.671  1.00  0.00    -0.104 N  
HETATM   30  C   UNL     1     -10.064  12.085  68.033  1.00  0.00    -0.199 A  
ENDBRANCH  15  22
ENDBRANCH   6   8
ENDBRANCH   5   6
ENDBRANCH   4   5
ENDBRANCH   3   4
ENDBRANCH   2   3
TORSDOF 9
ENDMDL
MODEL      261
REMARK 921   NORMALIZED FREE ENERGY PREDICTED BY IDOCK:    0.76 KCAL/MOL
REMARK 922        TOTAL FREE ENERGY PREDICTED BY IDOCK:   -0.41 KCAL/MOL
REMARK 923 INTER-LIGAND FREE ENERGY PREDICTED BY IDOCK:   -2.18 KCAL/MOL
REMARK 924 INTRA-LIGAND FREE ENERGY PREDICTED BY IDOCK:    1.77 KCAL/MOL
REMARK 927      BINDING AFFINITY PREDICTED BY RF-SCORE:    0.00 PKD
ROOT
HETATM    1  C   UNL     1     -11.082   9.851  70.953  1.00  0.00    -0.348 C  
HETATM    2  O   UNL     1      -9.698  10.125  71.115  1.00  0.00     0.488 OA 
ENDROOT
BRANCH   2   3
HETATM    3  C   UNL     1      -9.067  10.378  69.859  1.00  0.00     0.159 C  
BRANCH   3   4
HETATM    4  C   UNL     1      -7.583  10.145  70.041  1.00  0.00    -0.152 C  
BRANCH   4   5
HETATM    5  O   UNL     1      -7.210   8.764  69.947  1.00  0.00    -0.049 OA 
BRANCH   5   6
HETATM    6  C   UNL     1      -8.156   7.995  69.360  1.00  0.00    -0.118 C  
HETATM    7  O   UNL     1      -8.821   8.335  68.394  1.00  0.00    -0.136 OA 
BRANCH   6   8
HETATM    8  C   UNL     1      -8.333   6.699  70.066  1.00  0.00    -0.135 C  
HETATM    9  C   UNL     1      -8.428   6.595  71.416  1.00  0.00    -0.124 C  
HETATM   10  C   UNL     1      -8.231   7.657  72.475  1.00  0.00    -0.148 C  
HETATM   11  N   UNL     1      -8.772   5.380  71.971  1.00  0.00    -0.130 NA 
HETATM   12  C   UNL     1      -8.884   4.188  71.293  1.00  0.00    -0.107 C  
HETATM   13  C   UNL     1      -8.775   4.162  69.941  1.00  0.00    -0.114 C  
HETATM   14  C   UNL     1      -9.109   2.988  72.180  1.00  0.00    -0.143 C  
HETATM   15  C   UNL     1      -8.575   5.469  69.154  1.00  0.00    -0.104 C  
BRANCH  13  16
HETATM   16  C   UNL     1      -8.744   2.838  69.264  1.00  0.00    -0.083 C  
HETATM   17  O   UNL     1      -8.028   1.917  69.629  1.00  0.00    -0.042 OA 
BRANCH  16  18
HETATM   18  O   UNL     1      -9.568   2.773  68.185  1.00  0.00    -0.196 OA 
BRANCH  18  19
HETATM   19  C   UNL     1      -8.894   3.001  66.925  1.00  0.00    -0.145 C  
HETATM   20  C   UNL     1      -8.381   1.674  66.372  1.00  0.00    -0.090 C  
HETATM   21  C   UNL     1      -9.868   3.653  65.954  1.00  0.00    -0.031 C  
ENDBRANCH  18  19
ENDBRANCH  16  18
ENDBRANCH  13  16
BRANCH  15  22
HETATM   22  C   UNL     1      -7.457   5.350  68.111  1.00  0.00    -0.076 A  
HETATM   23  C   UNL     1      -6.287   4.626  68.411  1.00  0.00    -0.036 A  
HETATM   24  C   UNL     1      -7.582   5.940  66.844  1.00  0.00    -0.099 A  
HETATM   25  C   UNL     1      -5.263   4.494  67.471  1.00  0.00    -0.011 A  
HETATM   26  O   UNL     1      -7.735   7.047  64.346  1.00  0.00    -0.102 OA 
HETATM   27  O   UNL     1      -5.761   6.280  63.776  1.00  0.00    -0.021 OA 
HETATM   28  C   UNL     1      -6.549   5.805  65.906  1.00  0.00    -0.044 A  
HETATM   29  N   UNL     1      -6.695   6.422  64.581  1.00  0.00    -0.038 N  
HETATM   30  C   UNL     1      -5.390   5.085  66.215  1.00  0.00    -0.009 A  
ENDBRANCH  15  22
ENDBRANCH   6   8
ENDBRANCH   5   6
ENDBRANCH   4   5
ENDBRANCH   3   4
ENDBRANCH   2   3
TORSDOF 9
ENDMDL
MODEL      262
REMARK 921   NORMALIZED FREE ENERGY PREDICTED BY IDOCK:    0.93 KCAL/MOL
REMARK 922        TOTAL FREE ENERGY PREDICTED BY IDOCK:   -0.16 KCAL/MOL
REMARK 923 INTER-LIGAND FREE ENERGY PREDICTED BY IDOCK:   -1.10 KCAL/MOL
REMARK 924 INTRA-LIGAND FREE ENERGY PREDICTED BY IDOCK:    0.94 KCAL/MOL
REMARK 927      BINDING AFFINITY PREDICTED BY RF-SCORE:    0.00 PKD
ROOT
HETATM    1  C   UNL     1      -5.224  17.040  71.569  1.00  0.00     0.179 C  
HETATM    2  O   UNL     1      -6.114  16.487  70.612  1.00  0.00     0.113 OA 
ENDROOT
BRANCH   2   3
HETATM    3  C   UNL     1      -6.142  15.061  70.690  1.00  0.00    -0.032 C  
BRANCH   3   4
HETATM    4  C   UNL     1      -6.294  14.531  69.281  1.00  0.00    -0.117 C  
BRANCH   4   5
HETATM    5  O   UNL     1      -6.628  13.138  69.232  1.00  0.00    -0.106 OA 
BRANCH   5   6
HETATM    6  C   UNL     1      -6.282  12.547  68.065  1.00  0.00    -0.088 C  
HETATM    7  O   UNL     1      -5.427  12.970  67.303  1.00  0.00    -0.335 OA 
BRANCH   6   8
HETATM    8  C   UNL     1      -7.110  11.343  67.787  1.00  0.00    -0.081 C  
HETATM    9  C   UNL     1      -6.651  10.268  67.097  1.00  0.00    -0.073 C  
HETATM   10  C   UNL     1      -5.346  10.095  66.352  1.00  0.00    -0.046 C  
HETATM   11  N   UNL     1      -7.424   9.127  67.045  1.00  0.00    -0.090 NA 
HETATM   12  C   UNL     1      -8.715   9.008  67.501  1.00  0.00    -0.119 C  
HETATM   13  C   UNL     1      -9.293  10.031  68.180  1.00  0.00    -0.137 C  
HETATM   14  C   UNL     1      -9.375   7.694  67.163  1.00  0.00    -0.180 C  
HETATM   15  C   UNL     1      -8.494  11.310  68.483  1.00  0.00    -0.156 C  
BRANCH  13  16
HETATM   16  C   UNL     1     -10.739   9.923  68.516  1.00  0.00    -0.226 C  
HETATM   17  O   UNL     1     -11.613   9.778  67.674  1.00  0.00     0.150 OA 
BRANCH  16  18
HETATM   18  O   UNL     1     -10.984  10.033  69.848  1.00  0.00    -0.253 OA 
BRANCH  18  19
HETATM   19  C   UNL     1     -12.359  10.359  70.161  1.00  0.00    -0.208 C  
HETATM   20  C   UNL     1     -12.398  11.562  71.100  1.00  0.00    -0.382 C  
HETATM   21  C   UNL     1     -13.103  10.657  68.866  1.00  0.00     2.670 C  
ENDBRANCH  18  19
ENDBRANCH  16  18
ENDBRANCH  13  16
BRANCH  15  22
HETATM   22  C   UNL     1      -9.288  12.580  68.154  1.00  0.00    -0.210 A  
HETATM   23  C   UNL     1      -9.399  13.016  66.820  1.00  0.00    -0.244 A  
HETATM   24  C   UNL     1      -9.927  13.317  69.163  1.00  0.00     0.315 A  
HETATM   25  C   UNL     1     -10.128  14.162  66.497  1.00  0.00    -0.283 A  
HETATM   26  O   UNL     1     -11.213  14.817  71.056  1.00  0.00    -0.209 OA 
HETATM   27  O   UNL     1     -11.962  16.240  69.565  1.00  0.00    -0.158 OA 
HETATM   28  C   UNL     1     -10.655  14.468  68.831  1.00  0.00    -0.249 A  
HETATM   29  N   UNL     1     -11.325  15.227  69.896  1.00  0.00    -0.267 N  
HETATM   30  C   UNL     1     -10.758  14.894  67.503  1.00  0.00    -0.276 A  
ENDBRANCH  15  22
ENDBRANCH   6   8
ENDBRANCH   5   6
ENDBRANCH   4   5
ENDBRANCH   3   4
ENDBRANCH   2   3
TORSDOF 9
ENDMDL
MODEL      263
REMARK 921   NORMALIZED FREE ENERGY PREDICTED BY IDOCK:    1.24 KCAL/MOL
REMARK 922        TOTAL FREE ENERGY PREDICTED BY IDOCK:    0.32 KCAL/MOL
REMARK 923 INTER-LIGAND FREE ENERGY PREDICTED BY IDOCK:   -1.02 KCAL/MOL
REMARK 924 INTRA-LIGAND FREE ENERGY PREDICTED BY IDOCK:    1.34 KCAL/MOL
REMARK 927      BINDING AFFINITY PREDICTED BY RF-SCORE:    0.00 PKD
ROOT
HETATM    1  C   UNL     1     -11.238  12.088  63.969  1.00  0.00    -0.397 C  
HETATM    2  O   UNL     1     -11.809  12.235  65.261  1.00  0.00    -0.376 OA 
ENDROOT
BRANCH   2   3
HETATM    3  C   UNL     1     -12.769  13.292  65.289  1.00  0.00    -0.412 C  
BRANCH   3   4
HETATM    4  C   UNL     1     -12.009  14.596  65.387  1.00  0.00    -0.275 C  
BRANCH   4   5
HETATM    5  O   UNL     1     -10.593  14.419  65.515  1.00  0.00    -0.310 OA 
BRANCH   5   6
HETATM    6  C   UNL     1     -10.010  15.335  66.322  1.00  0.00    -0.284 C  
HETATM    7  O   UNL     1      -9.033  16.001  66.019  1.00  0.00    -0.337 OA 
BRANCH   6   8
HETATM    8  C   UNL     1     -10.668  15.397  67.654  1.00  0.00    -0.292 C  
HETATM    9  C   UNL     1     -11.113  16.553  68.211  1.00  0.00    -0.321 C  
HETATM   10  C   UNL     1     -10.925  17.977  67.738  1.00  0.00    -0.106 C  
HETATM   11  N   UNL     1     -11.870  16.493  69.361  1.00  0.00     0.154 NA 
HETATM   12  C   UNL     1     -12.103  15.366  70.114  1.00  0.00    -0.369 C  
HETATM   13  C   UNL     1     -11.678  14.156  69.675  1.00  0.00    -0.372 C  
HETATM   14  C   UNL     1     -12.827  15.625  71.413  1.00  0.00    -0.546 C  
HETATM   15  C   UNL     1     -10.975  14.028  68.311  1.00  0.00    -0.272 C  
BRANCH  13  16
HETATM   16  C   UNL     1     -11.810  12.989  70.590  1.00  0.00     0.019 C  
HETATM   17  O   UNL     1     -12.074  13.098  71.778  1.00  0.00     0.296 OA 
BRANCH  16  18
HETATM   18  O   UNL     1     -11.576  11.801  69.973  1.00  0.00    -0.293 OA 
BRANCH  18  19
HETATM   19  C   UNL     1     -12.780  11.053  69.681  1.00  0.00     0.124 C  
HETATM   20  C   UNL     1     -12.407   9.688  69.108  1.00  0.00     1.500 C  
HETATM   21  C   UNL     1     -13.592  10.901  70.960  1.00  0.00     0.477 C  
ENDBRANCH  18  19
ENDBRANCH  16  18
ENDBRANCH  13  16
BRANCH  15  22
HETATM   22  C   UNL     1      -9.702  13.178  68.395  1.00  0.00    -0.196 A  
HETATM   23  C   UNL     1      -9.512  12.103  67.506  1.00  0.00    -0.180 A  
HETATM   24  C   UNL     1      -8.702  13.461  69.338  1.00  0.00     1.035 A  
HETATM   25  C   UNL     1      -8.355  11.324  67.556  1.00  0.00    -0.131 A  
HETATM   26  O   UNL     1      -6.693  13.937  71.135  1.00  0.00     0.329 OA 
HETATM   27  O   UNL     1      -5.488  12.267  70.382  1.00  0.00    -0.118 OA 
HETATM   28  C   UNL     1      -7.542  12.674  69.384  1.00  0.00     0.541 A  
HETATM   29  N   UNL     1      -6.501  12.985  70.371  1.00  0.00     0.191 N  
HETATM   30  C   UNL     1      -7.365  11.606  68.497  1.00  0.00    -0.102 A  
ENDBRANCH  15  22
ENDBRANCH   6   8
ENDBRANCH   5   6
ENDBRANCH   4   5
ENDBRANCH   3   4
ENDBRANCH   2   3
TORSDOF 9
ENDMDL
MODEL      264
REMARK 921   NORMALIZED FREE ENERGY PREDICTED BY IDOCK:    1.62 KCAL/MOL
REMARK 922        TOTAL FREE ENERGY PREDICTED BY IDOCK:    0.89 KCAL/MOL
REMARK 923 INTER-LIGAND FREE ENERGY PREDICTED BY IDOCK:   -1.47 KCAL/MOL
REMARK 924 INTRA-LIGAND FREE ENERGY PREDICTED BY IDOCK:    2.36 KCAL/MOL
REMARK 927      BINDING AFFINITY PREDICTED BY RF-SCORE:    0.00 PKD
ROOT
HETATM    1  C   UNL     1      -8.940  11.503  67.407  1.00  0.00    -0.156 C  
HETATM    2  O   UNL     1      -8.403  12.116  66.244  1.00  0.00     0.020 OA 
ENDROOT
BRANCH   2   3
HETATM    3  C   UNL     1      -8.515  11.260  65.106  1.00  0.00     0.237 C  
BRANCH   3   4
HETATM    4  C   UNL     1      -8.522   9.833  65.608  1.00  0.00    -0.139 C  
BRANCH   4   5
HETATM    5  O   UNL     1      -7.600   8.983  64.914  1.00  0.00    -0.102 OA 
BRANCH   5   6
HETATM    6  C   UNL     1      -6.839   8.231  65.743  1.00  0.00    -0.063 C  
HETATM    7  O   UNL     1      -6.347   7.155  65.442  1.00  0.00    -0.036 OA 
BRANCH   6   8
HETATM    8  C   UNL     1      -6.717   8.844  67.092  1.00  0.00    -0.066 C  
HETATM    9  C   UNL     1      -6.030   9.990  67.329  1.00  0.00    -0.051 C  
HETATM   10  C   UNL     1      -5.147  10.787  66.394  1.00  0.00    -0.076 C  
HETATM   11  N   UNL     1      -6.122  10.581  68.571  1.00  0.00    -0.043 NA 
HETATM   12  C   UNL     1      -6.731  10.037  69.678  1.00  0.00    -0.068 C  
HETATM   13  C   UNL     1      -7.423   8.875  69.571  1.00  0.00    -0.075 C  
HETATM   14  C   UNL     1      -6.535  10.829  70.948  1.00  0.00     0.406 C  
HETATM   15  C   UNL     1      -7.570   8.184  68.204  1.00  0.00    -0.105 C  
BRANCH  13  16
HETATM   16  C   UNL     1      -7.930   8.241  70.818  1.00  0.00    -0.100 C  
HETATM   17  O   UNL     1      -8.612   8.836  71.640  1.00  0.00    -0.193 OA 
BRANCH  16  18
HETATM   18  O   UNL     1      -7.531   6.950  70.958  1.00  0.00    -0.080 OA 
BRANCH  18  19
HETATM   19  C   UNL     1      -6.971   6.653  72.259  1.00  0.00    -0.068 C  
HETATM   20  C   UNL     1      -7.762   7.389  73.337  1.00  0.00    -0.118 C  
HETATM   21  C   UNL     1      -7.017   5.148  72.485  1.00  0.00    -0.084 C  
ENDBRANCH  18  19
ENDBRANCH  16  18
ENDBRANCH  13  16
BRANCH  15  22
HETATM   22  C   UNL     1      -7.276   6.681  68.282  1.00  0.00    -0.085 A  
HETATM   23  C   UNL     1      -5.993   6.231  68.648  1.00  0.00    -0.020 A  
HETATM   24  C   UNL     1      -8.273   5.731  68.009  1.00  0.00    -0.104 A  
HETATM   25  C   UNL     1      -5.706   4.868  68.737  1.00  0.00    -0.016 A  
HETATM   26  O   UNL     1     -10.150   3.805  67.503  1.00  0.00     0.054 OA 
HETATM   27  O   UNL     1      -8.736   2.179  67.908  1.00  0.00    -0.082 OA 
HETATM   28  C   UNL     1      -7.978   4.364  68.099  1.00  0.00    -0.079 A  
HETATM   29  N   UNL     1      -9.033   3.381  67.817  1.00  0.00    -0.130 N  
HETATM   30  C   UNL     1      -6.699   3.928  68.461  1.00  0.00    -0.046 A  
ENDBRANCH  15  22
ENDBRANCH   6   8
ENDBRANCH   5   6
ENDBRANCH   4   5
ENDBRANCH   3   4
ENDBRANCH   2   3
TORSDOF 9
ENDMDL
MODEL      265
REMARK 921   NORMALIZED FREE ENERGY PREDICTED BY IDOCK:    2.02 KCAL/MOL
REMARK 922        TOTAL FREE ENERGY PREDICTED BY IDOCK:    1.50 KCAL/MOL
REMARK 923 INTER-LIGAND FREE ENERGY PREDICTED BY IDOCK:   -0.27 KCAL/MOL
REMARK 924 INTRA-LIGAND FREE ENERGY PREDICTED BY IDOCK:    1.77 KCAL/MOL
REMARK 927      BINDING AFFINITY PREDICTED BY RF-SCORE:    0.00 PKD
ROOT
HETATM    1  C   UNL     1     -13.343  13.452  63.809  1.00  0.00     1.911 C  
HETATM    2  O   UNL     1     -13.321  14.802  64.249  1.00  0.00     0.313 OA 
ENDROOT
BRANCH   2   3
HETATM    3  C   UNL     1     -12.022  15.179  64.707  1.00  0.00    -0.250 C  
BRANCH   3   4
HETATM    4  C   UNL     1     -12.206  16.037  65.940  1.00  0.00     1.708 C  
BRANCH   4   5
HETATM    5  O   UNL     1     -11.612  15.473  67.116  1.00  0.00    -0.161 OA 
BRANCH   5   6
HETATM    6  C   UNL     1     -10.772  16.324  67.751  1.00  0.00    -0.325 C  
HETATM    7  O   UNL     1     -11.132  17.305  68.382  1.00  0.00    -0.254 OA 
BRANCH   6   8
HETATM    8  C   UNL     1      -9.347  15.955  67.541  1.00  0.00    -0.217 C  
HETATM    9  C   UNL     1      -8.404  16.838  67.125  1.00  0.00    -0.183 C  
HETATM   10  C   UNL     1      -8.571  18.264  66.649  1.00  0.00    -0.287 C  
HETATM   11  N   UNL     1      -7.079  16.455  67.134  1.00  0.00    -0.180 NA 
HETATM   12  C   UNL     1      -6.610  15.186  67.380  1.00  0.00    -0.056 C  
HETATM   13  C   UNL     1      -7.465  14.209  67.773  1.00  0.00    -0.174 C  
HETATM   14  C   UNL     1      -5.126  15.018  67.159  1.00  0.00     0.727 C  
HETATM   15  C   UNL     1      -8.956  14.525  67.991  1.00  0.00    -0.180 C  
BRANCH  13  16
HETATM   16  C   UNL     1      -6.945  12.818  67.875  1.00  0.00    -0.116 C  
HETATM   17  O   UNL     1      -6.475  12.209  66.926  1.00  0.00    -0.125 OA 
BRANCH  16  18
HETATM   18  O   UNL     1      -7.077  12.292  69.121  1.00  0.00    -0.086 OA 
BRANCH  18  19
HETATM   19  C   UNL     1      -7.515  10.913  69.126  1.00  0.00    -0.130 C  
HETATM   20  C   UNL     1      -8.446  10.668  67.941  1.00  0.00    -0.120 C  
HETATM   21  C   UNL     1      -6.294  10.006  69.054  1.00  0.00    -0.044 C  
ENDBRANCH  18  19
ENDBRANCH  16  18
ENDBRANCH  13  16
BRANCH  15  22
HETATM   22  C   UNL     1      -9.869  13.487  67.327  1.00  0.00    -0.237 A  
HETATM   23  C   UNL     1     -10.868  12.842  68.081  1.00  0.00    -0.257 A  
HETATM   24  C   UNL     1      -9.741  13.174  65.965  1.00  0.00    -0.234 A  
HETATM   25  C   UNL     1     -11.719  11.904  67.494  1.00  0.00    -0.335 A  
HETATM   26  O   UNL     1      -9.575  12.501  63.317  1.00  0.00    -0.116 OA 
HETATM   27  O   UNL     1     -11.234  11.076  63.472  1.00  0.00    -0.125 OA 
HETATM   28  C   UNL     1     -10.598  12.230  65.382  1.00  0.00    -0.274 A  
HETATM   29  N   UNL     1     -10.457  11.916  63.954  1.00  0.00    -0.355 N  
HETATM   30  C   UNL     1     -11.586  11.593  66.141  1.00  0.00    -0.105 A  
ENDBRANCH  15  22
ENDBRANCH   6   8
ENDBRANCH   5   6
ENDBRANCH   4   5
ENDBRANCH   3   4
ENDBRANCH   2   3
TORSDOF 9
ENDMDL
MODEL      266
REMARK 921   NORMALIZED FREE ENERGY PREDICTED BY IDOCK:    2.37 KCAL/MOL
REMARK 922        TOTAL FREE ENERGY PREDICTED BY IDOCK:    2.04 KCAL/MOL
REMARK 923 INTER-LIGAND FREE ENERGY PREDICTED BY IDOCK:    0.10 KCAL/MOL
REMARK 924 INTRA-LIGAND FREE ENERGY PREDICTED BY IDOCK:    1.94 KCAL/MOL
REMARK 927      BINDING AFFINITY PREDICTED BY RF-SCORE:    0.00 PKD
ROOT
HETATM    1  C   UNL     1     -10.617  13.017  63.930  1.00  0.00    -0.261 C  
HETATM    2  O   UNL     1     -10.956  13.161  65.301  1.00  0.00    -0.279 OA 
ENDROOT
BRANCH   2   3
HETATM    3  C   UNL     1     -11.729  14.340  65.525  1.00  0.00    -0.353 C  
BRANCH   3   4
HETATM    4  C   UNL     1     -10.779  15.517  65.514  1.00  0.00    -0.381 C  
BRANCH   4   5
HETATM    5  O   UNL     1      -9.399  15.132  65.498  1.00  0.00    -0.204 OA 
BRANCH   5   6
HETATM    6  C   UNL     1      -8.573  16.084  65.991  1.00  0.00    -0.157 C  
HETATM    7  O   UNL     1      -7.491  16.377  65.508  1.00  0.00     1.014 OA 
BRANCH   6   8
HETATM    8  C   UNL     1      -9.114  16.697  67.233  1.00  0.00    -0.225 C  
HETATM    9  C   UNL     1      -9.105  18.034  67.467  1.00  0.00    -0.253 C  
HETATM   10  C   UNL     1      -8.451  19.141  66.670  1.00  0.00    -0.319 C  
HETATM   11  N   UNL     1      -9.789  18.527  68.558  1.00  0.00    -0.364 NA 
HETATM   12  C   UNL     1     -10.370  17.773  69.551  1.00  0.00     0.187 C  
HETATM   13  C   UNL     1     -10.411  16.422  69.443  1.00  0.00    -0.309 C  
HETATM   14  C   UNL     1     -10.905  18.579  70.710  1.00  0.00     2.821 C  
HETATM   15  C   UNL     1      -9.852  15.727  68.189  1.00  0.00    -0.209 C  
BRANCH  13  16
HETATM   16  C   UNL     1     -10.904  15.638  70.608  1.00  0.00    -0.292 C  
HETATM   17  O   UNL     1     -11.057  16.119  71.722  1.00  0.00    -0.038 OA 
BRANCH  16  18
HETATM   18  O   UNL     1     -11.135  14.333  70.311  1.00  0.00    -0.081 OA 
BRANCH  18  19
HETATM   19  C   UNL     1     -12.478  14.075  69.836  1.00  0.00    -0.246 C  
HETATM   20  C   UNL     1     -12.557  12.661  69.267  1.00  0.00     0.546 C  
HETATM   21  C   UNL     1     -13.454  14.250  70.992  1.00  0.00    -0.274 C  
ENDBRANCH  18  19
ENDBRANCH  16  18
ENDBRANCH  13  16
BRANCH  15  22
HETATM   22  C   UNL     1      -8.953  14.536  68.541  1.00  0.00    -0.188 A  
HETATM   23  C   UNL     1      -9.090  13.319  67.846  1.00  0.00    -0.203 A  
HETATM   24  C   UNL     1      -7.973  14.638  69.541  1.00  0.00     0.063 A  
HETATM   25  C   UNL     1      -8.273  12.226  68.142  1.00  0.00    -0.168 A  
HETATM   26  O   UNL     1      -6.031  14.740  71.466  1.00  0.00     0.039 OA 
HETATM   27  O   UNL     1      -5.427  12.662  71.109  1.00  0.00    -0.251 OA 
HETATM   28  C   UNL     1      -7.157  13.536  69.833  1.00  0.00     0.488 A  
HETATM   29  N   UNL     1      -6.131  13.658  70.877  1.00  0.00    -0.099 N  
HETATM   30  C   UNL     1      -7.303  12.331  69.139  1.00  0.00     0.091 A  
ENDBRANCH  15  22
ENDBRANCH   6   8
ENDBRANCH   5   6
ENDBRANCH   4   5
ENDBRANCH   3   4
ENDBRANCH   2   3
TORSDOF 9
ENDMDL
MODEL      267
REMARK 921   NORMALIZED FREE ENERGY PREDICTED BY IDOCK:    3.59 KCAL/MOL
REMARK 922        TOTAL FREE ENERGY PREDICTED BY IDOCK:    3.91 KCAL/MOL
REMARK 923 INTER-LIGAND FREE ENERGY PREDICTED BY IDOCK:   -1.73 KCAL/MOL
REMARK 924 INTRA-LIGAND FREE ENERGY PREDICTED BY IDOCK:    5.64 KCAL/MOL
REMARK 927      BINDING AFFINITY PREDICTED BY RF-SCORE:    0.00 PKD
ROOT
HETATM    1  C   UNL     1      -6.413  10.397  70.381  1.00  0.00    -0.125 C  
HETATM    2  O   UNL     1      -6.655   9.125  69.799  1.00  0.00    -0.043 OA 
ENDROOT
BRANCH   2   3
HETATM    3  C   UNL     1      -8.044   8.928  69.534  1.00  0.00    -0.101 C  
BRANCH   3   4
HETATM    4  C   UNL     1      -8.783  10.144  70.050  1.00  0.00     0.027 C  
BRANCH   4   5
HETATM    5  O   UNL     1     -10.168  10.162  69.685  1.00  0.00    -0.218 OA 
BRANCH   5   6
HETATM    6  C   UNL     1     -10.944  10.831  70.569  1.00  0.00     0.153 C  
HETATM    7  O   UNL     1     -11.537  10.309  71.501  1.00  0.00    -0.273 OA 
BRANCH   6   8
HETATM    8  C   UNL     1     -11.039  12.278  70.240  1.00  0.00     0.786 C  
HETATM    9  C   UNL     1     -12.055  13.072  70.663  1.00  0.00    -0.248 C  
HETATM   10  C   UNL     1     -13.332  12.693  71.380  1.00  0.00    -0.087 C  
HETATM   11  N   UNL     1     -11.967  14.434  70.464  1.00  0.00    -0.306 NA 
HETATM   12  C   UNL     1     -11.003  15.079  69.725  1.00  0.00    -0.273 C  
HETATM   13  C   UNL     1      -9.953  14.383  69.222  1.00  0.00     0.008 C  
HETATM   14  C   UNL     1     -11.248  16.557  69.538  1.00  0.00    -0.169 C  
HETATM   15  C   UNL     1      -9.809  12.879  69.514  1.00  0.00     1.163 C  
BRANCH  13  16
HETATM   16  C   UNL     1      -9.021  15.085  68.298  1.00  0.00    -0.174 C  
HETATM   17  O   UNL     1      -9.342  15.457  67.179  1.00  0.00    -0.205 OA 
BRANCH  16  18
HETATM   18  O   UNL     1      -7.776  15.240  68.818  1.00  0.00    -0.127 OA 
BRANCH  18  19
HETATM   19  C   UNL     1      -6.733  15.306  67.817  1.00  0.00    -0.167 C  
HETATM   20  C   UNL     1      -5.486  15.948  68.418  1.00  0.00    -0.106 C  
HETATM   21  C   UNL     1      -6.433  13.898  67.322  1.00  0.00     0.312 C  
ENDBRANCH  18  19
ENDBRANCH  16  18
ENDBRANCH  13  16
BRANCH  15  22
HETATM   22  C   UNL     1      -9.488  12.072  68.250  1.00  0.00    -0.199 A  
HETATM   23  C   UNL     1     -10.531  11.526  67.478  1.00  0.00    -0.229 A  
HETATM   24  C   UNL     1      -8.163  11.878  67.831  1.00  0.00    -0.150 A  
HETATM   25  C   UNL     1     -10.261  10.799  66.317  1.00  0.00    -0.301 A  
HETATM   26  O   UNL     1      -5.614  11.451  66.929  1.00  0.00    -0.086 OA 
HETATM   27  O   UNL     1      -6.313  10.303  65.196  1.00  0.00    -0.114 OA 
HETATM   28  C   UNL     1      -7.899  11.146  66.665  1.00  0.00    -0.155 A  
HETATM   29  N   UNL     1      -6.508  10.955  66.235  1.00  0.00    -0.130 N  
HETATM   30  C   UNL     1      -8.943  10.605  65.907  1.00  0.00    -0.192 A  
ENDBRANCH  15  22
ENDBRANCH   6   8
ENDBRANCH   5   6
ENDBRANCH   4   5
ENDBRANCH   3   4
ENDBRANCH   2   3
TORSDOF 9
ENDMDL
MODEL      268
REMARK 921   NORMALIZED FREE ENERGY PREDICTED BY IDOCK:    4.32 KCAL/MOL
REMARK 922        TOTAL FREE ENERGY PREDICTED BY IDOCK:    5.02 KCAL/MOL
REMARK 923 INTER-LIGAND FREE ENERGY PREDICTED BY IDOCK:   -0.52 KCAL/MOL
REMARK 924 INTRA-LIGAND FREE ENERGY PREDICTED BY IDOCK:    5.53 KCAL/MOL
REMARK 927      BINDING AFFINITY PREDICTED BY RF-SCORE:    0.00 PKD
ROOT
HETATM    1  C   UNL     1     -12.913   8.769  73.046  1.00  0.00     0.395 C  
HETATM    2  O   UNL     1     -12.378   9.923  72.414  1.00  0.00    -0.084 OA 
ENDROOT
BRANCH   2   3
HETATM    3  C   UNL     1     -12.062   9.667  71.045  1.00  0.00    -0.337 C  
BRANCH   3   4
HETATM    4  C   UNL     1     -10.629   9.183  70.992  1.00  0.00    -0.292 C  
BRANCH   4   5
HETATM    5  O   UNL     1      -9.669  10.246  71.041  1.00  0.00     0.610 OA 
BRANCH   5   6
HETATM    6  C   UNL     1      -8.411   9.818  71.296  1.00  0.00     1.106 C  
HETATM    7  O   UNL     1      -7.906   9.783  72.407  1.00  0.00     1.237 OA 
BRANCH   6   8
HETATM    8  C   UNL     1      -7.690   9.445  70.050  1.00  0.00    -0.124 C  
HETATM    9  C   UNL     1      -6.346   9.265  69.995  1.00  0.00    -0.044 C  
HETATM   10  C   UNL     1      -5.299   9.533  71.054  1.00  0.00    -0.047 C  
HETATM   11  N   UNL     1      -5.787   8.746  68.846  1.00  0.00    -0.040 NA 
HETATM   12  C   UNL     1      -6.446   8.526  67.659  1.00  0.00    -0.057 C  
HETATM   13  C   UNL     1      -7.788   8.703  67.584  1.00  0.00    -0.103 C  
HETATM   14  C   UNL     1      -5.549   8.107  66.519  1.00  0.00    -0.032 C  
HETATM   15  C   UNL     1      -8.589   9.104  68.835  1.00  0.00    -0.131 C  
BRANCH  13  16
HETATM   16  C   UNL     1      -8.436   8.608  66.247  1.00  0.00    -0.125 C  
HETATM   17  O   UNL     1      -8.978   9.556  65.698  1.00  0.00    -0.158 OA 
BRANCH  16  18
HETATM   18  O   UNL     1      -8.388   7.357  65.721  1.00  0.00    -0.128 OA 
BRANCH  18  19
HETATM   19  C   UNL     1      -8.350   6.308  66.718  1.00  0.00    -0.110 C  
HETATM   20  C   UNL     1      -9.541   6.456  67.662  1.00  0.00    -0.126 C  
HETATM   21  C   UNL     1      -8.378   4.957  66.017  1.00  0.00    -0.113 C  
ENDBRANCH  18  19
ENDBRANCH  16  18
ENDBRANCH  13  16
BRANCH  15  22
HETATM   22  C   UNL     1      -9.564  10.254  68.553  1.00  0.00    -0.165 A  
HETATM   23  C   UNL     1     -10.893   9.976  68.179  1.00  0.00    -0.303 A  
HETATM   24  C   UNL     1      -9.162  11.593  68.677  1.00  0.00    -0.112 A  
HETATM   25  C   UNL     1     -11.800  11.007  67.929  1.00  0.00    -0.085 A  
HETATM   26  O   UNL     1      -8.476  14.233  68.897  1.00  0.00    -0.128 OA 
HETATM   27  O   UNL     1     -10.485  14.905  68.332  1.00  0.00    -0.234 OA 
HETATM   28  C   UNL     1     -10.078  12.623  68.424  1.00  0.00    -0.222 A  
HETATM   29  N   UNL     1      -9.646  14.020  68.563  1.00  0.00    -0.216 N  
HETATM   30  C   UNL     1     -11.395  12.336  68.050  1.00  0.00    -0.348 A  
ENDBRANCH  15  22
ENDBRANCH   6   8
ENDBRANCH   5   6
ENDBRANCH   4   5
ENDBRANCH   3   4
ENDBRANCH   2   3
TORSDOF 9
ENDMDL
MODEL      269
REMARK 921   NORMALIZED FREE ENERGY PREDICTED BY IDOCK:    4.46 KCAL/MOL
REMARK 922        TOTAL FREE ENERGY PREDICTED BY IDOCK:    5.23 KCAL/MOL
REMARK 923 INTER-LIGAND FREE ENERGY PREDICTED BY IDOCK:    0.64 KCAL/MOL
REMARK 924 INTRA-LIGAND FREE ENERGY PREDICTED BY IDOCK:    4.58 KCAL/MOL
REMARK 927      BINDING AFFINITY PREDICTED BY RF-SCORE:    0.00 PKD
ROOT
HETATM    1  C   UNL     1      -6.642  11.473  68.839  1.00  0.00    -0.073 C  
HETATM    2  O   UNL     1      -5.715  10.695  68.099  1.00  0.00    -0.043 OA 
ENDROOT
BRANCH   2   3
HETATM    3  C   UNL     1      -6.372   9.663  67.362  1.00  0.00    -0.068 C  
BRANCH   3   4
HETATM    4  C   UNL     1      -6.866   8.636  68.358  1.00  0.00    -0.065 C  
BRANCH   4   5
HETATM    5  O   UNL     1      -6.150   8.660  69.599  1.00  0.00    -0.032 OA 
BRANCH   5   6
HETATM    6  C   UNL     1      -6.775   9.376  70.562  1.00  0.00    -0.087 C  
HETATM    7  O   UNL     1      -6.202  10.062  71.394  1.00  0.00    -0.302 OA 
BRANCH   6   8
HETATM    8  C   UNL     1      -8.249   9.186  70.526  1.00  0.00    -0.203 C  
HETATM    9  C   UNL     1      -9.121  10.180  70.220  1.00  0.00     0.256 C  
HETATM   10  C   UNL     1      -8.856  11.655  70.013  1.00  0.00     2.542 C  
HETATM   11  N   UNL     1     -10.451   9.870  70.034  1.00  0.00    -0.265 NA 
HETATM   12  C   UNL     1     -11.036   8.650  70.282  1.00  0.00    -0.236 C  
HETATM   13  C   UNL     1     -10.268   7.586  70.627  1.00  0.00    -0.202 C  
HETATM   14  C   UNL     1     -12.539   8.642  70.149  1.00  0.00     1.104 C  
HETATM   15  C   UNL     1      -8.737   7.725  70.698  1.00  0.00    -0.139 C  
BRANCH  13  16
HETATM   16  C   UNL     1     -10.952   6.330  71.040  1.00  0.00    -0.283 C  
HETATM   17  O   UNL     1     -11.927   5.877  70.459  1.00  0.00     0.199 OA 
BRANCH  16  18
HETATM   18  O   UNL     1     -10.398   5.762  72.143  1.00  0.00    -0.194 OA 
BRANCH  18  19
HETATM   19  C   UNL     1     -10.593   4.330  72.219  1.00  0.00    -0.029 C  
HETATM   20  C   UNL     1      -9.265   3.618  71.976  1.00  0.00    -0.169 C  
HETATM   21  C   UNL     1     -11.154   3.979  73.590  1.00  0.00    -0.334 C  
ENDBRANCH  18  19
ENDBRANCH  16  18
ENDBRANCH  13  16
BRANCH  15  22
HETATM   22  C   UNL     1      -8.160   7.116  71.981  1.00  0.00    -0.100 A  
HETATM   23  C   UNL     1      -8.604   7.569  73.238  1.00  0.00    -0.203 A  
HETATM   24  C   UNL     1      -7.200   6.094  71.931  1.00  0.00    -0.091 A  
HETATM   25  C   UNL     1      -8.101   7.020  74.420  1.00  0.00    -0.163 A  
HETATM   26  O   UNL     1      -5.331   4.094  71.936  1.00  0.00     0.000 OA 
HETATM   27  O   UNL     1      -5.277   4.014  74.127  1.00  0.00    -0.003 OA 
HETATM   28  C   UNL     1      -6.698   5.548  73.121  1.00  0.00    -0.074 A  
HETATM   29  N   UNL     1      -5.698   4.474  73.053  1.00  0.00    -0.008 N  
HETATM   30  C   UNL     1      -7.144   6.007  74.364  1.00  0.00    -0.087 A  
ENDBRANCH  15  22
ENDBRANCH   6   8
ENDBRANCH   5   6
ENDBRANCH   4   5
ENDBRANCH   3   4
ENDBRANCH   2   3
TORSDOF 9
ENDMDL
MODEL      270
REMARK 921   NORMALIZED FREE ENERGY PREDICTED BY IDOCK:    4.80 KCAL/MOL
REMARK 922        TOTAL FREE ENERGY PREDICTED BY IDOCK:    5.75 KCAL/MOL
REMARK 923 INTER-LIGAND FREE ENERGY PREDICTED BY IDOCK:    0.13 KCAL/MOL
REMARK 924 INTRA-LIGAND FREE ENERGY PREDICTED BY IDOCK:    5.63 KCAL/MOL
REMARK 927      BINDING AFFINITY PREDICTED BY RF-SCORE:    0.00 PKD
ROOT
HETATM    1  C   UNL     1     -12.107  12.768  69.584  1.00  0.00    -0.222 C  
HETATM    2  O   UNL     1     -11.482  11.637  68.995  1.00  0.00    -0.240 OA 
ENDROOT
BRANCH   2   3
HETATM    3  C   UNL     1     -11.855  10.430  69.661  1.00  0.00    -0.180 C  
BRANCH   3   4
HETATM    4  C   UNL     1     -10.726  10.060  70.599  1.00  0.00    -0.254 C  
BRANCH   4   5
HETATM    5  O   UNL     1      -9.434  10.118  69.982  1.00  0.00    -0.187 OA 
BRANCH   5   6
HETATM    6  C   UNL     1      -8.473   9.485  70.694  1.00  0.00    -0.115 C  
HETATM    7  O   UNL     1      -7.944   9.941  71.696  1.00  0.00     0.661 OA 
BRANCH   6   8
HETATM    8  C   UNL     1      -8.093   8.186  70.080  1.00  0.00    -0.114 C  
HETATM    9  C   UNL     1      -7.130   8.065  69.131  1.00  0.00    -0.068 C  
HETATM   10  C   UNL     1      -6.371   9.146  68.394  1.00  0.00    -0.054 C  
HETATM   11  N   UNL     1      -6.719   6.805  68.751  1.00  0.00    -0.054 NA 
HETATM   12  C   UNL     1      -7.304   5.619  69.130  1.00  0.00    -0.078 C  
HETATM   13  C   UNL     1      -8.300   5.617  70.051  1.00  0.00    -0.121 C  
HETATM   14  C   UNL     1      -6.750   4.401  68.431  1.00  0.00    -0.047 C  
HETATM   15  C   UNL     1      -8.750   6.932  70.711  1.00  0.00    -0.145 C  
BRANCH  13  16
HETATM   16  C   UNL     1      -9.010   4.335  70.315  1.00  0.00    -0.090 C  
HETATM   17  O   UNL     1      -9.369   3.575  69.428  1.00  0.00    -0.149 OA 
BRANCH  16  18
HETATM   18  O   UNL     1      -9.242   4.119  71.636  1.00  0.00    -0.118 OA 
BRANCH  18  19
HETATM   19  C   UNL     1      -8.065   4.272  72.464  1.00  0.00    -0.096 C  
HETATM   20  C   UNL     1      -6.831   4.424  71.578  1.00  0.00    -0.034 C  
HETATM   21  C   UNL     1      -8.244   5.492  73.358  1.00  0.00    -0.114 C  
ENDBRANCH  18  19
ENDBRANCH  16  18
ENDBRANCH  13  16
BRANCH  15  22
HETATM   22  C   UNL     1     -10.276   7.079  70.726  1.00  0.00    -0.208 A  
HETATM   23  C   UNL     1     -11.049   6.513  69.694  1.00  0.00    -0.435 A  
HETATM   24  C   UNL     1     -10.929   7.758  71.766  1.00  0.00    -0.280 A  
HETATM   25  C   UNL     1     -12.441   6.624  69.695  1.00  0.00     1.397 A  
HETATM   26  O   UNL     1     -12.293   9.057  73.751  1.00  0.00     2.247 OA 
HETATM   27  O   UNL     1     -14.236   8.651  72.819  1.00  0.00    -0.460 OA 
HETATM   28  C   UNL     1     -12.327   7.867  71.760  1.00  0.00    -0.320 A  
HETATM   29  N   UNL     1     -12.997   8.576  72.857  1.00  0.00    -0.043 N  
HETATM   30  C   UNL     1     -13.085   7.303  70.728  1.00  0.00     0.048 A  
ENDBRANCH  15  22
ENDBRANCH   6   8
ENDBRANCH   5   6
ENDBRANCH   4   5
ENDBRANCH   3   4
ENDBRANCH   2   3
TORSDOF 9
ENDMDL
MODEL      271
REMARK 921   NORMALIZED FREE ENERGY PREDICTED BY IDOCK:    5.02 KCAL/MOL
REMARK 922        TOTAL FREE ENERGY PREDICTED BY IDOCK:    6.08 KCAL/MOL
REMARK 923 INTER-LIGAND FREE ENERGY PREDICTED BY IDOCK:    3.23 KCAL/MOL
REMARK 924 INTRA-LIGAND FREE ENERGY PREDICTED BY IDOCK:    2.86 KCAL/MOL
REMARK 927      BINDING AFFINITY PREDICTED BY RF-SCORE:    0.00 PKD
ROOT
HETATM    1  C   UNL     1     -12.014   5.407  65.714  1.00  0.00     2.652 C  
HETATM    2  O   UNL     1     -11.188   4.257  65.614  1.00  0.00     0.322 OA 
ENDROOT
BRANCH   2   3
HETATM    3  C   UNL     1      -9.910   4.481  66.211  1.00  0.00    -0.230 C  
BRANCH   3   4
HETATM    4  C   UNL     1      -9.567   3.252  67.025  1.00  0.00    -0.038 C  
BRANCH   4   5
HETATM    5  O   UNL     1      -8.791   3.545  68.194  1.00  0.00    -0.099 OA 
BRANCH   5   6
HETATM    6  C   UNL     1      -8.469   4.855  68.306  1.00  0.00    -0.098 C  
HETATM    7  O   UNL     1      -7.608   5.413  67.644  1.00  0.00    -0.086 OA 
BRANCH   6   8
HETATM    8  C   UNL     1      -9.250   5.528  69.377  1.00  0.00    -0.145 C  
HETATM    9  C   UNL     1     -10.198   4.896  70.115  1.00  0.00    -0.240 C  
HETATM   10  C   UNL     1     -10.774   3.507  69.947  1.00  0.00     2.792 C  
HETATM   11  N   UNL     1     -10.742   5.545  71.203  1.00  0.00    -0.236 NA 
HETATM   12  C   UNL     1     -10.532   6.861  71.543  1.00  0.00    -0.212 C  
HETATM   13  C   UNL     1      -9.629   7.605  70.856  1.00  0.00    -0.167 C  
HETATM   14  C   UNL     1     -11.385   7.352  72.687  1.00  0.00    -0.360 C  
HETATM   15  C   UNL     1      -8.801   6.969  69.725  1.00  0.00    -0.142 C  
BRANCH  13  16
HETATM   16  C   UNL     1      -9.548   9.062  71.150  1.00  0.00    -0.286 C  
HETATM   17  O   UNL     1     -10.383   9.656  71.816  1.00  0.00     0.016 OA 
BRANCH  16  18
HETATM   18  O   UNL     1      -8.471   9.660  70.578  1.00  0.00    -0.190 OA 
BRANCH  18  19
HETATM   19  C   UNL     1      -7.373   9.877  71.495  1.00  0.00     1.196 C  
HETATM   20  C   UNL     1      -7.416   8.829  72.604  1.00  0.00     0.117 C  
HETATM   21  C   UNL     1      -6.062   9.798  70.725  1.00  0.00    -0.092 C  
ENDBRANCH  18  19
ENDBRANCH  16  18
ENDBRANCH  13  16
BRANCH  15  22
HETATM   22  C   UNL     1      -8.780   7.841  68.464  1.00  0.00    -0.128 A  
HETATM   23  C   UNL     1      -9.987   8.304  67.906  1.00  0.00    -0.227 A  
HETATM   24  C   UNL     1      -7.570   8.206  67.855  1.00  0.00    -0.102 A  
HETATM   25  C   UNL     1      -9.990   9.109  66.765  1.00  0.00    -0.322 A  
HETATM   26  O   UNL     1      -5.262   8.976  66.600  1.00  0.00    -0.037 OA 
HETATM   27  O   UNL     1      -6.354  10.110  65.073  1.00  0.00    -0.109 OA 
HETATM   28  C   UNL     1      -7.580   9.014  66.709  1.00  0.00    -0.090 A  
HETATM   29  N   UNL     1      -6.306   9.393  66.085  1.00  0.00    -0.067 N  
HETATM   30  C   UNL     1      -8.785   9.466  66.162  1.00  0.00    -0.165 A  
ENDBRANCH  15  22
ENDBRANCH   6   8
ENDBRANCH   5   6
ENDBRANCH   4   5
ENDBRANCH   3   4
ENDBRANCH   2   3
TORSDOF 9
ENDMDL
MODEL      272
REMARK 921   NORMALIZED FREE ENERGY PREDICTED BY IDOCK:    5.33 KCAL/MOL
REMARK 922        TOTAL FREE ENERGY PREDICTED BY IDOCK:    6.56 KCAL/MOL
REMARK 923 INTER-LIGAND FREE ENERGY PREDICTED BY IDOCK:    3.00 KCAL/MOL
REMARK 924 INTRA-LIGAND FREE ENERGY PREDICTED BY IDOCK:    3.56 KCAL/MOL
REMARK 927      BINDING AFFINITY PREDICTED BY RF-SCORE:    0.00 PKD
ROOT
HETATM    1  C   UNL     1     -10.723   5.423  63.648  1.00  0.00     2.997 C  
HETATM    2  O   UNL     1     -10.950   4.238  64.397  1.00  0.00    -0.180 OA 
ENDROOT
BRANCH   2   3
HETATM    3  C   UNL     1     -11.546   4.527  65.662  1.00  0.00     1.739 C  
BRANCH   3   4
HETATM    4  C   UNL     1     -10.493   5.195  66.520  1.00  0.00    -0.294 C  
BRANCH   4   5
HETATM    5  O   UNL     1     -11.015   6.249  67.339  1.00  0.00    -0.325 OA 
BRANCH   5   6
HETATM    6  C   UNL     1     -10.279   6.473  68.453  1.00  0.00    -0.172 C  
HETATM    7  O   UNL     1     -10.223   5.713  69.407  1.00  0.00    -0.199 OA 
BRANCH   6   8
HETATM    8  C   UNL     1      -9.586   7.787  68.404  1.00  0.00    -0.157 C  
HETATM    9  C   UNL     1      -9.964   8.797  67.581  1.00  0.00    -0.193 C  
HETATM   10  C   UNL     1     -10.996   8.795  66.475  1.00  0.00     0.728 C  
HETATM   11  N   UNL     1      -9.381  10.038  67.732  1.00  0.00    -0.140 NA 
HETATM   12  C   UNL     1      -8.316  10.332  68.551  1.00  0.00    -0.116 C  
HETATM   13  C   UNL     1      -7.830   9.391  69.398  1.00  0.00    -0.087 C  
HETATM   14  C   UNL     1      -7.778  11.734  68.392  1.00  0.00    -0.131 C  
HETATM   15  C   UNL     1      -8.494   8.005  69.482  1.00  0.00    -0.131 C  
BRANCH  13  16
HETATM   16  C   UNL     1      -6.582   9.698  70.149  1.00  0.00    -0.081 C  
HETATM   17  O   UNL     1      -5.855  10.643  69.879  1.00  0.00    -0.051 OA 
BRANCH  16  18
HETATM   18  O   UNL     1      -6.325   8.805  71.140  1.00  0.00    -0.043 OA 
BRANCH  18  19
HETATM   19  C   UNL     1      -6.713   9.269  72.454  1.00  0.00     0.442 C  
HETATM   20  C   UNL     1      -7.850   8.400  72.987  1.00  0.00    -0.139 C  
HETATM   21  C   UNL     1      -5.505   9.207  73.378  1.00  0.00    -0.086 C  
ENDBRANCH  18  19
ENDBRANCH  16  18
ENDBRANCH  13  16
BRANCH  15  22
HETATM   22  C   UNL     1      -7.466   6.868  69.438  1.00  0.00    -0.094 A  
HETATM   23  C   UNL     1      -6.138   7.132  69.049  1.00  0.00    -0.023 A  
HETATM   24  C   UNL     1      -7.818   5.558  69.797  1.00  0.00    -0.082 A  
HETATM   25  C   UNL     1      -5.184   6.113  69.015  1.00  0.00    -0.004 A  
HETATM   26  O   UNL     1      -8.406   2.975  70.485  1.00  0.00    -0.054 OA 
HETATM   27  O   UNL     1      -6.356   2.300  70.099  1.00  0.00    -0.024 OA 
HETATM   28  C   UNL     1      -6.855   4.540  69.759  1.00  0.00    -0.041 A  
HETATM   29  N   UNL     1      -7.236   3.175  70.144  1.00  0.00    -0.040 N  
HETATM   30  C   UNL     1      -5.539   4.813  69.369  1.00  0.00    -0.015 A  
ENDBRANCH  15  22
ENDBRANCH   6   8
ENDBRANCH   5   6
ENDBRANCH   4   5
ENDBRANCH   3   4
ENDBRANCH   2   3
TORSDOF 9
ENDMDL
MODEL      273
REMARK 921   NORMALIZED FREE ENERGY PREDICTED BY IDOCK:    5.51 KCAL/MOL
REMARK 922        TOTAL FREE ENERGY PREDICTED BY IDOCK:    6.83 KCAL/MOL
REMARK 923 INTER-LIGAND FREE ENERGY PREDICTED BY IDOCK:   -1.58 KCAL/MOL
REMARK 924 INTRA-LIGAND FREE ENERGY PREDICTED BY IDOCK:    8.41 KCAL/MOL
REMARK 927      BINDING AFFINITY PREDICTED BY RF-SCORE:    0.00 PKD
ROOT
HETATM    1  C   UNL     1     -10.730  14.939  70.087  1.00  0.00    -0.086 C  
HETATM    2  O   UNL     1     -10.661  13.727  70.823  1.00  0.00     1.286 OA 
ENDROOT
BRANCH   2   3
HETATM    3  C   UNL     1     -10.371  12.617  69.972  1.00  0.00     1.887 C  
BRANCH   3   4
HETATM    4  C   UNL     1     -11.673  11.893  69.708  1.00  0.00    -0.331 C  
BRANCH   4   5
HETATM    5  O   UNL     1     -11.645  11.090  68.521  1.00  0.00    -0.287 OA 
BRANCH   5   6
HETATM    6  C   UNL     1     -10.526  10.335  68.414  1.00  0.00    -0.200 C  
HETATM    7  O   UNL     1      -9.948   9.821  69.359  1.00  0.00    -0.181 OA 
BRANCH   6   8
HETATM    8  C   UNL     1     -10.047  10.251  67.010  1.00  0.00    -0.268 C  
HETATM    9  C   UNL     1     -10.474  11.084  66.027  1.00  0.00    -0.245 C  
HETATM   10  C   UNL     1     -11.577  12.119  66.061  1.00  0.00    -0.420 C  
HETATM   11  N   UNL     1      -9.844  11.051  64.801  1.00  0.00    -0.254 NA 
HETATM   12  C   UNL     1      -8.900  10.132  64.406  1.00  0.00    -0.211 C  
HETATM   13  C   UNL     1      -8.418   9.228  65.294  1.00  0.00    -0.167 C  
HETATM   14  C   UNL     1      -8.502  10.235  62.953  1.00  0.00    -0.183 C  
HETATM   15  C   UNL     1      -8.888   9.253  66.759  1.00  0.00    -0.142 C  
BRANCH  13  16
HETATM   16  C   UNL     1      -7.519   8.155  64.788  1.00  0.00    -0.094 C  
HETATM   17  O   UNL     1      -7.192   8.054  63.614  1.00  0.00    -0.084 OA 
BRANCH  16  18
HETATM   18  O   UNL     1      -7.129   7.287  65.758  1.00  0.00    -0.062 OA 
BRANCH  18  19
HETATM   19  C   UNL     1      -5.704   7.035  65.772  1.00  0.00    -0.031 C  
HETATM   20  C   UNL     1      -5.393   5.908  66.753  1.00  0.00    -0.009 C  
HETATM   21  C   UNL     1      -5.253   6.668  64.364  1.00  0.00    -0.026 C  
ENDBRANCH  18  19
ENDBRANCH  16  18
ENDBRANCH  13  16
BRANCH  15  22
HETATM   22  C   UNL     1      -9.266   7.857  67.269  1.00  0.00    -0.167 A  
HETATM   23  C   UNL     1     -10.055   7.719  68.427  1.00  0.00    -0.215 A  
HETATM   24  C   UNL     1      -8.851   6.701  66.591  1.00  0.00    -0.140 A  
HETATM   25  C   UNL     1     -10.421   6.458  68.902  1.00  0.00    -0.264 A  
HETATM   26  O   UNL     1      -8.098   4.388  65.336  1.00  0.00    -0.100 OA 
HETATM   27  O   UNL     1      -9.133   3.135  66.807  1.00  0.00    -0.149 OA 
HETATM   28  C   UNL     1      -9.221   5.438  67.074  1.00  0.00    -0.113 A  
HETATM   29  N   UNL     1      -8.786   4.236  66.351  1.00  0.00    -0.112 N  
HETATM   30  C   UNL     1     -10.004   5.312  68.227  1.00  0.00    -0.214 A  
ENDBRANCH  15  22
ENDBRANCH   6   8
ENDBRANCH   5   6
ENDBRANCH   4   5
ENDBRANCH   3   4
ENDBRANCH   2   3
TORSDOF 9
ENDMDL
MODEL      274
REMARK 921   NORMALIZED FREE ENERGY PREDICTED BY IDOCK:    6.44 KCAL/MOL
REMARK 922        TOTAL FREE ENERGY PREDICTED BY IDOCK:    8.24 KCAL/MOL
REMARK 923 INTER-LIGAND FREE ENERGY PREDICTED BY IDOCK:   -0.82 KCAL/MOL
REMARK 924 INTRA-LIGAND FREE ENERGY PREDICTED BY IDOCK:    9.06 KCAL/MOL
REMARK 927      BINDING AFFINITY PREDICTED BY RF-SCORE:    0.00 PKD
ROOT
HETATM    1  C   UNL     1      -9.056  10.263  69.331  1.00  0.00    -0.187 C  
HETATM    2  O   UNL     1      -7.960  10.856  70.011  1.00  0.00     0.239 OA 
ENDROOT
BRANCH   2   3
HETATM    3  C   UNL     1      -7.261  11.775  69.170  1.00  0.00    -0.043 C  
BRANCH   3   4
HETATM    4  C   UNL     1      -5.780  11.518  69.346  1.00  0.00    -0.060 C  
BRANCH   4   5
HETATM    5  O   UNL     1      -5.405  10.160  69.084  1.00  0.00    -0.035 OA 
BRANCH   5   6
HETATM    6  C   UNL     1      -6.449   9.378  68.723  1.00  0.00    -0.048 C  
HETATM    7  O   UNL     1      -7.179   9.598  67.769  1.00  0.00    -0.084 OA 
BRANCH   6   8
HETATM    8  C   UNL     1      -6.641   8.242  69.663  1.00  0.00    -0.037 C  
HETATM    9  C   UNL     1      -6.189   8.251  70.942  1.00  0.00    -0.033 C  
HETATM   10  C   UNL     1      -5.304   9.262  71.638  1.00  0.00    -0.062 C  
HETATM   11  N   UNL     1      -6.569   7.235  71.793  1.00  0.00    -0.047 NA 
HETATM   12  C   UNL     1      -7.254   6.098  71.434  1.00  0.00    -0.079 C  
HETATM   13  C   UNL     1      -7.729   5.961  70.171  1.00  0.00    -0.095 C  
HETATM   14  C   UNL     1      -7.389   5.078  72.539  1.00  0.00    -0.093 C  
HETATM   15  C   UNL     1      -7.546   7.095  69.147  1.00  0.00    -0.099 C  
BRANCH  13  16
HETATM   16  C   UNL     1      -8.323   4.653  69.780  1.00  0.00    -0.074 C  
HETATM   17  O   UNL     1      -7.795   3.579  70.027  1.00  0.00    -0.047 OA 
BRANCH  16  18
HETATM   18  O   UNL     1      -9.490   4.783  69.098  1.00  0.00    -0.124 OA 
BRANCH  18  19
HETATM   19  C   UNL     1      -9.757   3.688  68.189  1.00  0.00    -0.022 C  
HETATM   20  C   UNL     1     -10.546   4.201  66.988  1.00  0.00     0.945 C  
HETATM   21  C   UNL     1      -8.433   3.078  67.749  1.00  0.00    -0.102 C  
ENDBRANCH  18  19
ENDBRANCH  16  18
ENDBRANCH  13  16
BRANCH  15  22
HETATM   22  C   UNL     1      -7.036   6.578  67.796  1.00  0.00    -0.088 A  
HETATM   23  C   UNL     1      -5.665   6.656  67.484  1.00  0.00    -0.013 A  
HETATM   24  C   UNL     1      -7.912   6.008  66.860  1.00  0.00    -0.102 A  
HETATM   25  C   UNL     1      -5.178   6.180  66.265  1.00  0.00    -0.012 A  
HETATM   26  O   UNL     1      -9.540   4.874  64.974  1.00  0.00    -0.107 OA 
HETATM   27  O   UNL     1      -7.868   4.523  63.599  1.00  0.00    -0.076 OA 
HETATM   28  C   UNL     1      -7.416   5.533  65.638  1.00  0.00    -0.077 A  
HETATM   29  N   UNL     1      -8.344   4.933  64.670  1.00  0.00    -0.128 N  
HETATM   30  C   UNL     1      -6.053   5.618  65.336  1.00  0.00    -0.026 A  
ENDBRANCH  15  22
ENDBRANCH   6   8
ENDBRANCH   5   6
ENDBRANCH   4   5
ENDBRANCH   3   4
ENDBRANCH   2   3
TORSDOF 9
ENDMDL
MODEL      275
REMARK 921   NORMALIZED FREE ENERGY PREDICTED BY IDOCK:    6.69 KCAL/MOL
REMARK 922        TOTAL FREE ENERGY PREDICTED BY IDOCK:    8.63 KCAL/MOL
REMARK 923 INTER-LIGAND FREE ENERGY PREDICTED BY IDOCK:    6.71 KCAL/MOL
REMARK 924 INTRA-LIGAND FREE ENERGY PREDICTED BY IDOCK:    1.92 KCAL/MOL
REMARK 927      BINDING AFFINITY PREDICTED BY RF-SCORE:    0.00 PKD
ROOT
HETATM    1  C   UNL     1      -7.328  15.089  70.357  1.00  0.00     0.486 C  
HETATM    2  O   UNL     1      -6.850  14.617  69.107  1.00  0.00    -0.109 OA 
ENDROOT
BRANCH   2   3
HETATM    3  C   UNL     1      -5.637  13.878  69.258  1.00  0.00    -0.083 C  
BRANCH   3   4
HETATM    4  C   UNL     1      -5.940  12.433  68.929  1.00  0.00    -0.070 C  
BRANCH   4   5
HETATM    5  O   UNL     1      -6.750  11.785  69.918  1.00  0.00    -0.065 OA 
BRANCH   5   6
HETATM    6  C   UNL     1      -8.064  11.759  69.598  1.00  0.00     1.090 C  
HETATM    7  O   UNL     1      -8.961  12.146  70.332  1.00  0.00     3.919 OA 
BRANCH   6   8
HETATM    8  C   UNL     1      -8.298  11.150  68.263  1.00  0.00    -0.143 C  
HETATM    9  C   UNL     1      -7.423  10.299  67.670  1.00  0.00    -0.089 C  
HETATM   10  C   UNL     1      -6.026   9.910  68.100  1.00  0.00    -0.043 C  
HETATM   11  N   UNL     1      -7.803   9.643  66.518  1.00  0.00    -0.107 NA 
HETATM   12  C   UNL     1      -8.951   9.879  65.799  1.00  0.00    -0.156 C  
HETATM   13  C   UNL     1      -9.888  10.735  66.277  1.00  0.00    -0.262 C  
HETATM   14  C   UNL     1      -9.030   9.131  64.490  1.00  0.00    -0.129 C  
HETATM   15  C   UNL     1      -9.696  11.411  67.646  1.00  0.00    -0.183 C  
BRANCH  13  16
HETATM   16  C   UNL     1     -11.038  11.083  65.397  1.00  0.00     0.071 C  
HETATM   17  O   UNL     1     -12.195  11.107  65.787  1.00  0.00     0.802 OA 
BRANCH  16  18
HETATM   18  O   UNL     1     -10.667  11.337  64.115  1.00  0.00    -0.348 OA 
BRANCH  18  19
HETATM   19  C   UNL     1      -9.947  12.583  63.955  1.00  0.00    -0.198 C  
HETATM   20  C   UNL     1      -8.768  12.375  63.009  1.00  0.00     2.584 C  
HETATM   21  C   UNL     1     -10.900  13.639  63.411  1.00  0.00     1.301 C  
ENDBRANCH  18  19
ENDBRANCH  16  18
ENDBRANCH  13  16
BRANCH  15  22
HETATM   22  C   UNL     1      -9.984  12.916  67.594  1.00  0.00    -0.218 A  
HETATM   23  C   UNL     1     -11.215  13.415  68.062  1.00  0.00    -0.298 A  
HETATM   24  C   UNL     1      -9.032  13.820  67.099  1.00  0.00    -0.241 A  
HETATM   25  C   UNL     1     -11.493  14.783  68.035  1.00  0.00    -0.351 A  
HETATM   26  O   UNL     1      -7.237  15.661  66.160  1.00  0.00     0.605 OA 
HETATM   27  O   UNL     1      -8.598  17.335  66.553  1.00  0.00    -0.235 OA 
HETATM   28  C   UNL     1      -9.318  15.192  67.073  1.00  0.00    -0.230 A  
HETATM   29  N   UNL     1      -8.309  16.127  66.559  1.00  0.00    -0.291 N  
HETATM   30  C   UNL     1     -10.545  15.677  67.539  1.00  0.00    -0.297 A  
ENDBRANCH  15  22
ENDBRANCH   6   8
ENDBRANCH   5   6
ENDBRANCH   4   5
ENDBRANCH   3   4
ENDBRANCH   2   3
TORSDOF 9
ENDMDL
MODEL      276
REMARK 921   NORMALIZED FREE ENERGY PREDICTED BY IDOCK:    6.85 KCAL/MOL
REMARK 922        TOTAL FREE ENERGY PREDICTED BY IDOCK:    8.88 KCAL/MOL
REMARK 923 INTER-LIGAND FREE ENERGY PREDICTED BY IDOCK:    3.35 KCAL/MOL
REMARK 924 INTRA-LIGAND FREE ENERGY PREDICTED BY IDOCK:    5.53 KCAL/MOL
REMARK 927      BINDING AFFINITY PREDICTED BY RF-SCORE:    0.00 PKD
ROOT
HETATM    1  C   UNL     1     -12.776   5.849  65.617  1.00  0.00     6.512 C  
HETATM    2  O   UNL     1     -11.692   5.017  65.231  1.00  0.00     0.461 OA 
ENDROOT
BRANCH   2   3
HETATM    3  C   UNL     1     -10.463   5.462  65.806  1.00  0.00     0.146 C  
BRANCH   3   4
HETATM    4  C   UNL     1      -9.724   4.239  66.303  1.00  0.00    -0.213 C  
BRANCH   4   5
HETATM    5  O   UNL     1      -9.165   4.408  67.612  1.00  0.00    -0.126 OA 
BRANCH   5   6
HETATM    6  C   UNL     1      -9.478   5.597  68.177  1.00  0.00    -0.110 C  
HETATM    7  O   UNL     1     -10.552   5.852  68.700  1.00  0.00    -0.215 OA 
BRANCH   6   8
HETATM    8  C   UNL     1      -8.376   6.585  68.037  1.00  0.00    -0.116 C  
HETATM    9  C   UNL     1      -7.147   6.265  67.556  1.00  0.00    -0.073 C  
HETATM   10  C   UNL     1      -6.574   4.905  67.221  1.00  0.00    -0.050 C  
HETATM   11  N   UNL     1      -6.248   7.276  67.291  1.00  0.00    -0.051 NA 
HETATM   12  C   UNL     1      -6.411   8.603  67.613  1.00  0.00    -0.061 C  
HETATM   13  C   UNL     1      -7.587   9.037  68.131  1.00  0.00    -0.092 C  
HETATM   14  C   UNL     1      -5.196   9.460  67.354  1.00  0.00    -0.036 C  
HETATM   15  C   UNL     1      -8.761   8.059  68.316  1.00  0.00    -0.130 C  
BRANCH  13  16
HETATM   16  C   UNL     1      -7.668  10.443  68.612  1.00  0.00    -0.101 C  
HETATM   17  O   UNL     1      -6.757  11.248  68.481  1.00  0.00    -0.058 OA 
BRANCH  16  18
HETATM   18  O   UNL     1      -8.842  10.726  69.234  1.00  0.00    -0.128 OA 
BRANCH  18  19
HETATM   19  C   UNL     1      -9.790  11.428  68.395  1.00  0.00    -0.205 C  
HETATM   20  C   UNL     1      -9.572  11.034  66.937  1.00  0.00    -0.205 C  
HETATM   21  C   UNL     1     -11.202  11.081  68.846  1.00  0.00    -0.326 C  
ENDBRANCH  18  19
ENDBRANCH  16  18
ENDBRANCH  13  16
BRANCH  15  22
HETATM   22  C   UNL     1      -9.409   8.189  69.700  1.00  0.00    -0.159 A  
HETATM   23  C   UNL     1      -8.657   8.675  70.787  1.00  0.00    -0.197 A  
HETATM   24  C   UNL     1     -10.753   7.846  69.907  1.00  0.00    -0.244 A  
HETATM   25  C   UNL     1      -9.230   8.812  72.053  1.00  0.00    -0.294 A  
HETATM   26  O   UNL     1     -13.368   7.210  70.407  1.00  0.00     0.390 OA 
HETATM   27  O   UNL     1     -13.202   7.766  72.522  1.00  0.00     0.049 OA 
HETATM   28  C   UNL     1     -11.322   7.985  71.180  1.00  0.00    -0.266 A  
HETATM   29  N   UNL     1     -12.733   7.629  71.381  1.00  0.00    -0.338 N  
HETATM   30  C   UNL     1     -10.566   8.467  72.254  1.00  0.00    -0.412 A  
ENDBRANCH  15  22
ENDBRANCH   6   8
ENDBRANCH   5   6
ENDBRANCH   4   5
ENDBRANCH   3   4
ENDBRANCH   2   3
TORSDOF 9
ENDMDL
MODEL      277
REMARK 921   NORMALIZED FREE ENERGY PREDICTED BY IDOCK:    7.65 KCAL/MOL
REMARK 922        TOTAL FREE ENERGY PREDICTED BY IDOCK:   10.10 KCAL/MOL
REMARK 923 INTER-LIGAND FREE ENERGY PREDICTED BY IDOCK:    2.80 KCAL/MOL
REMARK 924 INTRA-LIGAND FREE ENERGY PREDICTED BY IDOCK:    7.29 KCAL/MOL
REMARK 927      BINDING AFFINITY PREDICTED BY RF-SCORE:    0.00 PKD
ROOT
HETATM    1  C   UNL     1     -10.613  17.253  66.349  1.00  0.00    -0.179 C  
HETATM    2  O   UNL     1     -11.113  17.384  67.671  1.00  0.00    -0.214 OA 
ENDROOT
BRANCH   2   3
HETATM    3  C   UNL     1     -11.134  18.750  68.087  1.00  0.00     0.407 C  
BRANCH   3   4
HETATM    4  C   UNL     1      -9.838  19.385  67.631  1.00  0.00    -0.349 C  
BRANCH   4   5
HETATM    5  O   UNL     1      -8.673  18.684  68.082  1.00  0.00    -0.294 OA 
BRANCH   5   6
HETATM    6  C   UNL     1      -8.963  17.581  68.812  1.00  0.00    -0.211 C  
HETATM    7  O   UNL     1      -9.840  17.525  69.659  1.00  0.00     0.108 OA 
BRANCH   6   8
HETATM    8  C   UNL     1      -8.045  16.454  68.500  1.00  0.00    -0.205 C  
HETATM    9  C   UNL     1      -7.081  16.521  67.547  1.00  0.00    -0.143 C  
HETATM   10  C   UNL     1      -6.818  17.606  66.527  1.00  0.00    -0.277 C  
HETATM   11  N   UNL     1      -6.162  15.497  67.452  1.00  0.00    -0.307 NA 
HETATM   12  C   UNL     1      -6.209  14.307  68.139  1.00  0.00    -0.136 C  
HETATM   13  C   UNL     1      -7.149  14.111  69.096  1.00  0.00    -0.099 C  
HETATM   14  C   UNL     1      -5.165  13.303  67.714  1.00  0.00    -0.075 C  
HETATM   15  C   UNL     1      -8.139  15.235  69.452  1.00  0.00    -0.230 C  
BRANCH  13  16
HETATM   16  C   UNL     1      -7.265  12.757  69.702  1.00  0.00     0.523 C  
HETATM   17  O   UNL     1      -7.871  12.538  70.741  1.00  0.00     4.083 OA 
BRANCH  16  18
HETATM   18  O   UNL     1      -6.603  11.802  68.998  1.00  0.00    -0.078 OA 
BRANCH  18  19
HETATM   19  C   UNL     1      -7.444  10.701  68.581  1.00  0.00    -0.098 C  
HETATM   20  C   UNL     1      -6.781   9.379  68.959  1.00  0.00    -0.050 C  
HETATM   21  C   UNL     1      -8.805  10.836  69.250  1.00  0.00    -0.039 C  
ENDBRANCH  18  19
ENDBRANCH  16  18
ENDBRANCH  13  16
BRANCH  15  22
HETATM   22  C   UNL     1      -9.584  14.729  69.531  1.00  0.00     0.055 A  
HETATM   23  C   UNL     1     -10.419  15.141  70.587  1.00  0.00     0.025 A  
HETATM   24  C   UNL     1     -10.105  13.866  68.554  1.00  0.00    -0.234 A  
HETATM   25  C   UNL     1     -11.742  14.702  70.671  1.00  0.00    -0.339 A  
HETATM   26  O   UNL     1     -11.213  12.191  66.695  1.00  0.00    -0.288 OA 
HETATM   27  O   UNL     1     -13.148  12.165  67.725  1.00  0.00     2.439 OA 
HETATM   28  C   UNL     1     -11.434  13.428  68.645  1.00  0.00    -0.310 A  
HETATM   29  N   UNL     1     -11.967  12.532  67.612  1.00  0.00    -0.308 N  
HETATM   30  C   UNL     1     -12.254  13.842  69.700  1.00  0.00    -0.374 A  
ENDBRANCH  15  22
ENDBRANCH   6   8
ENDBRANCH   5   6
ENDBRANCH   4   5
ENDBRANCH   3   4
ENDBRANCH   2   3
TORSDOF 9
ENDMDL
MODEL      278
REMARK 921   NORMALIZED FREE ENERGY PREDICTED BY IDOCK:    7.76 KCAL/MOL
REMARK 922        TOTAL FREE ENERGY PREDICTED BY IDOCK:   10.26 KCAL/MOL
REMARK 923 INTER-LIGAND FREE ENERGY PREDICTED BY IDOCK:    3.18 KCAL/MOL
REMARK 924 INTRA-LIGAND FREE ENERGY PREDICTED BY IDOCK:    7.08 KCAL/MOL
REMARK 927      BINDING AFFINITY PREDICTED BY RF-SCORE:    0.00 PKD
ROOT
HETATM    1  C   UNL     1      -7.316  10.338  70.310  1.00  0.00    -0.017 C  
HETATM    2  O   UNL     1      -7.646   9.020  69.898  1.00  0.00    -0.058 OA 
ENDROOT
BRANCH   2   3
HETATM    3  C   UNL     1      -9.054   8.791  69.961  1.00  0.00    -0.160 C  
BRANCH   3   4
HETATM    4  C   UNL     1      -9.358   7.579  69.108  1.00  0.00    -0.147 C  
BRANCH   4   5
HETATM    5  O   UNL     1     -10.578   7.698  68.367  1.00  0.00    -0.190 OA 
BRANCH   5   6
HETATM    6  C   UNL     1     -10.462   7.301  67.079  1.00  0.00    -0.328 C  
HETATM    7  O   UNL     1     -10.571   8.043  66.115  1.00  0.00     0.423 OA 
BRANCH   6   8
HETATM    8  C   UNL     1     -10.240   5.835  66.969  1.00  0.00    -0.258 C  
HETATM    9  C   UNL     1     -10.439   5.136  65.822  1.00  0.00    -0.042 C  
HETATM   10  C   UNL     1     -11.045   5.596  64.514  1.00  0.00     3.756 C  
HETATM   11  N   UNL     1     -10.036   3.819  65.762  1.00  0.00    -0.089 NA 
HETATM   12  C   UNL     1      -9.578   3.069  66.820  1.00  0.00     0.076 C  
HETATM   13  C   UNL     1      -9.369   3.652  68.027  1.00  0.00    -0.237 C  
HETATM   14  C   UNL     1      -9.365   1.609  66.501  1.00  0.00     0.111 C  
HETATM   15  C   UNL     1      -9.597   5.163  68.208  1.00  0.00    -0.178 C  
BRANCH  13  16
HETATM   16  C   UNL     1      -9.026   2.776  69.181  1.00  0.00    -0.113 C  
HETATM   17  O   UNL     1      -9.861   2.335  69.957  1.00  0.00     0.037 OA 
BRANCH  16  18
HETATM   18  O   UNL     1      -7.692   2.547  69.295  1.00  0.00    -0.043 OA 
BRANCH  18  19
HETATM   19  C   UNL     1      -7.331   1.798  70.480  1.00  0.00    -0.033 C  
HETATM   20  C   UNL     1      -5.813   1.647  70.548  1.00  0.00    -0.017 C  
HETATM   21  C   UNL     1      -7.858   2.530  71.707  1.00  0.00    -0.048 C  
ENDBRANCH  18  19
ENDBRANCH  16  18
ENDBRANCH  13  16
BRANCH  15  22
HETATM   22  C   UNL     1     -10.412   5.477  69.469  1.00  0.00    -0.368 A  
HETATM   23  C   UNL     1     -11.773   5.822  69.361  1.00  0.00     1.192 A  
HETATM   24  C   UNL     1      -9.829   5.411  70.744  1.00  0.00    -0.252 A  
HETATM   25  C   UNL     1     -12.536   6.100  70.497  1.00  0.00     1.010 A  
HETATM   26  O   UNL     1      -8.786   5.304  73.272  1.00  0.00    -0.116 OA 
HETATM   27  O   UNL     1     -10.695   5.869  74.191  1.00  0.00    -0.210 OA 
HETATM   28  C   UNL     1     -10.601   5.693  71.880  1.00  0.00    -0.232 A  
HETATM   29  N   UNL     1      -9.980   5.614  73.208  1.00  0.00    -0.172 N  
HETATM   30  C   UNL     1     -11.952   6.037  71.761  1.00  0.00    -0.120 A  
ENDBRANCH  15  22
ENDBRANCH   6   8
ENDBRANCH   5   6
ENDBRANCH   4   5
ENDBRANCH   3   4
ENDBRANCH   2   3
TORSDOF 9
ENDMDL
MODEL      279
REMARK 921   NORMALIZED FREE ENERGY PREDICTED BY IDOCK:    7.78 KCAL/MOL
REMARK 922        TOTAL FREE ENERGY PREDICTED BY IDOCK:   10.30 KCAL/MOL
REMARK 923 INTER-LIGAND FREE ENERGY PREDICTED BY IDOCK:    1.80 KCAL/MOL
REMARK 924 INTRA-LIGAND FREE ENERGY PREDICTED BY IDOCK:    8.51 KCAL/MOL
REMARK 927      BINDING AFFINITY PREDICTED BY RF-SCORE:    0.00 PKD
ROOT
HETATM    1  C   UNL     1     -10.855   7.891  66.819  1.00  0.00     0.175 C  
HETATM    2  O   UNL     1      -9.488   8.128  67.119  1.00  0.00    -0.146 OA 
ENDROOT
BRANCH   2   3
HETATM    3  C   UNL     1      -8.765   8.543  65.960  1.00  0.00    -0.161 C  
BRANCH   3   4
HETATM    4  C   UNL     1      -9.440   9.786  65.423  1.00  0.00    -0.269 C  
BRANCH   4   5
HETATM    5  O   UNL     1      -8.653  10.973  65.583  1.00  0.00    -0.181 OA 
BRANCH   5   6
HETATM    6  C   UNL     1      -8.169  11.127  66.838  1.00  0.00    -0.149 C  
HETATM    7  O   UNL     1      -6.997  10.987  67.147  1.00  0.00    -0.089 OA 
BRANCH   6   8
HETATM    8  C   UNL     1      -9.248  11.434  67.813  1.00  0.00    -0.159 C  
HETATM    9  C   UNL     1      -9.847  10.488  68.582  1.00  0.00    -0.178 C  
HETATM   10  C   UNL     1      -9.702   8.983  68.534  1.00  0.00    -0.171 C  
HETATM   11  N   UNL     1     -10.706  10.886  69.584  1.00  0.00    -0.218 NA 
HETATM   12  C   UNL     1     -11.153  12.169  69.799  1.00  0.00     0.113 C  
HETATM   13  C   UNL     1     -10.650  13.195  69.069  1.00  0.00    -0.089 C  
HETATM   14  C   UNL     1     -12.217  12.287  70.864  1.00  0.00    -0.296 C  
HETATM   15  C   UNL     1      -9.543  12.939  68.031  1.00  0.00    -0.221 C  
BRANCH  13  16
HETATM   16  C   UNL     1     -11.273  14.538  69.221  1.00  0.00    -0.281 C  
HETATM   17  O   UNL     1     -12.407  14.705  69.646  1.00  0.00    -0.298 OA 
BRANCH  16  18
HETATM   18  O   UNL     1     -10.463  15.549  68.812  1.00  0.00    -0.222 OA 
BRANCH  18  19
HETATM   19  C   UNL     1      -9.089  15.404  69.245  1.00  0.00    -0.260 C  
HETATM   20  C   UNL     1      -8.199  16.354  68.449  1.00  0.00    -0.190 C  
HETATM   21  C   UNL     1      -9.006  15.703  70.735  1.00  0.00     2.180 C  
ENDBRANCH  18  19
ENDBRANCH  16  18
ENDBRANCH  13  16
BRANCH  15  22
HETATM   22  C   UNL     1      -9.837  13.625  66.691  1.00  0.00    -0.284 A  
HETATM   23  C   UNL     1      -8.794  14.234  65.967  1.00  0.00     0.443 A  
HETATM   24  C   UNL     1     -11.134  13.646  66.156  1.00  0.00    -0.299 A  
HETATM   25  C   UNL     1      -9.037  14.853  64.739  1.00  0.00     2.842 A  
HETATM   26  O   UNL     1     -13.626  13.733  65.029  1.00  0.00    -0.120 OA 
HETATM   27  O   UNL     1     -12.905  14.841  63.279  1.00  0.00    -0.101 OA 
HETATM   28  C   UNL     1     -11.371  14.271  64.924  1.00  0.00    -0.372 A  
HETATM   29  N   UNL     1     -12.733  14.280  64.373  1.00  0.00    -0.132 N  
HETATM   30  C   UNL     1     -10.328  14.874  64.214  1.00  0.00     0.926 A  
ENDBRANCH  15  22
ENDBRANCH   6   8
ENDBRANCH   5   6
ENDBRANCH   4   5
ENDBRANCH   3   4
ENDBRANCH   2   3
TORSDOF 9
ENDMDL
MODEL      280
REMARK 921   NORMALIZED FREE ENERGY PREDICTED BY IDOCK:    9.35 KCAL/MOL
REMARK 922        TOTAL FREE ENERGY PREDICTED BY IDOCK:   12.69 KCAL/MOL
REMARK 923 INTER-LIGAND FREE ENERGY PREDICTED BY IDOCK:    6.48 KCAL/MOL
REMARK 924 INTRA-LIGAND FREE ENERGY PREDICTED BY IDOCK:    6.22 KCAL/MOL
REMARK 927      BINDING AFFINITY PREDICTED BY RF-SCORE:    0.00 PKD
ROOT
HETATM    1  C   UNL     1     -10.404   4.763  65.352  1.00  0.00    -0.069 C  
HETATM    2  O   UNL     1     -10.489   5.963  66.106  1.00  0.00    -0.058 OA 
ENDROOT
BRANCH   2   3
HETATM    3  C   UNL     1      -9.770   7.024  65.477  1.00  0.00     0.986 C  
BRANCH   3   4
HETATM    4  C   UNL     1      -9.067   7.806  66.565  1.00  0.00    -0.170 C  
BRANCH   4   5
HETATM    5  O   UNL     1      -9.571   7.529  67.878  1.00  0.00    -0.140 OA 
BRANCH   5   6
HETATM    6  C   UNL     1      -9.772   8.644  68.619  1.00  0.00    -0.163 C  
HETATM    7  O   UNL     1      -9.561   8.722  69.819  1.00  0.00    -0.167 OA 
BRANCH   6   8
HETATM    8  C   UNL     1     -10.336   9.754  67.808  1.00  0.00    -0.274 C  
HETATM    9  C   UNL     1     -11.124   9.555  66.720  1.00  0.00     0.425 C  
HETATM   10  C   UNL     1     -11.469   8.264  66.011  1.00  0.00     4.959 C  
HETATM   11  N   UNL     1     -11.749  10.638  66.139  1.00  0.00     0.737 NA 
HETATM   12  C   UNL     1     -11.534  11.958  66.459  1.00  0.00    -0.314 C  
HETATM   13  C   UNL     1     -10.739  12.282  67.509  1.00  0.00    -0.255 C  
HETATM   14  C   UNL     1     -12.231  12.940  65.548  1.00  0.00    -0.527 C  
HETATM   15  C   UNL     1     -10.112  11.177  68.377  1.00  0.00    -0.193 C  
BRANCH  13  16
HETATM   16  C   UNL     1     -10.407  13.717  67.723  1.00  0.00    -0.241 C  
HETATM   17  O   UNL     1      -9.746  14.376  66.933  1.00  0.00    -0.245 OA 
BRANCH  16  18
HETATM   18  O   UNL     1     -10.887  14.205  68.897  1.00  0.00    -0.248 OA 
BRANCH  18  19
HETATM   19  C   UNL     1     -10.445  15.551  69.191  1.00  0.00    -0.232 C  
HETATM   20  C   UNL     1     -11.418  16.555  68.579  1.00  0.00    -0.133 C  
HETATM   21  C   UNL     1     -10.363  15.726  70.701  1.00  0.00     0.186 C  
ENDBRANCH  18  19
ENDBRANCH  16  18
ENDBRANCH  13  16
BRANCH  15  22
HETATM   22  C   UNL     1      -8.619  11.421  68.634  1.00  0.00    -0.126 A  
HETATM   23  C   UNL     1      -7.652  10.704  67.903  1.00  0.00    -0.091 A  
HETATM   24  C   UNL     1      -8.191  12.364  69.580  1.00  0.00     1.254 A  
HETATM   25  C   UNL     1      -6.289  10.919  68.112  1.00  0.00    -0.057 A  
HETATM   26  O   UNL     1      -7.257  14.186  71.396  1.00  0.00     1.431 OA 
HETATM   27  O   UNL     1      -5.164  13.729  70.928  1.00  0.00    -0.109 OA 
HETATM   28  C   UNL     1      -6.820  12.574  69.785  1.00  0.00     0.254 A  
HETATM   29  N   UNL     1      -6.385  13.569  70.774  1.00  0.00     0.115 N  
HETATM   30  C   UNL     1      -5.868  11.855  69.055  1.00  0.00    -0.059 A  
ENDBRANCH  15  22
ENDBRANCH   6   8
ENDBRANCH   5   6
ENDBRANCH   4   5
ENDBRANCH   3   4
ENDBRANCH   2   3
TORSDOF 9
ENDMDL
MODEL      281
REMARK 921   NORMALIZED FREE ENERGY PREDICTED BY IDOCK:    9.65 KCAL/MOL
REMARK 922        TOTAL FREE ENERGY PREDICTED BY IDOCK:   13.15 KCAL/MOL
REMARK 923 INTER-LIGAND FREE ENERGY PREDICTED BY IDOCK:   12.27 KCAL/MOL
REMARK 924 INTRA-LIGAND FREE ENERGY PREDICTED BY IDOCK:    0.88 KCAL/MOL
REMARK 927      BINDING AFFINITY PREDICTED BY RF-SCORE:    0.00 PKD
ROOT
HETATM    1  C   UNL     1     -13.177   4.365  72.682  1.00  0.00     2.427 C  
HETATM    2  O   UNL     1     -12.735   4.298  71.335  1.00  0.00     6.275 OA 
ENDROOT
BRANCH   2   3
HETATM    3  C   UNL     1     -11.315   4.420  71.245  1.00  0.00     2.007 C  
BRANCH   3   4
HETATM    4  C   UNL     1     -10.897   5.548  72.163  1.00  0.00    -0.235 C  
BRANCH   4   5
HETATM    5  O   UNL     1     -10.388   6.690  71.462  1.00  0.00    -0.207 OA 
BRANCH   5   6
HETATM    6  C   UNL     1      -9.045   6.660  71.295  1.00  0.00    -0.151 C  
HETATM    7  O   UNL     1      -8.344   5.685  71.518  1.00  0.00    -0.124 OA 
BRANCH   6   8
HETATM    8  C   UNL     1      -8.511   7.977  70.861  1.00  0.00    -0.126 C  
HETATM    9  C   UNL     1      -8.683   9.121  71.571  1.00  0.00     0.058 C  
HETATM   10  C   UNL     1      -9.529   9.366  72.801  1.00  0.00     2.394 C  
HETATM   11  N   UNL     1      -8.001  10.256  71.187  1.00  0.00     1.156 NA 
HETATM   12  C   UNL     1      -7.261  10.400  70.037  1.00  0.00    -0.135 C  
HETATM   13  C   UNL     1      -7.047   9.332  69.229  1.00  0.00    -0.057 C  
HETATM   14  C   UNL     1      -6.763  11.804  69.790  1.00  0.00     0.015 C  
HETATM   15  C   UNL     1      -7.589   7.945  69.616  1.00  0.00    -0.098 C  
BRANCH  13  16
HETATM   16  C   UNL     1      -6.378   9.565  67.919  1.00  0.00    -0.054 C  
HETATM   17  O   UNL     1      -5.891   8.667  67.248  1.00  0.00    -0.042 OA 
BRANCH  16  18
HETATM   18  O   UNL     1      -6.341  10.876  67.567  1.00  0.00    -0.055 OA 
BRANCH  18  19
HETATM   19  C   UNL     1      -6.807  11.129  66.220  1.00  0.00    -0.055 C  
HETATM   20  C   UNL     1      -7.472   9.873  65.665  1.00  0.00    -0.116 C  
HETATM   21  C   UNL     1      -7.786  12.295  66.246  1.00  0.00     0.586 C  
ENDBRANCH  18  19
ENDBRANCH  16  18
ENDBRANCH  13  16
BRANCH  15  22
HETATM   22  C   UNL     1      -8.296   7.254  68.444  1.00  0.00    -0.125 A  
HETATM   23  C   UNL     1      -9.558   7.708  68.015  1.00  0.00    -0.159 A  
HETATM   24  C   UNL     1      -7.701   6.176  67.772  1.00  0.00    -0.098 A  
HETATM   25  C   UNL     1     -10.215   7.100  66.943  1.00  0.00    -0.330 A  
HETATM   26  O   UNL     1      -6.618   4.074  66.393  1.00  0.00    -0.040 OA 
HETATM   27  O   UNL     1      -8.345   3.936  65.050  1.00  0.00    -0.103 OA 
HETATM   28  C   UNL     1      -8.365   5.570  66.697  1.00  0.00    -0.109 A  
HETATM   29  N   UNL     1      -7.728   4.447  65.998  1.00  0.00    -0.093 N  
HETATM   30  C   UNL     1      -9.620   6.027  66.280  1.00  0.00    -0.136 A  
ENDBRANCH  15  22
ENDBRANCH   6   8
ENDBRANCH   5   6
ENDBRANCH   4   5
ENDBRANCH   3   4
ENDBRANCH   2   3
TORSDOF 9
ENDMDL
MODEL      282
REMARK 921   NORMALIZED FREE ENERGY PREDICTED BY IDOCK:    9.72 KCAL/MOL
REMARK 922        TOTAL FREE ENERGY PREDICTED BY IDOCK:   13.25 KCAL/MOL
REMARK 923 INTER-LIGAND FREE ENERGY PREDICTED BY IDOCK:    3.89 KCAL/MOL
REMARK 924 INTRA-LIGAND FREE ENERGY PREDICTED BY IDOCK:    9.36 KCAL/MOL
REMARK 927      BINDING AFFINITY PREDICTED BY RF-SCORE:    0.00 PKD
ROOT
HETATM    1  C   UNL     1      -6.007  12.886  68.254  1.00  0.00    -0.079 C  
HETATM    2  O   UNL     1      -5.872  13.581  69.484  1.00  0.00    -0.092 OA 
ENDROOT
BRANCH   2   3
HETATM    3  C   UNL     1      -7.032  13.422  70.302  1.00  0.00     0.852 C  
BRANCH   3   4
HETATM    4  C   UNL     1      -8.218  13.936  69.516  1.00  0.00     0.729 C  
BRANCH   4   5
HETATM    5  O   UNL     1      -8.570  13.100  68.407  1.00  0.00    -0.172 OA 
BRANCH   5   6
HETATM    6  C   UNL     1      -8.890  13.797  67.292  1.00  0.00    -0.220 C  
HETATM    7  O   UNL     1      -9.515  13.340  66.348  1.00  0.00    -0.258 OA 
BRANCH   6   8
HETATM    8  C   UNL     1      -8.339  15.177  67.325  1.00  0.00    -0.225 C  
HETATM    9  C   UNL     1      -7.040  15.466  67.056  1.00  0.00     0.035 C  
HETATM   10  C   UNL     1      -5.876  14.526  66.834  1.00  0.00     1.636 C  
HETATM   11  N   UNL     1      -6.660  16.786  66.932  1.00  0.00    -0.199 NA 
HETATM   12  C   UNL     1      -7.447  17.880  67.210  1.00  0.00    -0.197 C  
HETATM   13  C   UNL     1      -8.756  17.713  67.522  1.00  0.00    -0.234 C  
HETATM   14  C   UNL     1      -6.719  19.201  67.146  1.00  0.00    -0.205 C  
HETATM   15  C   UNL     1      -9.381  16.307  67.522  1.00  0.00    -0.217 C  
BRANCH  13  16
HETATM   16  C   UNL     1      -9.529  18.904  67.969  1.00  0.00    -0.317 C  
HETATM   17  O   UNL     1     -10.744  18.901  68.103  1.00  0.00    -0.292 OA 
BRANCH  16  18
HETATM   18  O   UNL     1      -8.748  19.995  68.182  1.00  0.00    -0.276 OA 
BRANCH  18  19
HETATM   19  C   UNL     1      -9.364  21.239  67.771  1.00  0.00     0.328 C  
HETATM   20  C   UNL     1      -9.442  21.293  66.248  1.00  0.00     1.589 C  
HETATM   21  C   UNL     1     -10.752  21.332  68.390  1.00  0.00     1.625 C  
ENDBRANCH  18  19
ENDBRANCH  16  18
ENDBRANCH  13  16
BRANCH  15  22
HETATM   22  C   UNL     1     -10.219  16.047  68.779  1.00  0.00    -0.225 A  
HETATM   23  C   UNL     1     -10.133  16.923  69.878  1.00  0.00     0.301 A  
HETATM   24  C   UNL     1     -11.093  14.951  68.854  1.00  0.00    -0.267 A  
HETATM   25  C   UNL     1     -10.897  16.712  71.028  1.00  0.00     0.584 A  
HETATM   26  O   UNL     1     -12.828  12.848  69.093  1.00  0.00     0.673 OA 
HETATM   27  O   UNL     1     -13.431  13.446  71.115  1.00  0.00    -0.118 OA 
HETATM   28  C   UNL     1     -11.856  14.744  70.012  1.00  0.00    -0.311 A  
HETATM   29  N   UNL     1     -12.771  13.597  70.075  1.00  0.00    -0.096 N  
HETATM   30  C   UNL     1     -11.761  15.620  71.099  1.00  0.00    -0.461 A  
ENDBRANCH  15  22
ENDBRANCH   6   8
ENDBRANCH   5   6
ENDBRANCH   4   5
ENDBRANCH   3   4
ENDBRANCH   2   3
TORSDOF 9
ENDMDL
MODEL      283
REMARK 921   NORMALIZED FREE ENERGY PREDICTED BY IDOCK:    9.75 KCAL/MOL
REMARK 922        TOTAL FREE ENERGY PREDICTED BY IDOCK:   13.29 KCAL/MOL
REMARK 923 INTER-LIGAND FREE ENERGY PREDICTED BY IDOCK:   -3.64 KCAL/MOL
REMARK 924 INTRA-LIGAND FREE ENERGY PREDICTED BY IDOCK:   16.94 KCAL/MOL
REMARK 927      BINDING AFFINITY PREDICTED BY RF-SCORE:    0.00 PKD
ROOT
HETATM    1  C   UNL     1      -9.857   7.153  68.775  1.00  0.00    -0.158 C  
HETATM    2  O   UNL     1      -8.499   6.979  69.151  1.00  0.00    -0.127 OA 
ENDROOT
BRANCH   2   3
HETATM    3  C   UNL     1      -7.614   7.364  68.099  1.00  0.00    -0.114 C  
BRANCH   3   4
HETATM    4  C   UNL     1      -8.414   8.176  67.104  1.00  0.00    -0.124 C  
BRANCH   4   5
HETATM    5  O   UNL     1      -9.408   9.006  67.719  1.00  0.00    -0.139 OA 
BRANCH   5   6
HETATM    6  C   UNL     1      -9.122   9.319  69.004  1.00  0.00    -0.147 C  
HETATM    7  O   UNL     1      -9.239   8.548  69.944  1.00  0.00    -0.151 OA 
BRANCH   6   8
HETATM    8  C   UNL     1      -8.699  10.736  69.149  1.00  0.00    -0.101 C  
HETATM    9  C   UNL     1      -7.399  11.121  69.221  1.00  0.00    -0.097 C  
HETATM   10  C   UNL     1      -6.153  10.271  69.328  1.00  0.00    -0.037 C  
HETATM   11  N   UNL     1      -7.096  12.466  69.171  1.00  0.00    -0.046 NA 
HETATM   12  C   UNL     1      -8.004  13.498  69.212  1.00  0.00     0.478 C  
HETATM   13  C   UNL     1      -9.334  13.234  69.178  1.00  0.00     0.573 C  
HETATM   14  C   UNL     1      -7.382  14.870  69.311  1.00  0.00    -0.175 C  
HETATM   15  C   UNL     1      -9.835  11.785  69.045  1.00  0.00     0.079 C  
BRANCH  13  16
HETATM   16  C   UNL     1     -10.280  14.365  69.384  1.00  0.00     0.021 C  
HETATM   17  O   UNL     1     -11.475  14.208  69.591  1.00  0.00    -0.263 OA 
BRANCH  16  18
HETATM   18  O   UNL     1      -9.683  15.581  69.287  1.00  0.00    -0.235 OA 
BRANCH  18  19
HETATM   19  C   UNL     1      -9.740  16.152  67.959  1.00  0.00    -0.229 C  
HETATM   20  C   UNL     1      -9.512  15.056  66.921  1.00  0.00    -0.252 C  
HETATM   21  C   UNL     1     -11.098  16.812  67.761  1.00  0.00    -0.135 C  
ENDBRANCH  18  19
ENDBRANCH  16  18
ENDBRANCH  13  16
BRANCH  15  22
HETATM   22  C   UNL     1     -10.951  11.465  70.047  1.00  0.00     0.078 A  
HETATM   23  C   UNL     1     -11.979  12.398  70.279  1.00  0.00    -0.371 A  
HETATM   24  C   UNL     1     -10.979  10.242  70.735  1.00  0.00    -0.213 A  
HETATM   25  C   UNL     1     -13.012  12.122  71.178  1.00  0.00    -0.240 A  
HETATM   26  O   UNL     1     -11.124   7.885  72.118  1.00  0.00    -0.255 OA 
HETATM   27  O   UNL     1     -12.973   8.481  73.135  1.00  0.00    -0.102 OA 
HETATM   28  C   UNL     1     -12.017   9.972  71.637  1.00  0.00    -0.286 A  
HETATM   29  N   UNL     1     -12.038   8.686  72.345  1.00  0.00    -0.370 N  
HETATM   30  C   UNL     1     -13.033  10.907  71.861  1.00  0.00    -0.502 A  
ENDBRANCH  15  22
ENDBRANCH   6   8
ENDBRANCH   5   6
ENDBRANCH   4   5
ENDBRANCH   3   4
ENDBRANCH   2   3
TORSDOF 9
ENDMDL
MODEL      284
REMARK 921   NORMALIZED FREE ENERGY PREDICTED BY IDOCK:   10.17 KCAL/MOL
REMARK 922        TOTAL FREE ENERGY PREDICTED BY IDOCK:   13.95 KCAL/MOL
REMARK 923 INTER-LIGAND FREE ENERGY PREDICTED BY IDOCK:    1.30 KCAL/MOL
REMARK 924 INTRA-LIGAND FREE ENERGY PREDICTED BY IDOCK:   12.65 KCAL/MOL
REMARK 927      BINDING AFFINITY PREDICTED BY RF-SCORE:    0.00 PKD
ROOT
HETATM    1  C   UNL     1      -8.734  11.236  68.844  1.00  0.00    -0.046 C  
HETATM    2  O   UNL     1      -8.108  11.750  70.010  1.00  0.00     1.327 OA 
ENDROOT
BRANCH   2   3
HETATM    3  C   UNL     1      -7.473  13.002  69.752  1.00  0.00     0.993 C  
BRANCH   3   4
HETATM    4  C   UNL     1      -5.994  12.826  70.017  1.00  0.00    -0.142 C  
BRANCH   4   5
HETATM    5  O   UNL     1      -5.458  11.619  69.461  1.00  0.00    -0.056 OA 
BRANCH   5   6
HETATM    6  C   UNL     1      -6.386  10.866  68.826  1.00  0.00    -0.048 C  
HETATM    7  O   UNL     1      -7.013  11.228  67.843  1.00  0.00    -0.070 OA 
BRANCH   6   8
HETATM    8  C   UNL     1      -6.596   9.559  69.502  1.00  0.00    -0.044 C  
HETATM    9  C   UNL     1      -6.271   9.332  70.800  1.00  0.00    -0.066 C  
HETATM   10  C   UNL     1      -5.523  10.221  71.769  1.00  0.00     0.088 C  
HETATM   11  N   UNL     1      -6.667   8.152  71.393  1.00  0.00    -0.051 NA 
HETATM   12  C   UNL     1      -7.241   7.081  70.749  1.00  0.00    -0.071 C  
HETATM   13  C   UNL     1      -7.583   7.178  69.440  1.00  0.00    -0.098 C  
HETATM   14  C   UNL     1      -7.419   5.857  71.615  1.00  0.00    -0.094 C  
HETATM   15  C   UNL     1      -7.374   8.500  68.681  1.00  0.00    -0.088 C  
BRANCH  13  16
HETATM   16  C   UNL     1      -8.054   5.950  68.743  1.00  0.00    -0.103 C  
HETATM   17  O   UNL     1      -9.198   5.809  68.338  1.00  0.00    -0.117 OA 
BRANCH  16  18
HETATM   18  O   UNL     1      -7.089   4.999  68.633  1.00  0.00    -0.055 OA 
BRANCH  18  19
HETATM   19  C   UNL     1      -7.500   3.698  69.116  1.00  0.00    -0.053 C  
HETATM   20  C   UNL     1      -7.635   2.735  67.940  1.00  0.00    -0.056 C  
HETATM   21  C   UNL     1      -6.467   3.193  70.115  1.00  0.00    -0.032 C  
ENDBRANCH  18  19
ENDBRANCH  16  18
ENDBRANCH  13  16
BRANCH  15  22
HETATM   22  C   UNL     1      -6.704   8.284  67.318  1.00  0.00    -0.063 A  
HETATM   23  C   UNL     1      -6.286   6.996  66.934  1.00  0.00    -0.041 A  
HETATM   24  C   UNL     1      -6.512   9.352  66.427  1.00  0.00    -0.066 A  
HETATM   25  C   UNL     1      -5.685   6.775  65.693  1.00  0.00    -0.030 A  
HETATM   26  O   UNL     1      -6.099  11.366  64.621  1.00  0.00     0.686 OA 
HETATM   27  O   UNL     1      -5.180  10.007  63.166  1.00  0.00    -0.083 OA 
HETATM   28  C   UNL     1      -5.907   9.123  65.183  1.00  0.00    -0.058 A  
HETATM   29  N   UNL     1      -5.718  10.248  64.259  1.00  0.00    -0.132 N  
HETATM   30  C   UNL     1      -5.493   7.839  64.813  1.00  0.00    -0.033 A  
ENDBRANCH  15  22
ENDBRANCH   6   8
ENDBRANCH   5   6
ENDBRANCH   4   5
ENDBRANCH   3   4
ENDBRANCH   2   3
TORSDOF 9
ENDMDL
MODEL      285
REMARK 921   NORMALIZED FREE ENERGY PREDICTED BY IDOCK:   13.01 KCAL/MOL
REMARK 922        TOTAL FREE ENERGY PREDICTED BY IDOCK:   18.27 KCAL/MOL
REMARK 923 INTER-LIGAND FREE ENERGY PREDICTED BY IDOCK:    6.99 KCAL/MOL
REMARK 924 INTRA-LIGAND FREE ENERGY PREDICTED BY IDOCK:   11.28 KCAL/MOL
REMARK 927      BINDING AFFINITY PREDICTED BY RF-SCORE:    0.00 PKD
ROOT
HETATM    1  C   UNL     1     -11.242  17.721  68.055  1.00  0.00     0.307 C  
HETATM    2  O   UNL     1     -11.517  16.560  68.824  1.00  0.00    -0.291 OA 
ENDROOT
BRANCH   2   3
HETATM    3  C   UNL     1     -12.327  15.634  68.098  1.00  0.00     0.675 C  
BRANCH   3   4
HETATM    4  C   UNL     1     -11.568  14.327  68.024  1.00  0.00    -0.332 C  
BRANCH   4   5
HETATM    5  O   UNL     1     -10.635  14.151  69.097  1.00  0.00    -0.227 OA 
BRANCH   5   6
HETATM    6  C   UNL     1      -9.928  13.000  69.008  1.00  0.00     0.234 C  
HETATM    7  O   UNL     1      -9.194  12.572  69.884  1.00  0.00     2.181 OA 
BRANCH   6   8
HETATM    8  C   UNL     1     -10.107  12.342  67.687  1.00  0.00    -0.199 C  
HETATM    9  C   UNL     1     -11.306  12.247  67.059  1.00  0.00    -0.334 C  
HETATM   10  C   UNL     1     -12.684  12.609  67.567  1.00  0.00     1.697 C  
HETATM   11  N   UNL     1     -11.347  11.784  65.761  1.00  0.00    -0.292 NA 
HETATM   12  C   UNL     1     -10.290  11.248  65.064  1.00  0.00    -0.301 C  
HETATM   13  C   UNL     1      -9.045  11.258  65.603  1.00  0.00    -0.203 C  
HETATM   14  C   UNL     1     -10.661  10.669  63.720  1.00  0.00     0.070 C  
HETATM   15  C   UNL     1      -8.800  11.910  66.975  1.00  0.00    -0.190 C  
BRANCH  13  16
HETATM   16  C   UNL     1      -7.963  10.528  64.888  1.00  0.00    -0.063 C  
HETATM   17  O   UNL     1      -8.170   9.790  63.936  1.00  0.00    -0.137 OA 
BRANCH  16  18
HETATM   18  O   UNL     1      -6.733  10.747  65.421  1.00  0.00    -0.064 OA 
BRANCH  18  19
HETATM   19  C   UNL     1      -5.671  10.775  64.438  1.00  0.00     0.051 C  
HETATM   20  C   UNL     1      -6.157  10.136  63.141  1.00  0.00    -0.140 C  
HETATM   21  C   UNL     1      -5.249  12.220  64.207  1.00  0.00     5.183 C  
ENDBRANCH  18  19
ENDBRANCH  16  18
ENDBRANCH  13  16
BRANCH  15  22
HETATM   22  C   UNL     1      -7.960  11.017  67.897  1.00  0.00    -0.112 A  
HETATM   23  C   UNL     1      -7.480  11.522  69.121  1.00  0.00    -0.025 A  
HETATM   24  C   UNL     1      -7.669   9.689  67.552  1.00  0.00    -0.095 A  
HETATM   25  C   UNL     1      -6.724  10.723  69.981  1.00  0.00    -0.149 A  
HETATM   26  O   UNL     1      -7.055   7.086  66.971  1.00  0.00    -0.074 OA 
HETATM   27  O   UNL     1      -5.941   6.826  68.842  1.00  0.00    -0.021 OA 
HETATM   28  C   UNL     1      -6.908   8.892  68.419  1.00  0.00    -0.065 A  
HETATM   29  N   UNL     1      -6.616   7.502  68.049  1.00  0.00    -0.052 N  
HETATM   30  C   UNL     1      -6.434   9.404  69.632  1.00  0.00    -0.040 A  
ENDBRANCH  15  22
ENDBRANCH   6   8
ENDBRANCH   5   6
ENDBRANCH   4   5
ENDBRANCH   3   4
ENDBRANCH   2   3
TORSDOF 9
ENDMDL
MODEL      286
REMARK 921   NORMALIZED FREE ENERGY PREDICTED BY IDOCK:   13.39 KCAL/MOL
REMARK 922        TOTAL FREE ENERGY PREDICTED BY IDOCK:   18.86 KCAL/MOL
REMARK 923 INTER-LIGAND FREE ENERGY PREDICTED BY IDOCK:    5.22 KCAL/MOL
REMARK 924 INTRA-LIGAND FREE ENERGY PREDICTED BY IDOCK:   13.64 KCAL/MOL
REMARK 927      BINDING AFFINITY PREDICTED BY RF-SCORE:    0.00 PKD
ROOT
HETATM    1  C   UNL     1      -6.083  11.042  69.170  1.00  0.00    -0.045 C  
HETATM    2  O   UNL     1      -5.141  10.174  68.558  1.00  0.00    -0.036 OA 
ENDROOT
BRANCH   2   3
HETATM    3  C   UNL     1      -5.790   9.123  67.842  1.00  0.00    -0.042 C  
BRANCH   3   4
HETATM    4  C   UNL     1      -6.639   8.354  68.831  1.00  0.00    -0.053 C  
BRANCH   4   5
HETATM    5  O   UNL     1      -5.957   8.062  70.057  1.00  0.00    -0.023 OA 
BRANCH   5   6
HETATM    6  C   UNL     1      -6.042   9.061  70.967  1.00  0.00    -0.054 C  
HETATM    7  O   UNL     1      -5.242   9.241  71.871  1.00  0.00    -0.051 OA 
BRANCH   6   8
HETATM    8  C   UNL     1      -7.263   9.885  70.771  1.00  0.00     0.063 C  
HETATM    9  C   UNL     1      -7.229  11.224  70.550  1.00  0.00     1.631 C  
HETATM   10  C   UNL     1      -6.053  12.174  70.603  1.00  0.00     0.187 C  
HETATM   11  N   UNL     1      -8.394  11.874  70.200  1.00  0.00     2.455 NA 
HETATM   12  C   UNL     1      -9.654  11.323  70.199  1.00  0.00     1.925 C  
HETATM   13  C   UNL     1      -9.817   9.999  70.439  1.00  0.00    -0.071 C  
HETATM   14  C   UNL     1     -10.764  12.312  69.934  1.00  0.00     0.742 C  
HETATM   15  C   UNL     1      -8.592   9.095  70.665  1.00  0.00    -0.266 C  
BRANCH  13  16
HETATM   16  C   UNL     1     -11.203   9.475  70.585  1.00  0.00    -0.302 C  
HETATM   17  O   UNL     1     -12.130   9.829  69.872  1.00  0.00     0.013 OA 
BRANCH  16  18
HETATM   18  O   UNL     1     -11.331   8.592  71.609  1.00  0.00    -0.259 OA 
BRANCH  18  19
HETATM   19  C   UNL     1     -12.350   7.589  71.386  1.00  0.00    -0.345 C  
HETATM   20  C   UNL     1     -11.716   6.201  71.406  1.00  0.00    -0.236 C  
HETATM   21  C   UNL     1     -13.414   7.714  72.469  1.00  0.00     0.328 C  
ENDBRANCH  18  19
ENDBRANCH  16  18
ENDBRANCH  13  16
BRANCH  15  22
HETATM   22  C   UNL     1      -8.767   8.179  71.882  1.00  0.00    -0.206 A  
HETATM   23  C   UNL     1      -9.023   8.732  73.151  1.00  0.00     0.351 A  
HETATM   24  C   UNL     1      -8.692   6.783  71.756  1.00  0.00    -0.128 A  
HETATM   25  C   UNL     1      -9.198   7.916  74.270  1.00  0.00     0.247 A  
HETATM   26  O   UNL     1      -8.572   4.053  71.609  1.00  0.00    -0.097 OA 
HETATM   27  O   UNL     1      -8.954   3.821  73.756  1.00  0.00    -0.089 OA 
HETATM   28  C   UNL     1      -8.867   5.969  72.883  1.00  0.00    -0.122 A  
HETATM   29  N   UNL     1      -8.793   4.510  72.735  1.00  0.00    -0.112 N  
HETATM   30  C   UNL     1      -9.120   6.530  74.140  1.00  0.00    -0.185 A  
ENDBRANCH  15  22
ENDBRANCH   6   8
ENDBRANCH   5   6
ENDBRANCH   4   5
ENDBRANCH   3   4
ENDBRANCH   2   3
TORSDOF 9
ENDMDL
MODEL      287
REMARK 921   NORMALIZED FREE ENERGY PREDICTED BY IDOCK:   15.55 KCAL/MOL
REMARK 922        TOTAL FREE ENERGY PREDICTED BY IDOCK:   22.15 KCAL/MOL
REMARK 923 INTER-LIGAND FREE ENERGY PREDICTED BY IDOCK:    2.60 KCAL/MOL
REMARK 924 INTRA-LIGAND FREE ENERGY PREDICTED BY IDOCK:   19.55 KCAL/MOL
REMARK 927      BINDING AFFINITY PREDICTED BY RF-SCORE:    0.00 PKD
ROOT
HETATM    1  C   UNL     1      -7.915  10.419  68.803  1.00  0.00    -0.122 C  
HETATM    2  O   UNL     1      -6.863   9.646  68.246  1.00  0.00    -0.067 OA 
ENDROOT
BRANCH   2   3
HETATM    3  C   UNL     1      -7.367   8.502  67.555  1.00  0.00    -0.089 C  
BRANCH   3   4
HETATM    4  C   UNL     1      -8.812   8.322  67.965  1.00  0.00    -0.135 C  
BRANCH   4   5
HETATM    5  O   UNL     1      -9.741   8.879  67.026  1.00  0.00    -0.162 OA 
BRANCH   5   6
HETATM    6  C   UNL     1      -9.155   9.682  66.108  1.00  0.00    -0.161 C  
HETATM    7  O   UNL     1      -9.389  10.874  65.985  1.00  0.00    -0.177 OA 
BRANCH   6   8
HETATM    8  C   UNL     1      -8.230   8.928  65.222  1.00  0.00    -0.139 C  
HETATM    9  C   UNL     1      -7.571   9.495  64.179  1.00  0.00    -0.123 C  
HETATM   10  C   UNL     1      -7.718  10.883  63.595  1.00  0.00     0.395 C  
HETATM   11  N   UNL     1      -6.599   8.767  63.527  1.00  0.00    -0.089 NA 
HETATM   12  C   UNL     1      -6.322   7.435  63.725  1.00  0.00    -0.049 C  
HETATM   13  C   UNL     1      -6.943   6.752  64.719  1.00  0.00    -0.055 C  
HETATM   14  C   UNL     1      -5.320   6.857  62.755  1.00  0.00    -0.032 C  
HETATM   15  C   UNL     1      -7.924   7.473  65.660  1.00  0.00    -0.117 C  
BRANCH  13  16
HETATM   16  C   UNL     1      -6.734   5.280  64.799  1.00  0.00    -0.048 C  
HETATM   17  O   UNL     1      -5.658   4.745  64.578  1.00  0.00    -0.013 OA 
BRANCH  16  18
HETATM   18  O   UNL     1      -7.868   4.599  65.110  1.00  0.00    -0.088 OA 
BRANCH  18  19
HETATM   19  C   UNL     1      -7.622   3.334  65.769  1.00  0.00    -0.077 C  
HETATM   20  C   UNL     1      -6.814   2.426  64.846  1.00  0.00    -0.047 C  
HETATM   21  C   UNL     1      -6.875   3.590  67.070  1.00  0.00    -0.050 C  
ENDBRANCH  18  19
ENDBRANCH  16  18
ENDBRANCH  13  16
BRANCH  15  22
HETATM   22  C   UNL     1      -9.227   6.687  65.849  1.00  0.00    -0.010 A  
HETATM   23  C   UNL     1     -10.152   7.082  66.834  1.00  0.00    -0.296 A  
HETATM   24  C   UNL     1      -9.529   5.579  65.042  1.00  0.00     0.339 A  
HETATM   25  C   UNL     1     -11.350   6.388  67.015  1.00  0.00    -0.071 A  
HETATM   26  O   UNL     1     -10.211   3.413  63.515  1.00  0.00    -0.166 OA 
HETATM   27  O   UNL     1     -12.115   3.144  64.569  1.00  0.00     2.702 OA 
HETATM   28  C   UNL     1     -10.733   4.886  65.230  1.00  0.00     0.134 A  
HETATM   29  N   UNL     1     -11.040   3.733  64.374  1.00  0.00    -0.018 N  
HETATM   30  C   UNL     1     -11.644   5.286  66.213  1.00  0.00     1.428 A  
ENDBRANCH  15  22
ENDBRANCH   6   8
ENDBRANCH   5   6
ENDBRANCH   4   5
ENDBRANCH   3   4
ENDBRANCH   2   3
TORSDOF 9
ENDMDL
MODEL      288
REMARK 921   NORMALIZED FREE ENERGY PREDICTED BY IDOCK:   16.44 KCAL/MOL
REMARK 922        TOTAL FREE ENERGY PREDICTED BY IDOCK:   23.51 KCAL/MOL
REMARK 923 INTER-LIGAND FREE ENERGY PREDICTED BY IDOCK:    4.00 KCAL/MOL
REMARK 924 INTRA-LIGAND FREE ENERGY PREDICTED BY IDOCK:   19.51 KCAL/MOL
REMARK 927      BINDING AFFINITY PREDICTED BY RF-SCORE:    0.00 PKD
ROOT
HETATM    1  C   UNL     1      -8.041  14.544  70.488  1.00  0.00     1.765 C  
HETATM    2  O   UNL     1      -7.163  13.831  69.630  1.00  0.00     0.098 OA 
ENDROOT
BRANCH   2   3
HETATM    3  C   UNL     1      -6.256  13.016  70.373  1.00  0.00     0.055 C  
BRANCH   3   4
HETATM    4  C   UNL     1      -6.826  11.615  70.406  1.00  0.00     0.947 C  
BRANCH   4   5
HETATM    5  O   UNL     1      -8.237  11.582  70.653  1.00  0.00     2.972 OA 
BRANCH   5   6
HETATM    6  C   UNL     1      -8.978  11.832  69.549  1.00  0.00     1.164 C  
HETATM    7  O   UNL     1     -10.038  12.440  69.552  1.00  0.00     0.508 OA 
BRANCH   6   8
HETATM    8  C   UNL     1      -8.378  11.228  68.330  1.00  0.00    -0.152 C  
HETATM    9  C   UNL     1      -7.326  10.371  68.366  1.00  0.00    -0.085 C  
HETATM   10  C   UNL     1      -6.458   9.969  69.537  1.00  0.00    -0.051 C  
HETATM   11  N   UNL     1      -6.954   9.722  67.208  1.00  0.00    -0.083 NA 
HETATM   12  C   UNL     1      -7.451   9.970  65.950  1.00  0.00    -0.115 C  
HETATM   13  C   UNL     1      -8.484  10.833  65.785  1.00  0.00    -0.174 C  
HETATM   14  C   UNL     1      -6.742   9.227  64.844  1.00  0.00    -0.079 C  
HETATM   15  C   UNL     1      -9.136  11.503  67.007  1.00  0.00    -0.175 C  
BRANCH  13  16
HETATM   16  C   UNL     1      -8.885  11.193  64.398  1.00  0.00     0.102 C  
HETATM   17  O   UNL     1      -9.565  12.173  64.132  1.00  0.00    -0.104 OA 
BRANCH  16  18
HETATM   18  O   UNL     1      -8.443  10.305  63.470  1.00  0.00    -0.166 OA 
BRANCH  18  19
HETATM   19  C   UNL     1      -7.013  10.087  63.510  1.00  0.00    -0.131 C  
HETATM   20  C   UNL     1      -6.720   8.592  63.429  1.00  0.00    -0.089 C  
HETATM   21  C   UNL     1      -6.366  10.831  62.349  1.00  0.00    -0.118 C  
ENDBRANCH  18  19
ENDBRANCH  16  18
ENDBRANCH  13  16
BRANCH  15  22
HETATM   22  C   UNL     1      -9.329  13.011  66.805  1.00  0.00    -0.244 A  
HETATM   23  C   UNL     1     -10.612  13.530  66.547  1.00  0.00    -0.281 A  
HETATM   24  C   UNL     1      -8.245  13.898  66.889  1.00  0.00     0.039 A  
HETATM   25  C   UNL     1     -10.812  14.901  66.372  1.00  0.00    -0.325 A  
HETATM   26  O   UNL     1      -6.196  15.707  67.041  1.00  0.00    -0.298 OA 
HETATM   27  O   UNL     1      -7.531  17.402  66.647  1.00  0.00    -0.204 OA 
HETATM   28  C   UNL     1      -8.452  15.273  66.712  1.00  0.00    -0.255 A  
HETATM   29  N   UNL     1      -7.310  16.191  66.808  1.00  0.00    -0.215 N  
HETATM   30  C   UNL     1      -9.731  15.778  66.453  1.00  0.00    -0.305 A  
ENDBRANCH  15  22
ENDBRANCH   6   8
ENDBRANCH   5   6
ENDBRANCH   4   5
ENDBRANCH   3   4
ENDBRANCH   2   3
TORSDOF 9
ENDMDL
MODEL      289
REMARK 921   NORMALIZED FREE ENERGY PREDICTED BY IDOCK:   16.70 KCAL/MOL
REMARK 922        TOTAL FREE ENERGY PREDICTED BY IDOCK:   23.91 KCAL/MOL
REMARK 923 INTER-LIGAND FREE ENERGY PREDICTED BY IDOCK:   11.24 KCAL/MOL
REMARK 924 INTRA-LIGAND FREE ENERGY PREDICTED BY IDOCK:   12.67 KCAL/MOL
REMARK 927      BINDING AFFINITY PREDICTED BY RF-SCORE:    0.00 PKD
ROOT
HETATM    1  C   UNL     1      -8.562  15.567  69.974  1.00  0.00     0.402 C  
HETATM    2  O   UNL     1      -9.832  15.393  70.584  1.00  0.00     0.197 OA 
ENDROOT
BRANCH   2   3
HETATM    3  C   UNL     1     -10.535  14.287  70.018  1.00  0.00     0.454 C  
BRANCH   3   4
HETATM    4  C   UNL     1      -9.596  13.597  69.052  1.00  0.00     0.231 C  
BRANCH   4   5
HETATM    5  O   UNL     1      -9.136  12.323  69.520  1.00  0.00     0.995 OA 
BRANCH   5   6
HETATM    6  C   UNL     1      -9.535  11.291  68.740  1.00  0.00    -0.139 C  
HETATM    7  O   UNL     1     -10.616  11.232  68.174  1.00  0.00    -0.177 OA 
BRANCH   6   8
HETATM    8  C   UNL     1      -8.521  10.205  68.697  1.00  0.00    -0.122 C  
HETATM    9  C   UNL     1      -7.270  10.335  69.207  1.00  0.00    -0.093 C  
HETATM   10  C   UNL     1      -6.583  11.565  69.756  1.00  0.00    -0.091 C  
HETATM   11  N   UNL     1      -6.461   9.221  69.285  1.00  0.00    -0.044 NA 
HETATM   12  C   UNL     1      -6.737   7.986  68.747  1.00  0.00    -0.057 C  
HETATM   13  C   UNL     1      -7.946   7.746  68.182  1.00  0.00    -0.122 C  
HETATM   14  C   UNL     1      -5.599   6.999  68.841  1.00  0.00    -0.018 C  
HETATM   15  C   UNL     1      -9.032   8.836  68.180  1.00  0.00    -0.141 C  
BRANCH  13  16
HETATM   16  C   UNL     1      -8.147   6.452  67.473  1.00  0.00    -0.117 C  
HETATM   17  O   UNL     1      -8.023   6.326  66.264  1.00  0.00    -0.105 OA 
BRANCH  16  18
HETATM   18  O   UNL     1      -8.509   5.442  68.305  1.00  0.00    -0.098 OA 
BRANCH  18  19
HETATM   19  C   UNL     1      -7.396   4.638  68.762  1.00  0.00    -0.060 C  
HETATM   20  C   UNL     1      -6.136   5.498  68.826  1.00  0.00    -0.025 C  
HETATM   21  C   UNL     1      -7.730   4.063  70.132  1.00  0.00    -0.048 C  
ENDBRANCH  18  19
ENDBRANCH  16  18
ENDBRANCH  13  16
BRANCH  15  22
HETATM   22  C   UNL     1      -9.688   8.996  66.804  1.00  0.00    -0.279 A  
HETATM   23  C   UNL     1      -9.434   8.056  65.787  1.00  0.00     0.067 A  
HETATM   24  C   UNL     1     -10.560  10.063  66.536  1.00  0.00    -0.165 A  
HETATM   25  C   UNL     1     -10.031   8.176  64.531  1.00  0.00     3.571 A  
HETATM   26  O   UNL     1     -12.279  12.102  65.920  1.00  0.00    -0.604 OA 
HETATM   27  O   UNL     1     -12.580  11.364  63.877  1.00  0.00     0.014 OA 
HETATM   28  C   UNL     1     -11.155  10.178  65.272  1.00  0.00     1.313 A  
HETATM   29  N   UNL     1     -12.071  11.295  65.007  1.00  0.00     0.753 N  
HETATM   30  C   UNL     1     -10.894   9.239  64.268  1.00  0.00     5.750 A  
ENDBRANCH  15  22
ENDBRANCH   6   8
ENDBRANCH   5   6
ENDBRANCH   4   5
ENDBRANCH   3   4
ENDBRANCH   2   3
TORSDOF 9
ENDMDL
MODEL      290
REMARK 921   NORMALIZED FREE ENERGY PREDICTED BY IDOCK:   18.51 KCAL/MOL
REMARK 922        TOTAL FREE ENERGY PREDICTED BY IDOCK:   26.67 KCAL/MOL
REMARK 923 INTER-LIGAND FREE ENERGY PREDICTED BY IDOCK:   17.39 KCAL/MOL
REMARK 924 INTRA-LIGAND FREE ENERGY PREDICTED BY IDOCK:    9.27 KCAL/MOL
REMARK 927      BINDING AFFINITY PREDICTED BY RF-SCORE:    0.00 PKD
ROOT
HETATM    1  C   UNL     1     -10.358   5.999  62.976  1.00  0.00     4.238 C  
HETATM    2  O   UNL     1     -10.889   4.863  63.642  1.00  0.00     0.864 OA 
ENDROOT
BRANCH   2   3
HETATM    3  C   UNL     1     -11.851   5.239  64.628  1.00  0.00     3.531 C  
BRANCH   3   4
HETATM    4  C   UNL     1     -11.095   5.826  65.800  1.00  0.00     1.143 C  
BRANCH   4   5
HETATM    5  O   UNL     1     -11.748   6.960  66.385  1.00  0.00     1.273 OA 
BRANCH   5   6
HETATM    6  C   UNL     1     -11.160   7.384  67.528  1.00  0.00     0.025 C  
HETATM    7  O   UNL     1     -11.210   6.788  68.593  1.00  0.00    -0.187 OA 
BRANCH   6   8
HETATM    8  C   UNL     1     -10.487   8.697  67.350  1.00  0.00    -0.351 C  
HETATM    9  C   UNL     1     -10.877   9.615  66.429  1.00  0.00     0.230 C  
HETATM   10  C   UNL     1     -11.905   9.487  65.327  1.00  0.00     7.528 C  
HETATM   11  N   UNL     1     -10.314  10.873  66.458  1.00  0.00    -0.240 NA 
HETATM   12  C   UNL     1      -9.257  11.264  67.246  1.00  0.00    -0.166 C  
HETATM   13  C   UNL     1      -8.759  10.420  68.183  1.00  0.00    -0.125 C  
HETATM   14  C   UNL     1      -8.740  12.651  66.949  1.00  0.00    -0.175 C  
HETATM   15  C   UNL     1      -9.402   9.039  68.403  1.00  0.00    -0.143 C  
BRANCH  13  16
HETATM   16  C   UNL     1      -7.519  10.820  68.902  1.00  0.00    -0.116 C  
HETATM   17  O   UNL     1      -6.848  10.040  69.562  1.00  0.00    -0.056 OA 
BRANCH  16  18
HETATM   18  O   UNL     1      -7.232  12.141  68.771  1.00  0.00    -0.106 OA 
BRANCH  18  19
HETATM   19  C   UNL     1      -6.471  12.455  67.581  1.00  0.00    -0.130 C  
HETATM   20  C   UNL     1      -7.340  13.254  66.613  1.00  0.00     1.113 C  
HETATM   21  C   UNL     1      -5.233  13.248  67.980  1.00  0.00    -0.106 C  
ENDBRANCH  18  19
ENDBRANCH  16  18
ENDBRANCH  13  16
BRANCH  15  22
HETATM   22  C   UNL     1      -8.356   7.919  68.475  1.00  0.00    -0.128 A  
HETATM   23  C   UNL     1      -7.762   7.589  69.707  1.00  0.00    -0.095 A  
HETATM   24  C   UNL     1      -7.987   7.197  67.330  1.00  0.00    -0.111 A  
HETATM   25  C   UNL     1      -6.817   6.564  69.798  1.00  0.00    -0.058 A  
HETATM   26  O   UNL     1      -7.206   5.729  65.156  1.00  0.00    -0.066 OA 
HETATM   27  O   UNL     1      -5.820   4.518  66.347  1.00  0.00    -0.021 OA 
HETATM   28  C   UNL     1      -7.037   6.171  67.427  1.00  0.00    -0.070 A  
HETATM   29  N   UNL     1      -6.664   5.420  66.222  1.00  0.00    -0.056 N  
HETATM   30  C   UNL     1      -6.450   5.852  68.657  1.00  0.00    -0.045 A  
ENDBRANCH  15  22
ENDBRANCH   6   8
ENDBRANCH   5   6
ENDBRANCH   4   5
ENDBRANCH   3   4
ENDBRANCH   2   3
TORSDOF 9
ENDMDL
MODEL      291
REMARK 921   NORMALIZED FREE ENERGY PREDICTED BY IDOCK:   19.85 KCAL/MOL
REMARK 922        TOTAL FREE ENERGY PREDICTED BY IDOCK:   28.72 KCAL/MOL
REMARK 923 INTER-LIGAND FREE ENERGY PREDICTED BY IDOCK:   25.41 KCAL/MOL
REMARK 924 INTRA-LIGAND FREE ENERGY PREDICTED BY IDOCK:    3.31 KCAL/MOL
REMARK 927      BINDING AFFINITY PREDICTED BY RF-SCORE:    0.00 PKD
ROOT
HETATM    1  C   UNL     1     -12.838   9.790  70.575  1.00  0.00     0.032 C  
HETATM    2  O   UNL     1     -13.529  11.024  70.687  1.00  0.00     0.183 OA 
ENDROOT
BRANCH   2   3
HETATM    3  C   UNL     1     -12.860  11.918  71.577  1.00  0.00    -0.316 C  
BRANCH   3   4
HETATM    4  C   UNL     1     -12.991  13.313  71.006  1.00  0.00    -0.156 C  
BRANCH   4   5
HETATM    5  O   UNL     1     -11.752  14.032  70.975  1.00  0.00    -0.219 OA 
BRANCH   5   6
HETATM    6  C   UNL     1     -11.891  15.349  71.252  1.00  0.00    -0.380 C  
HETATM    7  O   UNL     1     -12.529  15.792  72.195  1.00  0.00    -0.386 OA 
BRANCH   6   8
HETATM    8  C   UNL     1     -11.221  16.203  70.237  1.00  0.00    -0.389 C  
HETATM    9  C   UNL     1     -11.666  17.439  69.893  1.00  0.00     2.700 C  
HETATM   10  C   UNL     1     -12.943  18.143  70.297  1.00  0.00    17.288 C  
HETATM   11  N   UNL     1     -10.883  18.230  69.079  1.00  0.00     0.510 NA 
HETATM   12  C   UNL     1      -9.735  17.833  68.435  1.00  0.00    -0.333 C  
HETATM   13  C   UNL     1      -9.211  16.605  68.675  1.00  0.00    -0.248 C  
HETATM   14  C   UNL     1      -9.175  18.856  67.476  1.00  0.00    -0.319 C  
HETATM   15  C   UNL     1      -9.869  15.668  69.703  1.00  0.00    -0.280 C  
BRANCH  13  16
HETATM   16  C   UNL     1      -8.062  16.156  67.841  1.00  0.00    -0.145 C  
HETATM   17  O   UNL     1      -8.165  15.320  66.955  1.00  0.00    -0.202 OA 
BRANCH  16  18
HETATM   18  O   UNL     1      -6.890  16.748  68.189  1.00  0.00    -0.143 OA 
BRANCH  18  19
HETATM   19  C   UNL     1      -7.040  17.801  69.171  1.00  0.00    -0.180 C  
HETATM   20  C   UNL     1      -7.071  17.195  70.571  1.00  0.00     2.285 C  
HETATM   21  C   UNL     1      -5.882  18.780  69.029  1.00  0.00    -0.230 C  
ENDBRANCH  18  19
ENDBRANCH  16  18
ENDBRANCH  13  16
BRANCH  15  22
HETATM   22  C   UNL     1     -10.034  14.242  69.163  1.00  0.00    -0.033 A  
HETATM   23  C   UNL     1     -10.675  14.026  67.928  1.00  0.00    -0.246 A  
HETATM   24  C   UNL     1      -9.540  13.137  69.872  1.00  0.00     2.444 A  
HETATM   25  C   UNL     1     -10.826  12.737  67.412  1.00  0.00    -0.265 A  
HETATM   26  O   UNL     1      -8.606  10.919  71.176  1.00  0.00     3.463 OA 
HETATM   27  O   UNL     1      -9.323   9.570  69.604  1.00  0.00    -0.173 OA 
HETATM   28  C   UNL     1      -9.695  11.845  69.349  1.00  0.00     0.723 A  
HETATM   29  N   UNL     1      -9.168  10.698  70.099  1.00  0.00     0.629 N  
HETATM   30  C   UNL     1     -10.337  11.641  68.122  1.00  0.00    -0.208 A  
ENDBRANCH  15  22
ENDBRANCH   6   8
ENDBRANCH   5   6
ENDBRANCH   4   5
ENDBRANCH   3   4
ENDBRANCH   2   3
TORSDOF 9
ENDMDL
MODEL      292
REMARK 921   NORMALIZED FREE ENERGY PREDICTED BY IDOCK:   21.40 KCAL/MOL
REMARK 922        TOTAL FREE ENERGY PREDICTED BY IDOCK:   31.08 KCAL/MOL
REMARK 923 INTER-LIGAND FREE ENERGY PREDICTED BY IDOCK:   14.29 KCAL/MOL
REMARK 924 INTRA-LIGAND FREE ENERGY PREDICTED BY IDOCK:   16.79 KCAL/MOL
REMARK 927      BINDING AFFINITY PREDICTED BY RF-SCORE:    0.00 PKD
ROOT
HETATM    1  C   UNL     1     -11.022   6.946  71.263  1.00  0.00    -0.243 C  
HETATM    2  O   UNL     1     -10.298   7.801  70.392  1.00  0.00    -0.206 OA 
ENDROOT
BRANCH   2   3
HETATM    3  C   UNL     1      -9.190   8.407  71.058  1.00  0.00    -0.168 C  
BRANCH   3   4
HETATM    4  C   UNL     1      -8.676   9.519  70.171  1.00  0.00    -0.230 C  
BRANCH   4   5
HETATM    5  O   UNL     1      -9.101  10.822  70.591  1.00  0.00     1.409 OA 
BRANCH   5   6
HETATM    6  C   UNL     1     -10.447  10.945  70.670  1.00  0.00     1.309 C  
HETATM    7  O   UNL     1     -11.114  10.619  71.639  1.00  0.00     0.958 OA 
BRANCH   6   8
HETATM    8  C   UNL     1     -11.030  11.473  69.408  1.00  0.00    -0.233 C  
HETATM    9  C   UNL     1     -12.274  11.150  68.972  1.00  0.00    -0.125 C  
HETATM   10  C   UNL     1     -13.246  10.129  69.520  1.00  0.00     1.621 C  
HETATM   11  N   UNL     1     -12.799  11.826  67.890  1.00  0.00     1.847 NA 
HETATM   12  C   UNL     1     -12.120  12.712  67.088  1.00  0.00    -0.122 C  
HETATM   13  C   UNL     1     -10.857  13.087  67.406  1.00  0.00    -0.269 C  
HETATM   14  C   UNL     1     -12.896  13.175  65.878  1.00  0.00     0.098 C  
HETATM   15  C   UNL     1     -10.192  12.561  68.691  1.00  0.00    -0.166 C  
BRANCH  13  16
HETATM   16  C   UNL     1     -10.103  13.921  66.430  1.00  0.00    -0.295 C  
HETATM   17  O   UNL     1      -9.791  15.083  66.645  1.00  0.00    -0.238 OA 
BRANCH  16  18
HETATM   18  O   UNL     1      -9.829  13.266  65.272  1.00  0.00    -0.196 OA 
BRANCH  18  19
HETATM   19  C   UNL     1      -8.544  12.601  65.271  1.00  0.00     1.724 C  
HETATM   20  C   UNL     1      -7.429  13.643  65.255  1.00  0.00     8.445 C  
HETATM   21  C   UNL     1      -8.443  11.718  66.508  1.00  0.00    -0.125 C  
ENDBRANCH  18  19
ENDBRANCH  16  18
ENDBRANCH  13  16
BRANCH  15  22
HETATM   22  C   UNL     1      -8.766  12.058  68.439  1.00  0.00    -0.147 A  
HETATM   23  C   UNL     1      -7.667  12.753  68.980  1.00  0.00     0.203 A  
HETATM   24  C   UNL     1      -8.528  10.897  67.687  1.00  0.00    -0.123 A  
HETATM   25  C   UNL     1      -6.361  12.305  68.773  1.00  0.00    -0.077 A  
HETATM   26  O   UNL     1      -7.965   8.643  66.241  1.00  0.00    -0.099 OA 
HETATM   27  O   UNL     1      -5.804   8.871  66.539  1.00  0.00    -0.052 OA 
HETATM   28  C   UNL     1      -7.214  10.454  67.482  1.00  0.00    -0.087 A  
HETATM   29  N   UNL     1      -6.981   9.234  66.698  1.00  0.00    -0.080 N  
HETATM   30  C   UNL     1      -6.130  11.153  68.022  1.00  0.00    -0.049 A  
ENDBRANCH  15  22
ENDBRANCH   6   8
ENDBRANCH   5   6
ENDBRANCH   4   5
ENDBRANCH   3   4
ENDBRANCH   2   3
TORSDOF 9
ENDMDL
MODEL      293
REMARK 921   NORMALIZED FREE ENERGY PREDICTED BY IDOCK:   22.27 KCAL/MOL
REMARK 922        TOTAL FREE ENERGY PREDICTED BY IDOCK:   32.41 KCAL/MOL
REMARK 923 INTER-LIGAND FREE ENERGY PREDICTED BY IDOCK:   10.54 KCAL/MOL
REMARK 924 INTRA-LIGAND FREE ENERGY PREDICTED BY IDOCK:   21.88 KCAL/MOL
REMARK 927      BINDING AFFINITY PREDICTED BY RF-SCORE:    0.00 PKD
ROOT
HETATM    1  C   UNL     1      -7.120  13.859  71.336  1.00  0.00     2.828 C  
HETATM    2  O   UNL     1      -6.226  13.149  70.493  1.00  0.00    -0.078 OA 
ENDROOT
BRANCH   2   3
HETATM    3  C   UNL     1      -5.333  12.333  71.252  1.00  0.00    -0.061 C  
BRANCH   3   4
HETATM    4  C   UNL     1      -5.904  10.932  71.276  1.00  0.00     0.223 C  
BRANCH   4   5
HETATM    5  O   UNL     1      -7.315  10.899  71.525  1.00  0.00     2.614 OA 
BRANCH   5   6
HETATM    6  C   UNL     1      -8.056  11.231  70.443  1.00  0.00     2.784 C  
HETATM    7  O   UNL     1      -9.130  11.811  70.494  1.00  0.00     3.748 OA 
BRANCH   6   8
HETATM    8  C   UNL     1      -7.436  10.755  69.179  1.00  0.00    -0.123 C  
HETATM    9  C   UNL     1      -6.372   9.914  69.143  1.00  0.00    -0.044 C  
HETATM   10  C   UNL     1      -5.509   9.413  70.280  1.00  0.00    -0.031 C  
HETATM   11  N   UNL     1      -5.979   9.383  67.933  1.00  0.00    -0.051 NA 
HETATM   12  C   UNL     1      -6.468   9.744  66.699  1.00  0.00    -0.070 C  
HETATM   13  C   UNL     1      -7.512  10.604  66.607  1.00  0.00    -0.129 C  
HETATM   14  C   UNL     1      -5.737   9.120  65.534  1.00  0.00    -0.053 C  
HETATM   15  C   UNL     1      -8.186  11.145  67.880  1.00  0.00    -0.121 C  
BRANCH  13  16
HETATM   16  C   UNL     1      -7.906  11.090  65.256  1.00  0.00     0.242 C  
HETATM   17  O   UNL     1      -8.606  12.076  65.078  1.00  0.00     0.675 OA 
BRANCH  16  18
HETATM   18  O   UNL     1      -7.433  10.307  64.252  1.00  0.00    -0.136 OA 
BRANCH  18  19
HETATM   19  C   UNL     1      -6.000  10.110  64.295  1.00  0.00    -0.139 C  
HETATM   20  C   UNL     1      -5.680   8.634  64.073  1.00  0.00    -0.066 C  
HETATM   21  C   UNL     1      -5.348  10.973  63.223  1.00  0.00     0.036 C  
ENDBRANCH  18  19
ENDBRANCH  16  18
ENDBRANCH  13  16
BRANCH  15  22
HETATM   22  C   UNL     1      -8.399  12.663  67.821  1.00  0.00    -0.172 A  
HETATM   23  C   UNL     1      -7.479  13.478  67.136  1.00  0.00     0.075 A  
HETATM   24  C   UNL     1      -9.513  13.262  68.429  1.00  0.00    -0.172 A  
HETATM   25  C   UNL     1      -7.660  14.860  67.059  1.00  0.00    -0.027 A  
HETATM   26  O   UNL     1     -11.655  14.523  69.575  1.00  0.00    -0.272 OA 
HETATM   27  O   UNL     1     -10.985  16.497  68.893  1.00  0.00    -0.319 OA 
HETATM   28  C   UNL     1      -9.689  14.651  68.350  1.00  0.00    -0.217 A  
HETATM   29  N   UNL     1     -10.862  15.265  68.985  1.00  0.00    -0.233 N  
HETATM   30  C   UNL     1      -8.767  15.452  67.668  1.00  0.00    -0.174 A  
ENDBRANCH  15  22
ENDBRANCH   6   8
ENDBRANCH   5   6
ENDBRANCH   4   5
ENDBRANCH   3   4
ENDBRANCH   2   3
TORSDOF 9
ENDMDL
MODEL      294
REMARK 921   NORMALIZED FREE ENERGY PREDICTED BY IDOCK:   23.06 KCAL/MOL
REMARK 922        TOTAL FREE ENERGY PREDICTED BY IDOCK:   33.61 KCAL/MOL
REMARK 923 INTER-LIGAND FREE ENERGY PREDICTED BY IDOCK:    8.71 KCAL/MOL
REMARK 924 INTRA-LIGAND FREE ENERGY PREDICTED BY IDOCK:   24.89 KCAL/MOL
REMARK 927      BINDING AFFINITY PREDICTED BY RF-SCORE:    0.00 PKD
ROOT
HETATM    1  C   UNL     1      -7.751  16.845  64.452  1.00  0.00     8.994 C  
HETATM    2  O   UNL     1      -8.907  16.045  64.654  1.00  0.00     2.474 OA 
ENDROOT
BRANCH   2   3
HETATM    3  C   UNL     1     -10.001  16.824  65.140  1.00  0.00     0.595 C  
BRANCH   3   4
HETATM    4  C   UNL     1     -10.506  16.160  66.403  1.00  0.00    -0.301 C  
BRANCH   4   5
HETATM    5  O   UNL     1     -11.414  15.081  66.152  1.00  0.00    -0.321 OA 
BRANCH   5   6
HETATM    6  C   UNL     1     -11.188  14.456  64.973  1.00  0.00    -0.375 C  
HETATM    7  O   UNL     1     -11.356  14.967  63.877  1.00  0.00     0.182 OA 
BRANCH   6   8
HETATM    8  C   UNL     1     -10.762  13.045  65.167  1.00  0.00    -0.324 C  
HETATM    9  C   UNL     1     -11.207  12.021  64.395  1.00  0.00    -0.344 C  
HETATM   10  C   UNL     1     -12.284  12.020  63.334  1.00  0.00    -0.627 C  
HETATM   11  N   UNL     1     -10.622  10.779  64.529  1.00  0.00    -0.285 NA 
HETATM   12  C   UNL     1      -9.713  10.417  65.496  1.00  0.00    -0.249 C  
HETATM   13  C   UNL     1      -9.219  11.350  66.348  1.00  0.00    -0.209 C  
HETATM   14  C   UNL     1      -9.367   8.948  65.506  1.00  0.00    -0.214 C  
HETATM   15  C   UNL     1      -9.636  12.825  66.208  1.00  0.00    -0.242 C  
BRANCH  13  16
HETATM   16  C   UNL     1      -8.364  10.890  67.476  1.00  0.00    -0.117 C  
HETATM   17  O   UNL     1      -7.180  11.178  67.578  1.00  0.00    -0.093 OA 
BRANCH  16  18
HETATM   18  O   UNL     1      -9.027  10.097  68.357  1.00  0.00    -0.119 OA 
BRANCH  18  19
HETATM   19  C   UNL     1      -9.839   9.079  67.724  1.00  0.00    -0.168 C  
HETATM   20  C   UNL     1     -11.234   9.080  68.341  1.00  0.00     0.328 C  
HETATM   21  C   UNL     1      -9.906   9.358  66.229  1.00  0.00    -0.351 C  
ENDBRANCH  18  19
ENDBRANCH  16  18
ENDBRANCH  13  16
BRANCH  15  22
HETATM   22  C   UNL     1     -10.025  13.446  67.556  1.00  0.00    -0.230 A  
HETATM   23  C   UNL     1     -10.831  12.725  68.457  1.00  0.00    -0.279 A  
HETATM   24  C   UNL     1      -9.578  14.725  67.921  1.00  0.00    -0.210 A  
HETATM   25  C   UNL     1     -11.187  13.266  69.694  1.00  0.00    -0.100 A  
HETATM   26  O   UNL     1      -8.751  17.206  68.726  1.00  0.00    -0.268 OA 
HETATM   27  O   UNL     1      -9.801  17.043  70.645  1.00  0.00     1.779 OA 
HETATM   28  C   UNL     1      -9.941  15.263  69.164  1.00  0.00    -0.238 A  
HETATM   29  N   UNL     1      -9.461  16.600  69.536  1.00  0.00    -0.015 N  
HETATM   30  C   UNL     1     -10.744  14.539  70.052  1.00  0.00     0.040 A  
ENDBRANCH  15  22
ENDBRANCH   6   8
ENDBRANCH   5   6
ENDBRANCH   4   5
ENDBRANCH   3   4
ENDBRANCH   2   3
TORSDOF 9
ENDMDL
MODEL      295
REMARK 921   NORMALIZED FREE ENERGY PREDICTED BY IDOCK:   26.24 KCAL/MOL
REMARK 922        TOTAL FREE ENERGY PREDICTED BY IDOCK:   38.47 KCAL/MOL
REMARK 923 INTER-LIGAND FREE ENERGY PREDICTED BY IDOCK:   24.58 KCAL/MOL
REMARK 924 INTRA-LIGAND FREE ENERGY PREDICTED BY IDOCK:   13.89 KCAL/MOL
REMARK 927      BINDING AFFINITY PREDICTED BY RF-SCORE:    0.00 PKD
ROOT
HETATM    1  C   UNL     1     -13.608   3.835  72.054  1.00  0.00     6.964 C  
HETATM    2  O   UNL     1     -13.435   4.587  70.862  1.00  0.00    10.462 OA 
ENDROOT
BRANCH   2   3
HETATM    3  C   UNL     1     -12.437   5.595  71.023  1.00  0.00     2.124 C  
BRANCH   3   4
HETATM    4  C   UNL     1     -12.892   6.814  70.250  1.00  0.00     0.910 C  
BRANCH   4   5
HETATM    5  O   UNL     1     -12.203   6.985  69.005  1.00  0.00     1.039 OA 
BRANCH   5   6
HETATM    6  C   UNL     1     -11.461   8.116  68.956  1.00  0.00     0.826 C  
HETATM    7  O   UNL     1     -11.850   9.213  69.327  1.00  0.00     0.581 OA 
BRANCH   6   8
HETATM    8  C   UNL     1     -10.129   7.878  68.341  1.00  0.00    -0.218 C  
HETATM    9  C   UNL     1      -9.822   8.235  67.068  1.00  0.00    -0.232 C  
HETATM   10  C   UNL     1     -10.726   8.772  65.981  1.00  0.00     1.249 C  
HETATM   11  N   UNL     1      -8.514   8.142  66.644  1.00  0.00    -0.124 NA 
HETATM   12  C   UNL     1      -7.480   7.565  67.344  1.00  0.00    -0.104 C  
HETATM   13  C   UNL     1      -7.674   7.141  68.617  1.00  0.00    -0.120 C  
HETATM   14  C   UNL     1      -6.190   7.454  66.567  1.00  0.00    -0.044 C  
HETATM   15  C   UNL     1      -9.037   7.343  69.302  1.00  0.00    -0.135 C  
BRANCH  13  16
HETATM   16  C   UNL     1      -6.579   6.382  69.280  1.00  0.00    -0.044 C  
HETATM   17  O   UNL     1      -6.463   6.298  70.494  1.00  0.00    -0.041 OA 
BRANCH  16  18
HETATM   18  O   UNL     1      -5.711   5.822  68.398  1.00  0.00    -0.010 OA 
BRANCH  18  19
HETATM   19  C   UNL     1      -6.335   4.895  67.478  1.00  0.00    -0.040 C  
HETATM   20  C   UNL     1      -7.853   5.018  67.579  1.00  0.00    -0.095 C  
HETATM   21  C   UNL     1      -5.859   5.205  66.065  1.00  0.00    -0.018 C  
ENDBRANCH  18  19
ENDBRANCH  16  18
ENDBRANCH  13  16
BRANCH  15  22
HETATM   22  C   UNL     1      -9.524   6.072  70.008  1.00  0.00    -0.180 A  
HETATM   23  C   UNL     1     -10.229   5.090  69.286  1.00  0.00    -0.245 A  
HETATM   24  C   UNL     1      -9.265   5.855  71.370  1.00  0.00    -0.158 A  
HETATM   25  C   UNL     1     -10.670   3.920  69.907  1.00  0.00     2.197 A  
HETATM   26  O   UNL     1      -8.803   5.338  74.018  1.00  0.00    -0.117 OA 
HETATM   27  O   UNL     1      -9.838   3.407  73.924  1.00  0.00    -0.102 OA 
HETATM   28  C   UNL     1      -9.712   4.678  71.988  1.00  0.00    -0.168 A  
HETATM   29  N   UNL     1      -9.428   4.461  73.412  1.00  0.00    -0.117 N  
HETATM   30  C   UNL     1     -10.413   3.710  71.261  1.00  0.00     0.542 A  
ENDBRANCH  15  22
ENDBRANCH   6   8
ENDBRANCH   5   6
ENDBRANCH   4   5
ENDBRANCH   3   4
ENDBRANCH   2   3
TORSDOF 9
ENDMDL
MODEL      296
REMARK 921   NORMALIZED FREE ENERGY PREDICTED BY IDOCK:   26.40 KCAL/MOL
REMARK 922        TOTAL FREE ENERGY PREDICTED BY IDOCK:   38.71 KCAL/MOL
REMARK 923 INTER-LIGAND FREE ENERGY PREDICTED BY IDOCK:    5.94 KCAL/MOL
REMARK 924 INTRA-LIGAND FREE ENERGY PREDICTED BY IDOCK:   32.76 KCAL/MOL
REMARK 927      BINDING AFFINITY PREDICTED BY RF-SCORE:    0.00 PKD
ROOT
HETATM    1  C   UNL     1      -9.786   7.154  68.794  1.00  0.00    -0.158 C  
HETATM    2  O   UNL     1      -8.494   6.620  69.041  1.00  0.00    -0.128 OA 
ENDROOT
BRANCH   2   3
HETATM    3  C   UNL     1      -7.706   6.591  67.850  1.00  0.00    -0.104 C  
BRANCH   3   4
HETATM    4  C   UNL     1      -8.505   7.270  66.759  1.00  0.00    -0.121 C  
BRANCH   4   5
HETATM    5  O   UNL     1      -9.601   8.046  67.258  1.00  0.00    -0.146 OA 
BRANCH   5   6
HETATM    6  C   UNL     1      -9.587   8.186  68.604  1.00  0.00    -0.149 C  
HETATM    7  O   UNL     1      -9.909   7.311  69.392  1.00  0.00    -0.161 OA 
BRANCH   6   8
HETATM    8  C   UNL     1      -9.186   9.558  69.014  1.00  0.00    -0.155 C  
HETATM    9  C   UNL     1      -7.894   9.967  69.079  1.00  0.00    -0.095 C  
HETATM   10  C   UNL     1      -6.625   9.158  68.923  1.00  0.00    -0.048 C  
HETATM   11  N   UNL     1      -7.624  11.302  69.292  1.00  0.00    -0.072 NA 
HETATM   12  C   UNL     1      -8.550  12.269  69.608  1.00  0.00     1.854 C  
HETATM   13  C   UNL     1      -9.872  11.970  69.607  1.00  0.00     1.246 C  
HETATM   14  C   UNL     1      -7.952  13.613  69.951  1.00  0.00     1.468 C  
HETATM   15  C   UNL     1     -10.349  10.563  69.207  1.00  0.00    -0.248 C  
BRANCH  13  16
HETATM   16  C   UNL     1     -10.826  12.998  70.107  1.00  0.00     1.099 C  
HETATM   17  O   UNL     1     -12.039  12.844  70.101  1.00  0.00    -0.340 OA 
BRANCH  16  18
HETATM   18  O   UNL     1     -10.209  14.130  70.538  1.00  0.00     1.133 OA 
BRANCH  18  19
HETATM   19  C   UNL     1     -10.958  14.850  71.546  1.00  0.00     0.271 C  
HETATM   20  C   UNL     1     -12.411  14.989  71.101  1.00  0.00    -0.400 C  
HETATM   21  C   UNL     1     -10.863  14.097  72.865  1.00  0.00     3.897 C  
ENDBRANCH  18  19
ENDBRANCH  16  18
ENDBRANCH  13  16
BRANCH  15  22
HETATM   22  C   UNL     1     -11.383  10.002  70.191  1.00  0.00    -0.357 A  
HETATM   23  C   UNL     1     -12.334  10.857  70.780  1.00  0.00    -0.487 A  
HETATM   24  C   UNL     1     -11.413   8.635  70.511  1.00  0.00    -0.208 A  
HETATM   25  C   UNL     1     -13.291  10.365  71.669  1.00  0.00    -0.432 A  
HETATM   26  O   UNL     1     -11.557   5.988  71.190  1.00  0.00    -0.254 OA 
HETATM   27  O   UNL     1     -13.268   6.319  72.520  1.00  0.00     0.184 OA 
HETATM   28  C   UNL     1     -12.376   8.148  71.405  1.00  0.00    -0.298 A  
HETATM   29  N   UNL     1     -12.400   6.715  71.725  1.00  0.00    -0.352 N  
HETATM   30  C   UNL     1     -13.315   9.007  71.985  1.00  0.00    -0.494 A  
ENDBRANCH  15  22
ENDBRANCH   6   8
ENDBRANCH   5   6
ENDBRANCH   4   5
ENDBRANCH   3   4
ENDBRANCH   2   3
TORSDOF 9
ENDMDL
MODEL      297
REMARK 921   NORMALIZED FREE ENERGY PREDICTED BY IDOCK:   28.60 KCAL/MOL
REMARK 922        TOTAL FREE ENERGY PREDICTED BY IDOCK:   42.06 KCAL/MOL
REMARK 923 INTER-LIGAND FREE ENERGY PREDICTED BY IDOCK:   40.63 KCAL/MOL
REMARK 924 INTRA-LIGAND FREE ENERGY PREDICTED BY IDOCK:    1.44 KCAL/MOL
REMARK 927      BINDING AFFINITY PREDICTED BY RF-SCORE:    0.00 PKD
ROOT
HETATM    1  C   UNL     1     -12.009   8.379  66.166  1.00  0.00     8.034 C  
HETATM    2  O   UNL     1     -11.519   8.996  67.346  1.00  0.00     0.706 OA 
ENDROOT
BRANCH   2   3
HETATM    3  C   UNL     1     -10.163   9.416  67.190  1.00  0.00    -0.254 C  
BRANCH   3   4
HETATM    4  C   UNL     1     -10.141  10.505  66.140  1.00  0.00    -0.246 C  
BRANCH   4   5
HETATM    5  O   UNL     1      -9.712  11.774  66.647  1.00  0.00    -0.194 OA 
BRANCH   5   6
HETATM    6  C   UNL     1     -10.737  12.620  66.905  1.00  0.00    -0.242 C  
HETATM    7  O   UNL     1     -11.497  12.514  67.855  1.00  0.00    -0.272 OA 
BRANCH   6   8
HETATM    8  C   UNL     1     -10.867  13.668  65.858  1.00  0.00    -0.276 C  
HETATM    9  C   UNL     1     -10.975  13.387  64.535  1.00  0.00    -0.390 C  
HETATM   10  C   UNL     1     -10.837  12.060  63.823  1.00  0.00    -0.481 C  
HETATM   11  N   UNL     1     -11.273  14.408  63.657  1.00  0.00     0.795 NA 
HETATM   12  C   UNL     1     -11.325  15.747  63.967  1.00  0.00     0.214 C  
HETATM   13  C   UNL     1     -11.199  16.151  65.255  1.00  0.00    -0.071 C  
HETATM   14  C   UNL     1     -11.511  16.654  62.775  1.00  0.00     8.797 C  
HETATM   15  C   UNL     1     -11.045  15.115  66.382  1.00  0.00    -0.312 C  
BRANCH  13  16
HETATM   16  C   UNL     1     -11.103  17.612  65.527  1.00  0.00     0.436 C  
HETATM   17  O   UNL     1     -10.044  18.223  65.531  1.00  0.00    -0.465 OA 
BRANCH  16  18
HETATM   18  O   UNL     1     -12.306  18.182  65.799  1.00  0.00     4.734 OA 
BRANCH  18  19
HETATM   19  C   UNL     1     -12.698  18.078  67.188  1.00  0.00     6.416 C  
HETATM   20  C   UNL     1     -13.881  19.004  67.457  1.00  0.00     8.988 C  
HETATM   21  C   UNL     1     -13.061  16.631  67.493  1.00  0.00     5.236 C  
ENDBRANCH  18  19
ENDBRANCH  16  18
ENDBRANCH  13  16
BRANCH  15  22
HETATM   22  C   UNL     1      -9.910  15.477  67.348  1.00  0.00    -0.224 A  
HETATM   23  C   UNL     1     -10.172  15.609  68.725  1.00  0.00    -0.215 A  
HETATM   24  C   UNL     1      -8.598  15.664  66.888  1.00  0.00    -0.281 A  
HETATM   25  C   UNL     1      -9.151  15.926  69.624  1.00  0.00    -0.049 A  
HETATM   26  O   UNL     1      -6.008  16.043  66.088  1.00  0.00     0.885 OA 
HETATM   27  O   UNL     1      -5.331  16.451  68.133  1.00  0.00    -0.101 OA 
HETATM   28  C   UNL     1      -7.578  15.983  67.795  1.00  0.00    -0.140 A  
HETATM   29  N   UNL     1      -6.208  16.171  67.300  1.00  0.00    -0.170 N  
HETATM   30  C   UNL     1      -7.850  16.115  69.161  1.00  0.00    -0.232 A  
ENDBRANCH  15  22
ENDBRANCH   6   8
ENDBRANCH   5   6
ENDBRANCH   4   5
ENDBRANCH   3   4
ENDBRANCH   2   3
TORSDOF 9
ENDMDL
MODEL      298
REMARK 921   NORMALIZED FREE ENERGY PREDICTED BY IDOCK:   31.96 KCAL/MOL
REMARK 922        TOTAL FREE ENERGY PREDICTED BY IDOCK:   47.20 KCAL/MOL
REMARK 923 INTER-LIGAND FREE ENERGY PREDICTED BY IDOCK:   44.49 KCAL/MOL
REMARK 924 INTRA-LIGAND FREE ENERGY PREDICTED BY IDOCK:    2.71 KCAL/MOL
REMARK 927      BINDING AFFINITY PREDICTED BY RF-SCORE:    0.00 PKD
ROOT
HETATM    1  C   UNL     1     -14.054   3.084  70.557  1.00  0.00    19.907 C  
HETATM    2  O   UNL     1     -13.405   4.227  70.020  1.00  0.00    17.547 OA 
ENDROOT
BRANCH   2   3
HETATM    3  C   UNL     1     -12.186   4.506  70.711  1.00  0.00     7.574 C  
BRANCH   3   4
HETATM    4  C   UNL     1     -12.545   5.209  72.002  1.00  0.00     1.825 C  
BRANCH   4   5
HETATM    5  O   UNL     1     -11.402   5.564  72.790  1.00  0.00    -0.288 OA 
BRANCH   5   6
HETATM    6  C   UNL     1     -10.857   4.512  73.444  1.00  0.00    -0.273 C  
HETATM    7  O   UNL     1     -11.316   4.019  74.463  1.00  0.00     0.174 OA 
BRANCH   6   8
HETATM    8  C   UNL     1      -9.594   4.057  72.805  1.00  0.00    -0.177 C  
HETATM    9  C   UNL     1      -8.871   3.001  73.256  1.00  0.00    -0.080 C  
HETATM   10  C   UNL     1      -9.054   2.183  74.515  1.00  0.00    -0.088 C  
HETATM   11  N   UNL     1      -7.816   2.540  72.497  1.00  0.00    -0.053 NA 
HETATM   12  C   UNL     1      -7.306   3.147  71.374  1.00  0.00    -0.036 C  
HETATM   13  C   UNL     1      -7.927   4.231  70.847  1.00  0.00    -0.067 C  
HETATM   14  C   UNL     1      -6.044   2.512  70.842  1.00  0.00    -0.018 C  
HETATM   15  C   UNL     1      -9.229   4.761  71.473  1.00  0.00    -0.186 C  
BRANCH  13  16
HETATM   16  C   UNL     1      -7.257   4.951  69.729  1.00  0.00    -0.055 C  
HETATM   17  O   UNL     1      -6.146   5.450  69.826  1.00  0.00    -0.019 OA 
BRANCH  16  18
HETATM   18  O   UNL     1      -8.022   5.019  68.608  1.00  0.00    -0.084 OA 
BRANCH  18  19
HETATM   19  C   UNL     1      -7.390   4.443  67.439  1.00  0.00    -0.069 C  
HETATM   20  C   UNL     1      -6.041   5.117  67.203  1.00  0.00    -0.030 C  
HETATM   21  C   UNL     1      -7.219   2.946  67.656  1.00  0.00    -0.053 C  
ENDBRANCH  18  19
ENDBRANCH  16  18
ENDBRANCH  13  16
BRANCH  15  22
HETATM   22  C   UNL     1      -9.203   6.282  71.663  1.00  0.00    -0.147 A  
HETATM   23  C   UNL     1      -8.196   6.878  72.447  1.00  0.00    -0.105 A  
HETATM   24  C   UNL     1     -10.161   7.106  71.052  1.00  0.00    -0.199 A  
HETATM   25  C   UNL     1      -8.147   8.262  72.623  1.00  0.00    -0.211 A  
HETATM   26  O   UNL     1     -11.979   8.794  69.898  1.00  0.00     0.347 OA 
HETATM   27  O   UNL     1     -11.030  10.570  70.766  1.00  0.00    -0.182 OA 
HETATM   28  C   UNL     1     -10.106   8.495  71.234  1.00  0.00    -0.222 A  
HETATM   29  N   UNL     1     -11.111   9.345  70.584  1.00  0.00    -0.267 N  
HETATM   30  C   UNL     1      -9.103   9.076  72.017  1.00  0.00     0.030 A  
ENDBRANCH  15  22
ENDBRANCH   6   8
ENDBRANCH   5   6
ENDBRANCH   4   5
ENDBRANCH   3   4
ENDBRANCH   2   3
TORSDOF 9
ENDMDL
MODEL      299
REMARK 921   NORMALIZED FREE ENERGY PREDICTED BY IDOCK:   35.18 KCAL/MOL
REMARK 922        TOTAL FREE ENERGY PREDICTED BY IDOCK:   52.11 KCAL/MOL
REMARK 923 INTER-LIGAND FREE ENERGY PREDICTED BY IDOCK:   37.03 KCAL/MOL
REMARK 924 INTRA-LIGAND FREE ENERGY PREDICTED BY IDOCK:   15.08 KCAL/MOL
REMARK 927      BINDING AFFINITY PREDICTED BY RF-SCORE:    0.00 PKD
ROOT
HETATM    1  C   UNL     1      -6.947  13.416  68.419  1.00  0.00    -0.105 C  
HETATM    2  O   UNL     1      -7.146  14.352  69.467  1.00  0.00    -0.143 OA 
ENDROOT
BRANCH   2   3
HETATM    3  C   UNL     1      -8.235  13.970  70.308  1.00  0.00     2.137 C  
BRANCH   3   4
HETATM    4  C   UNL     1      -9.511  14.175  69.522  1.00  0.00     0.600 C  
BRANCH   4   5
HETATM    5  O   UNL     1      -9.668  13.246  68.442  1.00  0.00    -0.224 OA 
BRANCH   5   6
HETATM    6  C   UNL     1     -10.099  13.826  67.298  1.00  0.00    -0.239 C  
HETATM    7  O   UNL     1     -10.517  13.212  66.328  1.00  0.00    -0.276 OA 
BRANCH   6   8
HETATM    8  C   UNL     1      -9.950  15.304  67.335  1.00  0.00    -0.223 C  
HETATM    9  C   UNL     1      -8.808  15.946  66.980  1.00  0.00    -0.215 C  
HETATM   10  C   UNL     1      -7.451  15.369  66.639  1.00  0.00     0.320 C  
HETATM   11  N   UNL     1      -8.819  17.321  66.872  1.00  0.00    -0.231 NA 
HETATM   12  C   UNL     1      -9.851  18.149  67.244  1.00  0.00    -0.314 C  
HETATM   13  C   UNL     1     -11.034  17.622  67.648  1.00  0.00    -0.103 C  
HETATM   14  C   UNL     1      -9.525  19.621  67.171  1.00  0.00    -0.443 C  
HETATM   15  C   UNL     1     -11.244  16.097  67.648  1.00  0.00    -0.147 C  
BRANCH  13  16
HETATM   16  C   UNL     1     -12.067  18.546  68.192  1.00  0.00     3.778 C  
HETATM   17  O   UNL     1     -13.169  18.171  68.564  1.00  0.00     7.129 OA 
BRANCH  16  18
HETATM   18  O   UNL     1     -11.666  19.844  68.201  1.00  0.00     1.292 OA 
BRANCH  18  19
HETATM   19  C   UNL     1     -11.525  20.399  69.530  1.00  0.00     3.129 C  
HETATM   20  C   UNL     1     -12.902  20.746  70.088  1.00  0.00    10.640 C  
HETATM   21  C   UNL     1     -10.820  19.383  70.418  1.00  0.00     2.495 C  
ENDBRANCH  18  19
ENDBRANCH  16  18
ENDBRANCH  13  16
BRANCH  15  22
HETATM   22  C   UNL     1     -11.873  15.600  68.955  1.00  0.00    -0.368 A  
HETATM   23  C   UNL     1     -12.959  16.293  69.523  1.00  0.00     1.971 A  
HETATM   24  C   UNL     1     -11.395  14.447  69.597  1.00  0.00    -0.309 A  
HETATM   25  C   UNL     1     -13.554  15.850  70.706  1.00  0.00     0.752 A  
HETATM   26  O   UNL     1     -10.540  12.208  70.917  1.00  0.00     3.160 OA 
HETATM   27  O   UNL     1     -12.049  12.439  72.492  1.00  0.00     1.624 OA 
HETATM   28  C   UNL     1     -11.997  14.009  70.784  1.00  0.00    -0.291 A  
HETATM   29  N   UNL     1     -11.491  12.797  71.442  1.00  0.00     2.044 N  
HETATM   30  C   UNL     1     -13.074  14.706  71.342  1.00  0.00    -0.414 A  
ENDBRANCH  15  22
ENDBRANCH   6   8
ENDBRANCH   5   6
ENDBRANCH   4   5
ENDBRANCH   3   4
ENDBRANCH   2   3
TORSDOF 9
ENDMDL
MODEL      300
REMARK 921   NORMALIZED FREE ENERGY PREDICTED BY IDOCK:   36.15 KCAL/MOL
REMARK 922        TOTAL FREE ENERGY PREDICTED BY IDOCK:   53.59 KCAL/MOL
REMARK 923 INTER-LIGAND FREE ENERGY PREDICTED BY IDOCK:   47.09 KCAL/MOL
REMARK 924 INTRA-LIGAND FREE ENERGY PREDICTED BY IDOCK:    6.50 KCAL/MOL
REMARK 927      BINDING AFFINITY PREDICTED BY RF-SCORE:    0.00 PKD
ROOT
HETATM    1  C   UNL     1     -14.085   3.042  70.481  1.00  0.00    19.907 C  
HETATM    2  O   UNL     1     -13.483   4.156  69.840  1.00  0.00    19.709 OA 
ENDROOT
BRANCH   2   3
HETATM    3  C   UNL     1     -12.246   4.508  70.460  1.00  0.00     8.609 C  
BRANCH   3   4
HETATM    4  C   UNL     1     -12.570   5.287  71.715  1.00  0.00     2.093 C  
BRANCH   4   5
HETATM    5  O   UNL     1     -11.416   5.593  72.508  1.00  0.00    -0.294 OA 
BRANCH   5   6
HETATM    6  C   UNL     1     -10.956   4.533  73.212  1.00  0.00    -0.288 C  
HETATM    7  O   UNL     1     -11.448   4.131  74.255  1.00  0.00     0.053 OA 
BRANCH   6   8
HETATM    8  C   UNL     1      -9.739   3.943  72.595  1.00  0.00    -0.198 C  
HETATM    9  C   UNL     1      -9.073   2.886  73.126  1.00  0.00    -0.089 C  
HETATM   10  C   UNL     1      -9.280   2.195  74.456  1.00  0.00    -0.092 C  
HETATM   11  N   UNL     1      -8.066   2.293  72.394  1.00  0.00    -0.053 NA 
HETATM   12  C   UNL     1      -7.545   2.766  71.212  1.00  0.00    -0.040 C  
HETATM   13  C   UNL     1      -8.109   3.838  70.602  1.00  0.00    -0.060 C  
HETATM   14  C   UNL     1      -6.338   2.007  70.718  1.00  0.00    -0.023 C  
HETATM   15  C   UNL     1      -9.360   4.503  71.201  1.00  0.00    -0.212 C  
BRANCH  13  16
HETATM   16  C   UNL     1      -7.420   4.412  69.413  1.00  0.00    -0.055 C  
HETATM   17  O   UNL     1      -6.311   4.922  69.465  1.00  0.00    -0.028 OA 
BRANCH  16  18
HETATM   18  O   UNL     1      -8.166   4.336  68.280  1.00  0.00    -0.088 OA 
BRANCH  18  19
HETATM   19  C   UNL     1      -7.533   4.942  67.127  1.00  0.00    -0.086 C  
HETATM   20  C   UNL     1      -7.187   6.395  67.438  1.00  0.00    -0.082 C  
HETATM   21  C   UNL     1      -6.281   4.149  66.777  1.00  0.00    -0.032 C  
ENDBRANCH  18  19
ENDBRANCH  16  18
ENDBRANCH  13  16
BRANCH  15  22
HETATM   22  C   UNL     1      -9.235   6.030  71.254  1.00  0.00    -0.156 A  
HETATM   23  C   UNL     1     -10.386   6.836  71.167  1.00  0.00    -0.227 A  
HETATM   24  C   UNL     1      -7.985   6.650  71.406  1.00  0.00    -0.107 A  
HETATM   25  C   UNL     1     -10.295   8.228  71.226  1.00  0.00    -0.256 A  
HETATM   26  O   UNL     1      -5.595   7.950  71.708  1.00  0.00    -0.035 OA 
HETATM   27  O   UNL     1      -6.551   9.923  71.677  1.00  0.00    -0.296 OA 
HETATM   28  C   UNL     1      -7.900   8.048  71.464  1.00  0.00    -0.100 A  
HETATM   29  N   UNL     1      -6.587   8.683  71.629  1.00  0.00    -0.070 N  
HETATM   30  C   UNL     1      -9.050   8.839  71.374  1.00  0.00    -0.313 A  
ENDBRANCH  15  22
ENDBRANCH   6   8
ENDBRANCH   5   6
ENDBRANCH   4   5
ENDBRANCH   3   4
ENDBRANCH   2   3
TORSDOF 9
ENDMDL
MODEL      301
REMARK 921   NORMALIZED FREE ENERGY PREDICTED BY IDOCK:   36.19 KCAL/MOL
REMARK 922        TOTAL FREE ENERGY PREDICTED BY IDOCK:   53.65 KCAL/MOL
REMARK 923 INTER-LIGAND FREE ENERGY PREDICTED BY IDOCK:    7.53 KCAL/MOL
REMARK 924 INTRA-LIGAND FREE ENERGY PREDICTED BY IDOCK:   46.12 KCAL/MOL
REMARK 927      BINDING AFFINITY PREDICTED BY RF-SCORE:    0.00 PKD
ROOT
HETATM    1  C   UNL     1      -9.936   7.114  69.252  1.00  0.00    -0.168 C  
HETATM    2  O   UNL     1      -8.550   6.809  69.287  1.00  0.00    -0.128 OA 
ENDROOT
BRANCH   2   3
HETATM    3  C   UNL     1      -8.043   6.536  67.980  1.00  0.00    -0.113 C  
BRANCH   3   4
HETATM    4  C   UNL     1      -9.229   6.427  67.046  1.00  0.00    -0.129 C  
BRANCH   4   5
HETATM    5  O   UNL     1     -10.485   6.663  67.694  1.00  0.00    -0.173 OA 
BRANCH   5   6
HETATM    6  C   UNL     1     -10.356   7.035  68.989  1.00  0.00    -0.200 C  
HETATM    7  O   UNL     1     -10.358   6.260  69.933  1.00  0.00    -0.174 OA 
BRANCH   6   8
HETATM    8  C   UNL     1     -10.269   8.512  69.135  1.00  0.00    -0.218 C  
HETATM    9  C   UNL     1      -9.374   9.275  68.459  1.00  0.00    -0.142 C  
HETATM   10  C   UNL     1      -8.221   8.845  67.579  1.00  0.00    -0.109 C  
HETATM   11  N   UNL     1      -9.484  10.648  68.519  1.00  0.00    -0.168 NA 
HETATM   12  C   UNL     1     -10.337  11.352  69.337  1.00  0.00     0.058 C  
HETATM   13  C   UNL     1     -11.257  10.695  70.086  1.00  0.00    -0.378 C  
HETATM   14  C   UNL     1     -10.127  12.847  69.314  1.00  0.00     0.478 C  
HETATM   15  C   UNL     1     -11.384   9.164  69.991  1.00  0.00    -0.108 C  
BRANCH  13  16
HETATM   16  C   UNL     1     -12.049  11.478  71.073  1.00  0.00    -0.153 C  
HETATM   17  O   UNL     1     -12.722  10.960  71.952  1.00  0.00    -0.374 OA 
BRANCH  16  18
HETATM   18  O   UNL     1     -11.969  12.819  70.873  1.00  0.00    -0.182 OA 
BRANCH  18  19
HETATM   19  C   UNL     1     -12.443  13.603  71.994  1.00  0.00     0.002 C  
HETATM   20  C   UNL     1     -13.792  13.062  72.462  1.00  0.00    -0.420 C  
HETATM   21  C   UNL     1     -11.414  13.536  73.115  1.00  0.00     4.408 C  
ENDBRANCH  18  19
ENDBRANCH  16  18
ENDBRANCH  13  16
BRANCH  15  22
HETATM   22  C   UNL     1     -11.454   8.503  71.373  1.00  0.00    -0.344 A  
HETATM   23  C   UNL     1     -11.575   9.297  72.529  1.00  0.00     0.441 A  
HETATM   24  C   UNL     1     -11.415   7.107  71.511  1.00  0.00    -0.298 A  
HETATM   25  C   UNL     1     -11.652   8.714  73.796  1.00  0.00     3.958 A  
HETATM   26  O   UNL     1     -11.354   4.396  71.883  1.00  0.00     0.542 OA 
HETATM   27  O   UNL     1     -11.527   4.591  74.060  1.00  0.00    -0.160 OA 
HETATM   28  C   UNL     1     -11.491   6.529  72.786  1.00  0.00    -0.130 A  
HETATM   29  N   UNL     1     -11.456   5.067  72.916  1.00  0.00    -0.265 N  
HETATM   30  C   UNL     1     -11.609   7.327  73.929  1.00  0.00     2.175 A  
ENDBRANCH  15  22
ENDBRANCH   6   8
ENDBRANCH   5   6
ENDBRANCH   4   5
ENDBRANCH   3   4
ENDBRANCH   2   3
TORSDOF 9
ENDMDL
MODEL      302
REMARK 921   NORMALIZED FREE ENERGY PREDICTED BY IDOCK:   49.18 KCAL/MOL
REMARK 922        TOTAL FREE ENERGY PREDICTED BY IDOCK:   73.48 KCAL/MOL
REMARK 923 INTER-LIGAND FREE ENERGY PREDICTED BY IDOCK:    6.14 KCAL/MOL
REMARK 924 INTRA-LIGAND FREE ENERGY PREDICTED BY IDOCK:   67.34 KCAL/MOL
REMARK 927      BINDING AFFINITY PREDICTED BY RF-SCORE:    0.00 PKD
ROOT
HETATM    1  C   UNL     1     -12.472  10.697  70.838  1.00  0.00    -0.397 C  
HETATM    2  O   UNL     1     -13.298  11.848  70.745  1.00  0.00     0.280 OA 
ENDROOT
BRANCH   2   3
HETATM    3  C   UNL     1     -12.761  12.937  71.496  1.00  0.00    -0.239 C  
BRANCH   3   4
HETATM    4  C   UNL     1     -12.885  14.182  70.646  1.00  0.00    -0.290 C  
BRANCH   4   5
HETATM    5  O   UNL     1     -11.716  15.011  70.680  1.00  0.00    -0.270 OA 
BRANCH   5   6
HETATM    6  C   UNL     1     -11.870  16.179  70.014  1.00  0.00    -0.118 C  
HETATM    7  O   UNL     1     -12.749  16.994  70.246  1.00  0.00     3.125 OA 
BRANCH   6   8
HETATM    8  C   UNL     1     -10.873  16.331  68.923  1.00  0.00    -0.317 C  
HETATM    9  C   UNL     1     -11.025  17.200  67.891  1.00  0.00    -0.208 C  
HETATM   10  C   UNL     1     -12.221  18.050  67.525  1.00  0.00     3.589 C  
HETATM   11  N   UNL     1      -9.970  17.403  67.027  1.00  0.00    -0.284 NA 
HETATM   12  C   UNL     1      -8.797  16.686  67.005  1.00  0.00    -0.199 C  
HETATM   13  C   UNL     1      -8.546  15.765  67.968  1.00  0.00    -0.163 C  
HETATM   14  C   UNL     1      -7.889  17.014  65.845  1.00  0.00     0.037 C  
HETATM   15  C   UNL     1      -9.548  15.550  69.116  1.00  0.00    -0.253 C  
BRANCH  13  16
HETATM   16  C   UNL     1      -7.342  14.902  67.820  1.00  0.00    -0.166 C  
HETATM   17  O   UNL     1      -7.390  13.681  67.827  1.00  0.00    -0.131 OA 
BRANCH  16  18
HETATM   18  O   UNL     1      -6.190  15.613  67.706  1.00  0.00    -0.134 OA 
BRANCH  18  19
HETATM   19  C   UNL     1      -6.398  17.005  67.371  1.00  0.00    -0.152 C  
HETATM   20  C   UNL     1      -6.762  17.786  68.630  1.00  0.00    -0.230 C  
HETATM   21  C   UNL     1      -5.127  17.557  66.739  1.00  0.00    -0.187 C  
ENDBRANCH  18  19
ENDBRANCH  16  18
ENDBRANCH  13  16
BRANCH  15  22
HETATM   22  C   UNL     1      -9.835  14.064  69.362  1.00  0.00     0.362 A  
HETATM   23  C   UNL     1      -9.087  13.080  68.687  1.00  0.00     0.047 A  
HETATM   24  C   UNL     1     -10.827  13.657  70.267  1.00  0.00     0.838 A  
HETATM   25  C   UNL     1      -9.324  11.721  68.906  1.00  0.00     0.076 A  
HETATM   26  O   UNL     1     -12.734  12.765  72.017  1.00  0.00    -0.164 OA 
HETATM   27  O   UNL     1     -12.275  10.662  71.600  1.00  0.00    -0.304 OA 
HETATM   28  C   UNL     1     -11.060  12.291  70.481  1.00  0.00     1.470 A  
HETATM   29  N   UNL     1     -12.097  11.880  71.436  1.00  0.00     0.201 N  
HETATM   30  C   UNL     1     -10.313  11.322  69.804  1.00  0.00     0.324 A  
ENDBRANCH  15  22
ENDBRANCH   6   8
ENDBRANCH   5   6
ENDBRANCH   4   5
ENDBRANCH   3   4
ENDBRANCH   2   3
TORSDOF 9
ENDMDL
MODEL      303
REMARK 921   NORMALIZED FREE ENERGY PREDICTED BY IDOCK:   58.58 KCAL/MOL
REMARK 922        TOTAL FREE ENERGY PREDICTED BY IDOCK:   87.83 KCAL/MOL
REMARK 923 INTER-LIGAND FREE ENERGY PREDICTED BY IDOCK:   54.22 KCAL/MOL
REMARK 924 INTRA-LIGAND FREE ENERGY PREDICTED BY IDOCK:   33.60 KCAL/MOL
REMARK 927      BINDING AFFINITY PREDICTED BY RF-SCORE:    0.00 PKD
ROOT
HETATM    1  C   UNL     1     -10.312  17.515  67.288  1.00  0.00    -0.337 C  
HETATM    2  O   UNL     1     -11.376  17.996  68.096  1.00  0.00     0.227 OA 
ENDROOT
BRANCH   2   3
HETATM    3  C   UNL     1     -12.030  19.110  67.486  1.00  0.00     2.423 C  
BRANCH   3   4
HETATM    4  C   UNL     1     -10.967  19.946  66.808  1.00  0.00    -0.086 C  
BRANCH   4   5
HETATM    5  O   UNL     1      -9.846  20.233  67.653  1.00  0.00    -0.400 OA 
BRANCH   5   6
HETATM    6  C   UNL     1      -9.995  19.767  68.915  1.00  0.00    -0.397 C  
HETATM    7  O   UNL     1     -10.942  20.029  69.639  1.00  0.00     0.860 OA 
BRANCH   6   8
HETATM    8  C   UNL     1      -8.836  18.939  69.340  1.00  0.00     0.238 C  
HETATM    9  C   UNL     1      -7.582  19.106  68.849  1.00  0.00    -0.336 C  
HETATM   10  C   UNL     1      -7.107  19.991  67.718  1.00  0.00    -0.316 C  
HETATM   11  N   UNL     1      -6.538  18.419  69.432  1.00  0.00    -0.245 NA 
HETATM   12  C   UNL     1      -6.655  17.436  70.387  1.00  0.00     1.021 C  
HETATM   13  C   UNL     1      -7.866  17.158  70.931  1.00  0.00     5.371 C  
HETATM   14  C   UNL     1      -5.359  16.739  70.723  1.00  0.00    -0.150 C  
HETATM   15  C   UNL     1      -9.107  17.969  70.518  1.00  0.00     3.867 C  
BRANCH  13  16
HETATM   16  C   UNL     1      -7.975  15.985  71.841  1.00  0.00     8.170 C  
HETATM   17  O   UNL     1      -7.614  16.009  73.008  1.00  0.00    10.104 OA 
BRANCH  16  18
HETATM   18  O   UNL     1      -8.488  14.885  71.230  1.00  0.00     2.466 OA 
BRANCH  18  19
HETATM   19  C   UNL     1      -9.724  14.417  71.820  1.00  0.00     5.322 C  
HETATM   20  C   UNL     1     -10.863  15.355  71.431  1.00  0.00    -0.044 C  
HETATM   21  C   UNL     1      -9.999  13.000  71.334  1.00  0.00    10.116 C  
ENDBRANCH  18  19
ENDBRANCH  16  18
ENDBRANCH  13  16
BRANCH  15  22
HETATM   22  C   UNL     1     -10.308  17.069  70.203  1.00  0.00     0.456 A  
HETATM   23  C   UNL     1     -11.613  17.594  70.247  1.00  0.00     3.256 A  
HETATM   24  C   UNL     1     -10.132  15.721  69.853  1.00  0.00    -0.232 A  
HETATM   25  C   UNL     1     -12.720  16.795  69.952  1.00  0.00     3.541 A  
HETATM   26  O   UNL     1      -9.891  13.086  69.153  1.00  0.00     0.198 OA 
HETATM   27  O   UNL     1     -12.059  12.843  68.933  1.00  0.00    -0.270 OA 
HETATM   28  C   UNL     1     -11.247  14.925  69.559  1.00  0.00    -0.277 A  
HETATM   29  N   UNL     1     -11.048  13.518  69.188  1.00  0.00    -0.249 N  
HETATM   30  C   UNL     1     -12.540  15.456  69.608  1.00  0.00    -0.071 A  
ENDBRANCH  15  22
ENDBRANCH   6   8
ENDBRANCH   5   6
ENDBRANCH   4   5
ENDBRANCH   3   4
ENDBRANCH   2   3
TORSDOF 9
ENDMDL
