MODEL        1
REMARK 921   NORMALIZED FREE ENERGY PREDICTED BY IDOCK:   -8.18 KCAL/MOL
REMARK 922        TOTAL FREE ENERGY PREDICTED BY IDOCK:  -13.54 KCAL/MOL
REMARK 923 INTER-LIGAND FREE ENERGY PREDICTED BY IDOCK:  -12.00 KCAL/MOL
REMARK 924 INTRA-LIGAND FREE ENERGY PREDICTED BY IDOCK:   -1.54 KCAL/MOL
REMARK 927      BINDING AFFINITY PREDICTED BY RF-SCORE:    0.00 PKD
ROOT
HETATM    1  C   UNL     1      -7.669  20.122  66.725  1.00  0.00    -0.299 C  
HETATM    2  O   UNL     1      -8.483  19.277  65.911  1.00  0.00    -0.441 OA 
ENDROOT
BRANCH   2   3
HETATM    3  C   UNL     1      -9.793  19.232  66.277  1.00  0.00    -0.392 C  
HETATM    4  O   UNL     1     -10.562  20.185  66.298  1.00  0.00    -0.390 OA 
BRANCH   3   5
HETATM    5  C   UNL     1     -10.185  17.842  66.621  1.00  0.00    -0.371 A  
HETATM    6  C   UNL     1     -10.254  16.823  65.649  1.00  0.00    -0.258 A  
HETATM    7  C   UNL     1     -10.658  15.523  65.986  1.00  0.00    -0.333 A  
HETATM    8  C   UNL     1     -10.998  15.240  67.299  1.00  0.00    -0.327 A  
HETATM    9  C   UNL     1     -10.922  16.264  68.251  1.00  0.00    -0.348 A  
HETATM   10  C   UNL     1     -10.512  17.552  67.952  1.00  0.00    -0.384 A  
HETATM   11  N   UNL     1     -11.320  15.803  69.497  1.00  0.00    -0.302 N  
HETATM   12  H   UNL     1     -11.351  16.379  70.338  1.00  0.00     0.000 HD 
HETATM   13  C   UNL     1     -11.669  14.461  69.460  1.00  0.00    -0.313 C  
HETATM   14  O   UNL     1     -12.000  13.794  70.421  1.00  0.00    -0.320 OA 
HETATM   15  C   UNL     1     -11.487  14.036  68.013  1.00  0.00    -0.342 C  
HETATM   16  C   UNL     1     -11.762  12.790  67.555  1.00  0.00    -0.364 C  
BRANCH  16  17
HETATM   17  C   UNL     1     -11.502  12.457  66.138  1.00  0.00    -0.430 A  
HETATM   18  C   UNL     1     -10.972  11.979  63.434  1.00  0.00    -0.475 A  
HETATM   19  C   UNL     1     -10.224  12.046  65.734  1.00  0.00    -0.274 A  
HETATM   20  C   UNL     1     -12.514  12.601  65.180  1.00  0.00    -0.531 A  
HETATM   21  C   UNL     1      -9.962  11.812  64.382  1.00  0.00    -0.281 A  
HETATM   22  C   UNL     1     -12.250  12.366  63.832  1.00  0.00    -0.603 A  
ENDBRANCH  16  17
BRANCH  16  23
HETATM   23  N   UNL     1     -12.279  11.699  68.262  1.00  0.00    -0.452 NA 
HETATM   24  H   UNL     1     -13.253  11.425  68.128  1.00  0.00     0.000 HD 
BRANCH  23  25
HETATM   25  C   UNL     1     -11.458  10.966  69.167  1.00  0.00    -0.303 A  
HETATM   26  C   UNL     1      -9.916   9.224  70.823  1.00  0.00    -0.290 A  
HETATM   27  C   UNL     1     -10.094  10.801  68.962  1.00  0.00    -0.225 A  
HETATM   28  C   UNL     1     -12.002  10.429  70.332  1.00  0.00    -0.409 A  
HETATM   29  C   UNL     1      -9.345   9.935  69.762  1.00  0.00    -0.248 A  
HETATM   30  C   UNL     1     -11.241   9.570  71.143  1.00  0.00    -0.446 A  
BRANCH  26  31
HETATM   31  N   UNL     1      -9.203   8.160  71.508  1.00  0.00    -0.149 N  
HETATM   32  C   UNL     1      -8.983   8.290  72.951  1.00  0.00    -0.254 C  
HETATM   33  C   UNL     1      -8.789   6.978  70.848  1.00  0.00    -0.148 C  
HETATM   34  O   UNL     1      -8.877   6.772  69.631  1.00  0.00    -0.142 OA 
BRANCH  33  35
HETATM   35  C   UNL     1      -8.073   5.886  71.656  1.00  0.00    -0.118 C  
BRANCH  35  36
HETATM   36  N   UNL     1      -8.685   4.543  71.573  1.00  0.00    -0.116 NA 
HETATM   37  C   UNL     1      -8.145   3.563  72.543  1.00  0.00    -0.076 C  
HETATM   38  C   UNL     1      -8.693   3.628  73.996  1.00  0.00    -0.088 C  
HETATM   39  N   UNL     1     -10.150   3.833  74.135  1.00  0.00    -0.138 NA 
HETATM   40  C   UNL     1     -10.903   2.599  73.909  1.00  0.00    -0.196 C  
HETATM   41  C   UNL     1     -10.584   4.895  73.213  1.00  0.00    -0.232 C  
HETATM   42  C   UNL     1     -10.146   4.660  71.750  1.00  0.00    -0.191 C  
ENDBRANCH  35  36
ENDBRANCH  33  35
ENDBRANCH  26  31
ENDBRANCH  23  25
ENDBRANCH  16  23
ENDBRANCH   3   5
ENDBRANCH   2   3
TORSDOF 8
ENDMDL
MODEL        2
REMARK 921   NORMALIZED FREE ENERGY PREDICTED BY IDOCK:   -7.94 KCAL/MOL
REMARK 922        TOTAL FREE ENERGY PREDICTED BY IDOCK:  -13.20 KCAL/MOL
REMARK 923 INTER-LIGAND FREE ENERGY PREDICTED BY IDOCK:  -11.54 KCAL/MOL
REMARK 924 INTRA-LIGAND FREE ENERGY PREDICTED BY IDOCK:   -1.66 KCAL/MOL
REMARK 927      BINDING AFFINITY PREDICTED BY RF-SCORE:    0.00 PKD
ROOT
HETATM    1  C   UNL     1      -9.654  20.788  67.376  1.00  0.00    -0.344 C  
HETATM    2  O   UNL     1     -10.299  19.773  66.606  1.00  0.00    -0.428 OA 
ENDROOT
BRANCH   2   3
HETATM    3  C   UNL     1      -9.559  18.646  66.422  1.00  0.00    -0.325 C  
HETATM    4  O   UNL     1      -8.484  18.585  65.840  1.00  0.00    -0.497 OA 
BRANCH   3   5
HETATM    5  C   UNL     1     -10.223  17.482  67.061  1.00  0.00    -0.327 A  
HETATM    6  C   UNL     1     -10.677  17.520  68.396  1.00  0.00    -0.280 A  
HETATM    7  C   UNL     1     -11.274  16.400  68.993  1.00  0.00    -0.291 A  
HETATM    8  C   UNL     1     -11.414  15.236  68.256  1.00  0.00    -0.359 A  
HETATM    9  C   UNL     1     -10.959  15.217  66.933  1.00  0.00    -0.323 A  
HETATM   10  C   UNL     1     -10.381  16.310  66.311  1.00  0.00    -0.335 A  
HETATM   11  N   UNL     1     -11.161  13.967  66.365  1.00  0.00    -0.312 N  
HETATM   12  H   UNL     1     -10.898  13.722  65.410  1.00  0.00     0.000 HD 
HETATM   13  C   UNL     1     -11.765  13.091  67.255  1.00  0.00    -0.375 C  
HETATM   14  O   UNL     1     -12.104  11.952  66.998  1.00  0.00    -0.600 OA 
HETATM   15  C   UNL     1     -11.944  13.881  68.540  1.00  0.00    -0.394 C  
HETATM   16  C   UNL     1     -12.474  13.361  69.674  1.00  0.00    -0.009 C  
BRANCH  16  17
HETATM   17  C   UNL     1     -12.658  14.225  70.860  1.00  0.00    -0.426 A  
HETATM   18  C   UNL     1     -13.027  15.729  73.188  1.00  0.00    -0.651 A  
HETATM   19  C   UNL     1     -11.554  14.594  71.640  1.00  0.00    -0.148 A  
HETATM   20  C   UNL     1     -13.941  14.637  71.242  1.00  0.00    -0.400 A  
HETATM   21  C   UNL     1     -11.742  15.341  72.804  1.00  0.00    -0.502 A  
HETATM   22  C   UNL     1     -14.125  15.384  72.404  1.00  0.00    -0.645 A  
ENDBRANCH  16  17
BRANCH  16  23
HETATM   23  N   UNL     1     -12.910  12.052  69.908  1.00  0.00     0.394 NA 
HETATM   24  H   UNL     1     -13.875  11.794  69.698  1.00  0.00     0.000 HD 
BRANCH  23  25
HETATM   25  C   UNL     1     -12.019  11.074  70.439  1.00  0.00    -0.368 A  
HETATM   26  C   UNL     1     -10.413   8.890  71.337  1.00  0.00    -0.305 A  
HETATM   27  C   UNL     1     -10.789  10.799  69.855  1.00  0.00    -0.264 A  
HETATM   28  C   UNL     1     -12.340  10.392  71.610  1.00  0.00    -0.402 A  
HETATM   29  C   UNL     1     -10.013   9.720  70.284  1.00  0.00    -0.309 A  
HETATM   30  C   UNL     1     -11.550   9.316  72.048  1.00  0.00    -0.305 A  
BRANCH  26  31
HETATM   31  N   UNL     1      -9.731   7.643  71.637  1.00  0.00    -0.160 N  
HETATM   32  C   UNL     1      -9.835   6.546  70.671  1.00  0.00    -0.183 C  
HETATM   33  C   UNL     1      -8.914   7.484  72.782  1.00  0.00    -0.148 C  
HETATM   34  O   UNL     1      -8.784   8.315  73.688  1.00  0.00    -0.248 OA 
BRANCH  33  35
HETATM   35  C   UNL     1      -8.199   6.142  73.004  1.00  0.00    -0.115 C  
BRANCH  35  36
HETATM   36  N   UNL     1      -8.709   5.341  74.136  1.00  0.00    -0.117 NA 
HETATM   37  C   UNL     1     -10.181   5.374  74.296  1.00  0.00    -0.272 C  
HETATM   38  C   UNL     1     -11.015   4.443  73.372  1.00  0.00    -0.290 C  
HETATM   39  N   UNL     1     -10.487   3.075  73.177  1.00  0.00    -0.156 NA 
HETATM   40  C   UNL     1     -10.780   2.205  74.315  1.00  0.00    -0.139 C  
HETATM   41  C   UNL     1      -9.040   3.144  72.920  1.00  0.00    -0.087 C  
HETATM   42  C   UNL     1      -8.260   3.943  73.987  1.00  0.00    -0.090 C  
ENDBRANCH  35  36
ENDBRANCH  33  35
ENDBRANCH  26  31
ENDBRANCH  23  25
ENDBRANCH  16  23
ENDBRANCH   3   5
ENDBRANCH   2   3
TORSDOF 8
ENDMDL
MODEL        3
REMARK 921   NORMALIZED FREE ENERGY PREDICTED BY IDOCK:   -7.93 KCAL/MOL
REMARK 922        TOTAL FREE ENERGY PREDICTED BY IDOCK:  -13.18 KCAL/MOL
REMARK 923 INTER-LIGAND FREE ENERGY PREDICTED BY IDOCK:  -12.01 KCAL/MOL
REMARK 924 INTRA-LIGAND FREE ENERGY PREDICTED BY IDOCK:   -1.17 KCAL/MOL
REMARK 927      BINDING AFFINITY PREDICTED BY RF-SCORE:    0.00 PKD
ROOT
HETATM    1  C   UNL     1      -7.721  20.476  67.158  1.00  0.00    -0.322 C  
HETATM    2  O   UNL     1      -8.158  19.119  67.079  1.00  0.00    -0.253 OA 
ENDROOT
BRANCH   2   3
HETATM    3  C   UNL     1      -9.417  18.957  66.591  1.00  0.00    -0.334 C  
HETATM    4  O   UNL     1     -10.049  19.792  65.955  1.00  0.00    -0.450 OA 
BRANCH   3   5
HETATM    5  C   UNL     1      -9.924  17.598  66.906  1.00  0.00    -0.323 A  
HETATM    6  C   UNL     1      -9.919  16.559  65.952  1.00  0.00    -0.342 A  
HETATM    7  C   UNL     1     -10.431  15.290  66.257  1.00  0.00    -0.313 A  
HETATM    8  C   UNL     1     -10.953  15.057  67.519  1.00  0.00    -0.307 A  
HETATM    9  C   UNL     1     -10.948  16.099  68.453  1.00  0.00    -0.341 A  
HETATM   10  C   UNL     1     -10.436  17.357  68.187  1.00  0.00    -0.389 A  
HETATM   11  N   UNL     1     -11.529  15.690  69.645  1.00  0.00    -0.314 N  
HETATM   12  H   UNL     1     -11.639  16.288  70.463  1.00  0.00     0.000 HD 
HETATM   13  C   UNL     1     -11.940  14.366  69.586  1.00  0.00    -0.336 C  
HETATM   14  O   UNL     1     -12.428  13.741  70.508  1.00  0.00    -0.337 OA 
HETATM   15  C   UNL     1     -11.593  13.897  68.184  1.00  0.00    -0.370 C  
HETATM   16  C   UNL     1     -11.872  12.655  67.717  1.00  0.00    -0.323 C  
BRANCH  16  17
HETATM   17  C   UNL     1     -11.447  12.274  66.353  1.00  0.00    -0.434 A  
HETATM   18  C   UNL     1     -10.583  11.699  63.756  1.00  0.00    -0.473 A  
HETATM   19  C   UNL     1     -10.189  11.693  66.143  1.00  0.00    -0.263 A  
HETATM   20  C   UNL     1     -12.275  12.539  65.254  1.00  0.00    -0.493 A  
HETATM   21  C   UNL     1      -9.759  11.412  64.845  1.00  0.00    -0.283 A  
HETATM   22  C   UNL     1     -11.843  12.256  63.960  1.00  0.00    -0.530 A  
ENDBRANCH  16  17
BRANCH  16  23
HETATM   23  N   UNL     1     -12.533  11.609  68.370  1.00  0.00    -0.072 NA 
HETATM   24  H   UNL     1     -13.482  11.358  68.091  1.00  0.00     0.000 HD 
BRANCH  23  25
HETATM   25  C   UNL     1     -11.894  10.891  69.421  1.00  0.00    -0.328 A  
HETATM   26  C   UNL     1     -10.758   9.179  71.405  1.00  0.00    -0.343 A  
HETATM   27  C   UNL     1     -10.577  10.456  69.327  1.00  0.00    -0.259 A  
HETATM   28  C   UNL     1     -12.567  10.645  70.615  1.00  0.00    -0.454 A  
HETATM   29  C   UNL     1     -10.030   9.604  70.290  1.00  0.00    -0.326 A  
HETATM   30  C   UNL     1     -12.007   9.800  71.589  1.00  0.00    -0.454 A  
BRANCH  26  31
HETATM   31  N   UNL     1     -10.279   8.124  72.281  1.00  0.00    -0.252 N  
HETATM   32  C   UNL     1      -8.941   8.259  72.861  1.00  0.00    -0.254 C  
HETATM   33  C   UNL     1     -11.087   7.021  72.650  1.00  0.00    -0.281 C  
HETATM   34  O   UNL     1     -12.210   6.774  72.195  1.00  0.00    -0.291 OA 
BRANCH  33  35
HETATM   35  C   UNL     1     -10.514   5.969  73.611  1.00  0.00    -0.269 C  
BRANCH  35  36
HETATM   36  N   UNL     1     -10.717   4.565  73.195  1.00  0.00    -0.216 NA 
HETATM   37  C   UNL     1      -9.995   4.182  71.960  1.00  0.00    -0.180 C  
HETATM   38  C   UNL     1      -8.487   3.832  72.101  1.00  0.00    -0.088 C  
HETATM   39  N   UNL     1      -8.117   3.001  73.267  1.00  0.00    -0.071 NA 
HETATM   40  C   UNL     1      -8.423   1.587  73.054  1.00  0.00    -0.057 C  
HETATM   41  C   UNL     1      -8.794   3.516  74.468  1.00  0.00    -0.086 C  
HETATM   42  C   UNL     1     -10.323   3.667  74.298  1.00  0.00    -0.197 C  
ENDBRANCH  35  36
ENDBRANCH  33  35
ENDBRANCH  26  31
ENDBRANCH  23  25
ENDBRANCH  16  23
ENDBRANCH   3   5
ENDBRANCH   2   3
TORSDOF 8
ENDMDL
MODEL        4
REMARK 921   NORMALIZED FREE ENERGY PREDICTED BY IDOCK:   -7.91 KCAL/MOL
REMARK 922        TOTAL FREE ENERGY PREDICTED BY IDOCK:  -13.14 KCAL/MOL
REMARK 923 INTER-LIGAND FREE ENERGY PREDICTED BY IDOCK:  -11.14 KCAL/MOL
REMARK 924 INTRA-LIGAND FREE ENERGY PREDICTED BY IDOCK:   -2.00 KCAL/MOL
REMARK 927      BINDING AFFINITY PREDICTED BY RF-SCORE:    0.00 PKD
ROOT
HETATM    1  C   UNL     1     -10.515  19.947  65.846  1.00  0.00    -0.461 C  
HETATM    2  O   UNL     1      -9.524  19.840  66.869  1.00  0.00    -0.330 OA 
ENDROOT
BRANCH   2   3
HETATM    3  C   UNL     1      -8.811  18.682  66.847  1.00  0.00    -0.287 C  
HETATM    4  O   UNL     1      -7.650  18.565  66.474  1.00  0.00    -0.226 OA 
BRANCH   3   5
HETATM    5  C   UNL     1      -9.629  17.561  67.375  1.00  0.00    -0.265 A  
HETATM    6  C   UNL     1     -10.167  17.578  68.679  1.00  0.00    -0.373 A  
HETATM    7  C   UNL     1     -10.910  16.496  69.172  1.00  0.00    -0.334 A  
HETATM    8  C   UNL     1     -11.114  15.391  68.363  1.00  0.00    -0.301 A  
HETATM    9  C   UNL     1     -10.573  15.392  67.072  1.00  0.00    -0.309 A  
HETATM   10  C   UNL     1      -9.850  16.450  66.551  1.00  0.00    -0.290 A  
HETATM   11  N   UNL     1     -10.858  14.200  66.422  1.00  0.00    -0.301 N  
HETATM   12  H   UNL     1     -10.556  13.978  65.474  1.00  0.00     0.000 HD 
HETATM   13  C   UNL     1     -11.605  13.346  67.221  1.00  0.00    -0.360 C  
HETATM   14  O   UNL     1     -12.037  12.262  66.879  1.00  0.00    -0.583 OA 
HETATM   15  C   UNL     1     -11.793  14.085  68.535  1.00  0.00    -0.399 C  
HETATM   16  C   UNL     1     -12.448  13.565  69.602  1.00  0.00    -0.054 C  
BRANCH  16  17
HETATM   17  C   UNL     1     -12.626  14.382  70.821  1.00  0.00    -0.426 A  
HETATM   18  C   UNL     1     -13.001  15.797  73.204  1.00  0.00    -0.651 A  
HETATM   19  C   UNL     1     -11.543  14.611  71.681  1.00  0.00    -0.148 A  
HETATM   20  C   UNL     1     -13.888  14.890  71.154  1.00  0.00    -0.428 A  
HETATM   21  C   UNL     1     -11.735  15.313  72.872  1.00  0.00    -0.478 A  
HETATM   22  C   UNL     1     -14.077  15.592  72.343  1.00  0.00    -0.627 A  
ENDBRANCH  16  17
BRANCH  16  23
HETATM   23  N   UNL     1     -13.025  12.297  69.734  1.00  0.00     0.791 NA 
HETATM   24  H   UNL     1     -13.924  12.102  69.292  1.00  0.00     0.000 HD 
BRANCH  23  25
HETATM   25  C   UNL     1     -12.370  11.275  70.480  1.00  0.00    -0.356 A  
HETATM   26  C   UNL     1     -11.231   9.009  71.793  1.00  0.00    -0.378 A  
HETATM   27  C   UNL     1     -11.099  10.819  70.153  1.00  0.00    -0.298 A  
HETATM   28  C   UNL     1     -12.977  10.730  71.609  1.00  0.00    -0.581 A  
HETATM   29  C   UNL     1     -10.551   9.700  70.785  1.00  0.00    -0.392 A  
HETATM   30  C   UNL     1     -12.415   9.614  72.252  1.00  0.00    -0.249 A  
BRANCH  26  31
HETATM   31  N   UNL     1     -10.772   7.724  72.290  1.00  0.00    -0.248 N  
HETATM   32  C   UNL     1      -9.904   7.707  73.470  1.00  0.00    -0.297 C  
HETATM   33  C   UNL     1     -11.196   6.498  71.724  1.00  0.00    -0.269 C  
HETATM   34  O   UNL     1     -11.888   6.383  70.705  1.00  0.00    -0.367 OA 
BRANCH  33  35
HETATM   35  C   UNL     1     -10.691   5.182  72.335  1.00  0.00    -0.216 C  
BRANCH  35  36
HETATM   36  N   UNL     1      -9.768   4.408  71.478  1.00  0.00    -0.165 NA 
HETATM   37  C   UNL     1      -8.674   5.206  70.878  1.00  0.00    -0.130 C  
HETATM   38  C   UNL     1      -7.445   5.512  71.778  1.00  0.00    -0.093 C  
HETATM   39  N   UNL     1      -6.952   4.394  72.611  1.00  0.00    -0.059 NA 
HETATM   40  C   UNL     1      -6.149   3.445  71.841  1.00  0.00    -0.014 C  
HETATM   41  C   UNL     1      -8.095   3.724  73.253  1.00  0.00    -0.087 C  
HETATM   42  C   UNL     1      -9.196   3.293  72.258  1.00  0.00    -0.105 C  
ENDBRANCH  35  36
ENDBRANCH  33  35
ENDBRANCH  26  31
ENDBRANCH  23  25
ENDBRANCH  16  23
ENDBRANCH   3   5
ENDBRANCH   2   3
TORSDOF 8
ENDMDL
MODEL        5
REMARK 921   NORMALIZED FREE ENERGY PREDICTED BY IDOCK:   -7.59 KCAL/MOL
REMARK 922        TOTAL FREE ENERGY PREDICTED BY IDOCK:  -12.67 KCAL/MOL
REMARK 923 INTER-LIGAND FREE ENERGY PREDICTED BY IDOCK:  -10.45 KCAL/MOL
REMARK 924 INTRA-LIGAND FREE ENERGY PREDICTED BY IDOCK:   -2.22 KCAL/MOL
REMARK 927      BINDING AFFINITY PREDICTED BY RF-SCORE:    0.00 PKD
ROOT
HETATM    1  C   UNL     1      -9.274   4.354  72.682  1.00  0.00    -0.125 C  
HETATM    2  O   UNL     1      -8.149   5.232  72.661  1.00  0.00    -0.107 OA 
ENDROOT
BRANCH   2   3
HETATM    3  C   UNL     1      -8.371   6.449  73.228  1.00  0.00    -0.118 C  
HETATM    4  O   UNL     1      -8.039   6.781  74.359  1.00  0.00    -0.116 OA 
BRANCH   3   5
HETATM    5  C   UNL     1      -9.051   7.351  72.265  1.00  0.00    -0.160 A  
HETATM    6  C   UNL     1      -8.546   7.577  70.968  1.00  0.00    -0.132 A  
HETATM    7  C   UNL     1      -9.184   8.458  70.083  1.00  0.00    -0.159 A  
HETATM    8  C   UNL     1     -10.329   9.119  70.495  1.00  0.00    -0.288 A  
HETATM    9  C   UNL     1     -10.816   8.881  71.785  1.00  0.00    -0.365 A  
HETATM   10  C   UNL     1     -10.218   8.007  72.676  1.00  0.00    -0.385 A  
HETATM   11  N   UNL     1     -11.949   9.644  72.028  1.00  0.00    -0.257 N  
HETATM   12  H   UNL     1     -12.468   9.638  72.906  1.00  0.00     0.000 HD 
HETATM   13  C   UNL     1     -12.292  10.418  70.928  1.00  0.00    -0.381 C  
HETATM   14  O   UNL     1     -13.271  11.135  70.850  1.00  0.00    -0.149 OA 
HETATM   15  C   UNL     1     -11.235  10.118  69.879  1.00  0.00    -0.343 C  
HETATM   16  C   UNL     1     -11.197  10.709  68.660  1.00  0.00    -0.278 C  
BRANCH  16  17
HETATM   17  C   UNL     1     -10.158  10.312  67.685  1.00  0.00    -0.229 A  
HETATM   18  C   UNL     1      -8.255   9.665  65.742  1.00  0.00    -0.120 A  
HETATM   19  C   UNL     1      -8.918  10.964  67.671  1.00  0.00    -0.140 A  
HETATM   20  C   UNL     1     -10.424   9.317  66.735  1.00  0.00    -0.263 A  
HETATM   21  C   UNL     1      -7.972  10.642  66.696  1.00  0.00    -0.134 A  
HETATM   22  C   UNL     1      -9.477   8.997  65.764  1.00  0.00    -0.305 A  
ENDBRANCH  16  17
BRANCH  16  23
HETATM   23  N   UNL     1     -12.048  11.694  68.145  1.00  0.00    -0.558 NA 
HETATM   24  H   UNL     1     -13.027  11.471  67.962  1.00  0.00     0.000 HD 
BRANCH  23  25
HETATM   25  C   UNL     1     -11.560  13.005  67.873  1.00  0.00    -0.342 A  
HETATM   26  C   UNL     1     -10.282  15.492  67.293  1.00  0.00    -0.260 A  
HETATM   27  C   UNL     1     -11.646  13.579  66.611  1.00  0.00    -0.396 A  
HETATM   28  C   UNL     1     -11.019  13.780  68.896  1.00  0.00    -0.281 A  
HETATM   29  C   UNL     1     -11.005  14.788  66.325  1.00  0.00    -0.330 A  
HETATM   30  C   UNL     1     -10.389  15.003  68.608  1.00  0.00    -0.236 A  
BRANCH  26  31
HETATM   31  N   UNL     1      -9.432  16.619  66.951  1.00  0.00    -0.228 N  
HETATM   32  C   UNL     1      -8.092  16.343  66.427  1.00  0.00    -0.322 C  
HETATM   33  C   UNL     1      -9.882  17.959  67.032  1.00  0.00    -0.314 C  
HETATM   34  O   UNL     1     -10.970  18.320  67.498  1.00  0.00    -0.335 OA 
BRANCH  33  35
HETATM   35  C   UNL     1      -8.930  19.090  66.615  1.00  0.00    -0.326 C  
BRANCH  35  36
HETATM   36  N   UNL     1      -8.573  20.036  67.693  1.00  0.00    -0.328 NA 
HETATM   37  C   UNL     1      -8.133  19.393  68.952  1.00  0.00    -0.309 C  
HETATM   38  C   UNL     1      -6.662  18.896  69.018  1.00  0.00    -0.296 C  
HETATM   39  N   UNL     1      -5.642  19.802  68.447  1.00  0.00    -0.200 NA 
HETATM   40  C   UNL     1      -5.310  20.899  69.355  1.00  0.00    -0.367 C  
HETATM   41  C   UNL     1      -6.114  20.311  67.149  1.00  0.00    -0.177 C  
HETATM   42  C   UNL     1      -7.519  20.951  67.211  1.00  0.00    -0.288 C  
ENDBRANCH  35  36
ENDBRANCH  33  35
ENDBRANCH  26  31
ENDBRANCH  23  25
ENDBRANCH  16  23
ENDBRANCH   3   5
ENDBRANCH   2   3
TORSDOF 8
ENDMDL
MODEL        6
REMARK 921   NORMALIZED FREE ENERGY PREDICTED BY IDOCK:   -7.52 KCAL/MOL
REMARK 922        TOTAL FREE ENERGY PREDICTED BY IDOCK:  -12.58 KCAL/MOL
REMARK 923 INTER-LIGAND FREE ENERGY PREDICTED BY IDOCK:  -11.87 KCAL/MOL
REMARK 924 INTRA-LIGAND FREE ENERGY PREDICTED BY IDOCK:   -0.71 KCAL/MOL
REMARK 927      BINDING AFFINITY PREDICTED BY RF-SCORE:    0.00 PKD
ROOT
HETATM    1  C   UNL     1     -10.361   6.085  74.006  1.00  0.00    -0.291 C  
HETATM    2  O   UNL     1     -10.843   7.324  73.485  1.00  0.00    -0.375 OA 
ENDROOT
BRANCH   2   3
HETATM    3  C   UNL     1     -11.638   7.204  72.387  1.00  0.00    -0.253 C  
HETATM    4  O   UNL     1     -12.184   6.175  72.009  1.00  0.00    -0.312 OA 
BRANCH   3   5
HETATM    5  C   UNL     1     -11.787   8.518  71.712  1.00  0.00    -0.395 A  
HETATM    6  C   UNL     1     -11.143   8.808  70.491  1.00  0.00    -0.278 A  
HETATM    7  C   UNL     1     -11.270  10.066  69.884  1.00  0.00    -0.327 A  
HETATM    8  C   UNL     1     -12.040  11.039  70.499  1.00  0.00    -0.470 A  
HETATM    9  C   UNL     1     -12.673  10.733  71.709  1.00  0.00    -0.359 A  
HETATM   10  C   UNL     1     -12.580   9.497  72.325  1.00  0.00    -0.344 A  
HETATM   11  N   UNL     1     -13.375  11.831  72.185  1.00  0.00    -0.551 N  
HETATM   12  H   UNL     1     -13.906  11.838  73.056  1.00  0.00     0.000 HD 
HETATM   13  C   UNL     1     -13.267  12.918  71.330  1.00  0.00    -0.176 C  
HETATM   14  O   UNL     1     -13.829  13.987  71.478  1.00  0.00    -0.333 OA 
HETATM   15  C   UNL     1     -12.374  12.450  70.193  1.00  0.00    -0.209 C  
HETATM   16  C   UNL     1     -11.996  13.243  69.161  1.00  0.00    -0.296 C  
BRANCH  16  17
HETATM   17  C   UNL     1     -11.167  12.681  68.073  1.00  0.00    -0.308 A  
HETATM   18  C   UNL     1      -9.626  11.476  66.075  1.00  0.00    -0.251 A  
HETATM   19  C   UNL     1     -11.756  12.318  66.854  1.00  0.00    -0.404 A  
HETATM   20  C   UNL     1      -9.798  12.459  68.269  1.00  0.00    -0.224 A  
HETATM   21  C   UNL     1     -10.984  11.712  65.861  1.00  0.00    -0.334 A  
HETATM   22  C   UNL     1      -9.030  11.855  67.276  1.00  0.00    -0.176 A  
ENDBRANCH  16  17
BRANCH  16  23
HETATM   23  N   UNL     1     -12.295  14.594  68.947  1.00  0.00    -0.585 NA 
HETATM   24  H   UNL     1     -13.265  14.909  68.982  1.00  0.00     0.000 HD 
BRANCH  23  25
HETATM   25  C   UNL     1     -11.257  15.533  68.680  1.00  0.00    -0.325 A  
HETATM   26  C   UNL     1      -9.419  17.637  68.090  1.00  0.00    -0.286 A  
HETATM   27  C   UNL     1     -10.597  16.215  69.694  1.00  0.00    -0.311 A  
HETATM   28  C   UNL     1     -10.833  15.759  67.372  1.00  0.00    -0.306 A  
HETATM   29  C   UNL     1      -9.711  17.256  69.404  1.00  0.00     0.081 A  
HETATM   30  C   UNL     1      -9.930  16.797  67.085  1.00  0.00    -0.274 A  
BRANCH  26  31
HETATM   31  N   UNL     1      -8.684  18.853  67.787  1.00  0.00    -0.288 N  
HETATM   32  C   UNL     1      -9.317  19.846  66.915  1.00  0.00    -0.379 C  
HETATM   33  C   UNL     1      -7.424  19.140  68.364  1.00  0.00    -0.307 C  
HETATM   34  O   UNL     1      -6.771  18.367  69.076  1.00  0.00    -0.256 OA 
BRANCH  33  35
HETATM   35  C   UNL     1      -6.732  20.467  68.018  1.00  0.00    -0.295 C  
BRANCH  35  36
HETATM   36  N   UNL     1      -5.552  20.346  67.135  1.00  0.00    -0.165 NA 
HETATM   37  C   UNL     1      -5.220  18.956  66.745  1.00  0.00    -0.137 C  
HETATM   38  C   UNL     1      -6.044  18.330  65.585  1.00  0.00    -0.241 C  
HETATM   39  N   UNL     1      -6.308  19.208  64.425  1.00  0.00    -0.417 NA 
HETATM   40  C   UNL     1      -5.148  19.314  63.540  1.00  0.00    -0.246 C  
HETATM   41  C   UNL     1      -6.734  20.533  64.903  1.00  0.00    -0.225 C  
HETATM   42  C   UNL     1      -5.761  21.163  65.925  1.00  0.00    -0.247 C  
ENDBRANCH  35  36
ENDBRANCH  33  35
ENDBRANCH  26  31
ENDBRANCH  23  25
ENDBRANCH  16  23
ENDBRANCH   3   5
ENDBRANCH   2   3
TORSDOF 8
ENDMDL
MODEL        7
REMARK 921   NORMALIZED FREE ENERGY PREDICTED BY IDOCK:   -7.43 KCAL/MOL
REMARK 922        TOTAL FREE ENERGY PREDICTED BY IDOCK:  -12.44 KCAL/MOL
REMARK 923 INTER-LIGAND FREE ENERGY PREDICTED BY IDOCK:  -10.21 KCAL/MOL
REMARK 924 INTRA-LIGAND FREE ENERGY PREDICTED BY IDOCK:   -2.23 KCAL/MOL
REMARK 927      BINDING AFFINITY PREDICTED BY RF-SCORE:    0.00 PKD
ROOT
HETATM    1  C   UNL     1      -7.999   4.427  73.004  1.00  0.00    -0.094 C  
HETATM    2  O   UNL     1      -8.901   5.491  73.307  1.00  0.00    -0.122 OA 
ENDROOT
BRANCH   2   3
HETATM    3  C   UNL     1      -8.345   6.732  73.271  1.00  0.00    -0.117 C  
HETATM    4  O   UNL     1      -7.395   7.109  73.946  1.00  0.00    -0.092 OA 
BRANCH   3   5
HETATM    5  C   UNL     1      -9.032   7.577  72.262  1.00  0.00    -0.167 A  
HETATM    6  C   UNL     1      -8.482   7.812  70.985  1.00  0.00    -0.122 A  
HETATM    7  C   UNL     1      -9.130   8.639  70.056  1.00  0.00    -0.157 A  
HETATM    8  C   UNL     1     -10.329   9.238  70.404  1.00  0.00    -0.291 A  
HETATM    9  C   UNL     1     -10.860   8.992  71.676  1.00  0.00    -0.366 A  
HETATM   10  C   UNL     1     -10.253   8.169  72.608  1.00  0.00    -0.388 A  
HETATM   11  N   UNL     1     -12.046   9.690  71.853  1.00  0.00    -0.359 N  
HETATM   12  H   UNL     1     -12.602   9.667  72.707  1.00  0.00     0.000 HD 
HETATM   13  C   UNL     1     -12.382  10.425  70.725  1.00  0.00    -0.367 C  
HETATM   14  O   UNL     1     -13.397  11.081  70.590  1.00  0.00     0.013 OA 
HETATM   15  C   UNL     1     -11.263  10.171  69.730  1.00  0.00    -0.325 C  
HETATM   16  C   UNL     1     -11.204  10.744  68.503  1.00  0.00    -0.279 C  
BRANCH  16  17
HETATM   17  C   UNL     1     -10.100  10.393  67.583  1.00  0.00    -0.223 A  
HETATM   18  C   UNL     1      -7.957   9.633  65.956  1.00  0.00    -0.108 A  
HETATM   19  C   UNL     1     -10.244   9.328  66.684  1.00  0.00    -0.323 A  
HETATM   20  C   UNL     1      -8.884  11.087  67.640  1.00  0.00    -0.131 A  
HETATM   21  C   UNL     1      -9.170   8.948  65.876  1.00  0.00    -0.290 A  
HETATM   22  C   UNL     1      -7.815  10.707  66.832  1.00  0.00    -0.121 A  
ENDBRANCH  16  17
BRANCH  16  23
HETATM   23  N   UNL     1     -12.086  11.668  67.932  1.00  0.00    -0.585 NA 
HETATM   24  H   UNL     1     -12.980  11.349  67.557  1.00  0.00     0.000 HD 
BRANCH  23  25
HETATM   25  C   UNL     1     -11.748  13.051  67.870  1.00  0.00    -0.357 A  
HETATM   26  C   UNL     1     -10.770  15.734  67.855  1.00  0.00    -0.302 A  
HETATM   27  C   UNL     1     -11.346  13.662  66.689  1.00  0.00    -0.343 A  
HETATM   28  C   UNL     1     -11.864  13.855  69.002  1.00  0.00    -0.397 A  
HETATM   29  C   UNL     1     -10.852  14.970  66.687  1.00  0.00    -0.318 A  
HETATM   30  C   UNL     1     -11.379  15.174  68.993  1.00  0.00    -0.307 A  
BRANCH  26  31
HETATM   31  N   UNL     1     -10.053  16.997  67.900  1.00  0.00    -0.293 N  
HETATM   32  C   UNL     1     -10.680  18.172  67.291  1.00  0.00    -0.315 C  
HETATM   33  C   UNL     1      -8.818  17.142  68.576  1.00  0.00    -0.265 C  
HETATM   34  O   UNL     1      -8.171  16.220  69.087  1.00  0.00    -0.241 OA 
BRANCH  33  35
HETATM   35  C   UNL     1      -8.145  18.522  68.607  1.00  0.00    -0.310 C  
BRANCH  35  36
HETATM   36  N   UNL     1      -6.806  18.580  67.983  1.00  0.00    -0.218 NA 
HETATM   37  C   UNL     1      -6.798  18.326  66.524  1.00  0.00    -0.215 C  
HETATM   38  C   UNL     1      -7.186  19.512  65.597  1.00  0.00    -0.262 C  
HETATM   39  N   UNL     1      -6.623  20.831  65.956  1.00  0.00    -0.219 NA 
HETATM   40  C   UNL     1      -5.227  20.965  65.540  1.00  0.00    -0.200 C  
HETATM   41  C   UNL     1      -6.768  21.046  67.405  1.00  0.00    -0.383 C  
HETATM   42  C   UNL     1      -6.194  19.894  68.260  1.00  0.00    -0.251 C  
ENDBRANCH  35  36
ENDBRANCH  33  35
ENDBRANCH  26  31
ENDBRANCH  23  25
ENDBRANCH  16  23
ENDBRANCH   3   5
ENDBRANCH   2   3
TORSDOF 8
ENDMDL
MODEL        8
REMARK 921   NORMALIZED FREE ENERGY PREDICTED BY IDOCK:   -7.42 KCAL/MOL
REMARK 922        TOTAL FREE ENERGY PREDICTED BY IDOCK:  -12.43 KCAL/MOL
REMARK 923 INTER-LIGAND FREE ENERGY PREDICTED BY IDOCK:  -10.70 KCAL/MOL
REMARK 924 INTRA-LIGAND FREE ENERGY PREDICTED BY IDOCK:   -1.73 KCAL/MOL
REMARK 927      BINDING AFFINITY PREDICTED BY RF-SCORE:    0.00 PKD
ROOT
HETATM    1  C   UNL     1      -7.626  19.635  67.171  1.00  0.00    -0.252 C  
HETATM    2  O   UNL     1      -8.987  19.855  67.540  1.00  0.00    -0.318 OA 
ENDROOT
BRANCH   2   3
HETATM    3  C   UNL     1      -9.897  19.444  66.616  1.00  0.00    -0.374 C  
HETATM    4  O   UNL     1     -10.327  20.118  65.688  1.00  0.00    -0.421 OA 
BRANCH   3   5
HETATM    5  C   UNL     1     -10.285  18.033  66.865  1.00  0.00    -0.366 A  
HETATM    6  C   UNL     1     -10.309  17.072  65.834  1.00  0.00    -0.310 A  
HETATM    7  C   UNL     1     -10.710  15.750  66.081  1.00  0.00    -0.293 A  
HETATM    8  C   UNL     1     -11.091  15.388  67.362  1.00  0.00    -0.311 A  
HETATM    9  C   UNL     1     -11.060  16.355  68.373  1.00  0.00    -0.351 A  
HETATM   10  C   UNL     1     -10.655  17.662  68.164  1.00  0.00    -0.359 A  
HETATM   11  N   UNL     1     -11.496  15.818  69.576  1.00  0.00    -0.329 N  
HETATM   12  H   UNL     1     -11.563  16.344  70.447  1.00  0.00     0.000 HD 
HETATM   13  C   UNL     1     -11.828  14.477  69.449  1.00  0.00    -0.325 C  
HETATM   14  O   UNL     1     -12.185  13.752  70.358  1.00  0.00    -0.325 OA 
HETATM   15  C   UNL     1     -11.591  14.140  67.987  1.00  0.00    -0.368 C  
HETATM   16  C   UNL     1     -11.836  12.921  67.448  1.00  0.00    -0.360 C  
BRANCH  16  17
HETATM   17  C   UNL     1     -11.523  12.673  66.024  1.00  0.00    -0.414 A  
HETATM   18  C   UNL     1     -10.962  12.053  63.355  1.00  0.00    -0.475 A  
HETATM   19  C   UNL     1     -12.530  12.767  65.054  1.00  0.00    -0.572 A  
HETATM   20  C   UNL     1     -10.230  12.292  65.640  1.00  0.00    -0.287 A  
HETATM   21  C   UNL     1     -12.248  12.452  63.723  1.00  0.00    -0.626 A  
HETATM   22  C   UNL     1      -9.952  11.980  64.311  1.00  0.00    -0.266 A  
ENDBRANCH  16  17
BRANCH  16  23
HETATM   23  N   UNL     1     -12.365  11.785  68.072  1.00  0.00    -0.197 NA 
HETATM   24  H   UNL     1     -13.374  11.701  68.198  1.00  0.00     0.000 HD 
BRANCH  23  25
HETATM   25  C   UNL     1     -11.507  10.745  68.533  1.00  0.00    -0.292 A  
HETATM   26  C   UNL     1     -10.064   8.486  69.519  1.00  0.00    -0.200 A  
HETATM   27  C   UNL     1     -10.907   9.841  67.665  1.00  0.00    -0.301 A  
HETATM   28  C   UNL     1     -11.199  10.635  69.887  1.00  0.00    -0.378 A  
HETATM   29  C   UNL     1     -10.216   8.727  68.150  1.00  0.00    -0.250 A  
HETATM   30  C   UNL     1     -10.492   9.521  70.370  1.00  0.00    -0.336 A  
BRANCH  26  31
HETATM   31  N   UNL     1      -9.551   7.225  70.027  1.00  0.00    -0.168 N  
HETATM   32  C   UNL     1     -10.500   6.132  70.255  1.00  0.00    -0.229 C  
HETATM   33  C   UNL     1      -8.169   6.998  70.230  1.00  0.00    -0.128 C  
HETATM   34  O   UNL     1      -7.280   7.850  70.116  1.00  0.00    -0.056 OA 
BRANCH  33  35
HETATM   35  C   UNL     1      -7.709   5.622  70.735  1.00  0.00    -0.092 C  
BRANCH  35  36
HETATM   36  N   UNL     1      -6.780   4.904  69.836  1.00  0.00    -0.036 NA 
HETATM   37  C   UNL     1      -6.452   3.525  70.268  1.00  0.00    -0.032 C  
HETATM   38  C   UNL     1      -7.491   2.416  69.942  1.00  0.00    -0.043 C  
HETATM   39  N   UNL     1      -8.100   2.468  68.596  1.00  0.00    -0.052 NA 
HETATM   40  C   UNL     1      -7.209   1.934  67.567  1.00  0.00    -0.054 C  
HETATM   41  C   UNL     1      -8.492   3.854  68.292  1.00  0.00    -0.092 C  
HETATM   42  C   UNL     1      -7.345   4.873  68.473  1.00  0.00    -0.066 C  
ENDBRANCH  35  36
ENDBRANCH  33  35
ENDBRANCH  26  31
ENDBRANCH  23  25
ENDBRANCH  16  23
ENDBRANCH   3   5
ENDBRANCH   2   3
TORSDOF 8
ENDMDL
MODEL        9
REMARK 921   NORMALIZED FREE ENERGY PREDICTED BY IDOCK:   -7.25 KCAL/MOL
REMARK 922        TOTAL FREE ENERGY PREDICTED BY IDOCK:  -12.18 KCAL/MOL
REMARK 923 INTER-LIGAND FREE ENERGY PREDICTED BY IDOCK:  -10.35 KCAL/MOL
REMARK 924 INTRA-LIGAND FREE ENERGY PREDICTED BY IDOCK:   -1.83 KCAL/MOL
REMARK 927      BINDING AFFINITY PREDICTED BY RF-SCORE:    0.00 PKD
ROOT
HETATM    1  C   UNL     1      -6.930  20.166  67.877  1.00  0.00    -0.281 C  
HETATM    2  O   UNL     1      -7.495  18.907  67.510  1.00  0.00    -0.226 OA 
ENDROOT
BRANCH   2   3
HETATM    3  C   UNL     1      -8.748  18.980  66.986  1.00  0.00    -0.294 C  
HETATM    4  O   UNL     1      -9.146  19.835  66.203  1.00  0.00    -0.373 OA 
BRANCH   3   5
HETATM    5  C   UNL     1      -9.578  17.848  67.468  1.00  0.00    -0.269 A  
HETATM    6  C   UNL     1     -10.094  17.806  68.780  1.00  0.00    -0.381 A  
HETATM    7  C   UNL     1     -10.849  16.712  69.229  1.00  0.00    -0.310 A  
HETATM    8  C   UNL     1     -11.087  15.655  68.367  1.00  0.00    -0.326 A  
HETATM    9  C   UNL     1     -10.567  15.714  67.068  1.00  0.00    -0.311 A  
HETATM   10  C   UNL     1      -9.832  16.786  66.591  1.00  0.00    -0.287 A  
HETATM   11  N   UNL     1     -10.884  14.563  66.362  1.00  0.00    -0.312 N  
HETATM   12  H   UNL     1     -10.601  14.386  65.398  1.00  0.00     0.000 HD 
HETATM   13  C   UNL     1     -11.633  13.682  67.128  1.00  0.00    -0.361 C  
HETATM   14  O   UNL     1     -12.091  12.625  66.737  1.00  0.00    -0.504 OA 
HETATM   15  C   UNL     1     -11.787  14.354  68.482  1.00  0.00    -0.369 C  
HETATM   16  C   UNL     1     -12.434  13.790  69.531  1.00  0.00    -0.076 C  
BRANCH  16  17
HETATM   17  C   UNL     1     -12.577  14.545  70.794  1.00  0.00    -0.418 A  
HETATM   18  C   UNL     1     -12.879  15.838  73.255  1.00  0.00    -0.655 A  
HETATM   19  C   UNL     1     -11.462  14.765  71.614  1.00  0.00    -0.167 A  
HETATM   20  C   UNL     1     -13.836  15.000  71.207  1.00  0.00    -0.528 A  
HETATM   21  C   UNL     1     -11.617  15.407  72.844  1.00  0.00    -0.419 A  
HETATM   22  C   UNL     1     -13.988  15.641  72.435  1.00  0.00    -0.602 A  
ENDBRANCH  16  17
BRANCH  16  23
HETATM   23  N   UNL     1     -13.032  12.527  69.606  1.00  0.00     0.918 NA 
HETATM   24  H   UNL     1     -13.962  12.384  69.210  1.00  0.00     0.000 HD 
BRANCH  23  25
HETATM   25  C   UNL     1     -12.356  11.439  70.231  1.00  0.00    -0.297 A  
HETATM   26  C   UNL     1     -11.189   9.060  71.295  1.00  0.00    -0.315 A  
HETATM   27  C   UNL     1     -11.115  10.991  69.795  1.00  0.00    -0.303 A  
HETATM   28  C   UNL     1     -12.907  10.817  71.348  1.00  0.00    -0.557 A  
HETATM   29  C   UNL     1     -10.554   9.817  70.305  1.00  0.00    -0.348 A  
HETATM   30  C   UNL     1     -12.333   9.645  71.868  1.00  0.00    -0.437 A  
BRANCH  26  31
HETATM   31  N   UNL     1     -10.728   7.732  71.663  1.00  0.00    -0.217 N  
HETATM   32  C   UNL     1     -11.301   6.580  70.962  1.00  0.00    -0.323 C  
HETATM   33  C   UNL     1      -9.698   7.525  72.611  1.00  0.00    -0.178 C  
HETATM   34  O   UNL     1      -9.171   8.408  73.299  1.00  0.00    -0.222 OA 
BRANCH  33  35
HETATM   35  C   UNL     1      -9.245   6.089  72.915  1.00  0.00    -0.134 C  
BRANCH  35  36
HETATM   36  N   UNL     1      -7.834   5.794  72.586  1.00  0.00    -0.101 NA 
HETATM   37  C   UNL     1      -7.199   4.783  73.462  1.00  0.00    -0.081 C  
HETATM   38  C   UNL     1      -7.494   3.290  73.148  1.00  0.00    -0.055 C  
HETATM   39  N   UNL     1      -7.478   2.907  71.720  1.00  0.00    -0.043 NA 
HETATM   40  C   UNL     1      -6.117   2.743  71.210  1.00  0.00    -0.014 C  
HETATM   41  C   UNL     1      -8.220   3.909  70.939  1.00  0.00    -0.067 C  
HETATM   42  C   UNL     1      -7.742   5.358  71.179  1.00  0.00    -0.102 C  
ENDBRANCH  35  36
ENDBRANCH  33  35
ENDBRANCH  26  31
ENDBRANCH  23  25
ENDBRANCH  16  23
ENDBRANCH   3   5
ENDBRANCH   2   3
TORSDOF 8
ENDMDL
MODEL       10
REMARK 921   NORMALIZED FREE ENERGY PREDICTED BY IDOCK:   -7.24 KCAL/MOL
REMARK 922        TOTAL FREE ENERGY PREDICTED BY IDOCK:  -12.17 KCAL/MOL
REMARK 923 INTER-LIGAND FREE ENERGY PREDICTED BY IDOCK:  -10.56 KCAL/MOL
REMARK 924 INTRA-LIGAND FREE ENERGY PREDICTED BY IDOCK:   -1.61 KCAL/MOL
REMARK 927      BINDING AFFINITY PREDICTED BY RF-SCORE:    0.00 PKD
ROOT
HETATM    1  C   UNL     1     -10.266  20.057  68.605  1.00  0.00    -0.320 C  
HETATM    2  O   UNL     1      -9.470  19.890  67.431  1.00  0.00    -0.326 OA 
ENDROOT
BRANCH   2   3
HETATM    3  C   UNL     1     -10.107  19.274  66.399  1.00  0.00    -0.429 C  
HETATM    4  O   UNL     1     -10.771  19.832  65.534  1.00  0.00    -0.479 OA 
BRANCH   3   5
HETATM    5  C   UNL     1      -9.860  17.811  66.439  1.00  0.00    -0.328 A  
HETATM    6  C   UNL     1     -10.635  16.902  65.689  1.00  0.00    -0.231 A  
HETATM    7  C   UNL     1     -10.409  15.520  65.765  1.00  0.00    -0.384 A  
HETATM    8  C   UNL     1      -9.408  15.043  66.595  1.00  0.00    -0.290 A  
HETATM    9  C   UNL     1      -8.648  15.960  67.331  1.00  0.00    -0.172 A  
HETATM   10  C   UNL     1      -8.837  17.330  67.266  1.00  0.00    -0.230 A  
HETATM   11  N   UNL     1      -7.716  15.301  68.118  1.00  0.00    -0.114 N  
HETATM   12  H   UNL     1      -7.060  15.770  68.743  1.00  0.00     0.000 HD 
HETATM   13  C   UNL     1      -7.784  13.926  67.952  1.00  0.00    -0.160 C  
HETATM   14  O   UNL     1      -7.045  13.116  68.479  1.00  0.00    -0.093 OA 
HETATM   15  C   UNL     1      -8.907  13.695  66.955  1.00  0.00    -0.233 C  
HETATM   16  C   UNL     1      -9.313  12.466  66.552  1.00  0.00    -0.233 C  
BRANCH  16  17
HETATM   17  C   UNL     1     -10.381  12.345  65.537  1.00  0.00    -0.298 A  
HETATM   18  C   UNL     1     -12.393  12.272  63.596  1.00  0.00    -0.664 A  
HETATM   19  C   UNL     1     -10.053  12.124  64.192  1.00  0.00    -0.335 A  
HETATM   20  C   UNL     1     -11.725  12.503  65.901  1.00  0.00    -0.480 A  
HETATM   21  C   UNL     1     -11.060  12.093  63.225  1.00  0.00    -0.408 A  
HETATM   22  C   UNL     1     -12.727  12.471  64.934  1.00  0.00    -0.371 A  
ENDBRANCH  16  17
BRANCH  16  23
HETATM   23  N   UNL     1      -8.843  11.216  66.968  1.00  0.00    -0.146 NA 
HETATM   24  H   UNL     1      -7.954  10.865  66.609  1.00  0.00     0.000 HD 
BRANCH  23  25
HETATM   25  C   UNL     1      -9.593  10.427  67.888  1.00  0.00    -0.142 A  
HETATM   26  C   UNL     1     -10.805   8.754  69.859  1.00  0.00    -0.206 A  
HETATM   27  C   UNL     1     -10.146  10.964  69.044  1.00  0.00    -0.212 A  
HETATM   28  C   UNL     1      -9.842   9.083  67.622  1.00  0.00    -0.220 A  
HETATM   29  C   UNL     1     -10.722  10.141  70.015  1.00  0.00    -0.356 A  
HETATM   30  C   UNL     1     -10.436   8.261  68.595  1.00  0.00    -0.199 A  
BRANCH  26  31
HETATM   31  N   UNL     1     -11.191   7.878  70.952  1.00  0.00    -0.267 N  
HETATM   32  C   UNL     1     -12.350   7.002  70.761  1.00  0.00    -0.258 C  
HETATM   33  C   UNL     1     -10.445   7.790  72.151  1.00  0.00    -0.231 C  
HETATM   34  O   UNL     1      -9.481   8.505  72.447  1.00  0.00    -0.273 OA 
BRANCH  33  35
HETATM   35  C   UNL     1     -10.904   6.810  73.242  1.00  0.00    -0.272 C  
BRANCH  35  36
HETATM   36  N   UNL     1      -9.878   5.842  73.685  1.00  0.00    -0.162 NA 
HETATM   37  C   UNL     1     -10.412   4.689  74.446  1.00  0.00    -0.282 C  
HETATM   38  C   UNL     1     -11.032   3.524  73.624  1.00  0.00    -0.238 C  
HETATM   39  N   UNL     1     -10.296   3.121  72.407  1.00  0.00    -0.122 NA 
HETATM   40  C   UNL     1      -9.139   2.283  72.717  1.00  0.00    -0.074 C  
HETATM   41  C   UNL     1      -9.896   4.323  71.658  1.00  0.00    -0.187 C  
HETATM   42  C   UNL     1      -9.126   5.355  72.513  1.00  0.00    -0.136 C  
ENDBRANCH  35  36
ENDBRANCH  33  35
ENDBRANCH  26  31
ENDBRANCH  23  25
ENDBRANCH  16  23
ENDBRANCH   3   5
ENDBRANCH   2   3
TORSDOF 8
ENDMDL
MODEL       11
REMARK 921   NORMALIZED FREE ENERGY PREDICTED BY IDOCK:   -7.12 KCAL/MOL
REMARK 922        TOTAL FREE ENERGY PREDICTED BY IDOCK:  -11.99 KCAL/MOL
REMARK 923 INTER-LIGAND FREE ENERGY PREDICTED BY IDOCK:  -10.19 KCAL/MOL
REMARK 924 INTRA-LIGAND FREE ENERGY PREDICTED BY IDOCK:   -1.79 KCAL/MOL
REMARK 927      BINDING AFFINITY PREDICTED BY RF-SCORE:    0.00 PKD
ROOT
HETATM    1  C   UNL     1      -7.792   4.690  64.309  1.00  0.00    -0.087 C  
HETATM    2  O   UNL     1      -6.854   5.761  64.419  1.00  0.00    -0.047 OA 
ENDROOT
BRANCH   2   3
HETATM    3  C   UNL     1      -6.989   6.731  63.475  1.00  0.00    -0.056 C  
HETATM    4  O   UNL     1      -6.524   6.695  62.343  1.00  0.00    -0.037 OA 
BRANCH   3   5
HETATM    5  C   UNL     1      -7.819   7.846  63.996  1.00  0.00    -0.138 A  
HETATM    6  C   UNL     1      -8.040   8.032  65.376  1.00  0.00    -0.135 A  
HETATM    7  C   UNL     1      -8.853   9.073  65.849  1.00  0.00    -0.210 A  
HETATM    8  C   UNL     1      -9.451   9.930  64.939  1.00  0.00    -0.355 A  
HETATM    9  C   UNL     1      -9.219   9.730  63.573  1.00  0.00    -0.184 A  
HETATM   10  C   UNL     1      -8.410   8.723  63.077  1.00  0.00    -0.175 A  
HETATM   11  N   UNL     1      -9.915  10.664  62.819  1.00  0.00    -0.716 N  
HETATM   12  H   UNL     1      -9.900  10.703  61.800  1.00  0.00     0.000 HD 
HETATM   13  C   UNL     1     -10.634  11.538  63.621  1.00  0.00    -0.429 C  
HETATM   14  O   UNL     1     -11.285  12.485  63.221  1.00  0.00    -0.452 OA 
HETATM   15  C   UNL     1     -10.372  11.086  65.047  1.00  0.00    -0.360 C  
HETATM   16  C   UNL     1     -10.930  11.670  66.135  1.00  0.00    -0.288 C  
BRANCH  16  17
HETATM   17  C   UNL     1     -10.572  11.192  67.488  1.00  0.00    -0.258 A  
HETATM   18  C   UNL     1      -9.849  10.150  69.980  1.00  0.00    -0.179 A  
HETATM   19  C   UNL     1      -9.287  11.418  67.998  1.00  0.00    -0.171 A  
HETATM   20  C   UNL     1     -11.496  10.463  68.248  1.00  0.00    -0.218 A  
HETATM   21  C   UNL     1      -8.928  10.892  69.241  1.00  0.00     0.012 A  
HETATM   22  C   UNL     1     -11.136   9.941  69.488  1.00  0.00    -0.255 A  
ENDBRANCH  16  17
BRANCH  16  23
HETATM   23  N   UNL     1     -11.844  12.730  66.180  1.00  0.00    -0.409 NA 
HETATM   24  H   UNL     1     -12.829  12.556  65.979  1.00  0.00     0.000 HD 
BRANCH  23  25
HETATM   25  C   UNL     1     -11.411  14.048  66.504  1.00  0.00    -0.336 A  
HETATM   26  C   UNL     1     -10.277  16.548  67.291  1.00  0.00    -0.287 A  
HETATM   27  C   UNL     1     -10.739  14.851  65.591  1.00  0.00    -0.352 A  
HETATM   28  C   UNL     1     -11.701  14.597  67.750  1.00  0.00    -0.386 A  
HETATM   29  C   UNL     1     -10.169  16.066  65.983  1.00  0.00    -0.360 A  
HETATM   30  C   UNL     1     -11.139  15.826  68.137  1.00  0.00    -0.341 A  
BRANCH  26  31
HETATM   31  N   UNL     1      -9.503  17.685  67.759  1.00  0.00    -0.257 N  
HETATM   32  C   UNL     1     -10.012  19.030  67.482  1.00  0.00    -0.349 C  
HETATM   33  C   UNL     1      -8.328  17.533  68.533  1.00  0.00    -0.274 C  
HETATM   34  O   UNL     1      -7.777  16.457  68.793  1.00  0.00    -0.188 OA 
BRANCH  33  35
HETATM   35  C   UNL     1      -7.590  18.791  69.018  1.00  0.00    -0.222 C  
BRANCH  35  36
HETATM   36  N   UNL     1      -6.271  19.024  68.391  1.00  0.00    -0.219 NA 
HETATM   37  C   UNL     1      -6.092  18.363  67.078  1.00  0.00    -0.164 C  
HETATM   38  C   UNL     1      -6.710  19.070  65.840  1.00  0.00    -0.249 C  
HETATM   39  N   UNL     1      -6.541  20.538  65.775  1.00  0.00    -0.235 NA 
HETATM   40  C   UNL     1      -5.203  20.918  65.322  1.00  0.00    -0.198 C  
HETATM   41  C   UNL     1      -6.841  21.122  67.092  1.00  0.00    -0.318 C  
HETATM   42  C   UNL     1      -6.048  20.475  68.249  1.00  0.00    -0.311 C  
ENDBRANCH  35  36
ENDBRANCH  33  35
ENDBRANCH  26  31
ENDBRANCH  23  25
ENDBRANCH  16  23
ENDBRANCH   3   5
ENDBRANCH   2   3
TORSDOF 8
ENDMDL
MODEL       12
REMARK 921   NORMALIZED FREE ENERGY PREDICTED BY IDOCK:   -6.95 KCAL/MOL
REMARK 922        TOTAL FREE ENERGY PREDICTED BY IDOCK:  -11.74 KCAL/MOL
REMARK 923 INTER-LIGAND FREE ENERGY PREDICTED BY IDOCK:  -10.80 KCAL/MOL
REMARK 924 INTRA-LIGAND FREE ENERGY PREDICTED BY IDOCK:   -0.94 KCAL/MOL
REMARK 927      BINDING AFFINITY PREDICTED BY RF-SCORE:    0.00 PKD
ROOT
HETATM    1  C   UNL     1      -6.095  20.375  68.833  1.00  0.00    -0.337 C  
HETATM    2  O   UNL     1      -6.727  19.853  67.664  1.00  0.00    -0.226 OA 
ENDROOT
BRANCH   2   3
HETATM    3  C   UNL     1      -8.044  20.175  67.542  1.00  0.00    -0.320 C  
HETATM    4  O   UNL     1      -8.488  21.295  67.325  1.00  0.00    -0.055 OA 
BRANCH   3   5
HETATM    5  C   UNL     1      -8.887  18.961  67.677  1.00  0.00    -0.312 A  
HETATM    6  C   UNL     1      -9.444  18.570  68.912  1.00  0.00    -0.277 A  
HETATM    7  C   UNL     1     -10.211  17.402  69.027  1.00  0.00    -0.317 A  
HETATM    8  C   UNL     1     -10.421  16.618  67.905  1.00  0.00    -0.322 A  
HETATM    9  C   UNL     1      -9.862  17.022  66.687  1.00  0.00    -0.290 A  
HETATM   10  C   UNL     1      -9.114  18.177  66.538  1.00  0.00    -0.287 A  
HETATM   11  N   UNL     1     -10.156  16.106  65.687  1.00  0.00    -0.353 N  
HETATM   12  H   UNL     1      -9.844  16.193  64.720  1.00  0.00     0.000 HD 
HETATM   13  C   UNL     1     -10.929  15.057  66.164  1.00  0.00    -0.334 C  
HETATM   14  O   UNL     1     -11.373  14.148  65.489  1.00  0.00    -0.308 OA 
HETATM   15  C   UNL     1     -11.124  15.340  67.643  1.00  0.00    -0.323 C  
HETATM   16  C   UNL     1     -11.803  14.519  68.482  1.00  0.00    -0.320 C  
BRANCH  16  17
HETATM   17  C   UNL     1     -11.985  14.907  69.897  1.00  0.00    -0.376 A  
HETATM   18  C   UNL     1     -12.301  15.790  72.532  1.00  0.00    -0.550 A  
HETATM   19  C   UNL     1     -13.257  15.253  70.375  1.00  0.00    -0.171 A  
HETATM   20  C   UNL     1     -10.882  14.982  70.758  1.00  0.00    -0.112 A  
HETATM   21  C   UNL     1     -13.410  15.698  71.689  1.00  0.00    -0.543 A  
HETATM   22  C   UNL     1     -11.039  15.426  72.069  1.00  0.00    -0.199 A  
ENDBRANCH  16  17
BRANCH  16  23
HETATM   23  N   UNL     1     -12.403  13.287  68.196  1.00  0.00    -0.083 NA 
HETATM   24  H   UNL     1     -13.071  13.217  67.428  1.00  0.00     0.000 HD 
BRANCH  23  25
HETATM   25  C   UNL     1     -12.089  12.131  68.967  1.00  0.00    -0.153 A  
HETATM   26  C   UNL     1     -11.187   9.975  70.609  1.00  0.00    -0.350 A  
HETATM   27  C   UNL     1     -12.635  11.909  70.225  1.00  0.00    -0.091 A  
HETATM   28  C   UNL     1     -11.250  11.146  68.449  1.00  0.00    -0.325 A  
HETATM   29  C   UNL     1     -12.180  10.864  71.034  1.00  0.00    -0.464 A  
HETATM   30  C   UNL     1     -10.806  10.088  69.260  1.00  0.00    -0.261 A  
BRANCH  26  31
HETATM   31  N   UNL     1     -10.553   9.037  71.519  1.00  0.00    -0.320 N  
HETATM   32  C   UNL     1      -9.099   8.877  71.448  1.00  0.00    -0.248 C  
HETATM   33  C   UNL     1     -11.280   8.341  72.515  1.00  0.00    -0.376 C  
HETATM   34  O   UNL     1     -12.509   8.357  72.645  1.00  0.00    -0.349 OA 
BRANCH  33  35
HETATM   35  C   UNL     1     -10.525   7.394  73.461  1.00  0.00    -0.345 C  
BRANCH  35  36
HETATM   36  N   UNL     1     -10.835   5.959  73.290  1.00  0.00    -0.264 NA 
HETATM   37  C   UNL     1     -10.854   5.500  71.882  1.00  0.00    -0.223 C  
HETATM   38  C   UNL     1      -9.482   5.194  71.218  1.00  0.00    -0.153 C  
HETATM   39  N   UNL     1      -8.504   4.461  72.051  1.00  0.00    -0.110 NA 
HETATM   40  C   UNL     1      -8.794   3.029  72.107  1.00  0.00    -0.082 C  
HETATM   41  C   UNL     1      -8.473   5.050  73.399  1.00  0.00    -0.110 C  
HETATM   42  C   UNL     1      -9.867   5.155  74.059  1.00  0.00    -0.169 C  
ENDBRANCH  35  36
ENDBRANCH  33  35
ENDBRANCH  26  31
ENDBRANCH  23  25
ENDBRANCH  16  23
ENDBRANCH   3   5
ENDBRANCH   2   3
TORSDOF 8
ENDMDL
MODEL       13
REMARK 921   NORMALIZED FREE ENERGY PREDICTED BY IDOCK:   -6.89 KCAL/MOL
REMARK 922        TOTAL FREE ENERGY PREDICTED BY IDOCK:  -11.65 KCAL/MOL
REMARK 923 INTER-LIGAND FREE ENERGY PREDICTED BY IDOCK:  -10.49 KCAL/MOL
REMARK 924 INTRA-LIGAND FREE ENERGY PREDICTED BY IDOCK:   -1.17 KCAL/MOL
REMARK 927      BINDING AFFINITY PREDICTED BY RF-SCORE:    0.00 PKD
ROOT
HETATM    1  C   UNL     1      -9.634   3.994  71.853  1.00  0.00    -0.151 C  
HETATM    2  O   UNL     1      -9.781   5.343  72.296  1.00  0.00    -0.154 OA 
ENDROOT
BRANCH   2   3
HETATM    3  C   UNL     1     -11.070   5.757  72.429  1.00  0.00    -0.281 C  
HETATM    4  O   UNL     1     -11.960   5.147  73.010  1.00  0.00    -0.231 OA 
BRANCH   3   5
HETATM    5  C   UNL     1     -11.254   7.086  71.794  1.00  0.00    -0.278 A  
HETATM    6  C   UNL     1     -10.594   7.441  70.600  1.00  0.00    -0.234 A  
HETATM    7  C   UNL     1     -10.754   8.713  70.031  1.00  0.00    -0.233 A  
HETATM    8  C   UNL     1     -11.574   9.635  70.658  1.00  0.00    -0.371 A  
HETATM    9  C   UNL     1     -12.223   9.265  71.843  1.00  0.00    -0.378 A  
HETATM   10  C   UNL     1     -12.097   8.013  72.420  1.00  0.00    -0.374 A  
HETATM   11  N   UNL     1     -12.977  10.319  72.337  1.00  0.00    -0.418 N  
HETATM   12  H   UNL     1     -13.527  10.277  73.194  1.00  0.00     0.000 HD 
HETATM   13  C   UNL     1     -12.891  11.438  71.521  1.00  0.00    -0.403 C  
HETATM   14  O   UNL     1     -13.496  12.479  71.690  1.00  0.00    -0.285 OA 
HETATM   15  C   UNL     1     -11.956  11.042  70.391  1.00  0.00    -0.459 C  
HETATM   16  C   UNL     1     -11.584  11.883  69.394  1.00  0.00    -0.325 C  
BRANCH  16  17
HETATM   17  C   UNL     1     -10.710  11.389  68.309  1.00  0.00    -0.240 A  
HETATM   18  C   UNL     1      -9.050  10.603  66.200  1.00  0.00    -0.190 A  
HETATM   19  C   UNL     1      -9.320  11.359  68.482  1.00  0.00    -0.180 A  
HETATM   20  C   UNL     1     -11.260  10.998  67.081  1.00  0.00    -0.290 A  
HETATM   21  C   UNL     1      -8.494  10.970  67.426  1.00  0.00    -0.132 A  
HETATM   22  C   UNL     1     -10.433  10.610  66.028  1.00  0.00    -0.250 A  
ENDBRANCH  16  17
BRANCH  16  23
HETATM   23  N   UNL     1     -11.929  13.227  69.217  1.00  0.00    -0.317 NA 
HETATM   24  H   UNL     1     -12.825  13.570  69.567  1.00  0.00     0.000 HD 
BRANCH  23  25
HETATM   25  C   UNL     1     -11.042  14.123  68.553  1.00  0.00    -0.255 A  
HETATM   26  C   UNL     1      -9.469  16.161  67.317  1.00  0.00    -0.226 A  
HETATM   27  C   UNL     1      -9.887  14.604  69.158  1.00  0.00    -0.130 A  
HETATM   28  C   UNL     1     -11.285  14.507  67.237  1.00  0.00    -0.341 A  
HETATM   29  C   UNL     1      -9.129  15.614  68.559  1.00  0.00    -0.196 A  
HETATM   30  C   UNL     1     -10.512  15.512  66.632  1.00  0.00    -0.299 A  
BRANCH  26  31
HETATM   31  N   UNL     1      -8.825  17.356  66.800  1.00  0.00    -0.242 N  
HETATM   32  C   UNL     1      -7.488  17.224  66.216  1.00  0.00    -0.319 C  
HETATM   33  C   UNL     1      -9.473  18.613  66.771  1.00  0.00    -0.316 C  
HETATM   34  O   UNL     1     -10.577  18.860  67.271  1.00  0.00    -0.417 OA 
BRANCH  33  35
HETATM   35  C   UNL     1      -8.732  19.818  66.172  1.00  0.00    -0.332 C  
BRANCH  35  36
HETATM   36  N   UNL     1      -8.255  20.813  67.156  1.00  0.00    -0.237 NA 
HETATM   37  C   UNL     1      -8.224  20.324  68.554  1.00  0.00     0.187 C  
HETATM   38  C   UNL     1      -7.008  19.452  68.973  1.00  0.00    -0.355 C  
HETATM   39  N   UNL     1      -5.685  19.903  68.491  1.00  0.00    -0.221 NA 
HETATM   40  C   UNL     1      -5.160  21.014  69.285  1.00  0.00    -0.324 C  
HETATM   41  C   UNL     1      -5.783  20.268  67.069  1.00  0.00    -0.166 C  
HETATM   42  C   UNL     1      -6.910  21.280  66.766  1.00  0.00    -0.124 C  
ENDBRANCH  35  36
ENDBRANCH  33  35
ENDBRANCH  26  31
ENDBRANCH  23  25
ENDBRANCH  16  23
ENDBRANCH   3   5
ENDBRANCH   2   3
TORSDOF 8
ENDMDL
MODEL       14
REMARK 921   NORMALIZED FREE ENERGY PREDICTED BY IDOCK:   -6.51 KCAL/MOL
REMARK 922        TOTAL FREE ENERGY PREDICTED BY IDOCK:  -11.09 KCAL/MOL
REMARK 923 INTER-LIGAND FREE ENERGY PREDICTED BY IDOCK:   -9.05 KCAL/MOL
REMARK 924 INTRA-LIGAND FREE ENERGY PREDICTED BY IDOCK:   -2.04 KCAL/MOL
REMARK 927      BINDING AFFINITY PREDICTED BY RF-SCORE:    0.00 PKD
ROOT
HETATM    1  C   UNL     1      -7.000  20.242  65.702  1.00  0.00    -0.266 C  
HETATM    2  O   UNL     1      -7.643  18.988  65.476  1.00  0.00    -0.460 OA 
ENDROOT
BRANCH   2   3
HETATM    3  C   UNL     1      -8.754  18.778  66.232  1.00  0.00    -0.233 C  
HETATM    4  O   UNL     1      -9.458  19.650  66.725  1.00  0.00    -0.326 OA 
BRANCH   3   5
HETATM    5  C   UNL     1      -9.027  17.324  66.357  1.00  0.00    -0.282 A  
HETATM    6  C   UNL     1      -8.037  16.411  66.777  1.00  0.00    -0.287 A  
HETATM    7  C   UNL     1      -8.303  15.037  66.858  1.00  0.00    -0.247 A  
HETATM    8  C   UNL     1      -9.561  14.570  66.515  1.00  0.00    -0.311 A  
HETATM    9  C   UNL     1     -10.532  15.491  66.102  1.00  0.00    -0.313 A  
HETATM   10  C   UNL     1     -10.305  16.854  66.027  1.00  0.00    -0.335 A  
HETATM   11  N   UNL     1     -11.714  14.841  65.780  1.00  0.00    -0.302 N  
HETATM   12  H   UNL     1     -12.555  15.314  65.447  1.00  0.00     0.000 HD 
HETATM   13  C   UNL     1     -11.614  13.470  65.965  1.00  0.00    -0.338 C  
HETATM   14  O   UNL     1     -12.518  12.672  65.811  1.00  0.00    -0.607 OA 
HETATM   15  C   UNL     1     -10.192  13.231  66.443  1.00  0.00    -0.292 C  
HETATM   16  C   UNL     1      -9.684  12.001  66.704  1.00  0.00    -0.208 C  
BRANCH  16  17
HETATM   17  C   UNL     1      -8.303  11.874  67.216  1.00  0.00    -0.169 A  
HETATM   18  C   UNL     1      -5.663  11.779  68.134  1.00  0.00    -0.047 A  
HETATM   19  C   UNL     1      -8.004  12.240  68.536  1.00  0.00    -0.107 A  
HETATM   20  C   UNL     1      -7.273  11.437  66.372  1.00  0.00     0.001 A  
HETATM   21  C   UNL     1      -6.684  12.196  68.989  1.00  0.00    -0.103 A  
HETATM   22  C   UNL     1      -5.957  11.394  66.828  1.00  0.00    -0.143 A  
ENDBRANCH  16  17
BRANCH  16  23
HETATM   23  N   UNL     1     -10.307  10.756  66.565  1.00  0.00    -0.238 NA 
HETATM   24  H   UNL     1     -10.667  10.470  65.654  1.00  0.00     0.000 HD 
BRANCH  23  25
HETATM   25  C   UNL     1     -10.444   9.884  67.683  1.00  0.00    -0.244 A  
HETATM   26  C   UNL     1     -10.408   8.222  70.005  1.00  0.00    -0.212 A  
HETATM   27  C   UNL     1     -11.062  10.283  68.862  1.00  0.00    -0.278 A  
HETATM   28  C   UNL     1     -10.001   8.566  67.605  1.00  0.00    -0.253 A  
HETATM   29  C   UNL     1     -11.028   9.476  70.002  1.00  0.00    -0.284 A  
HETATM   30  C   UNL     1      -9.982   7.751  68.750  1.00  0.00    -0.181 A  
BRANCH  26  31
HETATM   31  N   UNL     1     -10.172   7.483  71.233  1.00  0.00    -0.189 N  
HETATM   32  C   UNL     1      -8.838   7.549  71.836  1.00  0.00    -0.114 C  
HETATM   33  C   UNL     1     -11.200   6.774  71.900  1.00  0.00    -0.260 C  
HETATM   34  O   UNL     1     -12.348   6.607  71.470  1.00  0.00    -0.349 OA 
BRANCH  33  35
HETATM   35  C   UNL     1     -10.872   6.049  73.214  1.00  0.00    -0.252 C  
BRANCH  35  36
HETATM   36  N   UNL     1     -10.978   4.576  73.160  1.00  0.00    -0.252 NA 
HETATM   37  C   UNL     1     -10.323   3.957  71.986  1.00  0.00    -0.031 C  
HETATM   38  C   UNL     1      -8.783   3.757  72.058  1.00  0.00    -0.096 C  
HETATM   39  N   UNL     1      -8.250   3.260  73.345  1.00  0.00    -0.074 NA 
HETATM   40  C   UNL     1      -8.442   1.819  73.500  1.00  0.00    -0.054 C  
HETATM   41  C   UNL     1      -8.876   4.002  74.451  1.00  0.00    -0.094 C  
HETATM   42  C   UNL     1     -10.420   4.000  74.399  1.00  0.00    -0.225 C  
ENDBRANCH  35  36
ENDBRANCH  33  35
ENDBRANCH  26  31
ENDBRANCH  23  25
ENDBRANCH  16  23
ENDBRANCH   3   5
ENDBRANCH   2   3
TORSDOF 8
ENDMDL
MODEL       15
REMARK 921   NORMALIZED FREE ENERGY PREDICTED BY IDOCK:   -6.47 KCAL/MOL
REMARK 922        TOTAL FREE ENERGY PREDICTED BY IDOCK:  -11.04 KCAL/MOL
REMARK 923 INTER-LIGAND FREE ENERGY PREDICTED BY IDOCK:   -9.53 KCAL/MOL
REMARK 924 INTRA-LIGAND FREE ENERGY PREDICTED BY IDOCK:   -1.51 KCAL/MOL
REMARK 927      BINDING AFFINITY PREDICTED BY RF-SCORE:    0.00 PKD
ROOT
HETATM    1  C   UNL     1      -9.402   2.786  68.322  1.00  0.00    -0.200 C  
HETATM    2  O   UNL     1      -8.778   3.897  68.967  1.00  0.00    -0.084 OA 
ENDROOT
BRANCH   2   3
HETATM    3  C   UNL     1      -9.558   4.529  69.886  1.00  0.00    -0.199 C  
HETATM    4  O   UNL     1      -9.942   4.050  70.946  1.00  0.00    -0.183 OA 
BRANCH   3   5
HETATM    5  C   UNL     1      -9.861   5.912  69.443  1.00  0.00    -0.207 A  
HETATM    6  C   UNL     1      -9.332   6.448  68.250  1.00  0.00    -0.109 A  
HETATM    7  C   UNL     1      -9.603   7.769  67.863  1.00  0.00    -0.167 A  
HETATM    8  C   UNL     1     -10.403   8.559  68.672  1.00  0.00    -0.224 A  
HETATM    9  C   UNL     1     -10.920   8.010  69.851  1.00  0.00    -0.172 A  
HETATM   10  C   UNL     1     -10.684   6.707  70.252  1.00  0.00    -0.294 A  
HETATM   11  N   UNL     1     -11.673   8.951  70.539  1.00  0.00    -0.447 N  
HETATM   12  H   UNL     1     -12.138   8.773  71.429  1.00  0.00     0.000 HD 
HETATM   13  C   UNL     1     -11.715  10.164  69.867  1.00  0.00    -0.179 C  
HETATM   14  O   UNL     1     -12.349  11.141  70.219  1.00  0.00    -0.309 OA 
HETATM   15  C   UNL     1     -10.872   9.964  68.620  1.00  0.00    -0.244 C  
HETATM   16  C   UNL     1     -10.634  10.940  67.709  1.00  0.00    -0.217 C  
BRANCH  16  17
HETATM   17  C   UNL     1      -9.843  10.634  66.498  1.00  0.00    -0.250 A  
HETATM   18  C   UNL     1      -8.345  10.209  64.175  1.00  0.00    -0.168 A  
HETATM   19  C   UNL     1      -8.444  10.586  66.563  1.00  0.00    -0.139 A  
HETATM   20  C   UNL     1     -10.482  10.442  65.266  1.00  0.00    -0.178 A  
HETATM   21  C   UNL     1      -7.699  10.378  65.401  1.00  0.00    -0.136 A  
HETATM   22  C   UNL     1      -9.736  10.234  64.107  1.00  0.00    -0.357 A  
ENDBRANCH  16  17
BRANCH  16  23
HETATM   23  N   UNL     1     -11.055  12.274  67.735  1.00  0.00    -0.240 NA 
HETATM   24  H   UNL     1     -12.013  12.497  68.008  1.00  0.00     0.000 HD 
BRANCH  23  25
HETATM   25  C   UNL     1     -10.160  13.325  67.384  1.00  0.00    -0.233 A  
HETATM   26  C   UNL     1      -8.602  15.641  66.778  1.00  0.00    -0.274 A  
HETATM   27  C   UNL     1      -9.159  13.763  68.243  1.00  0.00    -0.195 A  
HETATM   28  C   UNL     1     -10.230  13.919  66.126  1.00  0.00    -0.307 A  
HETATM   29  C   UNL     1      -8.411  14.907  67.953  1.00  0.00    -0.149 A  
HETATM   30  C   UNL     1      -9.465  15.060  65.831  1.00  0.00    -0.313 A  
BRANCH  26  31
HETATM   31  N   UNL     1      -7.995  16.945  66.578  1.00  0.00    -0.264 N  
HETATM   32  C   UNL     1      -6.546  17.011  66.371  1.00  0.00    -0.166 C  
HETATM   33  C   UNL     1      -8.761  18.133  66.498  1.00  0.00    -0.268 C  
HETATM   34  O   UNL     1      -9.978  18.213  66.700  1.00  0.00    -0.323 OA 
BRANCH  33  35
HETATM   35  C   UNL     1      -8.041  19.467  66.247  1.00  0.00    -0.325 C  
BRANCH  35  36
HETATM   36  N   UNL     1      -7.918  20.345  67.431  1.00  0.00    -0.327 NA 
HETATM   37  C   UNL     1      -7.838  19.624  68.722  1.00  0.00    -0.297 C  
HETATM   38  C   UNL     1      -6.456  19.036  69.121  1.00  0.00    -0.286 C  
HETATM   39  N   UNL     1      -5.283  19.901  68.870  1.00  0.00    -0.191 NA 
HETATM   40  C   UNL     1      -5.135  20.937  69.892  1.00  0.00    -0.373 C  
HETATM   41  C   UNL     1      -5.391  20.491  67.527  1.00  0.00    -0.187 C  
HETATM   42  C   UNL     1      -6.734  21.212  67.275  1.00  0.00    -0.351 C  
ENDBRANCH  35  36
ENDBRANCH  33  35
ENDBRANCH  26  31
ENDBRANCH  23  25
ENDBRANCH  16  23
ENDBRANCH   3   5
ENDBRANCH   2   3
TORSDOF 8
ENDMDL
MODEL       16
REMARK 921   NORMALIZED FREE ENERGY PREDICTED BY IDOCK:   -6.27 KCAL/MOL
REMARK 922        TOTAL FREE ENERGY PREDICTED BY IDOCK:  -10.75 KCAL/MOL
REMARK 923 INTER-LIGAND FREE ENERGY PREDICTED BY IDOCK:   -9.05 KCAL/MOL
REMARK 924 INTRA-LIGAND FREE ENERGY PREDICTED BY IDOCK:   -1.70 KCAL/MOL
REMARK 927      BINDING AFFINITY PREDICTED BY RF-SCORE:    0.00 PKD
ROOT
HETATM    1  C   UNL     1      -9.797  20.155  67.465  1.00  0.00    -0.435 C  
HETATM    2  O   UNL     1      -9.914  18.743  67.288  1.00  0.00    -0.306 OA 
ENDROOT
BRANCH   2   3
HETATM    3  C   UNL     1     -10.442  18.365  66.093  1.00  0.00    -0.395 C  
HETATM    4  O   UNL     1     -10.890  19.120  65.239  1.00  0.00    -0.528 OA 
BRANCH   3   5
HETATM    5  C   UNL     1     -10.373  16.890  65.941  1.00  0.00    -0.327 A  
HETATM    6  C   UNL     1      -9.495  16.099  66.712  1.00  0.00    -0.256 A  
HETATM    7  C   UNL     1      -9.420  14.710  66.532  1.00  0.00    -0.319 A  
HETATM    8  C   UNL     1     -10.222  14.108  65.577  1.00  0.00    -0.371 A  
HETATM    9  C   UNL     1     -11.088  14.908  64.823  1.00  0.00    -0.383 A  
HETATM   10  C   UNL     1     -11.196  16.278  64.987  1.00  0.00    -0.181 A  
HETATM   11  N   UNL     1     -11.789  14.139  63.906  1.00  0.00    -0.679 N  
HETATM   12  H   UNL     1     -12.471  14.513  63.246  1.00  0.00     0.000 HD 
HETATM   13  C   UNL     1     -11.451  12.796  63.997  1.00  0.00    -0.417 C  
HETATM   14  O   UNL     1     -11.955  11.898  63.350  1.00  0.00    -0.483 OA 
HETATM   15  C   UNL     1     -10.397  12.720  65.089  1.00  0.00    -0.314 C  
HETATM   16  C   UNL     1      -9.780  11.570  65.458  1.00  0.00    -0.230 C  
BRANCH  16  17
HETATM   17  C   UNL     1      -8.804  11.588  66.569  1.00  0.00    -0.190 A  
HETATM   18  C   UNL     1      -6.963  11.463  68.670  1.00  0.00    -0.087 A  
HETATM   19  C   UNL     1      -7.429  11.588  66.299  1.00  0.00     0.118 A  
HETATM   20  C   UNL     1      -9.245  11.551  67.898  1.00  0.00    -0.168 A  
HETATM   21  C   UNL     1      -6.513  11.521  67.350  1.00  0.00    -0.094 A  
HETATM   22  C   UNL     1      -8.328  11.486  68.945  1.00  0.00    -0.005 A  
ENDBRANCH  16  17
BRANCH  16  23
HETATM   23  N   UNL     1      -9.940  10.287  64.923  1.00  0.00    -0.334 NA 
HETATM   24  H   UNL     1     -10.253  10.177  63.958  1.00  0.00     0.000 HD 
BRANCH  23  25
HETATM   25  C   UNL     1      -9.671   9.133  65.713  1.00  0.00    -0.229 A  
HETATM   26  C   UNL     1      -8.938   7.015  67.483  1.00  0.00    -0.117 A  
HETATM   27  C   UNL     1     -10.531   8.706  66.718  1.00  0.00    -0.298 A  
HETATM   28  C   UNL     1      -8.543   8.355  65.461  1.00  0.00    -0.201 A  
HETATM   29  C   UNL     1     -10.163   7.682  67.594  1.00  0.00    -0.277 A  
HETATM   30  C   UNL     1      -8.183   7.315  66.335  1.00  0.00    -0.120 A  
BRANCH  26  31
HETATM   31  N   UNL     1      -8.455   6.115  68.517  1.00  0.00    -0.114 N  
HETATM   32  C   UNL     1      -7.584   6.661  69.560  1.00  0.00    -0.095 C  
HETATM   33  C   UNL     1      -8.860   4.761  68.591  1.00  0.00    -0.099 C  
HETATM   34  O   UNL     1      -9.553   4.175  67.749  1.00  0.00    -0.171 OA 
BRANCH  33  35
HETATM   35  C   UNL     1      -8.331   3.888  69.738  1.00  0.00    -0.056 C  
BRANCH  35  36
HETATM   36  N   UNL     1      -9.367   3.353  70.648  1.00  0.00    -0.148 NA 
HETATM   37  C   UNL     1      -8.839   2.527  71.758  1.00  0.00    -0.075 C  
HETATM   38  C   UNL     1      -8.268   3.280  72.991  1.00  0.00    -0.080 C  
HETATM   39  N   UNL     1      -9.044   4.448  73.460  1.00  0.00    -0.106 NA 
HETATM   40  C   UNL     1     -10.213   4.052  74.245  1.00  0.00    -0.192 C  
HETATM   41  C   UNL     1      -9.436   5.269  72.303  1.00  0.00    -0.142 C  
HETATM   42  C   UNL     1     -10.160   4.470  71.196  1.00  0.00    -0.147 C  
ENDBRANCH  35  36
ENDBRANCH  33  35
ENDBRANCH  26  31
ENDBRANCH  23  25
ENDBRANCH  16  23
ENDBRANCH   3   5
ENDBRANCH   2   3
TORSDOF 8
ENDMDL
MODEL       17
REMARK 921   NORMALIZED FREE ENERGY PREDICTED BY IDOCK:   -6.27 KCAL/MOL
REMARK 922        TOTAL FREE ENERGY PREDICTED BY IDOCK:  -10.73 KCAL/MOL
REMARK 923 INTER-LIGAND FREE ENERGY PREDICTED BY IDOCK:   -8.61 KCAL/MOL
REMARK 924 INTRA-LIGAND FREE ENERGY PREDICTED BY IDOCK:   -2.12 KCAL/MOL
REMARK 927      BINDING AFFINITY PREDICTED BY RF-SCORE:    0.00 PKD
ROOT
HETATM    1  C   UNL     1     -11.143   2.542  73.663  1.00  0.00    -0.220 C  
HETATM    2  O   UNL     1     -11.154   3.969  73.642  1.00  0.00    -0.248 OA 
ENDROOT
BRANCH   2   3
HETATM    3  C   UNL     1      -9.921   4.545  73.659  1.00  0.00    -0.149 C  
HETATM    4  O   UNL     1      -9.084   4.413  74.543  1.00  0.00    -0.102 OA 
BRANCH   3   5
HETATM    5  C   UNL     1      -9.706   5.343  72.426  1.00  0.00    -0.180 A  
HETATM    6  C   UNL     1      -8.637   6.254  72.303  1.00  0.00    -0.118 A  
HETATM    7  C   UNL     1      -8.468   7.024  71.143  1.00  0.00    -0.119 A  
HETATM    8  C   UNL     1      -9.372   6.887  70.103  1.00  0.00    -0.159 A  
HETATM    9  C   UNL     1     -10.427   5.977  70.243  1.00  0.00    -0.242 A  
HETATM   10  C   UNL     1     -10.611   5.192  71.368  1.00  0.00    -0.207 A  
HETATM   11  N   UNL     1     -11.239   5.994  69.118  1.00  0.00    -0.350 N  
HETATM   12  H   UNL     1     -12.072   5.417  69.004  1.00  0.00     0.000 HD 
HETATM   13  C   UNL     1     -10.778   6.893  68.166  1.00  0.00    -0.205 C  
HETATM   14  O   UNL     1     -11.269   7.065  67.067  1.00  0.00    -0.328 OA 
HETATM   15  C   UNL     1      -9.541   7.528  68.777  1.00  0.00    -0.149 C  
HETATM   16  C   UNL     1      -8.814   8.495  68.166  1.00  0.00    -0.142 C  
BRANCH  16  17
HETATM   17  C   UNL     1      -7.593   9.016  68.819  1.00  0.00    -0.087 A  
HETATM   18  C   UNL     1      -5.310   9.898  70.172  1.00  0.00    -0.038 A  
HETATM   19  C   UNL     1      -6.347   8.434  68.549  1.00  0.00    -0.054 A  
HETATM   20  C   UNL     1      -7.679  10.058  69.752  1.00  0.00    -0.173 A  
HETATM   21  C   UNL     1      -5.210   8.874  69.229  1.00  0.00    -0.036 A  
HETATM   22  C   UNL     1      -6.543  10.495  70.429  1.00  0.00    -0.103 A  
ENDBRANCH  16  17
BRANCH  16  23
HETATM   23  N   UNL     1      -9.049   9.111  66.932  1.00  0.00    -0.132 NA 
HETATM   24  H   UNL     1      -9.000   8.559  66.074  1.00  0.00     0.000 HD 
BRANCH  23  25
HETATM   25  C   UNL     1      -9.357  10.500  66.860  1.00  0.00    -0.159 A  
HETATM   26  C   UNL     1      -9.882  13.302  67.036  1.00  0.00    -0.242 A  
HETATM   27  C   UNL     1      -8.459  11.432  66.355  1.00  0.00    -0.160 A  
HETATM   28  C   UNL     1     -10.610  10.964  67.254  1.00  0.00    -0.296 A  
HETATM   29  C   UNL     1      -8.710  12.803  66.458  1.00  0.00     0.015 A  
HETATM   30  C   UNL     1     -10.865  12.343  67.342  1.00  0.00    -0.273 A  
BRANCH  26  31
HETATM   31  N   UNL     1     -10.046  14.710  67.350  1.00  0.00    -0.232 N  
HETATM   32  C   UNL     1      -9.813  15.145  68.729  1.00  0.00    -0.223 C  
HETATM   33  C   UNL     1     -10.344  15.677  66.360  1.00  0.00    -0.296 C  
HETATM   34  O   UNL     1     -10.606  15.430  65.176  1.00  0.00    -0.390 OA 
BRANCH  33  35
HETATM   35  C   UNL     1     -10.465  17.152  66.772  1.00  0.00    -0.263 C  
BRANCH  35  36
HETATM   36  N   UNL     1      -9.558  18.077  66.060  1.00  0.00    -0.524 NA 
HETATM   37  C   UNL     1      -9.959  19.501  66.128  1.00  0.00    -0.444 C  
HETATM   38  C   UNL     1      -9.595  20.278  67.424  1.00  0.00    -0.432 C  
HETATM   39  N   UNL     1      -8.244  20.033  67.974  1.00  0.00    -0.262 NA 
HETATM   40  C   UNL     1      -7.212  20.768  67.244  1.00  0.00    -0.360 C  
HETATM   41  C   UNL     1      -7.971  18.587  67.967  1.00  0.00    -0.276 C  
HETATM   42  C   UNL     1      -8.189  17.923  66.588  1.00  0.00    -0.258 C  
ENDBRANCH  35  36
ENDBRANCH  33  35
ENDBRANCH  26  31
ENDBRANCH  23  25
ENDBRANCH  16  23
ENDBRANCH   3   5
ENDBRANCH   2   3
TORSDOF 8
ENDMDL
MODEL       18
REMARK 921   NORMALIZED FREE ENERGY PREDICTED BY IDOCK:   -6.23 KCAL/MOL
REMARK 922        TOTAL FREE ENERGY PREDICTED BY IDOCK:  -10.68 KCAL/MOL
REMARK 923 INTER-LIGAND FREE ENERGY PREDICTED BY IDOCK:   -9.23 KCAL/MOL
REMARK 924 INTRA-LIGAND FREE ENERGY PREDICTED BY IDOCK:   -1.45 KCAL/MOL
REMARK 927      BINDING AFFINITY PREDICTED BY RF-SCORE:    0.00 PKD
ROOT
HETATM    1  C   UNL     1      -9.378   2.300  64.756  1.00  0.00    -0.116 C  
HETATM    2  O   UNL     1      -9.566   3.207  65.842  1.00  0.00    -0.097 OA 
ENDROOT
BRANCH   2   3
HETATM    3  C   UNL     1     -10.366   4.270  65.560  1.00  0.00    -0.188 C  
HETATM    4  O   UNL     1     -11.330   4.258  64.804  1.00  0.00    -0.302 OA 
BRANCH   3   5
HETATM    5  C   UNL     1      -9.930   5.463  66.328  1.00  0.00    -0.199 A  
HETATM    6  C   UNL     1     -10.569   5.858  67.522  1.00  0.00    -0.347 A  
HETATM    7  C   UNL     1     -10.164   7.007  68.217  1.00  0.00    -0.206 A  
HETATM    8  C   UNL     1      -9.120   7.767  67.717  1.00  0.00    -0.136 A  
HETATM    9  C   UNL     1      -8.497   7.360  66.531  1.00  0.00    -0.128 A  
HETATM   10  C   UNL     1      -8.863   6.223  65.831  1.00  0.00    -0.148 A  
HETATM   11  N   UNL     1      -7.497   8.251  66.174  1.00  0.00    -0.080 N  
HETATM   12  H   UNL     1      -6.916   8.157  65.340  1.00  0.00     0.000 HD 
HETATM   13  C   UNL     1      -7.381   9.287  67.090  1.00  0.00    -0.091 C  
HETATM   14  O   UNL     1      -6.549  10.173  67.048  1.00  0.00    -0.071 OA 
HETATM   15  C   UNL     1      -8.451   9.022  68.135  1.00  0.00    -0.129 C  
HETATM   16  C   UNL     1      -8.688   9.838  69.192  1.00  0.00    -0.155 C  
BRANCH  16  17
HETATM   17  C   UNL     1      -9.717   9.467  70.186  1.00  0.00    -0.289 A  
HETATM   18  C   UNL     1     -11.697   8.640  71.979  1.00  0.00    -0.439 A  
HETATM   19  C   UNL     1      -9.381   8.660  71.282  1.00  0.00    -0.288 A  
HETATM   20  C   UNL     1     -11.047   9.875  70.014  1.00  0.00    -0.335 A  
HETATM   21  C   UNL     1     -10.373   8.245  72.172  1.00  0.00    -0.370 A  
HETATM   22  C   UNL     1     -12.034   9.460  70.905  1.00  0.00    -0.351 A  
ENDBRANCH  16  17
BRANCH  16  23
HETATM   23  N   UNL     1      -8.063  11.048  69.512  1.00  0.00    -0.373 NA 
HETATM   24  H   UNL     1      -7.360  11.074  70.252  1.00  0.00     0.000 HD 
BRANCH  23  25
HETATM   25  C   UNL     1      -8.398  12.245  68.815  1.00  0.00     0.098 A  
HETATM   26  C   UNL     1      -9.211  14.745  67.700  1.00  0.00    -0.191 A  
HETATM   27  C   UNL     1      -7.497  13.292  68.667  1.00  0.00    -0.099 A  
HETATM   28  C   UNL     1      -9.643  12.379  68.207  1.00  0.00    -0.211 A  
HETATM   29  C   UNL     1      -7.901  14.520  68.137  1.00  0.00    -0.135 A  
HETATM   30  C   UNL     1     -10.042  13.611  67.661  1.00  0.00    -0.242 A  
BRANCH  26  31
HETATM   31  N   UNL     1      -9.693  16.074  67.364  1.00  0.00    -0.230 N  
HETATM   32  C   UNL     1      -9.583  16.520  65.973  1.00  0.00    -0.290 C  
HETATM   33  C   UNL     1     -10.330  16.910  68.313  1.00  0.00    -0.335 C  
HETATM   34  O   UNL     1     -10.441  16.665  69.520  1.00  0.00    -0.305 OA 
BRANCH  33  35
HETATM   35  C   UNL     1     -10.843  18.286  67.864  1.00  0.00    -0.206 C  
BRANCH  35  36
HETATM   36  N   UNL     1     -10.054  19.438  68.351  1.00  0.00    -0.423 NA 
HETATM   37  C   UNL     1      -8.753  19.075  68.960  1.00  0.00    -0.169 C  
HETATM   38  C   UNL     1      -7.574  18.786  67.990  1.00  0.00    -0.261 C  
HETATM   39  N   UNL     1      -7.435  19.703  66.839  1.00  0.00    -0.229 NA 
HETATM   40  C   UNL     1      -6.811  20.970  67.217  1.00  0.00    -0.369 C  
HETATM   41  C   UNL     1      -8.757  19.924  66.230  1.00  0.00    -0.336 C  
HETATM   42  C   UNL     1      -9.833  20.383  67.239  1.00  0.00    -0.456 C  
ENDBRANCH  35  36
ENDBRANCH  33  35
ENDBRANCH  26  31
ENDBRANCH  23  25
ENDBRANCH  16  23
ENDBRANCH   3   5
ENDBRANCH   2   3
TORSDOF 8
ENDMDL
MODEL       19
REMARK 921   NORMALIZED FREE ENERGY PREDICTED BY IDOCK:   -6.10 KCAL/MOL
REMARK 922        TOTAL FREE ENERGY PREDICTED BY IDOCK:  -10.50 KCAL/MOL
REMARK 923 INTER-LIGAND FREE ENERGY PREDICTED BY IDOCK:   -8.97 KCAL/MOL
REMARK 924 INTRA-LIGAND FREE ENERGY PREDICTED BY IDOCK:   -1.53 KCAL/MOL
REMARK 927      BINDING AFFINITY PREDICTED BY RF-SCORE:    0.00 PKD
ROOT
HETATM    1  C   UNL     1      -6.735  19.648  68.910  1.00  0.00    -0.318 C  
HETATM    2  O   UNL     1      -7.844  18.805  68.598  1.00  0.00    -0.317 OA 
ENDROOT
BRANCH   2   3
HETATM    3  C   UNL     1      -7.992  18.534  67.273  1.00  0.00    -0.236 C  
HETATM    4  O   UNL     1      -7.966  19.358  66.368  1.00  0.00    -0.278 OA 
BRANCH   3   5
HETATM    5  C   UNL     1      -8.161  17.074  67.060  1.00  0.00    -0.234 A  
HETATM    6  C   UNL     1      -9.235  16.547  66.313  1.00  0.00    -0.345 A  
HETATM    7  C   UNL     1      -9.396  15.163  66.150  1.00  0.00    -0.346 A  
HETATM    8  C   UNL     1      -8.484  14.302  66.737  1.00  0.00    -0.051 A  
HETATM    9  C   UNL     1      -7.424  14.844  67.474  1.00  0.00    -0.200 A  
HETATM   10  C   UNL     1      -7.229  16.204  67.640  1.00  0.00    -0.169 A  
HETATM   11  N   UNL     1      -6.633  13.835  68.004  1.00  0.00    -0.124 N  
HETATM   12  H   UNL     1      -5.809  13.998  68.583  1.00  0.00     0.000 HD 
HETATM   13  C   UNL     1      -7.100  12.577  67.651  1.00  0.00    -0.139 C  
HETATM   14  O   UNL     1      -6.563  11.523  67.934  1.00  0.00    -0.060 OA 
HETATM   15  C   UNL     1      -8.343  12.829  66.816  1.00  0.00     0.010 C  
HETATM   16  C   UNL     1      -9.118  11.840  66.304  1.00  0.00    -0.206 C  
BRANCH  16  17
HETATM   17  C   UNL     1     -10.280  12.185  65.458  1.00  0.00    -0.294 A  
HETATM   18  C   UNL     1     -12.519  12.684  63.859  1.00  0.00    -0.498 A  
HETATM   19  C   UNL     1     -11.501  12.541  66.048  1.00  0.00    -0.423 A  
HETATM   20  C   UNL     1     -10.187  12.107  64.062  1.00  0.00    -0.396 A  
HETATM   21  C   UNL     1     -12.618  12.785  65.247  1.00  0.00    -0.460 A  
HETATM   22  C   UNL     1     -11.303  12.352  63.265  1.00  0.00    -0.399 A  
ENDBRANCH  16  17
BRANCH  16  23
HETATM   23  N   UNL     1      -8.973  10.457  66.455  1.00  0.00    -0.144 NA 
HETATM   24  H   UNL     1      -8.506   9.914  65.727  1.00  0.00     0.000 HD 
BRANCH  23  25
HETATM   25  C   UNL     1      -9.470   9.798  67.617  1.00  0.00    -0.144 A  
HETATM   26  C   UNL     1     -10.149   8.416  70.022  1.00  0.00    -0.192 A  
HETATM   27  C   UNL     1      -9.818  10.491  68.769  1.00  0.00    -0.191 A  
HETATM   28  C   UNL     1      -9.673   8.420  67.610  1.00  0.00    -0.201 A  
HETATM   29  C   UNL     1     -10.133   9.813  69.950  1.00  0.00    -0.288 A  
HETATM   30  C   UNL     1     -10.005   7.742  68.796  1.00  0.00    -0.181 A  
BRANCH  26  31
HETATM   31  N   UNL     1     -10.250   7.712  71.289  1.00  0.00    -0.188 N  
HETATM   32  C   UNL     1      -9.213   7.945  72.297  1.00  0.00    -0.165 C  
HETATM   33  C   UNL     1     -11.349   6.878  71.605  1.00  0.00    -0.260 C  
HETATM   34  O   UNL     1     -12.259   6.568  70.825  1.00  0.00    -0.328 OA 
BRANCH  33  35
HETATM   35  C   UNL     1     -11.396   6.199  72.982  1.00  0.00    -0.112 C  
BRANCH  35  36
HETATM   36  N   UNL     1     -11.068   4.757  72.981  1.00  0.00    -0.273 NA 
HETATM   37  C   UNL     1     -10.117   4.346  71.923  1.00  0.00    -0.174 C  
HETATM   38  C   UNL     1      -8.607   4.601  72.190  1.00  0.00    -0.119 C  
HETATM   39  N   UNL     1      -8.124   4.290  73.552  1.00  0.00    -0.090 NA 
HETATM   40  C   UNL     1      -7.914   2.856  73.747  1.00  0.00    -0.064 C  
HETATM   41  C   UNL     1      -9.074   4.827  74.541  1.00  0.00    -0.110 C  
HETATM   42  C   UNL     1     -10.533   4.377  74.303  1.00  0.00    -0.260 C  
ENDBRANCH  35  36
ENDBRANCH  33  35
ENDBRANCH  26  31
ENDBRANCH  23  25
ENDBRANCH  16  23
ENDBRANCH   3   5
ENDBRANCH   2   3
TORSDOF 8
ENDMDL
MODEL       20
REMARK 921   NORMALIZED FREE ENERGY PREDICTED BY IDOCK:   -5.92 KCAL/MOL
REMARK 922        TOTAL FREE ENERGY PREDICTED BY IDOCK:  -10.22 KCAL/MOL
REMARK 923 INTER-LIGAND FREE ENERGY PREDICTED BY IDOCK:   -8.42 KCAL/MOL
REMARK 924 INTRA-LIGAND FREE ENERGY PREDICTED BY IDOCK:   -1.80 KCAL/MOL
REMARK 927      BINDING AFFINITY PREDICTED BY RF-SCORE:    0.00 PKD
ROOT
HETATM    1  C   UNL     1     -11.196   2.268  62.603  1.00  0.00    -0.193 C  
HETATM    2  O   UNL     1     -10.682   3.306  63.438  1.00  0.00    -0.227 OA 
ENDROOT
BRANCH   2   3
HETATM    3  C   UNL     1      -9.711   2.907  64.302  1.00  0.00    -0.149 C  
HETATM    4  O   UNL     1      -9.145   1.821  64.290  1.00  0.00    -0.102 OA 
BRANCH   3   5
HETATM    5  C   UNL     1      -9.396   3.995  65.262  1.00  0.00    -0.163 A  
HETATM    6  C   UNL     1     -10.034   4.093  66.516  1.00  0.00    -0.165 A  
HETATM    7  C   UNL     1      -9.747   5.146  67.397  1.00  0.00    -0.172 A  
HETATM    8  C   UNL     1      -8.822   6.107  67.024  1.00  0.00    -0.110 A  
HETATM    9  C   UNL     1      -8.198   5.993  65.776  1.00  0.00    -0.136 A  
HETATM   10  C   UNL     1      -8.448   4.957  64.892  1.00  0.00    -0.144 A  
HETATM   11  N   UNL     1      -7.326   7.052  65.568  1.00  0.00    -0.076 N  
HETATM   12  H   UNL     1      -6.769   7.177  64.722  1.00  0.00     0.000 HD 
HETATM   13  C   UNL     1      -7.305   7.919  66.650  1.00  0.00    -0.088 C  
HETATM   14  O   UNL     1      -6.589   8.897  66.753  1.00  0.00    -0.063 OA 
HETATM   15  C   UNL     1      -8.296   7.344  67.647  1.00  0.00    -0.118 C  
HETATM   16  C   UNL     1      -8.591   7.928  68.835  1.00  0.00    -0.132 C  
BRANCH  16  17
HETATM   17  C   UNL     1      -9.532   7.264  69.763  1.00  0.00    -0.149 A  
HETATM   18  C   UNL     1     -11.289   6.129  71.618  1.00  0.00    -0.341 A  
HETATM   19  C   UNL     1     -10.906   7.525  69.680  1.00  0.00    -0.210 A  
HETATM   20  C   UNL     1      -9.051   6.412  70.766  1.00  0.00    -0.151 A  
HETATM   21  C   UNL     1     -11.780   6.960  70.611  1.00  0.00    -0.417 A  
HETATM   22  C   UNL     1      -9.926   5.849  71.693  1.00  0.00    -0.213 A  
ENDBRANCH  16  17
BRANCH  16  23
HETATM   23  N   UNL     1      -8.107   9.134  69.354  1.00  0.00    -0.098 NA 
HETATM   24  H   UNL     1      -7.428   9.120  70.116  1.00  0.00     0.000 HD 
BRANCH  23  25
HETATM   25  C   UNL     1      -8.554  10.382  68.831  1.00  0.00    -0.149 A  
HETATM   26  C   UNL     1      -9.540  12.958  68.092  1.00  0.00    -0.223 A  
HETATM   27  C   UNL     1      -7.689  11.449  68.623  1.00  0.00    -0.137 A  
HETATM   28  C   UNL     1      -9.885  10.551  68.457  1.00  0.00    -0.175 A  
HETATM   29  C   UNL     1      -8.176  12.713  68.279  1.00  0.00    -0.164 A  
HETATM   30  C   UNL     1     -10.368  11.821  68.096  1.00  0.00    -0.213 A  
BRANCH  26  31
HETATM   31  N   UNL     1     -10.070  14.304  67.959  1.00  0.00    -0.223 N  
HETATM   32  C   UNL     1     -10.382  15.050  69.181  1.00  0.00    -0.249 C  
HETATM   33  C   UNL     1     -10.218  14.939  66.702  1.00  0.00    -0.261 C  
HETATM   34  O   UNL     1     -10.032  14.401  65.604  1.00  0.00    -0.332 OA 
BRANCH  33  35
HETATM   35  C   UNL     1     -10.752  16.378  66.655  1.00  0.00    -0.173 C  
BRANCH  35  36
HETATM   36  N   UNL     1      -9.853  17.358  66.008  1.00  0.00    -0.501 NA 
HETATM   37  C   UNL     1     -10.442  18.705  65.831  1.00  0.00    -0.356 C  
HETATM   38  C   UNL     1     -10.437  19.647  67.068  1.00  0.00    -0.479 C  
HETATM   39  N   UNL     1      -9.198  19.661  67.873  1.00  0.00    -0.324 NA 
HETATM   40  C   UNL     1      -8.149  20.471  67.254  1.00  0.00    -0.309 C  
HETATM   41  C   UNL     1      -8.742  18.278  68.090  1.00  0.00    -0.281 C  
HETATM   42  C   UNL     1      -8.603  17.462  66.785  1.00  0.00    -0.260 C  
ENDBRANCH  35  36
ENDBRANCH  33  35
ENDBRANCH  26  31
ENDBRANCH  23  25
ENDBRANCH  16  23
ENDBRANCH   3   5
ENDBRANCH   2   3
TORSDOF 8
ENDMDL
MODEL       21
REMARK 921   NORMALIZED FREE ENERGY PREDICTED BY IDOCK:   -5.90 KCAL/MOL
REMARK 922        TOTAL FREE ENERGY PREDICTED BY IDOCK:  -10.20 KCAL/MOL
REMARK 923 INTER-LIGAND FREE ENERGY PREDICTED BY IDOCK:   -9.15 KCAL/MOL
REMARK 924 INTRA-LIGAND FREE ENERGY PREDICTED BY IDOCK:   -1.04 KCAL/MOL
REMARK 927      BINDING AFFINITY PREDICTED BY RF-SCORE:    0.00 PKD
ROOT
HETATM    1  C   UNL     1      -7.166   3.228  64.119  1.00  0.00    -0.058 C  
HETATM    2  O   UNL     1      -6.649   3.918  65.257  1.00  0.00    -0.041 OA 
ENDROOT
BRANCH   2   3
HETATM    3  C   UNL     1      -6.166   5.162  64.992  1.00  0.00    -0.034 C  
HETATM    4  O   UNL     1      -5.143   5.413  64.368  1.00  0.00    -0.009 OA 
BRANCH   3   5
HETATM    5  C   UNL     1      -7.076   6.197  65.543  1.00  0.00    -0.069 A  
HETATM    6  C   UNL     1      -7.404   6.252  66.914  1.00  0.00    -0.083 A  
HETATM    7  C   UNL     1      -8.292   7.217  67.411  1.00  0.00    -0.119 A  
HETATM    8  C   UNL     1      -8.858   8.129  66.536  1.00  0.00    -0.173 A  
HETATM    9  C   UNL     1      -8.520   8.061  65.179  1.00  0.00    -0.100 A  
HETATM   10  C   UNL     1      -7.636   7.130  64.661  1.00  0.00    -0.106 A  
HETATM   11  N   UNL     1      -9.198   9.032  64.458  1.00  0.00    -0.403 N  
HETATM   12  H   UNL     1      -9.111   9.162  63.450  1.00  0.00     0.000 HD 
HETATM   13  C   UNL     1     -10.009   9.806  65.275  1.00  0.00    -0.181 C  
HETATM   14  O   UNL     1     -10.668  10.761  64.911  1.00  0.00    -0.250 OA 
HETATM   15  C   UNL     1      -9.831   9.238  66.673  1.00  0.00    -0.311 C  
HETATM   16  C   UNL     1     -10.490   9.704  67.763  1.00  0.00    -0.256 C  
BRANCH  16  17
HETATM   17  C   UNL     1     -10.211   9.120  69.092  1.00  0.00    -0.215 A  
HETATM   18  C   UNL     1      -9.785   8.119  71.668  1.00  0.00    -0.238 A  
HETATM   19  C   UNL     1     -10.970   8.039  69.560  1.00  0.00    -0.062 A  
HETATM   20  C   UNL     1      -9.222   9.675  69.915  1.00  0.00    -0.255 A  
HETATM   21  C   UNL     1     -10.757   7.544  70.849  1.00  0.00    -0.244 A  
HETATM   22  C   UNL     1      -9.012   9.179  71.200  1.00  0.00    -0.249 A  
ENDBRANCH  16  17
BRANCH  16  23
HETATM   23  N   UNL     1     -11.448  10.722  67.829  1.00  0.00    -0.552 NA 
HETATM   24  H   UNL     1     -12.401  10.502  68.121  1.00  0.00     0.000 HD 
BRANCH  23  25
HETATM   25  C   UNL     1     -11.105  12.064  67.494  1.00  0.00    -0.275 A  
HETATM   26  C   UNL     1     -10.574  14.842  67.100  1.00  0.00    -0.285 A  
HETATM   27  C   UNL     1      -9.861  12.606  67.790  1.00  0.00    -0.212 A  
HETATM   28  C   UNL     1     -12.007  12.867  66.800  1.00  0.00    -0.418 A  
HETATM   29  C   UNL     1      -9.609  13.969  67.613  1.00  0.00    -0.221 A  
HETATM   30  C   UNL     1     -11.744  14.235  66.610  1.00  0.00    -0.417 A  
BRANCH  26  31
HETATM   31  N   UNL     1     -10.400  16.284  67.127  1.00  0.00    -0.282 N  
HETATM   32  C   UNL     1     -10.384  17.004  65.851  1.00  0.00    -0.298 C  
HETATM   33  C   UNL     1     -10.324  17.015  68.337  1.00  0.00    -0.351 C  
HETATM   34  O   UNL     1     -10.281  16.520  69.469  1.00  0.00    -0.263 OA 
BRANCH  33  35
HETATM   35  C   UNL     1     -10.177  18.543  68.274  1.00  0.00    -0.376 C  
BRANCH  35  36
HETATM   36  N   UNL     1      -8.845  19.059  68.656  1.00  0.00    -0.355 NA 
HETATM   37  C   UNL     1      -7.755  18.061  68.575  1.00  0.00    -0.302 C  
HETATM   38  C   UNL     1      -7.150  17.785  67.170  1.00  0.00    -0.177 C  
HETATM   39  N   UNL     1      -6.911  18.970  66.319  1.00  0.00    -0.209 NA 
HETATM   40  C   UNL     1      -5.693  19.685  66.700  1.00  0.00    -0.168 C  
HETATM   41  C   UNL     1      -8.085  19.855  66.375  1.00  0.00    -0.331 C  
HETATM   42  C   UNL     1      -8.513  20.224  67.813  1.00  0.00    -0.205 C  
ENDBRANCH  35  36
ENDBRANCH  33  35
ENDBRANCH  26  31
ENDBRANCH  23  25
ENDBRANCH  16  23
ENDBRANCH   3   5
ENDBRANCH   2   3
TORSDOF 8
ENDMDL
MODEL       22
REMARK 921   NORMALIZED FREE ENERGY PREDICTED BY IDOCK:   -5.89 KCAL/MOL
REMARK 922        TOTAL FREE ENERGY PREDICTED BY IDOCK:  -10.18 KCAL/MOL
REMARK 923 INTER-LIGAND FREE ENERGY PREDICTED BY IDOCK:   -9.02 KCAL/MOL
REMARK 924 INTRA-LIGAND FREE ENERGY PREDICTED BY IDOCK:   -1.16 KCAL/MOL
REMARK 927      BINDING AFFINITY PREDICTED BY RF-SCORE:    0.00 PKD
ROOT
HETATM    1  C   UNL     1      -7.892   2.610  66.368  1.00  0.00    -0.077 C  
HETATM    2  O   UNL     1      -7.888   3.889  67.003  1.00  0.00    -0.084 OA 
ENDROOT
BRANCH   2   3
HETATM    3  C   UNL     1      -9.017   4.173  67.708  1.00  0.00    -0.121 C  
HETATM    4  O   UNL     1      -9.654   3.379  68.388  1.00  0.00    -0.166 OA 
BRANCH   3   5
HETATM    5  C   UNL     1      -9.363   5.610  67.570  1.00  0.00    -0.109 A  
HETATM    6  C   UNL     1      -9.006   6.359  66.429  1.00  0.00    -0.162 A  
HETATM    7  C   UNL     1      -9.314   7.723  66.329  1.00  0.00    -0.210 A  
HETATM    8  C   UNL     1      -9.977   8.345  67.374  1.00  0.00    -0.274 A  
HETATM    9  C   UNL     1     -10.325   7.586  68.498  1.00  0.00    -0.199 A  
HETATM   10  C   UNL     1     -10.049   6.235  68.619  1.00  0.00    -0.185 A  
HETATM   11  N   UNL     1     -10.957   8.378  69.446  1.00  0.00    -0.431 N  
HETATM   12  H   UNL     1     -11.290   8.036  70.347  1.00  0.00     0.000 HD 
HETATM   13  C   UNL     1     -11.081   9.691  69.016  1.00  0.00    -0.070 C  
HETATM   14  O   UNL     1     -11.644  10.580  69.626  1.00  0.00    -0.250 OA 
HETATM   15  C   UNL     1     -10.430   9.730  67.644  1.00  0.00    -0.305 C  
HETATM   16  C   UNL     1     -10.315  10.857  66.899  1.00  0.00    -0.238 C  
BRANCH  16  17
HETATM   17  C   UNL     1      -9.713  10.784  65.551  1.00  0.00    -0.290 A  
HETATM   18  C   UNL     1      -8.602  10.491  63.001  1.00  0.00    -0.191 A  
HETATM   19  C   UNL     1     -10.511  10.957  64.412  1.00  0.00    -0.403 A  
HETATM   20  C   UNL     1      -8.352  10.489  65.399  1.00  0.00    -0.165 A  
HETATM   21  C   UNL     1      -9.954  10.806  63.141  1.00  0.00    -0.341 A  
HETATM   22  C   UNL     1      -7.798  10.339  64.129  1.00  0.00    -0.111 A  
ENDBRANCH  16  17
BRANCH  16  23
HETATM   23  N   UNL     1     -10.711  12.159  67.226  1.00  0.00    -0.223 NA 
HETATM   24  H   UNL     1     -11.696  12.358  67.403  1.00  0.00     0.000 HD 
BRANCH  23  25
HETATM   25  C   UNL     1      -9.752  13.209  67.312  1.00  0.00    -0.230 A  
HETATM   26  C   UNL     1      -8.066  15.491  67.636  1.00  0.00    -0.146 A  
HETATM   27  C   UNL     1      -8.801  13.261  68.323  1.00  0.00    -0.168 A  
HETATM   28  C   UNL     1      -9.707  14.202  66.337  1.00  0.00    -0.313 A  
HETATM   29  C   UNL     1      -7.989  14.386  68.491  1.00  0.00    -0.144 A  
HETATM   30  C   UNL     1      -8.878  15.326  66.500  1.00  0.00    -0.335 A  
BRANCH  26  31
HETATM   31  N   UNL     1      -7.395  16.744  67.936  1.00  0.00    -0.155 N  
HETATM   32  C   UNL     1      -5.934  16.789  67.836  1.00  0.00    -0.127 C  
HETATM   33  C   UNL     1      -8.106  17.929  68.240  1.00  0.00    -0.293 C  
HETATM   34  O   UNL     1      -9.330  18.008  68.397  1.00  0.00    -0.284 OA 
BRANCH  33  35
HETATM   35  C   UNL     1      -7.319  19.221  68.508  1.00  0.00    -0.320 C  
BRANCH  35  36
HETATM   36  N   UNL     1      -7.530  20.299  67.519  1.00  0.00    -0.299 NA 
HETATM   37  C   UNL     1      -6.393  21.239  67.386  1.00  0.00    -0.356 C  
HETATM   38  C   UNL     1      -5.196  20.782  66.505  1.00  0.00    -0.177 C  
HETATM   39  N   UNL     1      -5.542  20.111  65.234  1.00  0.00    -0.167 NA 
HETATM   40  C   UNL     1      -5.938  21.064  64.198  1.00  0.00    -0.297 C  
HETATM   41  C   UNL     1      -6.603  19.120  65.478  1.00  0.00    -0.272 C  
HETATM   42  C   UNL     1      -7.836  19.703  66.204  1.00  0.00    -0.331 C  
ENDBRANCH  35  36
ENDBRANCH  33  35
ENDBRANCH  26  31
ENDBRANCH  23  25
ENDBRANCH  16  23
ENDBRANCH   3   5
ENDBRANCH   2   3
TORSDOF 8
ENDMDL
MODEL       23
REMARK 921   NORMALIZED FREE ENERGY PREDICTED BY IDOCK:   -5.85 KCAL/MOL
REMARK 922        TOTAL FREE ENERGY PREDICTED BY IDOCK:  -10.12 KCAL/MOL
REMARK 923 INTER-LIGAND FREE ENERGY PREDICTED BY IDOCK:   -8.35 KCAL/MOL
REMARK 924 INTRA-LIGAND FREE ENERGY PREDICTED BY IDOCK:   -1.77 KCAL/MOL
REMARK 927      BINDING AFFINITY PREDICTED BY RF-SCORE:    0.00 PKD
ROOT
HETATM    1  C   UNL     1      -8.798   1.601  74.548  1.00  0.00    -0.060 C  
HETATM    2  O   UNL     1      -9.128   2.989  74.495  1.00  0.00    -0.078 OA 
ENDROOT
BRANCH   2   3
HETATM    3  C   UNL     1     -10.209   3.284  73.723  1.00  0.00    -0.140 C  
HETATM    4  O   UNL     1     -11.325   2.793  73.839  1.00  0.00    -0.184 OA 
BRANCH   3   5
HETATM    5  C   UNL     1      -9.861   4.323  72.722  1.00  0.00    -0.194 A  
HETATM    6  C   UNL     1     -10.125   4.155  71.347  1.00  0.00    -0.168 A  
HETATM    7  C   UNL     1      -9.760   5.134  70.411  1.00  0.00    -0.270 A  
HETATM    8  C   UNL     1      -9.126   6.285  70.850  1.00  0.00    -0.153 A  
HETATM    9  C   UNL     1      -8.873   6.435  72.218  1.00  0.00    -0.135 A  
HETATM   10  C   UNL     1      -9.235   5.495  73.167  1.00  0.00    -0.132 A  
HETATM   11  N   UNL     1      -8.214   7.631  72.465  1.00  0.00    -0.110 N  
HETATM   12  H   UNL     1      -7.923   7.944  73.391  1.00  0.00     0.000 HD 
HETATM   13  C   UNL     1      -7.999   8.348  71.297  1.00  0.00    -0.121 C  
HETATM   14  O   UNL     1      -7.494   9.452  71.233  1.00  0.00    -0.322 OA 
HETATM   15  C   UNL     1      -8.575   7.489  70.184  1.00  0.00    -0.141 C  
HETATM   16  C   UNL     1      -8.530   7.829  68.873  1.00  0.00    -0.129 C  
BRANCH  16  17
HETATM   17  C   UNL     1      -9.166   6.952  67.867  1.00  0.00    -0.124 A  
HETATM   18  C   UNL     1     -10.396   5.187  66.079  1.00  0.00    -0.231 A  
HETATM   19  C   UNL     1     -10.539   7.059  67.605  1.00  0.00    -0.327 A  
HETATM   20  C   UNL     1      -8.414   5.972  67.206  1.00  0.00    -0.104 A  
HETATM   21  C   UNL     1     -11.150   6.173  66.716  1.00  0.00    -0.230 A  
HETATM   22  C   UNL     1      -9.027   5.090  66.318  1.00  0.00    -0.127 A  
ENDBRANCH  16  17
BRANCH  16  23
HETATM   23  N   UNL     1      -7.945   8.958  68.287  1.00  0.00    -0.104 NA 
HETATM   24  H   UNL     1      -6.946   8.959  68.080  1.00  0.00     0.000 HD 
BRANCH  23  25
HETATM   25  C   UNL     1      -8.732  10.105  67.978  1.00  0.00    -0.122 A  
HETATM   26  C   UNL     1     -10.108  12.573  67.564  1.00  0.00    -0.207 A  
HETATM   27  C   UNL     1      -8.513  10.866  66.836  1.00  0.00    -0.135 A  
HETATM   28  C   UNL     1      -9.794  10.472  68.801  1.00  0.00    -0.191 A  
HETATM   29  C   UNL     1      -9.175  12.082  66.644  1.00  0.00    -0.211 A  
HETATM   30  C   UNL     1     -10.468  11.688  68.596  1.00  0.00    -0.234 A  
BRANCH  26  31
HETATM   31  N   UNL     1     -10.625  13.928  67.487  1.00  0.00    -0.255 N  
HETATM   32  C   UNL     1     -11.743  14.193  66.579  1.00  0.00    -0.397 C  
HETATM   33  C   UNL     1     -10.139  14.971  68.312  1.00  0.00    -0.222 C  
HETATM   34  O   UNL     1      -9.174  14.884  69.081  1.00  0.00    -0.193 OA 
BRANCH  33  35
HETATM   35  C   UNL     1     -10.768  16.368  68.192  1.00  0.00    -0.336 C  
BRANCH  35  36
HETATM   36  N   UNL     1     -10.194  17.224  67.131  1.00  0.00    -0.311 NA 
HETATM   37  C   UNL     1     -10.784  18.580  67.053  1.00  0.00    -0.317 C  
HETATM   38  C   UNL     1     -10.265  19.637  68.068  1.00  0.00    -0.457 C  
HETATM   39  N   UNL     1      -8.805  19.655  68.301  1.00  0.00    -0.325 NA 
HETATM   40  C   UNL     1      -8.084  20.336  67.225  1.00  0.00    -0.338 C  
HETATM   41  C   UNL     1      -8.321  18.276  68.473  1.00  0.00    -0.310 C  
HETATM   42  C   UNL     1      -8.735  17.329  67.324  1.00  0.00    -0.211 C  
ENDBRANCH  35  36
ENDBRANCH  33  35
ENDBRANCH  26  31
ENDBRANCH  23  25
ENDBRANCH  16  23
ENDBRANCH   3   5
ENDBRANCH   2   3
TORSDOF 8
ENDMDL
MODEL       24
REMARK 921   NORMALIZED FREE ENERGY PREDICTED BY IDOCK:   -5.84 KCAL/MOL
REMARK 922        TOTAL FREE ENERGY PREDICTED BY IDOCK:  -10.11 KCAL/MOL
REMARK 923 INTER-LIGAND FREE ENERGY PREDICTED BY IDOCK:   -8.38 KCAL/MOL
REMARK 924 INTRA-LIGAND FREE ENERGY PREDICTED BY IDOCK:   -1.73 KCAL/MOL
REMARK 927      BINDING AFFINITY PREDICTED BY RF-SCORE:    0.00 PKD
ROOT
HETATM    1  C   UNL     1     -11.597   1.683  62.505  1.00  0.00    -0.220 C  
HETATM    2  O   UNL     1     -11.136   2.680  63.417  1.00  0.00    -0.258 OA 
ENDROOT
BRANCH   2   3
HETATM    3  C   UNL     1      -9.785   2.834  63.451  1.00  0.00    -0.102 C  
HETATM    4  O   UNL     1      -8.976   2.192  62.791  1.00  0.00    -0.083 OA 
BRANCH   3   5
HETATM    5  C   UNL     1      -9.412   3.925  64.386  1.00  0.00    -0.163 A  
HETATM    6  C   UNL     1      -9.932   3.997  65.695  1.00  0.00    -0.162 A  
HETATM    7  C   UNL     1      -9.594   5.053  66.554  1.00  0.00    -0.168 A  
HETATM    8  C   UNL     1      -8.736   6.043  66.103  1.00  0.00    -0.146 A  
HETATM    9  C   UNL     1      -8.229   5.954  64.801  1.00  0.00    -0.129 A  
HETATM   10  C   UNL     1      -8.531   4.917  63.936  1.00  0.00    -0.133 A  
HETATM   11  N   UNL     1      -7.412   7.039  64.520  1.00  0.00    -0.092 N  
HETATM   12  H   UNL     1      -6.941   7.186  63.627  1.00  0.00     0.000 HD 
HETATM   13  C   UNL     1      -7.314   7.901  65.603  1.00  0.00    -0.079 C  
HETATM   14  O   UNL     1      -6.620   8.899  65.646  1.00  0.00    -0.063 OA 
HETATM   15  C   UNL     1      -8.190   7.292  66.684  1.00  0.00    -0.118 C  
HETATM   16  C   UNL     1      -8.389   7.861  67.899  1.00  0.00    -0.126 C  
BRANCH  16  17
HETATM   17  C   UNL     1      -9.218   7.165  68.906  1.00  0.00    -0.137 A  
HETATM   18  C   UNL     1     -10.816   5.738  70.702  1.00  0.00    -0.337 A  
HETATM   19  C   UNL     1      -8.641   6.212  69.756  1.00  0.00    -0.132 A  
HETATM   20  C   UNL     1     -10.595   7.413  68.983  1.00  0.00    -0.203 A  
HETATM   21  C   UNL     1      -9.443   5.498  70.649  1.00  0.00    -0.209 A  
HETATM   22  C   UNL     1     -11.392   6.699  69.875  1.00  0.00    -0.422 A  
ENDBRANCH  16  17
BRANCH  16  23
HETATM   23  N   UNL     1      -7.893   9.078  68.380  1.00  0.00    -0.102 NA 
HETATM   24  H   UNL     1      -7.189   9.080  69.120  1.00  0.00     0.000 HD 
BRANCH  23  25
HETATM   25  C   UNL     1      -8.360  10.314  67.848  1.00  0.00    -0.114 A  
HETATM   26  C   UNL     1      -9.398  12.864  67.089  1.00  0.00    -0.229 A  
HETATM   27  C   UNL     1      -7.520  11.406  67.665  1.00  0.00    -0.103 A  
HETATM   28  C   UNL     1      -9.685  10.448  67.440  1.00  0.00    -0.191 A  
HETATM   29  C   UNL     1      -8.032  12.657  67.310  1.00  0.00    -0.166 A  
HETATM   30  C   UNL     1     -10.194  11.704  67.070  1.00  0.00    -0.240 A  
BRANCH  26  31
HETATM   31  N   UNL     1      -9.961  14.195  66.945  1.00  0.00    -0.255 N  
HETATM   32  C   UNL     1     -10.155  14.724  65.593  1.00  0.00    -0.366 C  
HETATM   33  C   UNL     1     -10.396  14.956  68.057  1.00  0.00    -0.244 C  
HETATM   34  O   UNL     1     -10.246  14.640  69.243  1.00  0.00    -0.217 OA 
BRANCH  33  35
HETATM   35  C   UNL     1     -11.015  16.341  67.813  1.00  0.00    -0.281 C  
BRANCH  35  36
HETATM   36  N   UNL     1     -10.226  17.479  68.332  1.00  0.00    -0.350 NA 
HETATM   37  C   UNL     1      -8.765  17.356  68.128  1.00  0.00    -0.256 C  
HETATM   38  C   UNL     1      -8.212  17.726  66.723  1.00  0.00    -0.250 C  
HETATM   39  N   UNL     1      -8.781  18.938  66.097  1.00  0.00    -0.471 NA 
HETATM   40  C   UNL     1      -8.202  20.164  66.645  1.00  0.00    -0.282 C  
HETATM   41  C   UNL     1     -10.245  18.926  66.253  1.00  0.00    -0.438 C  
HETATM   42  C   UNL     1     -10.708  18.730  67.714  1.00  0.00    -0.343 C  
ENDBRANCH  35  36
ENDBRANCH  33  35
ENDBRANCH  26  31
ENDBRANCH  23  25
ENDBRANCH  16  23
ENDBRANCH   3   5
ENDBRANCH   2   3
TORSDOF 8
ENDMDL
MODEL       25
REMARK 921   NORMALIZED FREE ENERGY PREDICTED BY IDOCK:   -5.84 KCAL/MOL
REMARK 922        TOTAL FREE ENERGY PREDICTED BY IDOCK:  -10.11 KCAL/MOL
REMARK 923 INTER-LIGAND FREE ENERGY PREDICTED BY IDOCK:   -8.10 KCAL/MOL
REMARK 924 INTRA-LIGAND FREE ENERGY PREDICTED BY IDOCK:   -2.01 KCAL/MOL
REMARK 927      BINDING AFFINITY PREDICTED BY RF-SCORE:    0.00 PKD
ROOT
HETATM    1  C   UNL     1     -11.219   1.826  62.756  1.00  0.00    -0.248 C  
HETATM    2  O   UNL     1     -10.354   2.917  63.072  1.00  0.00    -0.127 OA 
ENDROOT
BRANCH   2   3
HETATM    3  C   UNL     1      -9.672   2.777  64.241  1.00  0.00    -0.143 C  
HETATM    4  O   UNL     1      -9.197   1.733  64.670  1.00  0.00    -0.125 OA 
BRANCH   3   5
HETATM    5  C   UNL     1      -9.546   4.088  64.926  1.00  0.00    -0.179 A  
HETATM    6  C   UNL     1      -8.610   5.060  64.514  1.00  0.00    -0.143 A  
HETATM    7  C   UNL     1      -8.483   6.280  65.194  1.00  0.00    -0.087 A  
HETATM    8  C   UNL     1      -9.291   6.531  66.290  1.00  0.00    -0.144 A  
HETATM    9  C   UNL     1     -10.215   5.555  66.684  1.00  0.00    -0.235 A  
HETATM   10  C   UNL     1     -10.375   4.349  66.025  1.00  0.00    -0.210 A  
HETATM   11  N   UNL     1     -10.914   5.970  67.808  1.00  0.00    -0.339 N  
HETATM   12  H   UNL     1     -11.632   5.415  68.273  1.00  0.00     0.000 HD 
HETATM   13  C   UNL     1     -10.516   7.233  68.222  1.00  0.00    -0.199 C  
HETATM   14  O   UNL     1     -11.004   7.855  69.146  1.00  0.00    -0.097 OA 
HETATM   15  C   UNL     1      -9.423   7.650  67.253  1.00  0.00    -0.185 C  
HETATM   16  C   UNL     1      -8.747   8.821  67.342  1.00  0.00    -0.130 C  
BRANCH  16  17
HETATM   17  C   UNL     1      -7.735   9.162  66.319  1.00  0.00    -0.096 A  
HETATM   18  C   UNL     1      -5.838   9.661  64.326  1.00  0.00    -0.085 A  
HETATM   19  C   UNL     1      -8.132   9.713  65.093  1.00  0.00    -0.124 A  
HETATM   20  C   UNL     1      -6.380   8.889  66.545  1.00  0.00    -0.062 A  
HETATM   21  C   UNL     1      -7.182   9.956  64.098  1.00  0.00    -0.134 A  
HETATM   22  C   UNL     1      -5.435   9.133  65.551  1.00  0.00    -0.037 A  
ENDBRANCH  16  17
BRANCH  16  23
HETATM   23  N   UNL     1      -8.871   9.825  68.310  1.00  0.00    -0.119 NA 
HETATM   24  H   UNL     1      -8.775   9.589  69.298  1.00  0.00     0.000 HD 
BRANCH  23  25
HETATM   25  C   UNL     1      -9.130  11.173  67.927  1.00  0.00    -0.150 A  
HETATM   26  C   UNL     1      -9.787  13.913  67.462  1.00  0.00    -0.236 A  
HETATM   27  C   UNL     1      -8.168  12.170  68.031  1.00  0.00    -0.158 A  
HETATM   28  C   UNL     1     -10.362  11.524  67.380  1.00  0.00    -0.235 A  
HETATM   29  C   UNL     1      -8.496  13.512  67.820  1.00  0.00    -0.184 A  
HETATM   30  C   UNL     1     -10.683  12.874  67.154  1.00  0.00    -0.268 A  
BRANCH  26  31
HETATM   31  N   UNL     1     -10.187  15.309  67.463  1.00  0.00    -0.237 N  
HETATM   32  C   UNL     1     -10.431  15.959  68.753  1.00  0.00    -0.237 C  
HETATM   33  C   UNL     1     -10.272  16.074  66.275  1.00  0.00    -0.316 C  
HETATM   34  O   UNL     1     -10.135  15.630  65.128  1.00  0.00    -0.375 OA 
BRANCH  33  35
HETATM   35  C   UNL     1     -10.668  17.555  66.370  1.00  0.00    -0.083 C  
BRANCH  35  36
HETATM   36  N   UNL     1      -9.700  18.501  65.775  1.00  0.00    -0.415 NA 
HETATM   37  C   UNL     1     -10.030  19.929  65.987  1.00  0.00    -0.458 C  
HETATM   38  C   UNL     1      -9.656  20.545  67.364  1.00  0.00    -0.438 C  
HETATM   39  N   UNL     1      -8.332  20.173  67.907  1.00  0.00    -0.254 NA 
HETATM   40  C   UNL     1      -7.248  20.926  67.277  1.00  0.00    -0.350 C  
HETATM   41  C   UNL     1      -8.132  18.723  67.751  1.00  0.00    -0.255 C  
HETATM   42  C   UNL     1      -8.352  18.221  66.307  1.00  0.00    -0.203 C  
ENDBRANCH  35  36
ENDBRANCH  33  35
ENDBRANCH  26  31
ENDBRANCH  23  25
ENDBRANCH  16  23
ENDBRANCH   3   5
ENDBRANCH   2   3
TORSDOF 8
ENDMDL
MODEL       26
REMARK 921   NORMALIZED FREE ENERGY PREDICTED BY IDOCK:   -5.84 KCAL/MOL
REMARK 922        TOTAL FREE ENERGY PREDICTED BY IDOCK:  -10.10 KCAL/MOL
REMARK 923 INTER-LIGAND FREE ENERGY PREDICTED BY IDOCK:   -8.61 KCAL/MOL
REMARK 924 INTRA-LIGAND FREE ENERGY PREDICTED BY IDOCK:   -1.49 KCAL/MOL
REMARK 927      BINDING AFFINITY PREDICTED BY RF-SCORE:    0.00 PKD
ROOT
HETATM    1  C   UNL     1      -9.113   3.915  74.419  1.00  0.00    -0.092 C  
HETATM    2  O   UNL     1      -9.437   5.149  73.779  1.00  0.00    -0.131 OA 
ENDROOT
BRANCH   2   3
HETATM    3  C   UNL     1     -10.641   5.158  73.145  1.00  0.00    -0.233 C  
HETATM    4  O   UNL     1     -11.651   4.575  73.521  1.00  0.00    -0.278 OA 
BRANCH   3   5
HETATM    5  C   UNL     1     -10.579   6.010  71.931  1.00  0.00    -0.272 A  
HETATM    6  C   UNL     1      -9.728   5.707  70.848  1.00  0.00    -0.223 A  
HETATM    7  C   UNL     1      -9.659   6.541  69.723  1.00  0.00    -0.161 A  
HETATM    8  C   UNL     1     -10.440   7.684  69.679  1.00  0.00    -0.235 A  
HETATM    9  C   UNL     1     -11.279   7.968  70.763  1.00  0.00    -0.265 A  
HETATM   10  C   UNL     1     -11.381   7.157  71.880  1.00  0.00    -0.294 A  
HETATM   11  N   UNL     1     -11.962   9.158  70.554  1.00  0.00    -0.472 N  
HETATM   12  H   UNL     1     -12.622   9.564  71.216  1.00  0.00     0.000 HD 
HETATM   13  C   UNL     1     -11.636   9.728  69.332  1.00  0.00     0.125 C  
HETATM   14  O   UNL     1     -12.129  10.741  68.874  1.00  0.00    -0.420 OA 
HETATM   15  C   UNL     1     -10.612   8.793  68.711  1.00  0.00    -0.174 C  
HETATM   16  C   UNL     1     -10.014   9.021  67.516  1.00  0.00    -0.207 C  
BRANCH  16  17
HETATM   17  C   UNL     1      -9.068   8.024  66.969  1.00  0.00    -0.170 A  
HETATM   18  C   UNL     1      -7.275   6.224  65.802  1.00  0.00    -0.074 A  
HETATM   19  C   UNL     1      -7.688   8.185  67.156  1.00  0.00    -0.097 A  
HETATM   20  C   UNL     1      -9.539   6.941  66.216  1.00  0.00    -0.089 A  
HETATM   21  C   UNL     1      -6.796   7.287  66.567  1.00  0.00    -0.061 A  
HETATM   22  C   UNL     1      -8.646   6.046  65.631  1.00  0.00    -0.154 A  
ENDBRANCH  16  17
BRANCH  16  23
HETATM   23  N   UNL     1     -10.170  10.118  66.661  1.00  0.00    -0.224 NA 
HETATM   24  H   UNL     1     -10.735  10.025  65.816  1.00  0.00     0.000 HD 
BRANCH  23  25
HETATM   25  C   UNL     1      -9.546  11.364  66.959  1.00  0.00    -0.176 A  
HETATM   26  C   UNL     1      -8.543  13.910  67.775  1.00  0.00    -0.182 A  
HETATM   27  C   UNL     1      -8.483  11.466  67.847  1.00  0.00    -0.139 A  
HETATM   28  C   UNL     1      -9.960  12.528  66.317  1.00  0.00    -0.263 A  
HETATM   29  C   UNL     1      -8.005  12.713  68.258  1.00  0.00    -0.153 A  
HETATM   30  C   UNL     1      -9.466  13.780  66.722  1.00  0.00    -0.281 A  
BRANCH  26  31
HETATM   31  N   UNL     1      -8.210  15.196  68.362  1.00  0.00    -0.139 N  
HETATM   32  C   UNL     1      -9.090  15.732  69.403  1.00  0.00    -0.254 C  
HETATM   33  C   UNL     1      -7.032  15.903  68.019  1.00  0.00    -0.129 C  
HETATM   34  O   UNL     1      -6.238  15.578  67.128  1.00  0.00    -0.316 OA 
BRANCH  33  35
HETATM   35  C   UNL     1      -6.737  17.240  68.716  1.00  0.00    -0.203 C  
BRANCH  35  36
HETATM   36  N   UNL     1      -6.912  18.439  67.868  1.00  0.00    -0.212 NA 
HETATM   37  C   UNL     1      -7.638  18.193  66.601  1.00  0.00    -0.231 C  
HETATM   38  C   UNL     1      -9.189  18.125  66.675  1.00  0.00    -0.290 C  
HETATM   39  N   UNL     1      -9.846  19.138  67.528  1.00  0.00    -0.317 NA 
HETATM   40  C   UNL     1      -9.936  20.439  66.867  1.00  0.00    -0.408 C  
HETATM   41  C   UNL     1      -9.124  19.241  68.807  1.00  0.00    -0.361 C  
HETATM   42  C   UNL     1      -7.607  19.486  68.641  1.00  0.00    -0.354 C  
ENDBRANCH  35  36
ENDBRANCH  33  35
ENDBRANCH  26  31
ENDBRANCH  23  25
ENDBRANCH  16  23
ENDBRANCH   3   5
ENDBRANCH   2   3
TORSDOF 8
ENDMDL
MODEL       27
REMARK 921   NORMALIZED FREE ENERGY PREDICTED BY IDOCK:   -5.83 KCAL/MOL
REMARK 922        TOTAL FREE ENERGY PREDICTED BY IDOCK:  -10.09 KCAL/MOL
REMARK 923 INTER-LIGAND FREE ENERGY PREDICTED BY IDOCK:   -9.77 KCAL/MOL
REMARK 924 INTRA-LIGAND FREE ENERGY PREDICTED BY IDOCK:   -0.33 KCAL/MOL
REMARK 927      BINDING AFFINITY PREDICTED BY RF-SCORE:    0.00 PKD
ROOT
HETATM    1  C   UNL     1     -12.785  15.799  73.956  1.00  0.00    -0.580 C  
HETATM    2  O   UNL     1     -13.679  14.934  73.256  1.00  0.00    -0.454 OA 
ENDROOT
BRANCH   2   3
HETATM    3  C   UNL     1     -13.459  14.859  71.915  1.00  0.00    -0.380 C  
HETATM    4  O   UNL     1     -13.595  15.777  71.116  1.00  0.00    -0.576 OA 
BRANCH   3   5
HETATM    5  C   UNL     1     -12.990  13.500  71.545  1.00  0.00    -0.440 A  
HETATM    6  C   UNL     1     -12.039  13.290  70.525  1.00  0.00    -0.391 A  
HETATM    7  C   UNL     1     -11.632  11.996  70.166  1.00  0.00    -0.228 A  
HETATM    8  C   UNL     1     -12.178  10.908  70.826  1.00  0.00    -0.483 A  
HETATM    9  C   UNL     1     -13.120  11.136  71.836  1.00  0.00    -0.408 A  
HETATM   10  C   UNL     1     -13.530  12.400  72.224  1.00  0.00    -0.428 A  
HETATM   11  N   UNL     1     -13.571   9.935  72.363  1.00  0.00    -0.623 N  
HETATM   12  H   UNL     1     -14.266   9.860  73.106  1.00  0.00     0.000 HD 
HETATM   13  C   UNL     1     -12.960   8.847  71.756  1.00  0.00    -0.367 C  
HETATM   14  O   UNL     1     -13.130   7.683  72.064  1.00  0.00    -0.273 OA 
HETATM   15  C   UNL     1     -12.030   9.438  70.711  1.00  0.00    -0.298 C  
HETATM   16  C   UNL     1     -11.271   8.691  69.871  1.00  0.00    -0.041 C  
BRANCH  16  17
HETATM   17  C   UNL     1     -10.356   9.359  68.922  1.00  0.00    -0.230 A  
HETATM   18  C   UNL     1      -8.582  10.480  67.074  1.00  0.00    -0.127 A  
HETATM   19  C   UNL     1     -10.808   9.727  67.647  1.00  0.00    -0.301 A  
HETATM   20  C   UNL     1      -9.017   9.581  69.268  1.00  0.00    -0.160 A  
HETATM   21  C   UNL     1      -9.919  10.282  66.726  1.00  0.00    -0.261 A  
HETATM   22  C   UNL     1      -8.132  10.137  68.346  1.00  0.00    -0.104 A  
ENDBRANCH  16  17
BRANCH  16  23
HETATM   23  N   UNL     1     -11.210   7.297  69.764  1.00  0.00    -0.440 NA 
HETATM   24  H   UNL     1     -11.741   6.716  70.414  1.00  0.00     0.000 HD 
BRANCH  23  25
HETATM   25  C   UNL     1     -10.413   6.681  68.756  1.00  0.00    -0.213 A  
HETATM   26  C   UNL     1      -8.748   5.754  66.629  1.00  0.00    -0.119 A  
HETATM   27  C   UNL     1      -9.105   6.274  68.993  1.00  0.00    -0.129 A  
HETATM   28  C   UNL     1     -10.950   6.418  67.498  1.00  0.00    -0.454 A  
HETATM   29  C   UNL     1      -8.287   5.838  67.947  1.00  0.00    -0.104 A  
HETATM   30  C   UNL     1     -10.128   5.965  66.453  1.00  0.00    -0.163 A  
BRANCH  26  31
HETATM   31  N   UNL     1      -7.848   5.522  65.512  1.00  0.00    -0.095 N  
HETATM   32  C   UNL     1      -8.127   4.395  64.620  1.00  0.00    -0.099 C  
HETATM   33  C   UNL     1      -6.769   6.389  65.218  1.00  0.00    -0.047 C  
HETATM   34  O   UNL     1      -6.406   7.343  65.917  1.00  0.00    -0.040 OA 
BRANCH  33  35
HETATM   35  C   UNL     1      -5.888   6.091  63.995  1.00  0.00    -0.022 C  
BRANCH  35  36
HETATM   36  N   UNL     1      -6.178   6.911  62.799  1.00  0.00    -0.043 NA 
HETATM   37  C   UNL     1      -7.587   7.353  62.687  1.00  0.00    -0.111 C  
HETATM   38  C   UNL     1      -8.011   8.587  63.531  1.00  0.00    -0.161 C  
HETATM   39  N   UNL     1      -7.054   9.714  63.565  1.00  0.00    -0.104 NA 
HETATM   40  C   UNL     1      -7.116  10.526  62.350  1.00  0.00    -0.137 C  
HETATM   41  C   UNL     1      -5.695   9.193  63.786  1.00  0.00    -0.074 C  
HETATM   42  C   UNL     1      -5.287   8.088  62.787  1.00  0.00    -0.059 C  
ENDBRANCH  35  36
ENDBRANCH  33  35
ENDBRANCH  26  31
ENDBRANCH  23  25
ENDBRANCH  16  23
ENDBRANCH   3   5
ENDBRANCH   2   3
TORSDOF 8
ENDMDL
MODEL       28
REMARK 921   NORMALIZED FREE ENERGY PREDICTED BY IDOCK:   -5.83 KCAL/MOL
REMARK 922        TOTAL FREE ENERGY PREDICTED BY IDOCK:  -10.09 KCAL/MOL
REMARK 923 INTER-LIGAND FREE ENERGY PREDICTED BY IDOCK:   -8.28 KCAL/MOL
REMARK 924 INTRA-LIGAND FREE ENERGY PREDICTED BY IDOCK:   -1.81 KCAL/MOL
REMARK 927      BINDING AFFINITY PREDICTED BY RF-SCORE:    0.00 PKD
ROOT
HETATM    1  C   UNL     1      -6.751  20.471  66.023  1.00  0.00    -0.229 C  
HETATM    2  O   UNL     1      -7.409  20.710  67.267  1.00  0.00    -0.310 OA 
ENDROOT
BRANCH   2   3
HETATM    3  C   UNL     1      -8.708  20.306  67.306  1.00  0.00    -0.352 C  
HETATM    4  O   UNL     1      -9.686  21.039  67.240  1.00  0.00    -0.412 OA 
BRANCH   3   5
HETATM    5  C   UNL     1      -8.786  18.827  67.408  1.00  0.00    -0.289 A  
HETATM    6  C   UNL     1      -9.676  18.069  66.619  1.00  0.00    -0.332 A  
HETATM    7  C   UNL     1      -9.760  16.676  66.751  1.00  0.00    -0.271 A  
HETATM    8  C   UNL     1      -8.953  16.035  67.678  1.00  0.00    -0.193 A  
HETATM    9  C   UNL     1      -8.074  16.803  68.451  1.00  0.00    -0.219 A  
HETATM   10  C   UNL     1      -7.958  18.177  68.332  1.00  0.00    -0.312 A  
HETATM   11  N   UNL     1      -7.370  15.998  69.334  1.00  0.00    -0.228 N  
HETATM   12  H   UNL     1      -6.680  16.345  70.000  1.00  0.00     0.000 HD 
HETATM   13  C   UNL     1      -7.719  14.662  69.200  1.00  0.00    -0.113 C  
HETATM   14  O   UNL     1      -7.215  13.739  69.811  1.00  0.00     0.166 OA 
HETATM   15  C   UNL     1      -8.784  14.630  68.117  1.00  0.00    -0.168 C  
HETATM   16  C   UNL     1      -9.412  13.498  67.714  1.00  0.00    -0.216 C  
BRANCH  16  17
HETATM   17  C   UNL     1     -10.398  13.560  66.614  1.00  0.00    -0.271 A  
HETATM   18  C   UNL     1     -12.247  13.835  64.534  1.00  0.00    -0.441 A  
HETATM   19  C   UNL     1      -9.972  13.487  65.281  1.00  0.00    -0.206 A  
HETATM   20  C   UNL     1     -11.758  13.746  66.893  1.00  0.00    -0.424 A  
HETATM   21  C   UNL     1     -10.897  13.629  64.245  1.00  0.00    -0.297 A  
HETATM   22  C   UNL     1     -12.679  13.887  65.857  1.00  0.00    -0.466 A  
ENDBRANCH  16  17
BRANCH  16  23
HETATM   23  N   UNL     1      -9.256  12.196  68.203  1.00  0.00    -0.193 NA 
HETATM   24  H   UNL     1      -9.311  12.023  69.208  1.00  0.00     0.000 HD 
BRANCH  23  25
HETATM   25  C   UNL     1      -9.021  11.110  67.312  1.00  0.00    -0.147 A  
HETATM   26  C   UNL     1      -8.413   8.774  65.785  1.00  0.00    -0.148 A  
HETATM   27  C   UNL     1     -10.000  10.169  67.017  1.00  0.00    -0.249 A  
HETATM   28  C   UNL     1      -7.796  10.987  66.660  1.00  0.00    -0.153 A  
HETATM   29  C   UNL     1      -9.696   9.019  66.285  1.00  0.00    -0.345 A  
HETATM   30  C   UNL     1      -7.499   9.836  65.911  1.00  0.00    -0.103 A  
BRANCH  26  31
HETATM   31  N   UNL     1      -8.037   7.487  65.226  1.00  0.00    -0.126 N  
HETATM   32  C   UNL     1      -7.813   7.398  63.781  1.00  0.00    -0.108 C  
HETATM   33  C   UNL     1      -7.806   6.349  66.034  1.00  0.00    -0.103 C  
HETATM   34  O   UNL     1      -8.004   6.286  67.254  1.00  0.00    -0.107 OA 
BRANCH  33  35
HETATM   35  C   UNL     1      -7.375   5.035  65.364  1.00  0.00    -0.072 C  
BRANCH  35  36
HETATM   36  N   UNL     1      -8.263   3.881  65.619  1.00  0.00    -0.104 NA 
HETATM   37  C   UNL     1      -9.698   4.143  65.359  1.00  0.00    -0.201 C  
HETATM   38  C   UNL     1     -10.173   4.073  63.881  1.00  0.00    -0.144 C  
HETATM   39  N   UNL     1      -9.636   2.956  63.075  1.00  0.00    -0.093 NA 
HETATM   40  C   UNL     1     -10.323   1.695  63.354  1.00  0.00    -0.137 C  
HETATM   41  C   UNL     1      -8.188   2.835  63.313  1.00  0.00    -0.084 C  
HETATM   42  C   UNL     1      -7.815   2.732  64.809  1.00  0.00    -0.078 C  
ENDBRANCH  35  36
ENDBRANCH  33  35
ENDBRANCH  26  31
ENDBRANCH  23  25
ENDBRANCH  16  23
ENDBRANCH   3   5
ENDBRANCH   2   3
TORSDOF 8
ENDMDL
MODEL       29
REMARK 921   NORMALIZED FREE ENERGY PREDICTED BY IDOCK:   -5.82 KCAL/MOL
REMARK 922        TOTAL FREE ENERGY PREDICTED BY IDOCK:  -10.07 KCAL/MOL
REMARK 923 INTER-LIGAND FREE ENERGY PREDICTED BY IDOCK:   -9.13 KCAL/MOL
REMARK 924 INTRA-LIGAND FREE ENERGY PREDICTED BY IDOCK:   -0.95 KCAL/MOL
REMARK 927      BINDING AFFINITY PREDICTED BY RF-SCORE:    0.00 PKD
ROOT
HETATM    1  C   UNL     1     -14.385  15.082  72.530  1.00  0.00    -0.179 C  
HETATM    2  O   UNL     1     -13.160  14.943  73.249  1.00  0.00    -0.502 OA 
ENDROOT
BRANCH   2   3
HETATM    3  C   UNL     1     -12.144  15.723  72.790  1.00  0.00    -0.490 C  
HETATM    4  O   UNL     1     -11.665  16.688  73.373  1.00  0.00    -0.318 OA 
BRANCH   3   5
HETATM    5  C   UNL     1     -11.660  15.221  71.480  1.00  0.00    -0.456 A  
HETATM    6  C   UNL     1     -10.677  15.906  70.735  1.00  0.00    -0.048 A  
HETATM    7  C   UNL     1     -10.255  15.434  69.483  1.00  0.00    -0.273 A  
HETATM    8  C   UNL     1     -10.818  14.277  68.971  1.00  0.00    -0.274 A  
HETATM    9  C   UNL     1     -11.791  13.611  69.725  1.00  0.00    -0.327 A  
HETATM   10  C   UNL     1     -12.217  14.042  70.970  1.00  0.00    -0.430 A  
HETATM   11  N   UNL     1     -12.254  12.494  69.046  1.00  0.00    -0.098 N  
HETATM   12  H   UNL     1     -12.972  11.863  69.403  1.00  0.00     0.000 HD 
HETATM   13  C   UNL     1     -11.622  12.339  67.821  1.00  0.00    -0.351 C  
HETATM   14  O   UNL     1     -11.798  11.414  67.051  1.00  0.00    -0.530 OA 
HETATM   15  C   UNL     1     -10.662  13.511  67.712  1.00  0.00    -0.262 C  
HETATM   16  C   UNL     1      -9.875  13.740  66.632  1.00  0.00    -0.284 C  
BRANCH  16  17
HETATM   17  C   UNL     1      -8.932  14.879  66.641  1.00  0.00    -0.301 A  
HETATM   18  C   UNL     1      -7.221  17.085  66.790  1.00  0.00    -0.274 A  
HETATM   19  C   UNL     1      -7.702  14.771  67.304  1.00  0.00    -0.214 A  
HETATM   20  C   UNL     1      -9.283  16.092  66.034  1.00  0.00    -0.375 A  
HETATM   21  C   UNL     1      -6.852  15.876  67.381  1.00  0.00    -0.228 A  
HETATM   22  C   UNL     1      -8.432  17.193  66.111  1.00  0.00    -0.238 A  
ENDBRANCH  16  17
BRANCH  16  23
HETATM   23  N   UNL     1      -9.806  13.014  65.438  1.00  0.00    -0.474 NA 
HETATM   24  H   UNL     1     -10.155  13.428  64.573  1.00  0.00     0.000 HD 
BRANCH  23  25
HETATM   25  C   UNL     1      -9.253  11.701  65.418  1.00  0.00    -0.065 A  
HETATM   26  C   UNL     1      -8.401   8.979  65.570  1.00  0.00    -0.133 A  
HETATM   27  C   UNL     1      -9.483  10.816  64.371  1.00  0.00    -0.300 A  
HETATM   28  C   UNL     1      -8.409  11.277  66.442  1.00  0.00    -0.159 A  
HETATM   29  C   UNL     1      -9.080   9.481  64.455  1.00  0.00    -0.250 A  
HETATM   30  C   UNL     1      -7.993   9.937  66.516  1.00  0.00    -0.110 A  
BRANCH  26  31
HETATM   31  N   UNL     1      -8.183   7.556  65.763  1.00  0.00    -0.130 N  
HETATM   32  C   UNL     1      -6.882   6.996  65.388  1.00  0.00    -0.052 C  
HETATM   33  C   UNL     1      -9.151   6.717  66.367  1.00  0.00    -0.152 C  
HETATM   34  O   UNL     1     -10.296   7.060  66.683  1.00  0.00    -0.218 OA 
BRANCH  33  35
HETATM   35  C   UNL     1      -8.824   5.229  66.566  1.00  0.00    -0.116 C  
BRANCH  35  36
HETATM   36  N   UNL     1      -9.054   4.716  67.934  1.00  0.00    -0.114 NA 
HETATM   37  C   UNL     1      -8.994   3.241  68.052  1.00  0.00    -0.147 C  
HETATM   38  C   UNL     1      -7.583   2.595  68.139  1.00  0.00    -0.055 C  
HETATM   39  N   UNL     1      -6.602   3.284  69.006  1.00  0.00    -0.033 NA 
HETATM   40  C   UNL     1      -6.821   2.993  70.422  1.00  0.00    -0.033 C  
HETATM   41  C   UNL     1      -6.655   4.732  68.747  1.00  0.00    -0.045 C  
HETATM   42  C   UNL     1      -8.077   5.327  68.856  1.00  0.00    -0.086 C  
ENDBRANCH  35  36
ENDBRANCH  33  35
ENDBRANCH  26  31
ENDBRANCH  23  25
ENDBRANCH  16  23
ENDBRANCH   3   5
ENDBRANCH   2   3
TORSDOF 8
ENDMDL
MODEL       30
REMARK 921   NORMALIZED FREE ENERGY PREDICTED BY IDOCK:   -5.73 KCAL/MOL
REMARK 922        TOTAL FREE ENERGY PREDICTED BY IDOCK:   -9.95 KCAL/MOL
REMARK 923 INTER-LIGAND FREE ENERGY PREDICTED BY IDOCK:   -8.44 KCAL/MOL
REMARK 924 INTRA-LIGAND FREE ENERGY PREDICTED BY IDOCK:   -1.51 KCAL/MOL
REMARK 927      BINDING AFFINITY PREDICTED BY RF-SCORE:    0.00 PKD
ROOT
HETATM    1  C   UNL     1     -12.413  16.264  74.175  1.00  0.00    -0.533 C  
HETATM    2  O   UNL     1     -12.356  16.387  72.753  1.00  0.00    -0.465 OA 
ENDROOT
BRANCH   2   3
HETATM    3  C   UNL     1     -13.178  15.538  72.079  1.00  0.00    -0.459 C  
HETATM    4  O   UNL     1     -14.365  15.354  72.317  1.00  0.00    -0.550 OA 
BRANCH   3   5
HETATM    5  C   UNL     1     -12.442  14.875  70.974  1.00  0.00    -0.396 A  
HETATM    6  C   UNL     1     -12.063  13.518  71.037  1.00  0.00    -0.233 A  
HETATM    7  C   UNL     1     -11.339  12.916  69.998  1.00  0.00     0.052 A  
HETATM    8  C   UNL     1     -10.988  13.673  68.892  1.00  0.00    -0.281 A  
HETATM    9  C   UNL     1     -11.374  15.018  68.846  1.00  0.00    -0.297 A  
HETATM   10  C   UNL     1     -12.102  15.635  69.848  1.00  0.00    -0.360 A  
HETATM   11  N   UNL     1     -10.917  15.617  67.681  1.00  0.00    -0.317 N  
HETATM   12  H   UNL     1     -11.075  16.596  67.441  1.00  0.00     0.000 HD 
HETATM   13  C   UNL     1     -10.219  14.722  66.884  1.00  0.00    -0.257 C  
HETATM   14  O   UNL     1      -9.760  14.970  65.785  1.00  0.00    -0.327 OA 
HETATM   15  C   UNL     1     -10.223  13.411  67.650  1.00  0.00    -0.228 C  
HETATM   16  C   UNL     1      -9.606  12.285  67.215  1.00  0.00    -0.187 C  
BRANCH  16  17
HETATM   17  C   UNL     1      -9.711  11.040  68.007  1.00  0.00    -0.181 A  
HETATM   18  C   UNL     1      -9.819   8.616  69.396  1.00  0.00    -0.184 A  
HETATM   19  C   UNL     1      -8.779  10.767  69.017  1.00  0.00    -0.136 A  
HETATM   20  C   UNL     1     -10.710  10.101  67.719  1.00  0.00    -0.328 A  
HETATM   21  C   UNL     1      -8.833   9.553  69.705  1.00  0.00    -0.211 A  
HETATM   22  C   UNL     1     -10.762   8.891  68.408  1.00  0.00    -0.126 A  
ENDBRANCH  16  17
BRANCH  16  23
HETATM   23  N   UNL     1      -8.844  12.104  66.055  1.00  0.00    -0.412 NA 
HETATM   24  H   UNL     1      -8.581  12.913  65.492  1.00  0.00     0.000 HD 
BRANCH  23  25
HETATM   25  C   UNL     1      -8.431  10.801  65.654  1.00  0.00    -0.163 A  
HETATM   26  C   UNL     1      -7.771   8.075  65.114  1.00  0.00    -0.105 A  
HETATM   27  C   UNL     1      -9.111  10.075  64.683  1.00  0.00    -0.280 A  
HETATM   28  C   UNL     1      -7.283  10.228  66.196  1.00  0.00    -0.121 A  
HETATM   29  C   UNL     1      -8.798   8.736  64.433  1.00  0.00     0.021 A  
HETATM   30  C   UNL     1      -6.962   8.886  65.931  1.00  0.00    -0.080 A  
BRANCH  26  31
HETATM   31  N   UNL     1      -7.590   6.636  65.026  1.00  0.00    -0.092 N  
HETATM   32  C   UNL     1      -6.961   6.090  63.821  1.00  0.00    -0.043 C  
HETATM   33  C   UNL     1      -7.927   5.764  66.089  1.00  0.00    -0.102 C  
HETATM   34  O   UNL     1      -8.502   6.098  67.132  1.00  0.00    -0.106 OA 
BRANCH  33  35
HETATM   35  C   UNL     1      -7.669   4.259  65.926  1.00  0.00    -0.090 C  
BRANCH  35  36
HETATM   36  N   UNL     1      -8.883   3.425  65.798  1.00  0.00    -0.127 NA 
HETATM   37  C   UNL     1      -9.929   3.998  64.919  1.00  0.00    -0.205 C  
HETATM   38  C   UNL     1      -9.745   3.813  63.387  1.00  0.00    -0.150 C  
HETATM   39  N   UNL     1      -9.283   2.481  62.941  1.00  0.00    -0.091 NA 
HETATM   40  C   UNL     1     -10.367   1.499  62.928  1.00  0.00    -0.111 C  
HETATM   41  C   UNL     1      -8.175   2.036  63.802  1.00  0.00    -0.080 C  
HETATM   42  C   UNL     1      -8.507   2.085  65.310  1.00  0.00    -0.099 C  
ENDBRANCH  35  36
ENDBRANCH  33  35
ENDBRANCH  26  31
ENDBRANCH  23  25
ENDBRANCH  16  23
ENDBRANCH   3   5
ENDBRANCH   2   3
TORSDOF 8
ENDMDL
MODEL       31
REMARK 921   NORMALIZED FREE ENERGY PREDICTED BY IDOCK:   -5.71 KCAL/MOL
REMARK 922        TOTAL FREE ENERGY PREDICTED BY IDOCK:   -9.92 KCAL/MOL
REMARK 923 INTER-LIGAND FREE ENERGY PREDICTED BY IDOCK:   -9.81 KCAL/MOL
REMARK 924 INTRA-LIGAND FREE ENERGY PREDICTED BY IDOCK:   -0.11 KCAL/MOL
REMARK 927      BINDING AFFINITY PREDICTED BY RF-SCORE:    0.00 PKD
ROOT
HETATM    1  C   UNL     1     -14.360  15.430  71.358  1.00  0.00    -0.389 C  
HETATM    2  O   UNL     1     -13.866  15.491  72.697  1.00  0.00    -0.534 OA 
ENDROOT
BRANCH   2   3
HETATM    3  C   UNL     1     -12.572  15.097  72.841  1.00  0.00    -0.410 C  
HETATM    4  O   UNL     1     -11.939  15.096  73.889  1.00  0.00    -0.500 OA 
BRANCH   3   5
HETATM    5  C   UNL     1     -12.027  14.630  71.542  1.00  0.00    -0.400 A  
HETATM    6  C   UNL     1     -11.145  15.418  70.774  1.00  0.00    -0.371 A  
HETATM    7  C   UNL     1     -10.665  14.974  69.533  1.00  0.00    -0.266 A  
HETATM    8  C   UNL     1     -11.070  13.738  69.055  1.00  0.00    -0.296 A  
HETATM    9  C   UNL     1     -11.944  12.969  69.832  1.00  0.00    -0.311 A  
HETATM   10  C   UNL     1     -12.422  13.373  71.066  1.00  0.00    -0.437 A  
HETATM   11  N   UNL     1     -12.255  11.782  69.185  1.00  0.00    -0.200 N  
HETATM   12  H   UNL     1     -12.881  11.070  69.562  1.00  0.00     0.000 HD 
HETATM   13  C   UNL     1     -11.609  11.679  67.962  1.00  0.00    -0.313 C  
HETATM   14  O   UNL     1     -11.661  10.719  67.217  1.00  0.00    -0.439 OA 
HETATM   15  C   UNL     1     -10.814  12.966  67.817  1.00  0.00    -0.248 C  
HETATM   16  C   UNL     1     -10.066  13.268  66.727  1.00  0.00    -0.258 C  
BRANCH  16  17
HETATM   17  C   UNL     1      -9.284  14.523  66.701  1.00  0.00    -0.290 A  
HETATM   18  C   UNL     1      -7.867  16.932  66.793  1.00  0.00    -0.279 A  
HETATM   19  C   UNL     1      -7.985  14.554  67.225  1.00  0.00    -0.216 A  
HETATM   20  C   UNL     1      -9.854  15.701  66.202  1.00  0.00    -0.340 A  
HETATM   21  C   UNL     1      -7.282  15.760  67.273  1.00  0.00    -0.254 A  
HETATM   22  C   UNL     1      -9.150  16.902  66.251  1.00  0.00    -0.302 A  
ENDBRANCH  16  17
BRANCH  16  23
HETATM   23  N   UNL     1      -9.902  12.525  65.552  1.00  0.00    -0.379 NA 
HETATM   24  H   UNL     1     -10.292  12.872  64.675  1.00  0.00     0.000 HD 
BRANCH  23  25
HETATM   25  C   UNL     1      -9.196  11.288  65.569  1.00  0.00    -0.202 A  
HETATM   26  C   UNL     1      -8.044   8.681  65.760  1.00  0.00    -0.114 A  
HETATM   27  C   UNL     1      -9.194  10.422  64.482  1.00  0.00    -0.287 A  
HETATM   28  C   UNL     1      -8.431  10.929  66.676  1.00  0.00    -0.151 A  
HETATM   29  C   UNL     1      -8.645   9.140  64.583  1.00  0.00    -0.206 A  
HETATM   30  C   UNL     1      -7.867   9.645  66.769  1.00  0.00    -0.102 A  
BRANCH  26  31
HETATM   31  N   UNL     1      -7.679   7.287  65.945  1.00  0.00    -0.092 N  
HETATM   32  C   UNL     1      -6.266   6.920  65.833  1.00  0.00    -0.039 C  
HETATM   33  C   UNL     1      -8.627   6.299  66.303  1.00  0.00    -0.138 C  
HETATM   34  O   UNL     1      -9.848   6.475  66.382  1.00  0.00    -0.145 OA 
BRANCH  33  35
HETATM   35  C   UNL     1      -8.149   4.854  66.515  1.00  0.00    -0.107 C  
BRANCH  35  36
HETATM   36  N   UNL     1      -7.697   4.158  65.292  1.00  0.00    -0.085 NA 
HETATM   37  C   UNL     1      -7.476   2.703  65.461  1.00  0.00    -0.072 C  
HETATM   38  C   UNL     1      -8.731   1.787  65.415  1.00  0.00    -0.117 C  
HETATM   39  N   UNL     1      -9.730   2.100  64.372  1.00  0.00    -0.108 NA 
HETATM   40  C   UNL     1      -9.325   1.608  63.056  1.00  0.00    -0.090 C  
HETATM   41  C   UNL     1      -9.968   3.553  64.346  1.00  0.00    -0.185 C  
HETATM   42  C   UNL     1      -8.674   4.387  64.210  1.00  0.00    -0.142 C  
ENDBRANCH  35  36
ENDBRANCH  33  35
ENDBRANCH  26  31
ENDBRANCH  23  25
ENDBRANCH  16  23
ENDBRANCH   3   5
ENDBRANCH   2   3
TORSDOF 8
ENDMDL
MODEL       32
REMARK 921   NORMALIZED FREE ENERGY PREDICTED BY IDOCK:   -5.68 KCAL/MOL
REMARK 922        TOTAL FREE ENERGY PREDICTED BY IDOCK:   -9.87 KCAL/MOL
REMARK 923 INTER-LIGAND FREE ENERGY PREDICTED BY IDOCK:   -8.45 KCAL/MOL
REMARK 924 INTRA-LIGAND FREE ENERGY PREDICTED BY IDOCK:   -1.42 KCAL/MOL
REMARK 927      BINDING AFFINITY PREDICTED BY RF-SCORE:    0.00 PKD
ROOT
HETATM    1  C   UNL     1     -12.602  15.327  73.837  1.00  0.00    -0.591 C  
HETATM    2  O   UNL     1     -13.006  15.293  72.469  1.00  0.00    -0.333 OA 
ENDROOT
BRANCH   2   3
HETATM    3  C   UNL     1     -13.435  14.077  72.035  1.00  0.00    -0.439 C  
HETATM    4  O   UNL     1     -14.345  13.423  72.529  1.00  0.00    -0.692 OA 
BRANCH   3   5
HETATM    5  C   UNL     1     -12.661  13.652  70.842  1.00  0.00    -0.382 A  
HETATM    6  C   UNL     1     -12.174  12.336  70.697  1.00  0.00    -0.378 A  
HETATM    7  C   UNL     1     -11.417  11.961  69.577  1.00  0.00    -0.357 A  
HETATM    8  C   UNL     1     -11.143  12.903  68.600  1.00  0.00    -0.307 A  
HETATM    9  C   UNL     1     -11.636  14.203  68.760  1.00  0.00    -0.327 A  
HETATM   10  C   UNL     1     -12.398  14.600  69.845  1.00  0.00    -0.341 A  
HETATM   11  N   UNL     1     -11.243  15.008  67.701  1.00  0.00    -0.317 N  
HETATM   12  H   UNL     1     -11.481  15.996  67.613  1.00  0.00     0.000 HD 
HETATM   13  C   UNL     1     -10.485  14.305  66.776  1.00  0.00    -0.273 C  
HETATM   14  O   UNL     1     -10.061  14.754  65.728  1.00  0.00    -0.300 OA 
HETATM   15  C   UNL     1     -10.375  12.896  67.332  1.00  0.00    -0.233 C  
HETATM   16  C   UNL     1      -9.674  11.903  66.731  1.00  0.00    -0.204 C  
BRANCH  16  17
HETATM   17  C   UNL     1      -9.669  10.549  67.323  1.00  0.00    -0.197 A  
HETATM   18  C   UNL     1      -9.575   7.938  68.319  1.00  0.00    -0.164 A  
HETATM   19  C   UNL     1      -8.650  10.170  68.208  1.00  0.00    -0.116 A  
HETATM   20  C   UNL     1     -10.651   9.616  66.965  1.00  0.00    -0.267 A  
HETATM   21  C   UNL     1      -8.603   8.864  68.699  1.00  0.00    -0.133 A  
HETATM   22  C   UNL     1     -10.603   8.314  67.458  1.00  0.00    -0.291 A  
ENDBRANCH  16  17
BRANCH  16  23
HETATM   23  N   UNL     1      -8.914  11.964  65.557  1.00  0.00    -0.418 NA 
HETATM   24  H   UNL     1      -8.692  12.871  65.145  1.00  0.00     0.000 HD 
BRANCH  23  25
HETATM   25  C   UNL     1      -8.449  10.771  64.931  1.00  0.00    -0.055 A  
HETATM   26  C   UNL     1      -7.665   8.216  63.926  1.00  0.00    -0.138 A  
HETATM   27  C   UNL     1      -9.129  10.176  63.876  1.00  0.00    -0.293 A  
HETATM   28  C   UNL     1      -7.251  10.187  65.335  1.00  0.00    -0.144 A  
HETATM   29  C   UNL     1      -8.754   8.917  63.397  1.00  0.00    -0.042 A  
HETATM   30  C   UNL     1      -6.868   8.929  64.840  1.00  0.00    -0.073 A  
BRANCH  26  31
HETATM   31  N   UNL     1      -7.411   6.825  63.593  1.00  0.00    -0.066 N  
HETATM   32  C   UNL     1      -6.601   6.532  62.408  1.00  0.00    -0.035 C  
HETATM   33  C   UNL     1      -7.850   5.758  64.414  1.00  0.00    -0.110 C  
HETATM   34  O   UNL     1      -8.575   5.874  65.409  1.00  0.00    -0.152 OA 
BRANCH  33  35
HETATM   35  C   UNL     1      -7.506   4.317  64.007  1.00  0.00    -0.066 C  
BRANCH  35  36
HETATM   36  N   UNL     1      -6.242   3.794  64.568  1.00  0.00    -0.023 NA 
HETATM   37  C   UNL     1      -5.908   4.312  65.914  1.00  0.00    -0.023 C  
HETATM   38  C   UNL     1      -6.620   3.647  67.125  1.00  0.00    -0.042 C  
HETATM   39  N   UNL     1      -6.734   2.174  67.086  1.00  0.00    -0.038 NA 
HETATM   40  C   UNL     1      -5.484   1.515  67.463  1.00  0.00    -0.017 C  
HETATM   41  C   UNL     1      -7.172   1.754  65.746  1.00  0.00    -0.056 C  
HETATM   42  C   UNL     1      -6.297   2.320  64.605  1.00  0.00    -0.019 C  
ENDBRANCH  35  36
ENDBRANCH  33  35
ENDBRANCH  26  31
ENDBRANCH  23  25
ENDBRANCH  16  23
ENDBRANCH   3   5
ENDBRANCH   2   3
TORSDOF 8
ENDMDL
MODEL       33
REMARK 921   NORMALIZED FREE ENERGY PREDICTED BY IDOCK:   -5.68 KCAL/MOL
REMARK 922        TOTAL FREE ENERGY PREDICTED BY IDOCK:   -9.87 KCAL/MOL
REMARK 923 INTER-LIGAND FREE ENERGY PREDICTED BY IDOCK:  -11.48 KCAL/MOL
REMARK 924 INTRA-LIGAND FREE ENERGY PREDICTED BY IDOCK:    1.61 KCAL/MOL
REMARK 927      BINDING AFFINITY PREDICTED BY RF-SCORE:    0.00 PKD
ROOT
HETATM    1  C   UNL     1      -7.758  20.647  67.487  1.00  0.00    -0.277 C  
HETATM    2  O   UNL     1      -8.686  19.571  67.350  1.00  0.00    -0.293 OA 
ENDROOT
BRANCH   2   3
HETATM    3  C   UNL     1      -8.273  18.570  66.527  1.00  0.00    -0.281 C  
HETATM    4  O   UNL     1      -7.433  18.673  65.642  1.00  0.00    -0.496 OA 
BRANCH   3   5
HETATM    5  C   UNL     1      -8.964  17.301  66.870  1.00  0.00    -0.256 A  
HETATM    6  C   UNL     1      -9.107  16.253  65.938  1.00  0.00    -0.246 A  
HETATM    7  C   UNL     1      -9.791  15.074  66.270  1.00  0.00    -0.307 A  
HETATM    8  C   UNL     1     -10.338  14.943  67.535  1.00  0.00    -0.239 A  
HETATM    9  C   UNL     1     -10.186  15.994  68.448  1.00  0.00    -0.236 A  
HETATM   10  C   UNL     1      -9.503  17.162  68.156  1.00  0.00    -0.269 A  
HETATM   11  N   UNL     1     -10.816  15.695  69.647  1.00  0.00    -0.261 N  
HETATM   12  H   UNL     1     -10.840  16.320  70.453  1.00  0.00     0.000 HD 
HETATM   13  C   UNL     1     -11.409  14.441  69.616  1.00  0.00    -0.263 C  
HETATM   14  O   UNL     1     -11.978  13.910  70.550  1.00  0.00    -0.323 OA 
HETATM   15  C   UNL     1     -11.133  13.899  68.224  1.00  0.00    -0.280 C  
HETATM   16  C   UNL     1     -11.584  12.699  67.783  1.00  0.00    -0.348 C  
BRANCH  16  17
HETATM   17  C   UNL     1     -11.219  12.234  66.427  1.00  0.00    -0.370 A  
HETATM   18  C   UNL     1     -10.613  11.223  63.892  1.00  0.00    -0.455 A  
HETATM   19  C   UNL     1     -12.022  12.567  65.328  1.00  0.00    -0.490 A  
HETATM   20  C   UNL     1     -10.099  11.413  66.239  1.00  0.00    -0.263 A  
HETATM   21  C   UNL     1     -11.719  12.057  64.064  1.00  0.00    -0.498 A  
HETATM   22  C   UNL     1      -9.799  10.906  64.976  1.00  0.00    -0.336 A  
ENDBRANCH  16  17
BRANCH  16  23
HETATM   23  N   UNL     1     -12.384  11.770  68.457  1.00  0.00    -0.235 NA 
HETATM   24  H   UNL     1     -13.372  11.683  68.215  1.00  0.00     0.000 HD 
BRANCH  23  25
HETATM   25  C   UNL     1     -11.833  10.944  69.479  1.00  0.00    -0.332 A  
HETATM   26  C   UNL     1     -10.871   9.032  71.370  1.00  0.00    -0.330 A  
HETATM   27  C   UNL     1     -10.523  10.482  69.431  1.00  0.00    -0.264 A  
HETATM   28  C   UNL     1     -12.589  10.613  70.600  1.00  0.00    -0.454 A  
HETATM   29  C   UNL     1     -10.060   9.533  70.347  1.00  0.00    -0.329 A  
HETATM   30  C   UNL     1     -12.115   9.670  71.529  1.00  0.00    -0.482 A  
BRANCH  26  31
HETATM   31  N   UNL     1     -10.476   7.891  72.177  1.00  0.00    -0.231 N  
HETATM   32  C   UNL     1      -9.420   8.080  73.175  1.00  0.00    -0.280 C  
HETATM   33  C   UNL     1     -11.126   6.637  72.085  1.00  0.00    -0.254 C  
HETATM   34  O   UNL     1     -11.996   6.342  71.257  1.00  0.00    -0.326 OA 
BRANCH  33  35
HETATM   35  C   UNL     1     -10.669   5.493  73.003  1.00  0.00    -0.256 C  
BRANCH  35  36
HETATM   36  N   UNL     1      -9.629   4.610  72.431  1.00  0.00    -0.144 NA 
HETATM   37  C   UNL     1      -9.997   3.988  71.139  1.00  0.00    -0.127 C  
HETATM   38  C   UNL     1      -9.837   4.859  69.862  1.00  0.00    -0.225 C  
HETATM   39  N   UNL     1      -8.607   5.675  69.779  1.00  0.00    -0.120 NA 
HETATM   40  C   UNL     1      -7.446   4.880  69.380  1.00  0.00    -0.056 C  
HETATM   41  C   UNL     1      -8.376   6.341  71.071  1.00  0.00    -0.124 C  
HETATM   42  C   UNL     1      -8.375   5.371  72.274  1.00  0.00    -0.122 C  
ENDBRANCH  35  36
ENDBRANCH  33  35
ENDBRANCH  26  31
ENDBRANCH  23  25
ENDBRANCH  16  23
ENDBRANCH   3   5
ENDBRANCH   2   3
TORSDOF 8
ENDMDL
MODEL       34
REMARK 921   NORMALIZED FREE ENERGY PREDICTED BY IDOCK:   -5.67 KCAL/MOL
REMARK 922        TOTAL FREE ENERGY PREDICTED BY IDOCK:   -9.86 KCAL/MOL
REMARK 923 INTER-LIGAND FREE ENERGY PREDICTED BY IDOCK:   -8.17 KCAL/MOL
REMARK 924 INTRA-LIGAND FREE ENERGY PREDICTED BY IDOCK:   -1.69 KCAL/MOL
REMARK 927      BINDING AFFINITY PREDICTED BY RF-SCORE:    0.00 PKD
ROOT
HETATM    1  C   UNL     1      -8.743  18.870  68.420  1.00  0.00    -0.345 C  
HETATM    2  O   UNL     1      -8.669  17.535  67.922  1.00  0.00    -0.236 OA 
ENDROOT
BRANCH   2   3
HETATM    3  C   UNL     1      -9.652  17.205  67.041  1.00  0.00    -0.260 C  
HETATM    4  O   UNL     1     -10.405  17.993  66.483  1.00  0.00    -0.361 OA 
BRANCH   3   5
HETATM    5  C   UNL     1      -9.671  15.738  66.813  1.00  0.00    -0.251 A  
HETATM    6  C   UNL     1      -9.244  14.823  67.798  1.00  0.00    -0.194 A  
HETATM    7  C   UNL     1      -9.238  13.442  67.554  1.00  0.00    -0.219 A  
HETATM    8  C   UNL     1      -9.657  12.972  66.321  1.00  0.00    -0.243 A  
HETATM    9  C   UNL     1     -10.078  13.895  65.355  1.00  0.00    -0.305 A  
HETATM   10  C   UNL     1     -10.110  15.261  65.572  1.00  0.00    -0.408 A  
HETATM   11  N   UNL     1     -10.436  13.245  64.183  1.00  0.00    -0.558 N  
HETATM   12  H   UNL     1     -10.766  13.721  63.343  1.00  0.00     0.000 HD 
HETATM   13  C   UNL     1     -10.290  11.870  64.293  1.00  0.00    -0.321 C  
HETATM   14  O   UNL     1     -10.585  11.061  63.434  1.00  0.00    -0.338 OA 
HETATM   15  C   UNL     1      -9.759  11.632  65.696  1.00  0.00    -0.262 C  
HETATM   16  C   UNL     1      -9.449  10.406  66.184  1.00  0.00    -0.181 C  
BRANCH  16  17
HETATM   17  C   UNL     1      -8.988  10.269  67.582  1.00  0.00    -0.137 A  
HETATM   18  C   UNL     1      -8.113   9.855  70.206  1.00  0.00    -0.115 A  
HETATM   19  C   UNL     1      -7.618  10.296  67.879  1.00  0.00    -0.089 A  
HETATM   20  C   UNL     1      -9.912  10.060  68.614  1.00  0.00    -0.176 A  
HETATM   21  C   UNL     1      -7.185  10.084  69.189  1.00  0.00    -0.076 A  
HETATM   22  C   UNL     1      -9.476   9.850  69.921  1.00  0.00    -0.256 A  
ENDBRANCH  16  17
BRANCH  16  23
HETATM   23  N   UNL     1      -9.509   9.170  65.530  1.00  0.00    -0.398 NA 
HETATM   24  H   UNL     1      -9.505   9.136  64.510  1.00  0.00     0.000 HD 
BRANCH  23  25
HETATM   25  C   UNL     1      -9.577   7.957  66.276  1.00  0.00    -0.130 A  
HETATM   26  C   UNL     1      -9.642   5.711  68.038  1.00  0.00    -0.120 A  
HETATM   27  C   UNL     1     -10.782   7.429  66.721  1.00  0.00    -0.202 A  
HETATM   28  C   UNL     1      -8.420   7.228  66.539  1.00  0.00    -0.125 A  
HETATM   29  C   UNL     1     -10.811   6.340  67.597  1.00  0.00    -0.433 A  
HETATM   30  C   UNL     1      -8.454   6.125  67.409  1.00  0.00    -0.107 A  
BRANCH  26  31
HETATM   31  N   UNL     1      -9.652   4.736  69.115  1.00  0.00    -0.153 N  
HETATM   32  C   UNL     1      -9.248   3.362  68.810  1.00  0.00    -0.166 C  
HETATM   33  C   UNL     1      -9.960   5.088  70.451  1.00  0.00    -0.247 C  
HETATM   34  O   UNL     1     -10.357   6.198  70.825  1.00  0.00    -0.197 OA 
BRANCH  33  35
HETATM   35  C   UNL     1      -9.911   4.001  71.536  1.00  0.00    -0.150 C  
BRANCH  35  36
HETATM   36  N   UNL     1      -9.000   4.285  72.666  1.00  0.00    -0.110 NA 
HETATM   37  C   UNL     1      -9.168   3.384  73.829  1.00  0.00    -0.092 C  
HETATM   38  C   UNL     1      -8.491   1.988  73.746  1.00  0.00    -0.062 C  
HETATM   39  N   UNL     1      -7.122   1.958  73.186  1.00  0.00    -0.026 NA 
HETATM   40  C   UNL     1      -6.120   2.384  74.162  1.00  0.00    -0.004 C  
HETATM   41  C   UNL     1      -7.073   2.794  71.975  1.00  0.00    -0.038 C  
HETATM   42  C   UNL     1      -7.603   4.229  72.193  1.00  0.00    -0.079 C  
ENDBRANCH  35  36
ENDBRANCH  33  35
ENDBRANCH  26  31
ENDBRANCH  23  25
ENDBRANCH  16  23
ENDBRANCH   3   5
ENDBRANCH   2   3
TORSDOF 8
ENDMDL
MODEL       35
REMARK 921   NORMALIZED FREE ENERGY PREDICTED BY IDOCK:   -5.56 KCAL/MOL
REMARK 922        TOTAL FREE ENERGY PREDICTED BY IDOCK:   -9.69 KCAL/MOL
REMARK 923 INTER-LIGAND FREE ENERGY PREDICTED BY IDOCK:   -8.25 KCAL/MOL
REMARK 924 INTRA-LIGAND FREE ENERGY PREDICTED BY IDOCK:   -1.44 KCAL/MOL
REMARK 927      BINDING AFFINITY PREDICTED BY RF-SCORE:    0.00 PKD
ROOT
HETATM    1  C   UNL     1     -11.193  16.122  64.683  1.00  0.00    -0.298 C  
HETATM    2  O   UNL     1     -12.029  15.193  63.992  1.00  0.00    -0.460 OA 
ENDROOT
BRANCH   2   3
HETATM    3  C   UNL     1     -12.623  14.265  64.789  1.00  0.00    -0.291 C  
HETATM    4  O   UNL     1     -13.698  14.397  65.361  1.00  0.00    -0.236 OA 
BRANCH   3   5
HETATM    5  C   UNL     1     -11.797  13.033  64.851  1.00  0.00    -0.404 A  
HETATM    6  C   UNL     1     -11.478  12.408  66.074  1.00  0.00    -0.431 A  
HETATM    7  C   UNL     1     -10.669  11.262  66.116  1.00  0.00    -0.307 A  
HETATM    8  C   UNL     1     -10.174  10.741  64.932  1.00  0.00    -0.388 A  
HETATM    9  C   UNL     1     -10.502  11.374  63.727  1.00  0.00    -0.399 A  
HETATM   10  C   UNL     1     -11.310  12.495  63.652  1.00  0.00    -0.555 A  
HETATM   11  N   UNL     1      -9.901  10.729  62.657  1.00  0.00    -0.653 N  
HETATM   12  H   UNL     1      -9.995  11.022  61.684  1.00  0.00     0.000 HD 
HETATM   13  C   UNL     1      -9.155   9.635  63.071  1.00  0.00    -0.209 C  
HETATM   14  O   UNL     1      -8.571   8.863  62.334  1.00  0.00    -0.209 OA 
HETATM   15  C   UNL     1      -9.290   9.604  64.583  1.00  0.00    -0.271 C  
HETATM   16  C   UNL     1      -8.672   8.692  65.374  1.00  0.00    -0.174 C  
BRANCH  16  17
HETATM   17  C   UNL     1      -8.907   8.711  66.834  1.00  0.00    -0.147 A  
HETATM   18  C   UNL     1      -9.432   8.880  69.575  1.00  0.00    -0.159 A  
HETATM   19  C   UNL     1     -10.042   8.089  67.372  1.00  0.00    -0.294 A  
HETATM   20  C   UNL     1      -8.028   9.394  67.684  1.00  0.00    -0.099 A  
HETATM   21  C   UNL     1     -10.303   8.180  68.741  1.00  0.00    -0.220 A  
HETATM   22  C   UNL     1      -8.290   9.482  69.049  1.00  0.00    -0.126 A  
ENDBRANCH  16  17
BRANCH  16  23
HETATM   23  N   UNL     1      -7.796   7.667  64.999  1.00  0.00    -0.119 NA 
HETATM   24  H   UNL     1      -7.117   7.829  64.255  1.00  0.00     0.000 HD 
BRANCH  23  25
HETATM   25  C   UNL     1      -7.845   6.398  65.645  1.00  0.00    -0.099 A  
HETATM   26  C   UNL     1      -8.142   3.999  67.165  1.00  0.00    -0.096 A  
HETATM   27  C   UNL     1      -8.716   5.394  65.240  1.00  0.00    -0.145 A  
HETATM   28  C   UNL     1      -6.969   6.106  66.687  1.00  0.00    -0.067 A  
HETATM   29  C   UNL     1      -8.872   4.229  65.995  1.00  0.00    -0.119 A  
HETATM   30  C   UNL     1      -7.118   4.926  67.436  1.00  0.00    -0.066 A  
BRANCH  26  31
HETATM   31  N   UNL     1      -8.459   2.907  68.069  1.00  0.00    -0.079 N  
HETATM   32  C   UNL     1      -7.852   1.598  67.816  1.00  0.00    -0.058 C  
HETATM   33  C   UNL     1      -9.265   3.086  69.219  1.00  0.00    -0.149 C  
HETATM   34  O   UNL     1      -9.867   4.126  69.515  1.00  0.00    -0.206 OA 
BRANCH  33  35
HETATM   35  C   UNL     1      -9.521   1.886  70.142  1.00  0.00    -0.067 C  
BRANCH  35  36
HETATM   36  N   UNL     1      -8.690   1.848  71.365  1.00  0.00    -0.058 NA 
HETATM   37  C   UNL     1      -7.776   3.002  71.520  1.00  0.00    -0.048 C  
HETATM   38  C   UNL     1      -8.386   4.318  72.079  1.00  0.00    -0.106 C  
HETATM   39  N   UNL     1      -9.327   4.172  73.210  1.00  0.00    -0.112 NA 
HETATM   40  C   UNL     1      -8.633   3.957  74.479  1.00  0.00    -0.091 C  
HETATM   41  C   UNL     1     -10.265   3.074  72.925  1.00  0.00    -0.155 C  
HETATM   42  C   UNL     1      -9.566   1.748  72.548  1.00  0.00    -0.084 C  
ENDBRANCH  35  36
ENDBRANCH  33  35
ENDBRANCH  26  31
ENDBRANCH  23  25
ENDBRANCH  16  23
ENDBRANCH   3   5
ENDBRANCH   2   3
TORSDOF 8
ENDMDL
MODEL       36
REMARK 921   NORMALIZED FREE ENERGY PREDICTED BY IDOCK:   -5.55 KCAL/MOL
REMARK 922        TOTAL FREE ENERGY PREDICTED BY IDOCK:   -9.69 KCAL/MOL
REMARK 923 INTER-LIGAND FREE ENERGY PREDICTED BY IDOCK:   -9.52 KCAL/MOL
REMARK 924 INTRA-LIGAND FREE ENERGY PREDICTED BY IDOCK:   -0.17 KCAL/MOL
REMARK 927      BINDING AFFINITY PREDICTED BY RF-SCORE:    0.00 PKD
ROOT
HETATM    1  C   UNL     1      -5.366   2.553  66.994  1.00  0.00    -0.016 C  
HETATM    2  O   UNL     1      -5.599   3.813  67.624  1.00  0.00    -0.019 OA 
ENDROOT
BRANCH   2   3
HETATM    3  C   UNL     1      -6.237   3.736  68.823  1.00  0.00    -0.032 C  
HETATM    4  O   UNL     1      -5.985   2.936  69.716  1.00  0.00    -0.022 OA 
BRANCH   3   5
HETATM    5  C   UNL     1      -7.277   4.790  68.924  1.00  0.00    -0.053 A  
HETATM    6  C   UNL     1      -7.086   6.081  68.389  1.00  0.00    -0.082 A  
HETATM    7  C   UNL     1      -8.066   7.075  68.522  1.00  0.00    -0.124 A  
HETATM    8  C   UNL     1      -9.241   6.781  69.194  1.00  0.00    -0.137 A  
HETATM    9  C   UNL     1      -9.413   5.494  69.717  1.00  0.00    -0.149 A  
HETATM   10  C   UNL     1      -8.472   4.487  69.589  1.00  0.00    -0.087 A  
HETATM   11  N   UNL     1     -10.632   5.392  70.372  1.00  0.00    -0.276 N  
HETATM   12  H   UNL     1     -10.964   4.547  70.836  1.00  0.00     0.000 HD 
HETATM   13  C   UNL     1     -11.344   6.582  70.319  1.00  0.00    -0.395 C  
HETATM   14  O   UNL     1     -12.463   6.752  70.763  1.00  0.00    -0.351 OA 
HETATM   15  C   UNL     1     -10.456   7.549  69.555  1.00  0.00    -0.227 C  
HETATM   16  C   UNL     1     -10.783   8.843  69.319  1.00  0.00    -0.162 C  
BRANCH  16  17
HETATM   17  C   UNL     1      -9.876   9.694  68.519  1.00  0.00    -0.170 A  
HETATM   18  C   UNL     1      -8.055  11.185  67.010  1.00  0.00    -0.148 A  
HETATM   19  C   UNL     1      -9.929   9.660  67.119  1.00  0.00    -0.249 A  
HETATM   20  C   UNL     1      -8.921  10.500  69.153  1.00  0.00    -0.171 A  
HETATM   21  C   UNL     1      -9.015  10.402  66.369  1.00  0.00    -0.166 A  
HETATM   22  C   UNL     1      -8.011  11.240  68.401  1.00  0.00    -0.140 A  
ENDBRANCH  16  17
BRANCH  16  23
HETATM   23  N   UNL     1     -11.924   9.541  69.734  1.00  0.00    -0.341 NA 
HETATM   24  H   UNL     1     -12.709   9.030  70.139  1.00  0.00     0.000 HD 
BRANCH  23  25
HETATM   25  C   UNL     1     -11.999  10.957  69.594  1.00  0.00    -0.343 A  
HETATM   26  C   UNL     1     -11.823  13.798  69.370  1.00  0.00    -0.341 A  
HETATM   27  C   UNL     1     -11.986  11.580  68.352  1.00  0.00    -0.268 A  
HETATM   28  C   UNL     1     -12.143  11.767  70.718  1.00  0.00    -0.352 A  
HETATM   29  C   UNL     1     -11.882  12.969  68.245  1.00  0.00    -0.381 A  
HETATM   30  C   UNL     1     -12.053  13.165  70.605  1.00  0.00    -0.346 A  
BRANCH  26  31
HETATM   31  N   UNL     1     -11.488  15.208  69.271  1.00  0.00    -0.290 N  
HETATM   32  C   UNL     1     -11.476  16.006  70.499  1.00  0.00    -0.389 C  
HETATM   33  C   UNL     1     -11.101  15.810  68.049  1.00  0.00    -0.337 C  
HETATM   34  O   UNL     1     -11.115  15.255  66.943  1.00  0.00    -0.321 OA 
BRANCH  33  35
HETATM   35  C   UNL     1     -10.728  17.300  68.040  1.00  0.00    -0.367 C  
BRANCH  35  36
HETATM   36  N   UNL     1      -9.841  17.716  66.932  1.00  0.00    -0.293 NA 
HETATM   37  C   UNL     1     -10.127  19.065  66.392  1.00  0.00    -0.415 C  
HETATM   38  C   UNL     1      -9.565  20.278  67.184  1.00  0.00    -0.443 C  
HETATM   39  N   UNL     1      -8.184  20.142  67.692  1.00  0.00    -0.309 NA 
HETATM   40  C   UNL     1      -7.188  20.367  66.645  1.00  0.00    -0.268 C  
HETATM   41  C   UNL     1      -8.018  18.815  68.306  1.00  0.00    -0.318 C  
HETATM   42  C   UNL     1      -8.436  17.650  67.380  1.00  0.00    -0.221 C  
ENDBRANCH  35  36
ENDBRANCH  33  35
ENDBRANCH  26  31
ENDBRANCH  23  25
ENDBRANCH  16  23
ENDBRANCH   3   5
ENDBRANCH   2   3
TORSDOF 8
ENDMDL
MODEL       37
REMARK 921   NORMALIZED FREE ENERGY PREDICTED BY IDOCK:   -5.48 KCAL/MOL
REMARK 922        TOTAL FREE ENERGY PREDICTED BY IDOCK:   -9.59 KCAL/MOL
REMARK 923 INTER-LIGAND FREE ENERGY PREDICTED BY IDOCK:   -7.99 KCAL/MOL
REMARK 924 INTRA-LIGAND FREE ENERGY PREDICTED BY IDOCK:   -1.59 KCAL/MOL
REMARK 927      BINDING AFFINITY PREDICTED BY RF-SCORE:    0.00 PKD
ROOT
HETATM    1  C   UNL     1     -12.437  13.242  63.214  1.00  0.00    -0.121 C  
HETATM    2  O   UNL     1     -12.849  14.580  63.497  1.00  0.00    -0.578 OA 
ENDROOT
BRANCH   2   3
HETATM    3  C   UNL     1     -11.955  15.305  64.222  1.00  0.00    -0.223 C  
HETATM    4  O   UNL     1     -11.704  16.494  64.064  1.00  0.00    -1.111 OA 
BRANCH   3   5
HETATM    5  C   UNL     1     -11.333  14.460  65.272  1.00  0.00    -0.346 A  
HETATM    6  C   UNL     1     -10.005  13.997  65.170  1.00  0.00    -0.257 A  
HETATM    7  C   UNL     1      -9.445  13.172  66.157  1.00  0.00    -0.156 A  
HETATM    8  C   UNL     1     -10.215  12.805  67.248  1.00  0.00    -0.232 A  
HETATM    9  C   UNL     1     -11.531  13.275  67.332  1.00  0.00    -0.332 A  
HETATM   10  C   UNL     1     -12.107  14.102  66.384  1.00  0.00    -0.475 A  
HETATM   11  N   UNL     1     -12.151  12.787  68.473  1.00  0.00    -0.202 N  
HETATM   12  H   UNL     1     -13.115  12.993  68.734  1.00  0.00     0.000 HD 
HETATM   13  C   UNL     1     -11.298  11.983  69.217  1.00  0.00    -0.268 C  
HETATM   14  O   UNL     1     -11.568  11.474  70.288  1.00  0.00    -0.304 OA 
HETATM   15  C   UNL     1      -9.995  11.949  68.437  1.00  0.00    -0.203 C  
HETATM   16  C   UNL     1      -8.909  11.233  68.820  1.00  0.00    -0.102 C  
BRANCH  16  17
HETATM   17  C   UNL     1      -7.667  11.305  68.022  1.00  0.00    -0.108 A  
HETATM   18  C   UNL     1      -5.391  11.538  66.414  1.00  0.00    -0.080 A  
HETATM   19  C   UNL     1      -6.703  12.282  68.305  1.00  0.00    -0.064 A  
HETATM   20  C   UNL     1      -7.467  10.432  66.945  1.00  0.00    -0.107 A  
HETATM   21  C   UNL     1      -5.570  12.399  67.497  1.00  0.00    -0.130 A  
HETATM   22  C   UNL     1      -6.335  10.550  66.141  1.00  0.00    -0.119 A  
ENDBRANCH  16  17
BRANCH  16  23
HETATM   23  N   UNL     1      -8.771  10.390  69.929  1.00  0.00    -0.366 NA 
HETATM   24  H   UNL     1      -8.591  10.792  70.850  1.00  0.00     0.000 HD 
BRANCH  23  25
HETATM   25  C   UNL     1      -8.879   8.977  69.784  1.00  0.00    -0.153 A  
HETATM   26  C   UNL     1      -8.941   6.182  69.201  1.00  0.00    -0.126 A  
HETATM   27  C   UNL     1      -7.968   8.102  70.364  1.00  0.00    -0.099 A  
HETATM   28  C   UNL     1      -9.949   8.421  69.088  1.00  0.00    -0.197 A  
HETATM   29  C   UNL     1      -7.990   6.737  70.063  1.00  0.00    -0.116 A  
HETATM   30  C   UNL     1      -9.976   7.046  68.800  1.00  0.00    -0.160 A  
BRANCH  26  31
HETATM   31  N   UNL     1      -8.832   4.819  68.710  1.00  0.00    -0.096 N  
HETATM   32  C   UNL     1      -9.609   3.775  69.382  1.00  0.00    -0.149 C  
HETATM   33  C   UNL     1      -8.068   4.487  67.565  1.00  0.00    -0.100 C  
HETATM   34  O   UNL     1      -7.336   5.266  66.943  1.00  0.00    -0.083 OA 
BRANCH  33  35
HETATM   35  C   UNL     1      -8.036   3.026  67.092  1.00  0.00    -0.079 C  
BRANCH  35  36
HETATM   36  N   UNL     1      -9.105   2.653  66.140  1.00  0.00    -0.136 NA 
HETATM   37  C   UNL     1      -9.554   3.756  65.260  1.00  0.00    -0.174 C  
HETATM   38  C   UNL     1      -8.676   4.072  64.017  1.00  0.00    -0.113 C  
HETATM   39  N   UNL     1      -8.166   2.906  63.265  1.00  0.00    -0.084 NA 
HETATM   40  C   UNL     1      -9.187   2.324  62.394  1.00  0.00    -0.080 C  
HETATM   41  C   UNL     1      -7.643   1.906  64.211  1.00  0.00    -0.060 C  
HETATM   42  C   UNL     1      -8.650   1.516  65.316  1.00  0.00    -0.104 C  
ENDBRANCH  35  36
ENDBRANCH  33  35
ENDBRANCH  26  31
ENDBRANCH  23  25
ENDBRANCH  16  23
ENDBRANCH   3   5
ENDBRANCH   2   3
TORSDOF 8
ENDMDL
MODEL       38
REMARK 921   NORMALIZED FREE ENERGY PREDICTED BY IDOCK:   -5.47 KCAL/MOL
REMARK 922        TOTAL FREE ENERGY PREDICTED BY IDOCK:   -9.56 KCAL/MOL
REMARK 923 INTER-LIGAND FREE ENERGY PREDICTED BY IDOCK:   -9.63 KCAL/MOL
REMARK 924 INTRA-LIGAND FREE ENERGY PREDICTED BY IDOCK:    0.06 KCAL/MOL
REMARK 927      BINDING AFFINITY PREDICTED BY RF-SCORE:    0.00 PKD
ROOT
HETATM    1  C   UNL     1     -12.744  16.156  73.743  1.00  0.00    -0.572 C  
HETATM    2  O   UNL     1     -13.574  15.195  73.088  1.00  0.00    -0.446 OA 
ENDROOT
BRANCH   2   3
HETATM    3  C   UNL     1     -13.323  15.043  71.760  1.00  0.00    -0.386 C  
HETATM    4  O   UNL     1     -13.405  15.923  70.912  1.00  0.00    -0.498 OA 
BRANCH   3   5
HETATM    5  C   UNL     1     -12.895  13.651  71.471  1.00  0.00    -0.445 A  
HETATM    6  C   UNL     1     -11.932  13.355  70.485  1.00  0.00    -0.332 A  
HETATM    7  C   UNL     1     -11.564  12.031  70.203  1.00  0.00    -0.228 A  
HETATM    8  C   UNL     1     -12.162  10.999  70.906  1.00  0.00    -0.471 A  
HETATM    9  C   UNL     1     -13.115  11.312  71.882  1.00  0.00    -0.405 A  
HETATM   10  C   UNL     1     -13.488  12.608  72.194  1.00  0.00    -0.561 A  
HETATM   11  N   UNL     1     -13.619  10.156  72.461  1.00  0.00    -0.554 N  
HETATM   12  H   UNL     1     -14.331  10.145  73.191  1.00  0.00     0.000 HD 
HETATM   13  C   UNL     1     -13.035   9.018  71.925  1.00  0.00    -0.389 C  
HETATM   14  O   UNL     1     -13.253   7.878  72.290  1.00  0.00    -0.186 OA 
HETATM   15  C   UNL     1     -12.063   9.520  70.871  1.00  0.00    -0.357 C  
HETATM   16  C   UNL     1     -11.315   8.704  70.089  1.00  0.00    -0.078 C  
BRANCH  16  17
HETATM   17  C   UNL     1     -10.357   9.289  69.127  1.00  0.00    -0.222 A  
HETATM   18  C   UNL     1      -8.600  10.539  67.346  1.00  0.00    -0.122 A  
HETATM   19  C   UNL     1      -9.062   9.631  69.540  1.00  0.00    -0.209 A  
HETATM   20  C   UNL     1     -10.752   9.555  67.809  1.00  0.00    -0.302 A  
HETATM   21  C   UNL     1      -8.190  10.259  68.650  1.00  0.00    -0.116 A  
HETATM   22  C   UNL     1      -9.878  10.181  66.922  1.00  0.00    -0.244 A  
ENDBRANCH  16  17
BRANCH  16  23
HETATM   23  N   UNL     1     -11.301   7.305  70.056  1.00  0.00    -0.446 NA 
HETATM   24  H   UNL     1     -11.949   6.779  70.643  1.00  0.00     0.000 HD 
BRANCH  23  25
HETATM   25  C   UNL     1     -10.389   6.608  69.211  1.00  0.00    -0.200 A  
HETATM   26  C   UNL     1      -8.541   5.493  67.342  1.00  0.00    -0.108 A  
HETATM   27  C   UNL     1      -9.041   6.480  69.523  1.00  0.00    -0.140 A  
HETATM   28  C   UNL     1     -10.843   5.981  68.053  1.00  0.00    -0.374 A  
HETATM   29  C   UNL     1      -8.136   5.950  68.600  1.00  0.00    -0.103 A  
HETATM   30  C   UNL     1      -9.931   5.435  67.134  1.00  0.00    -0.199 A  
BRANCH  26  31
HETATM   31  N   UNL     1      -7.585   5.156  66.301  1.00  0.00    -0.087 N  
HETATM   32  C   UNL     1      -6.725   3.987  66.501  1.00  0.00    -0.050 C  
HETATM   33  C   UNL     1      -7.515   5.867  65.079  1.00  0.00    -0.080 C  
HETATM   34  O   UNL     1      -8.152   6.893  64.811  1.00  0.00    -0.125 OA 
BRANCH  33  35
HETATM   35  C   UNL     1      -6.499   5.421  64.017  1.00  0.00    -0.029 C  
BRANCH  35  36
HETATM   36  N   UNL     1      -7.085   4.780  62.820  1.00  0.00    -0.038 NA 
HETATM   37  C   UNL     1      -6.721   3.355  62.648  1.00  0.00    -0.030 C  
HETATM   38  C   UNL     1      -7.513   2.315  63.488  1.00  0.00    -0.054 C  
HETATM   39  N   UNL     1      -8.973   2.529  63.583  1.00  0.00    -0.092 NA 
HETATM   40  C   UNL     1      -9.673   2.086  62.377  1.00  0.00    -0.088 C  
HETATM   41  C   UNL     1      -9.240   3.950  63.860  1.00  0.00    -0.137 C  
HETATM   42  C   UNL     1      -8.554   4.913  62.865  1.00  0.00    -0.123 C  
ENDBRANCH  35  36
ENDBRANCH  33  35
ENDBRANCH  26  31
ENDBRANCH  23  25
ENDBRANCH  16  23
ENDBRANCH   3   5
ENDBRANCH   2   3
TORSDOF 8
ENDMDL
MODEL       39
REMARK 921   NORMALIZED FREE ENERGY PREDICTED BY IDOCK:   -5.23 KCAL/MOL
REMARK 922        TOTAL FREE ENERGY PREDICTED BY IDOCK:   -9.22 KCAL/MOL
REMARK 923 INTER-LIGAND FREE ENERGY PREDICTED BY IDOCK:   -7.89 KCAL/MOL
REMARK 924 INTRA-LIGAND FREE ENERGY PREDICTED BY IDOCK:   -1.33 KCAL/MOL
REMARK 927      BINDING AFFINITY PREDICTED BY RF-SCORE:    0.00 PKD
ROOT
HETATM    1  C   UNL     1      -8.374   1.691  68.037  1.00  0.00    -0.060 C  
HETATM    2  O   UNL     1      -9.561   2.426  67.740  1.00  0.00    -0.162 OA 
ENDROOT
BRANCH   2   3
HETATM    3  C   UNL     1      -9.401   3.411  66.817  1.00  0.00    -0.167 C  
HETATM    4  O   UNL     1      -9.583   3.296  65.611  1.00  0.00    -0.135 OA 
BRANCH   3   5
HETATM    5  C   UNL     1      -9.000   4.678  67.477  1.00  0.00    -0.122 A  
HETATM    6  C   UNL     1      -9.846   5.348  68.385  1.00  0.00    -0.197 A  
HETATM    7  C   UNL     1      -9.464   6.562  68.975  1.00  0.00    -0.130 A  
HETATM    8  C   UNL     1      -8.234   7.111  68.656  1.00  0.00    -0.125 A  
HETATM    9  C   UNL     1      -7.406   6.432  67.754  1.00  0.00    -0.088 A  
HETATM   10  C   UNL     1      -7.748   5.226  67.167  1.00  0.00    -0.096 A  
HETATM   11  N   UNL     1      -6.233   7.140  67.539  1.00  0.00    -0.044 N  
HETATM   12  H   UNL     1      -5.488   6.837  66.912  1.00  0.00     0.000 HD 
HETATM   13  C   UNL     1      -6.198   8.312  68.280  1.00  0.00    -0.050 C  
HETATM   14  O   UNL     1      -5.265   9.090  68.322  1.00  0.00    -0.034 OA 
HETATM   15  C   UNL     1      -7.516   8.351  69.035  1.00  0.00    -0.093 C  
HETATM   16  C   UNL     1      -7.884   9.368  69.853  1.00  0.00    -0.126 C  
BRANCH  16  17
HETATM   17  C   UNL     1      -9.165   9.291  70.586  1.00  0.00    -0.321 A  
HETATM   18  C   UNL     1     -11.624   9.016  71.889  1.00  0.00    -0.441 A  
HETATM   19  C   UNL     1      -9.250   8.563  71.781  1.00  0.00    -0.316 A  
HETATM   20  C   UNL     1     -10.316   9.899  70.067  1.00  0.00    -0.320 A  
HETATM   21  C   UNL     1     -10.481   8.424  72.426  1.00  0.00    -0.402 A  
HETATM   22  C   UNL     1     -11.542   9.759  70.714  1.00  0.00    -0.417 A  
ENDBRANCH  16  17
BRANCH  16  23
HETATM   23  N   UNL     1      -7.190  10.551  70.134  1.00  0.00    -0.381 NA 
HETATM   24  H   UNL     1      -6.624  10.616  70.981  1.00  0.00     0.000 HD 
BRANCH  23  25
HETATM   25  C   UNL     1      -7.268  11.665  69.250  1.00  0.00    -0.020 A  
HETATM   26  C   UNL     1      -7.711  13.974  67.628  1.00  0.00    -0.177 A  
HETATM   27  C   UNL     1      -6.609  12.861  69.507  1.00  0.00    -0.029 A  
HETATM   28  C   UNL     1      -7.978  11.568  68.056  1.00  0.00    -0.130 A  
HETATM   29  C   UNL     1      -6.840  13.994  68.722  1.00  0.00    -0.103 A  
HETATM   30  C   UNL     1      -8.197  12.706  67.261  1.00  0.00    -0.184 A  
BRANCH  26  31
HETATM   31  N   UNL     1      -8.128  15.191  66.953  1.00  0.00    -0.203 N  
HETATM   32  C   UNL     1      -7.127  16.236  66.727  1.00  0.00    -0.165 C  
HETATM   33  C   UNL     1      -9.437  15.363  66.444  1.00  0.00    -0.296 C  
HETATM   34  O   UNL     1     -10.378  14.576  66.609  1.00  0.00    -0.267 OA 
BRANCH  33  35
HETATM   35  C   UNL     1      -9.784  16.667  65.710  1.00  0.00    -0.160 C  
BRANCH  35  36
HETATM   36  N   UNL     1     -10.764  17.532  66.402  1.00  0.00    -0.164 NA 
HETATM   37  C   UNL     1     -10.884  17.280  67.856  1.00  0.00    -0.283 C  
HETATM   38  C   UNL     1      -9.804  17.914  68.776  1.00  0.00    -0.352 C  
HETATM   39  N   UNL     1      -9.415  19.305  68.463  1.00  0.00    -0.368 NA 
HETATM   40  C   UNL     1     -10.396  20.274  68.950  1.00  0.00     0.017 C  
HETATM   41  C   UNL     1      -9.213  19.440  67.011  1.00  0.00    -0.318 C  
HETATM   42  C   UNL     1     -10.413  18.947  66.172  1.00  0.00    -0.457 C  
ENDBRANCH  35  36
ENDBRANCH  33  35
ENDBRANCH  26  31
ENDBRANCH  23  25
ENDBRANCH  16  23
ENDBRANCH   3   5
ENDBRANCH   2   3
TORSDOF 8
ENDMDL
MODEL       40
REMARK 921   NORMALIZED FREE ENERGY PREDICTED BY IDOCK:   -5.23 KCAL/MOL
REMARK 922        TOTAL FREE ENERGY PREDICTED BY IDOCK:   -9.21 KCAL/MOL
REMARK 923 INTER-LIGAND FREE ENERGY PREDICTED BY IDOCK:   -9.21 KCAL/MOL
REMARK 924 INTRA-LIGAND FREE ENERGY PREDICTED BY IDOCK:   -0.00 KCAL/MOL
REMARK 927      BINDING AFFINITY PREDICTED BY RF-SCORE:    0.00 PKD
ROOT
HETATM    1  C   UNL     1     -14.410  15.160  72.449  1.00  0.00    -0.361 C  
HETATM    2  O   UNL     1     -13.398  15.779  73.243  1.00  0.00    -0.546 OA 
ENDROOT
BRANCH   2   3
HETATM    3  C   UNL     1     -12.294  16.169  72.549  1.00  0.00    -0.480 C  
HETATM    4  O   UNL     1     -11.546  17.089  72.856  1.00  0.00    -0.134 OA 
BRANCH   3   5
HETATM    5  C   UNL     1     -12.093  15.296  71.366  1.00  0.00    -0.415 A  
HETATM    6  C   UNL     1     -11.962  15.821  70.063  1.00  0.00    -0.352 A  
HETATM    7  C   UNL     1     -11.804  14.979  68.952  1.00  0.00    -0.337 A  
HETATM    8  C   UNL     1     -11.781  13.607  69.142  1.00  0.00    -0.376 A  
HETATM    9  C   UNL     1     -11.912  13.104  70.442  1.00  0.00    -0.266 A  
HETATM   10  C   UNL     1     -12.052  13.909  71.559  1.00  0.00    -0.099 A  
HETATM   11  N   UNL     1     -11.890  11.717  70.433  1.00  0.00    -0.499 N  
HETATM   12  H   UNL     1     -11.978  11.137  71.268  1.00  0.00     0.000 HD 
HETATM   13  C   UNL     1     -11.734  11.215  69.149  1.00  0.00    -0.338 C  
HETATM   14  O   UNL     1     -11.627  10.038  68.863  1.00  0.00    -0.075 OA 
HETATM   15  C   UNL     1     -11.670  12.433  68.244  1.00  0.00    -0.398 C  
HETATM   16  C   UNL     1     -11.555  12.362  66.895  1.00  0.00    -0.370 C  
BRANCH  16  17
HETATM   17  C   UNL     1     -11.447  13.606  66.103  1.00  0.00    -0.342 A  
HETATM   18  C   UNL     1     -11.179  15.874  64.489  1.00  0.00    -0.324 A  
HETATM   19  C   UNL     1     -12.503  14.007  65.273  1.00  0.00    -0.495 A  
HETATM   20  C   UNL     1     -10.270  14.365  66.135  1.00  0.00    -0.317 A  
HETATM   21  C   UNL     1     -12.364  15.137  64.465  1.00  0.00    -0.212 A  
HETATM   22  C   UNL     1     -10.134  15.493  65.328  1.00  0.00    -0.337 A  
ENDBRANCH  16  17
BRANCH  16  23
HETATM   23  N   UNL     1     -11.511  11.221  66.086  1.00  0.00    -0.179 NA 
HETATM   24  H   UNL     1     -12.380  10.806  65.749  1.00  0.00     0.000 HD 
BRANCH  23  25
HETATM   25  C   UNL     1     -10.263  10.633  65.727  1.00  0.00    -0.252 A  
HETATM   26  C   UNL     1      -7.912   9.161  65.052  1.00  0.00    -0.120 A  
HETATM   27  C   UNL     1      -9.880  10.461  64.403  1.00  0.00    -0.395 A  
HETATM   28  C   UNL     1      -9.355  10.256  66.713  1.00  0.00    -0.187 A  
HETATM   29  C   UNL     1      -8.738   9.726  64.074  1.00  0.00    -0.235 A  
HETATM   30  C   UNL     1      -8.200   9.529  66.378  1.00  0.00    -0.115 A  
BRANCH  26  31
HETATM   31  N   UNL     1      -6.862   8.213  64.719  1.00  0.00    -0.066 N  
HETATM   32  C   UNL     1      -5.469   8.639  64.872  1.00  0.00    -0.043 C  
HETATM   33  C   UNL     1      -7.142   6.881  64.331  1.00  0.00    -0.062 C  
HETATM   34  O   UNL     1      -8.270   6.418  64.124  1.00  0.00    -0.091 OA 
BRANCH  33  35
HETATM   35  C   UNL     1      -5.970   5.932  64.032  1.00  0.00    -0.025 C  
BRANCH  35  36
HETATM   36  N   UNL     1      -5.513   5.121  65.180  1.00  0.00    -0.013 NA 
HETATM   37  C   UNL     1      -6.071   5.540  66.487  1.00  0.00    -0.030 C  
HETATM   38  C   UNL     1      -7.509   5.059  66.830  1.00  0.00    -0.087 C  
HETATM   39  N   UNL     1      -7.825   3.655  66.491  1.00  0.00    -0.088 NA 
HETATM   40  C   UNL     1      -7.280   2.716  67.471  1.00  0.00    -0.053 C  
HETATM   41  C   UNL     1      -7.330   3.357  65.138  1.00  0.00    -0.072 C  
HETATM   42  C   UNL     1      -5.838   3.702  64.936  1.00  0.00    -0.022 C  
ENDBRANCH  35  36
ENDBRANCH  33  35
ENDBRANCH  26  31
ENDBRANCH  23  25
ENDBRANCH  16  23
ENDBRANCH   3   5
ENDBRANCH   2   3
TORSDOF 8
ENDMDL
MODEL       41
REMARK 921   NORMALIZED FREE ENERGY PREDICTED BY IDOCK:   -5.23 KCAL/MOL
REMARK 922        TOTAL FREE ENERGY PREDICTED BY IDOCK:   -9.21 KCAL/MOL
REMARK 923 INTER-LIGAND FREE ENERGY PREDICTED BY IDOCK:   -7.60 KCAL/MOL
REMARK 924 INTRA-LIGAND FREE ENERGY PREDICTED BY IDOCK:   -1.60 KCAL/MOL
REMARK 927      BINDING AFFINITY PREDICTED BY RF-SCORE:    0.00 PKD
ROOT
HETATM    1  C   UNL     1      -5.864  19.533  69.180  1.00  0.00    -0.239 C  
HETATM    2  O   UNL     1      -7.223  19.409  68.761  1.00  0.00    -0.326 OA 
ENDROOT
BRANCH   2   3
HETATM    3  C   UNL     1      -7.383  19.120  67.441  1.00  0.00    -0.228 C  
HETATM    4  O   UNL     1      -7.155  19.882  66.510  1.00  0.00    -0.223 OA 
BRANCH   3   5
HETATM    5  C   UNL     1      -7.848  17.720  67.271  1.00  0.00    -0.225 A  
HETATM    6  C   UNL     1      -7.055  16.618  67.652  1.00  0.00    -0.157 A  
HETATM    7  C   UNL     1      -7.497  15.302  67.455  1.00  0.00    -0.239 A  
HETATM    8  C   UNL     1      -8.734  15.084  66.871  1.00  0.00    -0.285 A  
HETATM    9  C   UNL     1      -9.508  16.191  66.501  1.00  0.00    -0.264 A  
HETATM   10  C   UNL     1      -9.106  17.501  66.697  1.00  0.00    -0.287 A  
HETATM   11  N   UNL     1     -10.696  15.781  65.915  1.00  0.00    -0.325 N  
HETATM   12  H   UNL     1     -11.410  16.418  65.561  1.00  0.00     0.000 HD 
HETATM   13  C   UNL     1     -10.795  14.398  65.868  1.00  0.00    -0.304 C  
HETATM   14  O   UNL     1     -11.756  13.775  65.457  1.00  0.00    -0.326 OA 
HETATM   15  C   UNL     1      -9.505  13.880  66.481  1.00  0.00    -0.288 C  
HETATM   16  C   UNL     1      -9.199  12.564  66.588  1.00  0.00    -0.223 C  
BRANCH  16  17
HETATM   17  C   UNL     1      -7.941  12.156  67.249  1.00  0.00    -0.176 A  
HETATM   18  C   UNL     1      -5.506  11.532  68.474  1.00  0.00    -0.042 A  
HETATM   19  C   UNL     1      -7.796  12.296  68.636  1.00  0.00    -0.063 A  
HETATM   20  C   UNL     1      -6.865  11.678  66.489  1.00  0.00     0.043 A  
HETATM   21  C   UNL     1      -6.577  11.987  69.244  1.00  0.00    -0.109 A  
HETATM   22  C   UNL     1      -5.651  11.370  67.098  1.00  0.00    -0.087 A  
ENDBRANCH  16  17
BRANCH  16  23
HETATM   23  N   UNL     1      -9.941  11.461  66.150  1.00  0.00    -0.219 NA 
HETATM   24  H   UNL     1     -10.272  11.425  65.185  1.00  0.00     0.000 HD 
BRANCH  23  25
HETATM   25  C   UNL     1     -10.239  10.388  67.039  1.00  0.00    -0.225 A  
HETATM   26  C   UNL     1     -10.514   8.241  68.902  1.00  0.00    -0.191 A  
HETATM   27  C   UNL     1     -10.757  10.602  68.310  1.00  0.00    -0.260 A  
HETATM   28  C   UNL     1     -10.064   9.068  66.631  1.00  0.00    -0.355 A  
HETATM   29  C   UNL     1     -10.875   9.553  69.226  1.00  0.00    -0.211 A  
HETATM   30  C   UNL     1     -10.198   8.013  67.550  1.00  0.00    -0.311 A  
BRANCH  26  31
HETATM   31  N   UNL     1     -10.419   7.198  69.908  1.00  0.00    -0.217 N  
HETATM   32  C   UNL     1     -11.594   6.357  70.149  1.00  0.00    -0.381 C  
HETATM   33  C   UNL     1      -9.215   6.921  70.600  1.00  0.00    -0.158 C  
HETATM   34  O   UNL     1      -8.174   7.586  70.517  1.00  0.00    -0.115 OA 
BRANCH  33  35
HETATM   35  C   UNL     1      -9.191   5.775  71.622  1.00  0.00    -0.146 C  
BRANCH  35  36
HETATM   36  N   UNL     1      -7.853   5.436  72.152  1.00  0.00    -0.104 NA 
HETATM   37  C   UNL     1      -7.843   5.023  73.574  1.00  0.00    -0.099 C  
HETATM   38  C   UNL     1      -8.245   3.555  73.887  1.00  0.00    -0.078 C  
HETATM   39  N   UNL     1      -7.697   2.521  72.983  1.00  0.00    -0.046 NA 
HETATM   40  C   UNL     1      -6.303   2.204  73.292  1.00  0.00    -0.013 C  
HETATM   41  C   UNL     1      -7.843   2.967  71.588  1.00  0.00    -0.056 C  
HETATM   42  C   UNL     1      -7.255   4.371  71.323  1.00  0.00    -0.044 C  
ENDBRANCH  35  36
ENDBRANCH  33  35
ENDBRANCH  26  31
ENDBRANCH  23  25
ENDBRANCH  16  23
ENDBRANCH   3   5
ENDBRANCH   2   3
TORSDOF 8
ENDMDL
MODEL       42
REMARK 921   NORMALIZED FREE ENERGY PREDICTED BY IDOCK:   -5.12 KCAL/MOL
REMARK 922        TOTAL FREE ENERGY PREDICTED BY IDOCK:   -9.06 KCAL/MOL
REMARK 923 INTER-LIGAND FREE ENERGY PREDICTED BY IDOCK:   -8.26 KCAL/MOL
REMARK 924 INTRA-LIGAND FREE ENERGY PREDICTED BY IDOCK:   -0.80 KCAL/MOL
REMARK 927      BINDING AFFINITY PREDICTED BY RF-SCORE:    0.00 PKD
ROOT
HETATM    1  C   UNL     1     -10.566  19.920  65.852  1.00  0.00    -0.417 C  
HETATM    2  O   UNL     1      -9.841  19.141  66.804  1.00  0.00    -0.306 OA 
ENDROOT
BRANCH   2   3
HETATM    3  C   UNL     1      -8.809  18.426  66.282  1.00  0.00    -0.188 C  
HETATM    4  O   UNL     1      -7.763  18.893  65.848  1.00  0.00    -0.426 OA 
BRANCH   3   5
HETATM    5  C   UNL     1      -9.108  16.973  66.337  1.00  0.00    -0.300 A  
HETATM    6  C   UNL     1      -8.175  16.036  66.828  1.00  0.00    -0.307 A  
HETATM    7  C   UNL     1      -8.462  14.663  66.843  1.00  0.00    -0.203 A  
HETATM    8  C   UNL     1      -9.684  14.223  66.362  1.00  0.00    -0.315 A  
HETATM    9  C   UNL     1     -10.598  15.167  65.880  1.00  0.00    -0.337 A  
HETATM   10  C   UNL     1     -10.351  16.529  65.867  1.00  0.00    -0.365 A  
HETATM   11  N   UNL     1     -11.749  14.543  65.422  1.00  0.00    -0.355 N  
HETATM   12  H   UNL     1     -12.547  15.035  65.020  1.00  0.00     0.000 HD 
HETATM   13  C   UNL     1     -11.682  13.166  65.577  1.00  0.00    -0.357 C  
HETATM   14  O   UNL     1     -12.575  12.384  65.310  1.00  0.00    -0.636 OA 
HETATM   15  C   UNL     1     -10.318  12.895  66.189  1.00  0.00    -0.286 C  
HETATM   16  C   UNL     1      -9.852  11.652  66.465  1.00  0.00    -0.204 C  
BRANCH  16  17
HETATM   17  C   UNL     1      -8.531  11.492  67.109  1.00  0.00    -0.158 A  
HETATM   18  C   UNL     1      -6.005  11.343  68.299  1.00  0.00    -0.045 A  
HETATM   19  C   UNL     1      -8.391  11.693  68.489  1.00  0.00    -0.140 A  
HETATM   20  C   UNL     1      -7.400  11.192  66.339  1.00  0.00    -0.099 A  
HETATM   21  C   UNL     1      -7.128  11.622  69.079  1.00  0.00    -0.108 A  
HETATM   22  C   UNL     1      -6.141  11.121  66.931  1.00  0.00    -0.104 A  
ENDBRANCH  16  17
BRANCH  16  23
HETATM   23  N   UNL     1     -10.471  10.419  66.228  1.00  0.00    -0.197 NA 
HETATM   24  H   UNL     1     -10.842  10.210  65.300  1.00  0.00     0.000 HD 
BRANCH  23  25
HETATM   25  C   UNL     1     -10.588   9.454  67.269  1.00  0.00    -0.244 A  
HETATM   26  C   UNL     1     -10.498   7.569  69.413  1.00  0.00    -0.222 A  
HETATM   27  C   UNL     1     -11.056   9.783  68.535  1.00  0.00    -0.138 A  
HETATM   28  C   UNL     1     -10.279   8.117  67.026  1.00  0.00    -0.378 A  
HETATM   29  C   UNL     1     -10.995   8.865  69.587  1.00  0.00    -0.132 A  
HETATM   30  C   UNL     1     -10.233   7.193  68.084  1.00  0.00    -0.220 A  
BRANCH  26  31
HETATM   31  N   UNL     1     -10.221   6.693  70.538  1.00  0.00    -0.187 N  
HETATM   32  C   UNL     1     -11.326   5.907  71.093  1.00  0.00    -0.159 C  
HETATM   33  C   UNL     1      -8.917   6.519  71.059  1.00  0.00    -0.146 C  
HETATM   34  O   UNL     1      -7.916   7.156  70.708  1.00  0.00    -0.098 OA 
BRANCH  33  35
HETATM   35  C   UNL     1      -8.706   5.545  72.228  1.00  0.00    -0.129 C  
BRANCH  35  36
HETATM   36  N   UNL     1      -8.449   4.143  71.835  1.00  0.00    -0.103 NA 
HETATM   37  C   UNL     1      -8.796   3.826  70.431  1.00  0.00    -0.086 C  
HETATM   38  C   UNL     1      -7.766   4.231  69.339  1.00  0.00    -0.054 C  
HETATM   39  N   UNL     1      -6.345   3.972  69.654  1.00  0.00    -0.028 NA 
HETATM   40  C   UNL     1      -5.988   2.566  69.467  1.00  0.00    -0.024 C  
HETATM   41  C   UNL     1      -6.063   4.413  71.029  1.00  0.00    -0.018 C  
HETATM   42  C   UNL     1      -7.029   3.820  72.079  1.00  0.00    -0.041 C  
ENDBRANCH  35  36
ENDBRANCH  33  35
ENDBRANCH  26  31
ENDBRANCH  23  25
ENDBRANCH  16  23
ENDBRANCH   3   5
ENDBRANCH   2   3
TORSDOF 8
ENDMDL
MODEL       43
REMARK 921   NORMALIZED FREE ENERGY PREDICTED BY IDOCK:   -5.06 KCAL/MOL
REMARK 922        TOTAL FREE ENERGY PREDICTED BY IDOCK:   -8.97 KCAL/MOL
REMARK 923 INTER-LIGAND FREE ENERGY PREDICTED BY IDOCK:   -7.65 KCAL/MOL
REMARK 924 INTRA-LIGAND FREE ENERGY PREDICTED BY IDOCK:   -1.33 KCAL/MOL
REMARK 927      BINDING AFFINITY PREDICTED BY RF-SCORE:    0.00 PKD
ROOT
HETATM    1  C   UNL     1      -6.292  19.380  69.690  1.00  0.00    -0.298 C  
HETATM    2  O   UNL     1      -6.347  19.045  68.304  1.00  0.00    -0.218 OA 
ENDROOT
BRANCH   2   3
HETATM    3  C   UNL     1      -7.591  19.106  67.756  1.00  0.00    -0.253 C  
HETATM    4  O   UNL     1      -8.226  20.130  67.538  1.00  0.00    -0.317 OA 
BRANCH   3   5
HETATM    5  C   UNL     1      -8.075  17.743  67.421  1.00  0.00    -0.217 A  
HETATM    6  C   UNL     1      -7.438  16.583  67.908  1.00  0.00    -0.161 A  
HETATM    7  C   UNL     1      -7.889  15.303  67.555  1.00  0.00    -0.198 A  
HETATM    8  C   UNL     1      -8.980  15.180  66.709  1.00  0.00    -0.293 A  
HETATM    9  C   UNL     1      -9.600  16.342  66.237  1.00  0.00    -0.311 A  
HETATM   10  C   UNL     1      -9.188  17.619  66.580  1.00  0.00    -0.286 A  
HETATM   11  N   UNL     1     -10.652  16.025  65.390  1.00  0.00    -0.407 N  
HETATM   12  H   UNL     1     -11.240  16.715  64.923  1.00  0.00     0.000 HD 
HETATM   13  C   UNL     1     -10.805  14.653  65.254  1.00  0.00    -0.377 C  
HETATM   14  O   UNL     1     -11.682  14.103  64.616  1.00  0.00    -0.377 OA 
HETATM   15  C   UNL     1      -9.705  14.038  66.103  1.00  0.00    -0.300 C  
HETATM   16  C   UNL     1      -9.493  12.703  66.208  1.00  0.00    -0.207 C  
BRANCH  16  17
HETATM   17  C   UNL     1      -8.429  12.199  67.102  1.00  0.00    -0.182 A  
HETATM   18  C   UNL     1      -6.466  11.098  68.761  1.00  0.00    -0.052 A  
HETATM   19  C   UNL     1      -7.152  11.927  66.594  1.00  0.00     0.079 A  
HETATM   20  C   UNL     1      -8.704  11.939  68.451  1.00  0.00    -0.157 A  
HETATM   21  C   UNL     1      -6.175  11.373  67.424  1.00  0.00    -0.078 A  
HETATM   22  C   UNL     1      -7.727  11.386  69.277  1.00  0.00     0.055 A  
ENDBRANCH  16  17
BRANCH  16  23
HETATM   23  N   UNL     1     -10.175  11.663  65.566  1.00  0.00    -0.249 NA 
HETATM   24  H   UNL     1     -10.846  11.877  64.829  1.00  0.00     0.000 HD 
BRANCH  23  25
HETATM   25  C   UNL     1      -9.940  10.306  65.934  1.00  0.00    -0.256 A  
HETATM   26  C   UNL     1      -9.181   7.693  66.801  1.00  0.00    -0.160 A  
HETATM   27  C   UNL     1     -10.475   9.749  67.089  1.00  0.00    -0.316 A  
HETATM   28  C   UNL     1      -9.195   9.472  65.104  1.00  0.00    -0.305 A  
HETATM   29  C   UNL     1     -10.089   8.477  67.520  1.00  0.00    -0.282 A  
HETATM   30  C   UNL     1      -8.821   8.187  65.534  1.00  0.00    -0.130 A  
BRANCH  26  31
HETATM   31  N   UNL     1      -8.606   6.479  67.353  1.00  0.00    -0.118 N  
HETATM   32  C   UNL     1      -7.370   6.589  68.132  1.00  0.00    -0.090 C  
HETATM   33  C   UNL     1      -9.239   5.218  67.231  1.00  0.00    -0.113 C  
HETATM   34  O   UNL     1     -10.255   4.991  66.564  1.00  0.00    -0.217 OA 
BRANCH  33  35
HETATM   35  C   UNL     1      -8.580   3.990  67.877  1.00  0.00    -0.097 C  
BRANCH  35  36
HETATM   36  N   UNL     1      -9.379   3.335  68.935  1.00  0.00    -0.164 NA 
HETATM   37  C   UNL     1      -8.672   2.251  69.654  1.00  0.00    -0.068 C  
HETATM   38  C   UNL     1      -7.686   2.672  70.779  1.00  0.00    -0.042 C  
HETATM   39  N   UNL     1      -8.144   3.755  71.675  1.00  0.00    -0.065 NA 
HETATM   40  C   UNL     1      -9.086   3.272  72.685  1.00  0.00    -0.088 C  
HETATM   41  C   UNL     1      -8.736   4.836  70.871  1.00  0.00    -0.111 C  
HETATM   42  C   UNL     1      -9.837   4.353  69.901  1.00  0.00    -0.220 C  
ENDBRANCH  35  36
ENDBRANCH  33  35
ENDBRANCH  26  31
ENDBRANCH  23  25
ENDBRANCH  16  23
ENDBRANCH   3   5
ENDBRANCH   2   3
TORSDOF 8
ENDMDL
MODEL       44
REMARK 921   NORMALIZED FREE ENERGY PREDICTED BY IDOCK:   -5.03 KCAL/MOL
REMARK 922        TOTAL FREE ENERGY PREDICTED BY IDOCK:   -8.93 KCAL/MOL
REMARK 923 INTER-LIGAND FREE ENERGY PREDICTED BY IDOCK:   -7.95 KCAL/MOL
REMARK 924 INTRA-LIGAND FREE ENERGY PREDICTED BY IDOCK:   -0.98 KCAL/MOL
REMARK 927      BINDING AFFINITY PREDICTED BY RF-SCORE:    0.00 PKD
ROOT
HETATM    1  C   UNL     1     -14.309  15.252  71.870  1.00  0.00    -0.589 C  
HETATM    2  O   UNL     1     -13.882  15.589  70.550  1.00  0.00    -0.239 OA 
ENDROOT
BRANCH   2   3
HETATM    3  C   UNL     1     -12.534  15.568  70.369  1.00  0.00    -0.402 C  
HETATM    4  O   UNL     1     -11.751  16.436  70.733  1.00  0.00    -0.283 OA 
BRANCH   3   5
HETATM    5  C   UNL     1     -12.124  14.315  69.687  1.00  0.00    -0.396 A  
HETATM    6  C   UNL     1     -11.754  13.159  70.407  1.00  0.00    -0.141 A  
HETATM    7  C   UNL     1     -11.338  11.994  69.747  1.00  0.00    -0.201 A  
HETATM    8  C   UNL     1     -11.287  11.983  68.363  1.00  0.00    -0.332 A  
HETATM    9  C   UNL     1     -11.658  13.138  67.665  1.00  0.00    -0.349 A  
HETATM   10  C   UNL     1     -12.088  14.298  68.287  1.00  0.00    -0.278 A  
HETATM   11  N   UNL     1     -11.520  12.949  66.298  1.00  0.00    -0.330 N  
HETATM   12  H   UNL     1     -11.727  13.661  65.597  1.00  0.00     0.000 HD 
HETATM   13  C   UNL     1     -11.068  11.672  66.000  1.00  0.00    -0.270 C  
HETATM   14  O   UNL     1     -10.914  11.224  64.880  1.00  0.00    -0.262 OA 
HETATM   15  C   UNL     1     -10.881  10.987  67.343  1.00  0.00    -0.327 C  
HETATM   16  C   UNL     1     -10.412   9.722  67.483  1.00  0.00    -0.251 C  
BRANCH  16  17
HETATM   17  C   UNL     1     -10.315   9.123  68.831  1.00  0.00    -0.232 A  
HETATM   18  C   UNL     1     -10.188   8.123  71.439  1.00  0.00    -0.248 A  
HETATM   19  C   UNL     1     -11.394   8.403  69.361  1.00  0.00     0.352 A  
HETATM   20  C   UNL     1      -9.165   9.313  69.609  1.00  0.00    -0.182 A  
HETATM   21  C   UNL     1     -11.329   7.909  70.666  1.00  0.00    -0.267 A  
HETATM   22  C   UNL     1      -9.103   8.819  70.910  1.00  0.00    -0.256 A  
ENDBRANCH  16  17
BRANCH  16  23
HETATM   23  N   UNL     1      -9.986   8.838  66.485  1.00  0.00    -0.275 NA 
HETATM   24  H   UNL     1      -9.818   9.185  65.540  1.00  0.00     0.000 HD 
BRANCH  23  25
HETATM   25  C   UNL     1      -9.787   7.458  66.776  1.00  0.00    -0.220 A  
HETATM   26  C   UNL     1      -9.374   4.780  67.679  1.00  0.00    -0.138 A  
HETATM   27  C   UNL     1     -10.844   6.561  66.871  1.00  0.00    -0.427 A  
HETATM   28  C   UNL     1      -8.498   6.950  66.925  1.00  0.00    -0.115 A  
HETATM   29  C   UNL     1     -10.642   5.256  67.330  1.00  0.00    -0.200 A  
HETATM   30  C   UNL     1      -8.298   5.632  67.372  1.00  0.00    -0.100 A  
BRANCH  26  31
HETATM   31  N   UNL     1      -9.190   3.513  68.366  1.00  0.00    -0.153 N  
HETATM   32  C   UNL     1      -8.673   2.377  67.599  1.00  0.00    -0.115 C  
HETATM   33  C   UNL     1      -9.418   3.365  69.755  1.00  0.00    -0.159 C  
HETATM   34  O   UNL     1      -9.895   4.232  70.497  1.00  0.00    -0.200 OA 
BRANCH  33  35
HETATM   35  C   UNL     1      -9.163   1.999  70.409  1.00  0.00    -0.107 C  
BRANCH  35  36
HETATM   36  N   UNL     1      -7.783   1.784  70.894  1.00  0.00    -0.032 NA 
HETATM   37  C   UNL     1      -6.848   2.891  70.589  1.00  0.00    -0.033 C  
HETATM   38  C   UNL     1      -6.891   4.133  71.522  1.00  0.00    -0.031 C  
HETATM   39  N   UNL     1      -7.005   3.858  72.970  1.00  0.00    -0.054 NA 
HETATM   40  C   UNL     1      -5.724   3.465  73.557  1.00  0.00     0.000 C  
HETATM   41  C   UNL     1      -8.029   2.825  73.191  1.00  0.00    -0.059 C  
HETATM   42  C   UNL     1      -7.809   1.547  72.350  1.00  0.00    -0.044 C  
ENDBRANCH  35  36
ENDBRANCH  33  35
ENDBRANCH  26  31
ENDBRANCH  23  25
ENDBRANCH  16  23
ENDBRANCH   3   5
ENDBRANCH   2   3
TORSDOF 8
ENDMDL
MODEL       45
REMARK 921   NORMALIZED FREE ENERGY PREDICTED BY IDOCK:   -5.01 KCAL/MOL
REMARK 922        TOTAL FREE ENERGY PREDICTED BY IDOCK:   -8.89 KCAL/MOL
REMARK 923 INTER-LIGAND FREE ENERGY PREDICTED BY IDOCK:   -6.86 KCAL/MOL
REMARK 924 INTRA-LIGAND FREE ENERGY PREDICTED BY IDOCK:   -2.04 KCAL/MOL
REMARK 927      BINDING AFFINITY PREDICTED BY RF-SCORE:    0.00 PKD
ROOT
HETATM    1  C   UNL     1     -14.362  14.871  72.154  1.00  0.00    -0.507 C  
HETATM    2  O   UNL     1     -13.808  15.862  71.287  1.00  0.00    -0.423 OA 
ENDROOT
BRANCH   2   3
HETATM    3  C   UNL     1     -12.458  16.003  71.379  1.00  0.00    -0.294 C  
HETATM    4  O   UNL     1     -11.865  16.678  72.211  1.00  0.00    -0.466 OA 
BRANCH   3   5
HETATM    5  C   UNL     1     -11.783  15.189  70.337  1.00  0.00    -0.333 A  
HETATM    6  C   UNL     1     -10.415  14.856  70.420  1.00  0.00     0.088 A  
HETATM    7  C   UNL     1      -9.785  14.113  69.410  1.00  0.00     0.343 A  
HETATM    8  C   UNL     1     -10.523  13.705  68.312  1.00  0.00    -0.253 A  
HETATM    9  C   UNL     1     -11.879  14.044  68.247  1.00  0.00    -0.371 A  
HETATM   10  C   UNL     1     -12.533  14.762  69.234  1.00  0.00    -0.045 A  
HETATM   11  N   UNL     1     -12.445  13.574  67.071  1.00  0.00    -0.268 N  
HETATM   12  H   UNL     1     -13.421  13.712  66.809  1.00  0.00     0.000 HD 
HETATM   13  C   UNL     1     -11.520  12.891  66.294  1.00  0.00    -0.348 C  
HETATM   14  O   UNL     1     -11.762  12.330  65.243  1.00  0.00    -0.362 OA 
HETATM   15  C   UNL     1     -10.214  12.960  67.068  1.00  0.00    -0.243 C  
HETATM   16  C   UNL     1      -9.047  12.434  66.621  1.00  0.00    -0.204 C  
BRANCH  16  17
HETATM   17  C   UNL     1      -7.840  12.505  67.471  1.00  0.00    -0.168 A  
HETATM   18  C   UNL     1      -5.640  12.721  69.184  1.00  0.00    -0.073 A  
HETATM   19  C   UNL     1      -7.579  11.499  68.411  1.00  0.00    -0.125 A  
HETATM   20  C   UNL     1      -6.975  13.605  67.382  1.00  0.00    -0.075 A  
HETATM   21  C   UNL     1      -6.483  11.612  69.268  1.00  0.00    -0.105 A  
HETATM   22  C   UNL     1      -5.881  13.714  68.238  1.00  0.00    -0.103 A  
ENDBRANCH  16  17
BRANCH  16  23
HETATM   23  N   UNL     1      -8.795  11.786  65.407  1.00  0.00    -0.390 NA 
HETATM   24  H   UNL     1      -8.649  12.337  64.560  1.00  0.00     0.000 HD 
BRANCH  23  25
HETATM   25  C   UNL     1      -8.739  10.364  65.341  1.00  0.00    -0.180 A  
HETATM   26  C   UNL     1      -8.397   7.531  65.448  1.00  0.00    -0.124 A  
HETATM   27  C   UNL     1      -9.645   9.556  66.017  1.00  0.00    -0.316 A  
HETATM   28  C   UNL     1      -7.789   9.734  64.541  1.00  0.00    -0.137 A  
HETATM   29  C   UNL     1      -9.466   8.172  66.082  1.00  0.00    -0.217 A  
HETATM   30  C   UNL     1      -7.621   8.339  64.597  1.00  0.00    -0.106 A  
BRANCH  26  31
HETATM   31  N   UNL     1      -8.078   6.136  65.697  1.00  0.00    -0.121 N  
HETATM   32  C   UNL     1      -8.973   5.112  65.153  1.00  0.00    -0.126 C  
HETATM   33  C   UNL     1      -6.900   5.739  66.375  1.00  0.00    -0.059 C  
HETATM   34  O   UNL     1      -6.094   6.505  66.917  1.00  0.00    -0.027 OA 
BRANCH  33  35
HETATM   35  C   UNL     1      -6.621   4.240  66.564  1.00  0.00    -0.049 C  
BRANCH  35  36
HETATM   36  N   UNL     1      -6.797   3.740  67.944  1.00  0.00    -0.046 NA 
HETATM   37  C   UNL     1      -7.937   4.341  68.673  1.00  0.00    -0.073 C  
HETATM   38  C   UNL     1      -9.350   3.766  68.376  1.00  0.00    -0.166 C  
HETATM   39  N   UNL     1      -9.446   2.294  68.269  1.00  0.00    -0.209 NA 
HETATM   40  C   UNL     1      -9.460   1.648  69.581  1.00  0.00    -0.054 C  
HETATM   41  C   UNL     1      -8.337   1.792  67.442  1.00  0.00    -0.076 C  
HETATM   42  C   UNL     1      -6.946   2.272  67.916  1.00  0.00    -0.047 C  
ENDBRANCH  35  36
ENDBRANCH  33  35
ENDBRANCH  26  31
ENDBRANCH  23  25
ENDBRANCH  16  23
ENDBRANCH   3   5
ENDBRANCH   2   3
TORSDOF 8
ENDMDL
MODEL       46
REMARK 921   NORMALIZED FREE ENERGY PREDICTED BY IDOCK:   -4.96 KCAL/MOL
REMARK 922        TOTAL FREE ENERGY PREDICTED BY IDOCK:   -8.82 KCAL/MOL
REMARK 923 INTER-LIGAND FREE ENERGY PREDICTED BY IDOCK:   -7.46 KCAL/MOL
REMARK 924 INTRA-LIGAND FREE ENERGY PREDICTED BY IDOCK:   -1.37 KCAL/MOL
REMARK 927      BINDING AFFINITY PREDICTED BY RF-SCORE:    0.00 PKD
ROOT
HETATM    1  C   UNL     1      -8.898   1.737  73.226  1.00  0.00    -0.066 C  
HETATM    2  O   UNL     1     -10.178   2.254  72.861  1.00  0.00    -0.120 OA 
ENDROOT
BRANCH   2   3
HETATM    3  C   UNL     1     -10.332   3.588  73.077  1.00  0.00    -0.165 C  
HETATM    4  O   UNL     1     -10.740   4.102  74.111  1.00  0.00    -0.232 OA 
BRANCH   3   5
HETATM    5  C   UNL     1      -9.900   4.358  71.883  1.00  0.00    -0.247 A  
HETATM    6  C   UNL     1     -10.021   3.840  70.577  1.00  0.00    -0.016 A  
HETATM    7  C   UNL     1      -9.578   4.569  69.463  1.00  0.00    -0.266 A  
HETATM    8  C   UNL     1      -9.009   5.817  69.653  1.00  0.00    -0.135 A  
HETATM    9  C   UNL     1      -8.899   6.315  70.957  1.00  0.00    -0.136 A  
HETATM   10  C   UNL     1      -9.340   5.628  72.074  1.00  0.00    -0.165 A  
HETATM   11  N   UNL     1      -8.287   7.560  70.954  1.00  0.00    -0.113 N  
HETATM   12  H   UNL     1      -8.096   8.106  71.794  1.00  0.00     0.000 HD 
HETATM   13  C   UNL     1      -7.966   7.970  69.668  1.00  0.00    -0.117 C  
HETATM   14  O   UNL     1      -7.474   9.043  69.375  1.00  0.00    -0.073 OA 
HETATM   15  C   UNL     1      -8.413   6.838  68.760  1.00  0.00    -0.124 C  
HETATM   16  C   UNL     1      -8.241   6.841  67.415  1.00  0.00    -0.122 C  
BRANCH  16  17
HETATM   17  C   UNL     1      -8.758   5.715  66.609  1.00  0.00    -0.118 A  
HETATM   18  C   UNL     1      -9.775   3.512  65.218  1.00  0.00    -0.111 A  
HETATM   19  C   UNL     1     -10.096   5.703  66.191  1.00  0.00    -0.096 A  
HETATM   20  C   UNL     1      -7.932   4.626  66.301  1.00  0.00    -0.103 A  
HETATM   21  C   UNL     1     -10.601   4.600  65.501  1.00  0.00    -0.208 A  
HETATM   22  C   UNL     1      -8.439   3.527  65.611  1.00  0.00    -0.108 A  
ENDBRANCH  16  17
BRANCH  16  23
HETATM   23  N   UNL     1      -7.617   7.810  66.621  1.00  0.00    -0.095 NA 
HETATM   24  H   UNL     1      -6.642   7.687  66.345  1.00  0.00     0.000 HD 
BRANCH  23  25
HETATM   25  C   UNL     1      -8.330   8.967  66.194  1.00  0.00    -0.122 A  
HETATM   26  C   UNL     1      -9.641  11.436  65.609  1.00  0.00    -0.231 A  
HETATM   27  C   UNL     1      -7.814   9.848  65.252  1.00  0.00    -0.131 A  
HETATM   28  C   UNL     1      -9.610   9.223  66.679  1.00  0.00    -0.263 A  
HETATM   29  C   UNL     1      -8.448  11.064  64.980  1.00  0.00     0.074 A  
HETATM   30  C   UNL     1     -10.252  10.440  66.392  1.00  0.00    -0.292 A  
BRANCH  26  31
HETATM   31  N   UNL     1     -10.179  12.781  65.505  1.00  0.00    -0.279 N  
HETATM   32  C   UNL     1     -10.855  13.162  64.262  1.00  0.00    -0.406 C  
HETATM   33  C   UNL     1     -10.141  13.698  66.583  1.00  0.00    -0.277 C  
HETATM   34  O   UNL     1      -9.562  13.510  67.660  1.00  0.00    -0.210 OA 
BRANCH  33  35
HETATM   35  C   UNL     1     -10.767  15.088  66.399  1.00  0.00    -0.322 C  
BRANCH  35  36
HETATM   36  N   UNL     1      -9.886  16.093  65.767  1.00  0.00    -0.421 NA 
HETATM   37  C   UNL     1     -10.391  17.483  65.840  1.00  0.00    -0.259 C  
HETATM   38  C   UNL     1     -10.165  18.249  67.173  1.00  0.00    -0.373 C  
HETATM   39  N   UNL     1      -8.838  18.085  67.803  1.00  0.00    -0.252 NA 
HETATM   40  C   UNL     1      -7.817  18.909  67.158  1.00  0.00    -0.240 C  
HETATM   41  C   UNL     1      -8.462  16.662  67.783  1.00  0.00    -0.187 C  
HETATM   42  C   UNL     1      -8.545  16.021  66.379  1.00  0.00    -0.334 C  
ENDBRANCH  35  36
ENDBRANCH  33  35
ENDBRANCH  26  31
ENDBRANCH  23  25
ENDBRANCH  16  23
ENDBRANCH   3   5
ENDBRANCH   2   3
TORSDOF 8
ENDMDL
MODEL       47
REMARK 921   NORMALIZED FREE ENERGY PREDICTED BY IDOCK:   -4.87 KCAL/MOL
REMARK 922        TOTAL FREE ENERGY PREDICTED BY IDOCK:   -8.69 KCAL/MOL
REMARK 923 INTER-LIGAND FREE ENERGY PREDICTED BY IDOCK:   -7.38 KCAL/MOL
REMARK 924 INTRA-LIGAND FREE ENERGY PREDICTED BY IDOCK:   -1.31 KCAL/MOL
REMARK 927      BINDING AFFINITY PREDICTED BY RF-SCORE:    0.00 PKD
ROOT
HETATM    1  C   UNL     1      -8.493  20.664  66.781  1.00  0.00    -0.035 C  
HETATM    2  O   UNL     1      -8.950  19.357  67.128  1.00  0.00    -0.285 OA 
ENDROOT
BRANCH   2   3
HETATM    3  C   UNL     1      -8.384  18.351  66.409  1.00  0.00    -0.251 C  
HETATM    4  O   UNL     1      -7.579  18.490  65.496  1.00  0.00    -0.499 OA 
BRANCH   3   5
HETATM    5  C   UNL     1      -8.853  17.033  66.906  1.00  0.00    -0.251 A  
HETATM    6  C   UNL     1      -8.455  15.822  66.302  1.00  0.00    -0.245 A  
HETATM    7  C   UNL     1      -8.934  14.587  66.766  1.00  0.00    -0.270 A  
HETATM    8  C   UNL     1      -9.816  14.562  67.833  1.00  0.00    -0.222 A  
HETATM    9  C   UNL     1     -10.198  15.774  68.420  1.00  0.00    -0.223 A  
HETATM   10  C   UNL     1      -9.731  17.006  67.996  1.00  0.00    -0.260 A  
HETATM   11  N   UNL     1     -11.099  15.553  69.452  1.00  0.00    -0.269 N  
HETATM   12  H   UNL     1     -11.517  16.294  70.016  1.00  0.00     0.000 HD 
HETATM   13  C   UNL     1     -11.361  14.202  69.625  1.00  0.00    -0.236 C  
HETATM   14  O   UNL     1     -12.069  13.728  70.493  1.00  0.00    -0.330 OA 
HETATM   15  C   UNL     1     -10.541  13.493  68.560  1.00  0.00    -0.257 C  
HETATM   16  C   UNL     1     -10.551  12.150  68.374  1.00  0.00    -0.226 C  
BRANCH  16  17
HETATM   17  C   UNL     1      -9.678  11.547  67.345  1.00  0.00    -0.191 A  
HETATM   18  C   UNL     1      -8.069  10.265  65.451  1.00  0.00    -0.147 A  
HETATM   19  C   UNL     1     -10.182  11.269  66.068  1.00  0.00    -0.295 A  
HETATM   20  C   UNL     1      -8.356  11.201  67.654  1.00  0.00    -0.122 A  
HETATM   21  C   UNL     1      -9.378  10.624  65.126  1.00  0.00    -0.254 A  
HETATM   22  C   UNL     1      -7.555  10.558  66.712  1.00  0.00    -0.115 A  
ENDBRANCH  16  17
BRANCH  16  23
HETATM   23  N   UNL     1     -11.302  11.185  69.055  1.00  0.00    -0.248 NA 
HETATM   24  H   UNL     1     -12.234  11.418  69.398  1.00  0.00     0.000 HD 
BRANCH  23  25
HETATM   25  C   UNL     1     -10.776   9.879  69.274  1.00  0.00    -0.224 A  
HETATM   26  C   UNL     1     -10.008   7.193  69.867  1.00  0.00    -0.182 A  
HETATM   27  C   UNL     1     -10.843   8.882  68.308  1.00  0.00    -0.048 A  
HETATM   28  C   UNL     1     -10.121   9.575  70.465  1.00  0.00    -0.347 A  
HETATM   29  C   UNL     1     -10.483   7.565  68.605  1.00  0.00    -0.207 A  
HETATM   30  C   UNL     1      -9.747   8.251  70.755  1.00  0.00    -0.197 A  
BRANCH  26  31
HETATM   31  N   UNL     1      -9.850   5.800  70.250  1.00  0.00    -0.180 N  
HETATM   32  C   UNL     1     -10.711   5.271  71.310  1.00  0.00    -0.128 C  
HETATM   33  C   UNL     1      -8.954   4.929  69.584  1.00  0.00    -0.099 C  
HETATM   34  O   UNL     1      -8.147   5.266  68.709  1.00  0.00    -0.089 OA 
BRANCH  33  35
HETATM   35  C   UNL     1      -8.876   3.461  70.029  1.00  0.00    -0.089 C  
BRANCH  35  36
HETATM   36  N   UNL     1      -7.619   3.079  70.708  1.00  0.00    -0.040 NA 
HETATM   37  C   UNL     1      -7.061   4.124  71.597  1.00  0.00    -0.046 C  
HETATM   38  C   UNL     1      -7.686   4.255  73.014  1.00  0.00    -0.082 C  
HETATM   39  N   UNL     1      -7.972   2.989  73.721  1.00  0.00    -0.064 NA 
HETATM   40  C   UNL     1      -6.767   2.404  74.309  1.00  0.00    -0.026 C  
HETATM   41  C   UNL     1      -8.621   2.048  72.794  1.00  0.00    -0.062 C  
HETATM   42  C   UNL     1      -7.838   1.839  71.478  1.00  0.00    -0.040 C  
ENDBRANCH  35  36
ENDBRANCH  33  35
ENDBRANCH  26  31
ENDBRANCH  23  25
ENDBRANCH  16  23
ENDBRANCH   3   5
ENDBRANCH   2   3
TORSDOF 8
ENDMDL
MODEL       48
REMARK 921   NORMALIZED FREE ENERGY PREDICTED BY IDOCK:   -4.78 KCAL/MOL
REMARK 922        TOTAL FREE ENERGY PREDICTED BY IDOCK:   -8.55 KCAL/MOL
REMARK 923 INTER-LIGAND FREE ENERGY PREDICTED BY IDOCK:   -7.60 KCAL/MOL
REMARK 924 INTRA-LIGAND FREE ENERGY PREDICTED BY IDOCK:   -0.96 KCAL/MOL
REMARK 927      BINDING AFFINITY PREDICTED BY RF-SCORE:    0.00 PKD
ROOT
HETATM    1  C   UNL     1     -14.204  15.328  71.786  1.00  0.00    -0.568 C  
HETATM    2  O   UNL     1     -13.520  15.586  70.560  1.00  0.00    -0.361 OA 
ENDROOT
BRANCH   2   3
HETATM    3  C   UNL     1     -12.167  15.668  70.673  1.00  0.00    -0.405 C  
HETATM    4  O   UNL     1     -11.559  16.258  71.558  1.00  0.00    -0.457 OA 
BRANCH   3   5
HETATM    5  C   UNL     1     -11.510  14.906  69.582  1.00  0.00    -0.325 A  
HETATM    6  C   UNL     1     -12.123  14.721  68.325  1.00  0.00    -0.179 A  
HETATM    7  C   UNL     1     -11.501  13.971  67.317  1.00  0.00    -0.372 A  
HETATM    8  C   UNL     1     -10.265  13.398  67.565  1.00  0.00    -0.226 A  
HETATM    9  C   UNL     1      -9.671  13.593  68.818  1.00  0.00    -0.034 A  
HETATM   10  C   UNL     1     -10.252  14.341  69.827  1.00  0.00     0.369 A  
HETATM   11  N   UNL     1      -8.455  12.930  68.890  1.00  0.00    -0.344 N  
HETATM   12  H   UNL     1      -7.852  12.927  69.713  1.00  0.00     0.000 HD 
HETATM   13  C   UNL     1      -8.158  12.272  67.705  1.00  0.00    -0.155 C  
HETATM   14  O   UNL     1      -7.131  11.661  67.478  1.00  0.00    -0.094 OA 
HETATM   15  C   UNL     1      -9.340  12.539  66.789  1.00  0.00    -0.230 C  
HETATM   16  C   UNL     1      -9.448  12.032  65.536  1.00  0.00    -0.104 C  
BRANCH  16  17
HETATM   17  C   UNL     1     -10.613  12.392  64.699  1.00  0.00    -0.339 A  
HETATM   18  C   UNL     1     -12.904  13.075  63.248  1.00  0.00     0.248 A  
HETATM   19  C   UNL     1     -10.908  13.738  64.443  1.00  0.00    -0.343 A  
HETATM   20  C   UNL     1     -11.461  11.395  64.200  1.00  0.00    -0.197 A  
HETATM   21  C   UNL     1     -12.055  14.076  63.722  1.00  0.00    -0.265 A  
HETATM   22  C   UNL     1     -12.604  11.734  63.480  1.00  0.00    -0.485 A  
ENDBRANCH  16  17
BRANCH  16  23
HETATM   23  N   UNL     1      -8.569  11.174  64.866  1.00  0.00    -0.377 NA 
HETATM   24  H   UNL     1      -7.926  11.551  64.169  1.00  0.00     0.000 HD 
BRANCH  23  25
HETATM   25  C   UNL     1      -8.562   9.777  65.149  1.00  0.00    -0.158 A  
HETATM   26  C   UNL     1      -8.295   7.040  65.919  1.00  0.00    -0.141 A  
HETATM   27  C   UNL     1      -9.419   9.207  66.082  1.00  0.00    -0.309 A  
HETATM   28  C   UNL     1      -7.717   8.922  64.446  1.00  0.00    -0.120 A  
HETATM   29  C   UNL     1      -9.275   7.872  66.470  1.00  0.00    -0.238 A  
HETATM   30  C   UNL     1      -7.585   7.576  64.829  1.00  0.00    -0.102 A  
BRANCH  26  31
HETATM   31  N   UNL     1      -7.993   5.732  66.475  1.00  0.00    -0.101 N  
HETATM   32  C   UNL     1      -6.725   5.557  67.186  1.00  0.00    -0.059 C  
HETATM   33  C   UNL     1      -8.912   4.657  66.420  1.00  0.00    -0.114 C  
HETATM   34  O   UNL     1      -9.989   4.668  65.813  1.00  0.00    -0.195 OA 
BRANCH  33  35
HETATM   35  C   UNL     1      -8.527   3.317  67.066  1.00  0.00    -0.101 C  
BRANCH  35  36
HETATM   36  N   UNL     1      -9.430   2.860  68.144  1.00  0.00    -0.196 NA 
HETATM   37  C   UNL     1      -9.036   1.577  68.770  1.00  0.00    -0.123 C  
HETATM   38  C   UNL     1      -7.916   1.627  69.846  1.00  0.00    -0.041 C  
HETATM   39  N   UNL     1      -7.993   2.741  70.815  1.00  0.00    -0.046 NA 
HETATM   40  C   UNL     1      -8.984   2.492  71.861  1.00  0.00    -0.080 C  
HETATM   41  C   UNL     1      -8.282   3.993  70.097  1.00  0.00    -0.057 C  
HETATM   42  C   UNL     1      -9.522   3.907  69.180  1.00  0.00    -0.176 C  
ENDBRANCH  35  36
ENDBRANCH  33  35
ENDBRANCH  26  31
ENDBRANCH  23  25
ENDBRANCH  16  23
ENDBRANCH   3   5
ENDBRANCH   2   3
TORSDOF 8
ENDMDL
MODEL       49
REMARK 921   NORMALIZED FREE ENERGY PREDICTED BY IDOCK:   -4.77 KCAL/MOL
REMARK 922        TOTAL FREE ENERGY PREDICTED BY IDOCK:   -8.53 KCAL/MOL
REMARK 923 INTER-LIGAND FREE ENERGY PREDICTED BY IDOCK:   -7.10 KCAL/MOL
REMARK 924 INTRA-LIGAND FREE ENERGY PREDICTED BY IDOCK:   -1.43 KCAL/MOL
REMARK 927      BINDING AFFINITY PREDICTED BY RF-SCORE:    0.00 PKD
ROOT
HETATM    1  C   UNL     1      -5.874   2.253  62.995  1.00  0.00    -0.009 C  
HETATM    2  O   UNL     1      -5.873   3.161  64.097  1.00  0.00    -0.010 OA 
ENDROOT
BRANCH   2   3
HETATM    3  C   UNL     1      -6.944   3.042  64.927  1.00  0.00    -0.049 C  
HETATM    4  O   UNL     1      -7.347   2.000  65.430  1.00  0.00    -0.055 OA 
BRANCH   3   5
HETATM    5  C   UNL     1      -7.554   4.373  65.177  1.00  0.00    -0.077 A  
HETATM    6  C   UNL     1      -7.319   5.473  64.327  1.00  0.00    -0.058 A  
HETATM    7  C   UNL     1      -7.878   6.732  64.596  1.00  0.00    -0.116 A  
HETATM    8  C   UNL     1      -8.671   6.893  65.720  1.00  0.00    -0.120 A  
HETATM    9  C   UNL     1      -8.894   5.788  66.551  1.00  0.00    -0.126 A  
HETATM   10  C   UNL     1      -8.370   4.531  66.304  1.00  0.00    -0.110 A  
HETATM   11  N   UNL     1      -9.687   6.144  67.633  1.00  0.00    -0.114 N  
HETATM   12  H   UNL     1      -9.971   5.500  68.371  1.00  0.00     0.000 HD 
HETATM   13  C   UNL     1     -10.048   7.482  67.586  1.00  0.00    -0.187 C  
HETATM   14  O   UNL     1     -10.784   8.040  68.378  1.00  0.00    -0.139 OA 
HETATM   15  C   UNL     1      -9.385   8.036  66.336  1.00  0.00    -0.259 C  
HETATM   16  C   UNL     1      -9.469   9.334  65.954  1.00  0.00    -0.259 C  
BRANCH  16  17
HETATM   17  C   UNL     1      -8.832   9.767  64.691  1.00  0.00    -0.244 A  
HETATM   18  C   UNL     1      -7.641  10.734  62.354  1.00  0.00    -0.153 A  
HETATM   19  C   UNL     1      -7.437   9.869  64.604  1.00  0.00    -0.140 A  
HETATM   20  C   UNL     1      -9.620  10.128  63.590  1.00  0.00    -0.268 A  
HETATM   21  C   UNL     1      -6.846  10.357  63.437  1.00  0.00    -0.033 A  
HETATM   22  C   UNL     1      -9.026  10.614  62.427  1.00  0.00    -0.329 A  
ENDBRANCH  16  17
BRANCH  16  23
HETATM   23  N   UNL     1     -10.112  10.392  66.605  1.00  0.00    -0.216 NA 
HETATM   24  H   UNL     1     -11.096  10.305  66.860  1.00  0.00     0.000 HD 
BRANCH  23  25
HETATM   25  C   UNL     1      -9.406  11.590  66.915  1.00  0.00    -0.181 A  
HETATM   26  C   UNL     1      -8.236  14.058  67.750  1.00  0.00    -0.168 A  
HETATM   27  C   UNL     1      -8.354  11.615  67.822  1.00  0.00    -0.143 A  
HETATM   28  C   UNL     1      -9.723  12.781  66.266  1.00  0.00    -0.262 A  
HETATM   29  C   UNL     1      -7.794  12.825  68.242  1.00  0.00    -0.141 A  
HETATM   30  C   UNL     1      -9.148  13.995  66.681  1.00  0.00    -0.221 A  
BRANCH  26  31
HETATM   31  N   UNL     1      -7.821  15.317  68.344  1.00  0.00    -0.118 N  
HETATM   32  C   UNL     1      -8.535  15.791  69.532  1.00  0.00    -0.138 C  
HETATM   33  C   UNL     1      -6.711  16.052  67.862  1.00  0.00    -0.141 C  
HETATM   34  O   UNL     1      -6.060  15.780  66.846  1.00  0.00    -0.266 OA 
BRANCH  33  35
HETATM   35  C   UNL     1      -6.318  17.356  68.572  1.00  0.00    -0.176 C  
BRANCH  35  36
HETATM   36  N   UNL     1      -6.620  18.593  67.821  1.00  0.00    -0.210 NA 
HETATM   37  C   UNL     1      -7.498  18.396  66.645  1.00  0.00    -0.229 C  
HETATM   38  C   UNL     1      -9.026  18.287  66.912  1.00  0.00    -0.279 C  
HETATM   39  N   UNL     1      -9.585  19.238  67.896  1.00  0.00    -0.319 NA 
HETATM   40  C   UNL     1      -9.782  20.570  67.325  1.00  0.00    -0.460 C  
HETATM   41  C   UNL     1      -8.707  19.291  69.076  1.00  0.00    -0.223 C  
HETATM   42  C   UNL     1      -7.229  19.582  68.733  1.00  0.00    -0.356 C  
ENDBRANCH  35  36
ENDBRANCH  33  35
ENDBRANCH  26  31
ENDBRANCH  23  25
ENDBRANCH  16  23
ENDBRANCH   3   5
ENDBRANCH   2   3
TORSDOF 8
ENDMDL
MODEL       50
REMARK 921   NORMALIZED FREE ENERGY PREDICTED BY IDOCK:   -4.74 KCAL/MOL
REMARK 922        TOTAL FREE ENERGY PREDICTED BY IDOCK:   -8.49 KCAL/MOL
REMARK 923 INTER-LIGAND FREE ENERGY PREDICTED BY IDOCK:   -6.52 KCAL/MOL
REMARK 924 INTRA-LIGAND FREE ENERGY PREDICTED BY IDOCK:   -1.97 KCAL/MOL
REMARK 927      BINDING AFFINITY PREDICTED BY RF-SCORE:    0.00 PKD
ROOT
HETATM    1  C   UNL     1     -12.828  16.044  73.615  1.00  0.00    -0.595 C  
HETATM    2  O   UNL     1     -12.239  16.331  72.347  1.00  0.00    -0.490 OA 
ENDROOT
BRANCH   2   3
HETATM    3  C   UNL     1     -12.862  15.747  71.288  1.00  0.00    -0.426 C  
HETATM    4  O   UNL     1     -14.072  15.705  71.105  1.00  0.00    -0.539 OA 
BRANCH   3   5
HETATM    5  C   UNL     1     -11.862  15.183  70.347  1.00  0.00    -0.349 A  
HETATM    6  C   UNL     1     -12.242  14.475  69.188  1.00  0.00    -0.234 A  
HETATM    7  C   UNL     1     -11.283  13.921  68.327  1.00  0.00    -0.298 A  
HETATM    8  C   UNL     1      -9.939  14.072  68.626  1.00  0.00    -0.203 A  
HETATM    9  C   UNL     1      -9.581  14.779  69.780  1.00  0.00     0.255 A  
HETATM   10  C   UNL     1     -10.502  15.350  70.640  1.00  0.00    -0.055 A  
HETATM   11  N   UNL     1      -8.201  14.806  69.927  1.00  0.00    -0.370 N  
HETATM   12  H   UNL     1      -7.717  15.259  70.701  1.00  0.00     0.000 HD 
HETATM   13  C   UNL     1      -7.562  14.140  68.891  1.00  0.00    -0.098 C  
HETATM   14  O   UNL     1      -6.357  14.060  68.744  1.00  0.00    -0.081 OA 
HETATM   15  C   UNL     1      -8.675  13.617  68.000  1.00  0.00    -0.176 C  
HETATM   16  C   UNL     1      -8.460  12.874  66.886  1.00  0.00    -0.086 C  
BRANCH  16  17
HETATM   17  C   UNL     1      -9.607  12.455  66.053  1.00  0.00    -0.214 A  
HETATM   18  C   UNL     1     -11.674  11.603  64.373  1.00  0.00    -0.226 A  
HETATM   19  C   UNL     1     -10.196  11.198  66.244  1.00  0.00    -0.286 A  
HETATM   20  C   UNL     1     -10.081  13.289  65.031  1.00  0.00    -0.247 A  
HETATM   21  C   UNL     1     -11.224  10.774  65.401  1.00  0.00     0.335 A  
HETATM   22  C   UNL     1     -11.108  12.863  64.191  1.00  0.00    -0.438 A  
ENDBRANCH  16  17
BRANCH  16  23
HETATM   23  N   UNL     1      -7.242  12.421  66.366  1.00  0.00     0.001 NA 
HETATM   24  H   UNL     1      -6.556  13.095  66.026  1.00  0.00     0.000 HD 
BRANCH  23  25
HETATM   25  C   UNL     1      -6.953  11.027  66.306  1.00  0.00    -0.095 A  
HETATM   26  C   UNL     1      -6.696   8.184  66.243  1.00  0.00    -0.054 A  
HETATM   27  C   UNL     1      -6.864  10.341  65.101  1.00  0.00    -0.120 A  
HETATM   28  C   UNL     1      -6.695  10.312  67.473  1.00  0.00    -0.071 A  
HETATM   29  C   UNL     1      -6.756   8.948  65.073  1.00  0.00    -0.069 A  
HETATM   30  C   UNL     1      -6.572   8.912  67.439  1.00  0.00    -0.061 A  
BRANCH  26  31
HETATM   31  N   UNL     1      -6.813   6.736  66.223  1.00  0.00    -0.059 N  
HETATM   32  C   UNL     1      -5.946   5.982  65.314  1.00  0.00    -0.025 C  
HETATM   33  C   UNL     1      -7.672   6.034  67.102  1.00  0.00    -0.101 C  
HETATM   34  O   UNL     1      -8.481   6.556  67.879  1.00  0.00    -0.118 OA 
BRANCH  33  35
HETATM   35  C   UNL     1      -7.707   4.499  67.040  1.00  0.00    -0.090 C  
BRANCH  35  36
HETATM   36  N   UNL     1      -8.989   3.920  66.585  1.00  0.00    -0.126 NA 
HETATM   37  C   UNL     1      -9.513   4.505  65.329  1.00  0.00    -0.171 C  
HETATM   38  C   UNL     1      -8.903   3.985  63.997  1.00  0.00    -0.120 C  
HETATM   39  N   UNL     1      -8.684   2.526  63.906  1.00  0.00    -0.086 NA 
HETATM   40  C   UNL     1      -9.922   1.800  63.620  1.00  0.00    -0.130 C  
HETATM   41  C   UNL     1      -8.064   2.047  65.152  1.00  0.00    -0.079 C  
HETATM   42  C   UNL     1      -8.836   2.461  66.425  1.00  0.00    -0.129 C  
ENDBRANCH  35  36
ENDBRANCH  33  35
ENDBRANCH  26  31
ENDBRANCH  23  25
ENDBRANCH  16  23
ENDBRANCH   3   5
ENDBRANCH   2   3
TORSDOF 8
ENDMDL
MODEL       51
REMARK 921   NORMALIZED FREE ENERGY PREDICTED BY IDOCK:   -4.73 KCAL/MOL
REMARK 922        TOTAL FREE ENERGY PREDICTED BY IDOCK:   -8.48 KCAL/MOL
REMARK 923 INTER-LIGAND FREE ENERGY PREDICTED BY IDOCK:   -8.94 KCAL/MOL
REMARK 924 INTRA-LIGAND FREE ENERGY PREDICTED BY IDOCK:    0.46 KCAL/MOL
REMARK 927      BINDING AFFINITY PREDICTED BY RF-SCORE:    0.00 PKD
ROOT
HETATM    1  C   UNL     1      -9.772  20.659  68.034  1.00  0.00    -0.046 C  
HETATM    2  O   UNL     1     -10.604  19.782  67.275  1.00  0.00    -0.446 OA 
ENDROOT
BRANCH   2   3
HETATM    3  C   UNL     1      -9.932  18.823  66.583  1.00  0.00    -0.365 C  
HETATM    4  O   UNL     1      -9.068  19.025  65.739  1.00  0.00    -0.384 OA 
BRANCH   3   5
HETATM    5  C   UNL     1     -10.368  17.472  67.016  1.00  0.00    -0.324 A  
HETATM    6  C   UNL     1     -10.722  17.194  68.352  1.00  0.00    -0.347 A  
HETATM    7  C   UNL     1     -11.101  15.903  68.751  1.00  0.00    -0.328 A  
HETATM    8  C   UNL     1     -11.123  14.885  67.812  1.00  0.00    -0.313 A  
HETATM    9  C   UNL     1     -10.769  15.180  66.490  1.00  0.00    -0.310 A  
HETATM   10  C   UNL     1     -10.407  16.446  66.063  1.00  0.00    -0.365 A  
HETATM   11  N   UNL     1     -10.826  14.039  65.703  1.00  0.00    -0.288 N  
HETATM   12  H   UNL     1     -10.601  14.017  64.708  1.00  0.00     0.000 HD 
HETATM   13  C   UNL     1     -11.227  12.930  66.435  1.00  0.00    -0.300 C  
HETATM   14  O   UNL     1     -11.413  11.818  65.981  1.00  0.00    -0.322 OA 
HETATM   15  C   UNL     1     -11.425  13.435  67.854  1.00  0.00    -0.350 C  
HETATM   16  C   UNL     1     -11.786  12.639  68.891  1.00  0.00    -0.302 C  
BRANCH  16  17
HETATM   17  C   UNL     1     -12.007  13.233  70.227  1.00  0.00    -0.372 A  
HETATM   18  C   UNL     1     -12.512  14.466  72.685  1.00  0.00    -0.282 A  
HETATM   19  C   UNL     1     -13.085  12.811  71.016  1.00  0.00    -0.062 A  
HETATM   20  C   UNL     1     -11.172  14.257  70.692  1.00  0.00     0.108 A  
HETATM   21  C   UNL     1     -13.337  13.432  72.241  1.00  0.00    -0.641 A  
HETATM   22  C   UNL     1     -11.425  14.875  71.915  1.00  0.00    -0.251 A  
ENDBRANCH  16  17
BRANCH  16  23
HETATM   23  N   UNL     1     -12.006  11.257  68.890  1.00  0.00    -0.462 NA 
HETATM   24  H   UNL     1     -12.959  10.896  68.942  1.00  0.00     0.000 HD 
BRANCH  23  25
HETATM   25  C   UNL     1     -10.910  10.348  68.817  1.00  0.00    -0.232 A  
HETATM   26  C   UNL     1      -8.900   8.320  68.855  1.00  0.00    -0.140 A  
HETATM   27  C   UNL     1     -10.716   9.509  67.727  1.00  0.00    -0.302 A  
HETATM   28  C   UNL     1      -9.958  10.312  69.833  1.00  0.00    -0.183 A  
HETATM   29  C   UNL     1      -9.743   8.507  67.755  1.00  0.00    -0.199 A  
HETATM   30  C   UNL     1      -8.971   9.312  69.851  1.00  0.00    -0.194 A  
BRANCH  26  31
HETATM   31  N   UNL     1      -8.050   7.150  68.984  1.00  0.00    -0.120 N  
HETATM   32  C   UNL     1      -6.775   7.135  68.262  1.00  0.00    -0.061 C  
HETATM   33  C   UNL     1      -8.375   6.069  69.839  1.00  0.00    -0.123 C  
HETATM   34  O   UNL     1      -9.436   5.945  70.463  1.00  0.00    -0.163 OA 
BRANCH  33  35
HETATM   35  C   UNL     1      -7.401   4.886  69.945  1.00  0.00    -0.055 C  
BRANCH  35  36
HETATM   36  N   UNL     1      -7.937   3.590  69.474  1.00  0.00    -0.050 NA 
HETATM   37  C   UNL     1      -8.790   3.683  68.267  1.00  0.00    -0.115 C  
HETATM   38  C   UNL     1      -8.066   3.785  66.895  1.00  0.00    -0.095 C  
HETATM   39  N   UNL     1      -6.896   2.901  66.707  1.00  0.00    -0.047 NA 
HETATM   40  C   UNL     1      -7.288   1.527  66.396  1.00  0.00    -0.052 C  
HETATM   41  C   UNL     1      -6.049   2.952  67.910  1.00  0.00    -0.028 C  
HETATM   42  C   UNL     1      -6.818   2.663  69.219  1.00  0.00    -0.033 C  
ENDBRANCH  35  36
ENDBRANCH  33  35
ENDBRANCH  26  31
ENDBRANCH  23  25
ENDBRANCH  16  23
ENDBRANCH   3   5
ENDBRANCH   2   3
TORSDOF 8
ENDMDL
MODEL       52
REMARK 921   NORMALIZED FREE ENERGY PREDICTED BY IDOCK:   -4.72 KCAL/MOL
REMARK 922        TOTAL FREE ENERGY PREDICTED BY IDOCK:   -8.46 KCAL/MOL
REMARK 923 INTER-LIGAND FREE ENERGY PREDICTED BY IDOCK:   -6.59 KCAL/MOL
REMARK 924 INTRA-LIGAND FREE ENERGY PREDICTED BY IDOCK:   -1.87 KCAL/MOL
REMARK 927      BINDING AFFINITY PREDICTED BY RF-SCORE:    0.00 PKD
ROOT
HETATM    1  C   UNL     1     -10.372  19.100  67.938  1.00  0.00    -0.414 C  
HETATM    2  O   UNL     1      -9.568  18.033  68.441  1.00  0.00    -0.305 OA 
ENDROOT
BRANCH   2   3
HETATM    3  C   UNL     1     -10.264  17.048  69.070  1.00  0.00    -0.313 C  
HETATM    4  O   UNL     1     -11.035  17.206  70.008  1.00  0.00     0.045 OA 
BRANCH   3   5
HETATM    5  C   UNL     1      -9.985  15.734  68.439  1.00  0.00    -0.217 A  
HETATM    6  C   UNL     1      -8.853  14.966  68.779  1.00  0.00    -0.183 A  
HETATM    7  C   UNL     1      -8.588  13.741  68.149  1.00  0.00    -0.175 A  
HETATM    8  C   UNL     1      -9.456  13.283  67.172  1.00  0.00    -0.240 A  
HETATM    9  C   UNL     1     -10.576  14.058  66.848  1.00  0.00    -0.280 A  
HETATM   10  C   UNL     1     -10.872  15.262  67.463  1.00  0.00    -0.304 A  
HETATM   11  N   UNL     1     -11.312  13.455  65.838  1.00  0.00    -0.305 N  
HETATM   12  H   UNL     1     -12.164  13.846  65.438  1.00  0.00     0.000 HD 
HETATM   13  C   UNL     1     -10.746  12.252  65.439  1.00  0.00    -0.284 C  
HETATM   14  O   UNL     1     -11.216  11.494  64.612  1.00  0.00    -0.287 OA 
HETATM   15  C   UNL     1      -9.495  12.094  66.287  1.00  0.00    -0.238 C  
HETATM   16  C   UNL     1      -8.637  11.051  66.172  1.00  0.00    -0.175 C  
BRANCH  16  17
HETATM   17  C   UNL     1      -7.473  10.958  67.080  1.00  0.00    -0.109 A  
HETATM   18  C   UNL     1      -5.304  10.929  68.844  1.00  0.00    -0.040 A  
HETATM   19  C   UNL     1      -7.637  10.480  68.388  1.00  0.00    -0.097 A  
HETATM   20  C   UNL     1      -6.211  11.395  66.659  1.00  0.00    -0.137 A  
HETATM   21  C   UNL     1      -6.552  10.471  69.267  1.00  0.00    -0.060 A  
HETATM   22  C   UNL     1      -5.130  11.384  67.539  1.00  0.00    -0.047 A  
ENDBRANCH  16  17
BRANCH  16  23
HETATM   23  N   UNL     1      -8.689   9.977  65.277  1.00  0.00    -0.153 NA 
HETATM   24  H   UNL     1      -8.490  10.133  64.288  1.00  0.00     0.000 HD 
BRANCH  23  25
HETATM   25  C   UNL     1      -9.017   8.668  65.732  1.00  0.00    -0.197 A  
HETATM   26  C   UNL     1      -9.488   6.110  66.912  1.00  0.00    -0.136 A  
HETATM   27  C   UNL     1     -10.204   8.393  66.400  1.00  0.00    -0.168 A  
HETATM   28  C   UNL     1      -8.165   7.598  65.470  1.00  0.00    -0.135 A  
HETATM   29  C   UNL     1     -10.425   7.146  66.992  1.00  0.00    -0.392 A  
HETATM   30  C   UNL     1      -8.398   6.341  66.054  1.00  0.00    -0.138 A  
BRANCH  26  31
HETATM   31  N   UNL     1      -9.608   4.901  67.708  1.00  0.00    -0.141 N  
HETATM   32  C   UNL     1      -9.450   3.609  67.036  1.00  0.00    -0.190 C  
HETATM   33  C   UNL     1      -9.791   4.934  69.112  1.00  0.00    -0.193 C  
HETATM   34  O   UNL     1      -9.982   5.955  69.783  1.00  0.00    -0.163 OA 
BRANCH  33  35
HETATM   35  C   UNL     1      -9.871   3.608  69.882  1.00  0.00     0.046 C  
BRANCH  35  36
HETATM   36  N   UNL     1      -8.572   3.075  70.348  1.00  0.00    -0.060 NA 
HETATM   37  C   UNL     1      -7.621   4.107  70.821  1.00  0.00    -0.048 C  
HETATM   38  C   UNL     1      -7.821   4.644  72.266  1.00  0.00    -0.093 C  
HETATM   39  N   UNL     1      -8.139   3.635  73.299  1.00  0.00    -0.078 NA 
HETATM   40  C   UNL     1      -6.950   2.904  73.737  1.00  0.00    -0.036 C  
HETATM   41  C   UNL     1      -9.167   2.717  72.784  1.00  0.00    -0.086 C  
HETATM   42  C   UNL     1      -8.805   2.088  71.419  1.00  0.00    -0.067 C  
ENDBRANCH  35  36
ENDBRANCH  33  35
ENDBRANCH  26  31
ENDBRANCH  23  25
ENDBRANCH  16  23
ENDBRANCH   3   5
ENDBRANCH   2   3
TORSDOF 8
ENDMDL
MODEL       53
REMARK 921   NORMALIZED FREE ENERGY PREDICTED BY IDOCK:   -4.72 KCAL/MOL
REMARK 922        TOTAL FREE ENERGY PREDICTED BY IDOCK:   -8.46 KCAL/MOL
REMARK 923 INTER-LIGAND FREE ENERGY PREDICTED BY IDOCK:   -6.99 KCAL/MOL
REMARK 924 INTRA-LIGAND FREE ENERGY PREDICTED BY IDOCK:   -1.47 KCAL/MOL
REMARK 927      BINDING AFFINITY PREDICTED BY RF-SCORE:    0.00 PKD
ROOT
HETATM    1  C   UNL     1     -11.409   1.668  63.025  1.00  0.00    -0.253 C  
HETATM    2  O   UNL     1     -10.485   2.366  63.860  1.00  0.00    -0.119 OA 
ENDROOT
BRANCH   2   3
HETATM    3  C   UNL     1     -10.208   3.636  63.459  1.00  0.00    -0.210 C  
HETATM    4  O   UNL     1     -10.388   4.085  62.334  1.00  0.00    -0.175 OA 
BRANCH   3   5
HETATM    5  C   UNL     1      -9.679   4.433  64.595  1.00  0.00    -0.109 A  
HETATM    6  C   UNL     1     -10.328   4.472  65.846  1.00  0.00    -0.289 A  
HETATM    7  C   UNL     1      -9.832   5.256  66.898  1.00  0.00    -0.191 A  
HETATM    8  C   UNL     1      -8.685   6.006  66.699  1.00  0.00    -0.123 A  
HETATM    9  C   UNL     1      -8.054   5.954  65.451  1.00  0.00    -0.130 A  
HETATM   10  C   UNL     1      -8.510   5.178  64.399  1.00  0.00    -0.138 A  
HETATM   11  N   UNL     1      -6.942   6.783  65.431  1.00  0.00    -0.058 N  
HETATM   12  H   UNL     1      -6.335   6.908  64.620  1.00  0.00     0.000 HD 
HETATM   13  C   UNL     1      -6.756   7.422  66.648  1.00  0.00    -0.061 C  
HETATM   14  O   UNL     1      -5.829   8.160  66.921  1.00  0.00    -0.046 OA 
HETATM   15  C   UNL     1      -7.901   6.951  67.529  1.00  0.00    -0.112 C  
HETATM   16  C   UNL     1      -8.096   7.380  68.800  1.00  0.00    -0.128 C  
BRANCH  16  17
HETATM   17  C   UNL     1      -9.210   6.823  69.598  1.00  0.00    -0.145 A  
HETATM   18  C   UNL     1     -11.271   5.864  71.225  1.00  0.00    -0.280 A  
HETATM   19  C   UNL     1     -10.478   7.418  69.550  1.00  0.00    -0.236 A  
HETATM   20  C   UNL     1      -8.994   5.730  70.447  1.00  0.00    -0.154 A  
HETATM   21  C   UNL     1     -11.503   6.940  70.367  1.00  0.00    -0.387 A  
HETATM   22  C   UNL     1     -10.020   5.254  71.261  1.00  0.00    -0.256 A  
ENDBRANCH  16  17
BRANCH  16  23
HETATM   23  N   UNL     1      -7.355   8.322  69.523  1.00  0.00    -0.072 NA 
HETATM   24  H   UNL     1      -6.686   8.008  70.226  1.00  0.00     0.000 HD 
BRANCH  23  25
HETATM   25  C   UNL     1      -7.526   9.717  69.286  1.00  0.00    -0.085 A  
HETATM   26  C   UNL     1      -7.829  12.443  68.489  1.00  0.00    -0.112 A  
HETATM   27  C   UNL     1      -8.783  10.303  69.193  1.00  0.00    -0.176 A  
HETATM   28  C   UNL     1      -6.418  10.555  69.190  1.00  0.00    -0.054 A  
HETATM   29  C   UNL     1      -8.929  11.632  68.786  1.00  0.00    -0.016 A  
HETATM   30  C   UNL     1      -6.570  11.896  68.795  1.00  0.00    -0.080 A  
BRANCH  26  31
HETATM   31  N   UNL     1      -7.978  13.740  67.852  1.00  0.00    -0.141 N  
HETATM   32  C   UNL     1      -8.905  13.856  66.724  1.00  0.00    -0.149 C  
HETATM   33  C   UNL     1      -7.322  14.898  68.333  1.00  0.00    -0.114 C  
HETATM   34  O   UNL     1      -6.485  14.920  69.243  1.00  0.00    -0.105 OA 
BRANCH  33  35
HETATM   35  C   UNL     1      -7.564  16.239  67.622  1.00  0.00    -0.141 C  
BRANCH  35  36
HETATM   36  N   UNL     1      -8.287  17.250  68.423  1.00  0.00    -0.252 NA 
HETATM   37  C   UNL     1      -7.683  18.601  68.393  1.00  0.00    -0.306 C  
HETATM   38  C   UNL     1      -7.990  19.487  67.154  1.00  0.00    -0.268 C  
HETATM   39  N   UNL     1      -9.387  19.470  66.670  1.00  0.00    -0.338 NA 
HETATM   40  C   UNL     1     -10.262  20.311  67.486  1.00  0.00    -0.346 C  
HETATM   41  C   UNL     1      -9.872  18.081  66.630  1.00  0.00    -0.352 C  
HETATM   42  C   UNL     1      -9.688  17.324  67.965  1.00  0.00    -0.277 C  
ENDBRANCH  35  36
ENDBRANCH  33  35
ENDBRANCH  26  31
ENDBRANCH  23  25
ENDBRANCH  16  23
ENDBRANCH   3   5
ENDBRANCH   2   3
TORSDOF 8
ENDMDL
MODEL       54
REMARK 921   NORMALIZED FREE ENERGY PREDICTED BY IDOCK:   -4.68 KCAL/MOL
REMARK 922        TOTAL FREE ENERGY PREDICTED BY IDOCK:   -8.41 KCAL/MOL
REMARK 923 INTER-LIGAND FREE ENERGY PREDICTED BY IDOCK:   -7.05 KCAL/MOL
REMARK 924 INTRA-LIGAND FREE ENERGY PREDICTED BY IDOCK:   -1.36 KCAL/MOL
REMARK 927      BINDING AFFINITY PREDICTED BY RF-SCORE:    0.00 PKD
ROOT
HETATM    1  C   UNL     1      -6.334   2.371  63.665  1.00  0.00    -0.014 C  
HETATM    2  O   UNL     1      -6.068   3.344  64.675  1.00  0.00    -0.021 OA 
ENDROOT
BRANCH   2   3
HETATM    3  C   UNL     1      -6.669   3.097  65.870  1.00  0.00    -0.044 C  
HETATM    4  O   UNL     1      -6.507   2.097  66.558  1.00  0.00    -0.024 OA 
BRANCH   3   5
HETATM    5  C   UNL     1      -7.538   4.237  66.256  1.00  0.00    -0.089 A  
HETATM    6  C   UNL     1      -7.346   5.533  65.735  1.00  0.00    -0.073 A  
HETATM    7  C   UNL     1      -8.158   6.605  66.136  1.00  0.00    -0.118 A  
HETATM    8  C   UNL     1      -9.162   6.383  67.064  1.00  0.00    -0.136 A  
HETATM    9  C   UNL     1      -9.338   5.089  67.570  1.00  0.00    -0.125 A  
HETATM   10  C   UNL     1      -8.564   4.009  67.182  1.00  0.00    -0.104 A  
HETATM   11  N   UNL     1     -10.368   5.064  68.498  1.00  0.00    -0.081 N  
HETATM   12  H   UNL     1     -10.666   4.228  69.001  1.00  0.00     0.000 HD 
HETATM   13  C   UNL     1     -10.943   6.316  68.660  1.00  0.00    -0.346 C  
HETATM   14  O   UNL     1     -11.899   6.564  69.369  1.00  0.00    -0.209 OA 
HETATM   15  C   UNL     1     -10.167   7.239  67.736  1.00  0.00    -0.247 C  
HETATM   16  C   UNL     1     -10.405   8.570  67.630  1.00  0.00    -0.253 C  
BRANCH  16  17
HETATM   17  C   UNL     1      -9.631   9.377  66.663  1.00  0.00    -0.250 A  
HETATM   18  C   UNL     1      -8.078  10.776  64.805  1.00  0.00     0.089 A  
HETATM   19  C   UNL     1     -10.025   9.435  65.319  1.00  0.00     0.079 A  
HETATM   20  C   UNL     1      -8.469  10.046  67.069  1.00  0.00    -0.125 A  
HETATM   21  C   UNL     1      -9.245  10.130  64.394  1.00  0.00    -0.306 A  
HETATM   22  C   UNL     1      -7.693  10.740  66.143  1.00  0.00    -0.149 A  
ENDBRANCH  16  17
BRANCH  16  23
HETATM   23  N   UNL     1     -11.334   9.345  68.334  1.00  0.00    -0.385 NA 
HETATM   24  H   UNL     1     -12.074   8.888  68.866  1.00  0.00     0.000 HD 
BRANCH  23  25
HETATM   25  C   UNL     1     -11.255  10.768  68.313  1.00  0.00    -0.297 A  
HETATM   26  C   UNL     1     -10.789  13.581  68.151  1.00  0.00    -0.254 A  
HETATM   27  C   UNL     1     -11.775  11.523  67.269  1.00  0.00    -0.193 A  
HETATM   28  C   UNL     1     -10.690  11.456  69.384  1.00  0.00    -0.152 A  
HETATM   29  C   UNL     1     -11.531  12.896  67.183  1.00  0.00    -0.388 A  
HETATM   30  C   UNL     1     -10.459  12.840  69.301  1.00  0.00     0.205 A  
BRANCH  26  31
HETATM   31  N   UNL     1     -10.342  14.949  67.954  1.00  0.00    -0.235 N  
HETATM   32  C   UNL     1     -11.263  16.035  68.296  1.00  0.00    -0.350 C  
HETATM   33  C   UNL     1      -9.032  15.262  67.521  1.00  0.00    -0.185 C  
HETATM   34  O   UNL     1      -8.182  14.438  67.160  1.00  0.00    -0.204 OA 
BRANCH  33  35
HETATM   35  C   UNL     1      -8.629  16.737  67.374  1.00  0.00    -0.193 C  
BRANCH  35  36
HETATM   36  N   UNL     1      -8.278  17.419  68.637  1.00  0.00    -0.273 NA 
HETATM   37  C   UNL     1      -6.865  17.253  69.050  1.00  0.00    -0.245 C  
HETATM   38  C   UNL     1      -5.814  18.170  68.363  1.00  0.00    -0.178 C  
HETATM   39  N   UNL     1      -6.201  19.586  68.186  1.00  0.00    -0.222 NA 
HETATM   40  C   UNL     1      -6.059  20.354  69.422  1.00  0.00    -0.326 C  
HETATM   41  C   UNL     1      -7.579  19.655  67.673  1.00  0.00    -0.276 C  
HETATM   42  C   UNL     1      -8.594  18.856  68.521  1.00  0.00    -0.348 C  
ENDBRANCH  35  36
ENDBRANCH  33  35
ENDBRANCH  26  31
ENDBRANCH  23  25
ENDBRANCH  16  23
ENDBRANCH   3   5
ENDBRANCH   2   3
TORSDOF 8
ENDMDL
MODEL       55
REMARK 921   NORMALIZED FREE ENERGY PREDICTED BY IDOCK:   -4.67 KCAL/MOL
REMARK 922        TOTAL FREE ENERGY PREDICTED BY IDOCK:   -8.40 KCAL/MOL
REMARK 923 INTER-LIGAND FREE ENERGY PREDICTED BY IDOCK:   -6.17 KCAL/MOL
REMARK 924 INTRA-LIGAND FREE ENERGY PREDICTED BY IDOCK:   -2.23 KCAL/MOL
REMARK 927      BINDING AFFINITY PREDICTED BY RF-SCORE:    0.00 PKD
ROOT
HETATM    1  C   UNL     1     -10.616   2.192  72.611  1.00  0.00    -0.112 C  
HETATM    2  O   UNL     1     -11.267   3.458  72.497  1.00  0.00     0.289 OA 
ENDROOT
BRANCH   2   3
HETATM    3  C   UNL     1     -10.789   4.416  73.336  1.00  0.00    -0.267 C  
HETATM    4  O   UNL     1     -11.021   4.495  74.536  1.00  0.00    -0.288 OA 
BRANCH   3   5
HETATM    5  C   UNL     1      -9.906   5.355  72.600  1.00  0.00    -0.184 A  
HETATM    6  C   UNL     1     -10.117   5.669  71.242  1.00  0.00    -0.261 A  
HETATM    7  C   UNL     1      -9.253   6.533  70.553  1.00  0.00    -0.156 A  
HETATM    8  C   UNL     1      -8.171   7.083  71.222  1.00  0.00    -0.113 A  
HETATM    9  C   UNL     1      -7.979   6.760  72.570  1.00  0.00    -0.101 A  
HETATM   10  C   UNL     1      -8.822   5.924  73.281  1.00  0.00    -0.127 A  
HETATM   11  N   UNL     1      -6.840   7.380  73.063  1.00  0.00    -0.064 N  
HETATM   12  H   UNL     1      -6.501   7.281  74.020  1.00  0.00     0.000 HD 
HETATM   13  C   UNL     1      -6.217   8.154  72.094  1.00  0.00    -0.054 C  
HETATM   14  O   UNL     1      -5.234   8.847  72.272  1.00  0.00    -0.043 OA 
HETATM   15  C   UNL     1      -7.056   7.981  70.839  1.00  0.00    -0.049 C  
HETATM   16  C   UNL     1      -6.755   8.555  69.648  1.00  0.00    -0.040 C  
BRANCH  16  17
HETATM   17  C   UNL     1      -7.663   8.370  68.496  1.00  0.00    -0.104 A  
HETATM   18  C   UNL     1      -9.467   7.924  66.407  1.00  0.00    -0.258 A  
HETATM   19  C   UNL     1      -8.753   9.232  68.313  1.00  0.00    -0.129 A  
HETATM   20  C   UNL     1      -7.472   7.302  67.610  1.00  0.00    -0.101 A  
HETATM   21  C   UNL     1      -9.654   9.003  67.271  1.00  0.00    -0.206 A  
HETATM   22  C   UNL     1      -8.373   7.077  66.571  1.00  0.00    -0.121 A  
ENDBRANCH  16  17
BRANCH  16  23
HETATM   23  N   UNL     1      -5.652   9.353  69.323  1.00  0.00    -0.035 NA 
HETATM   24  H   UNL     1      -4.712   8.957  69.363  1.00  0.00     0.000 HD 
BRANCH  23  25
HETATM   25  C   UNL     1      -5.830  10.713  68.936  1.00  0.00    -0.040 A  
HETATM   26  C   UNL     1      -6.479  13.344  68.035  1.00  0.00    -0.131 A  
HETATM   27  C   UNL     1      -6.305  11.677  69.817  1.00  0.00    -0.134 A  
HETATM   28  C   UNL     1      -5.476  11.131  67.656  1.00  0.00    -0.041 A  
HETATM   29  C   UNL     1      -6.638  12.958  69.370  1.00  0.00    -0.062 A  
HETATM   30  C   UNL     1      -5.799  12.426  67.214  1.00  0.00    -0.125 A  
BRANCH  26  31
HETATM   31  N   UNL     1      -7.030  14.586  67.521  1.00  0.00    -0.184 N  
HETATM   32  C   UNL     1      -6.210  15.797  67.608  1.00  0.00    -0.159 C  
HETATM   33  C   UNL     1      -8.288  14.645  66.876  1.00  0.00    -0.126 C  
HETATM   34  O   UNL     1      -9.088  13.706  66.781  1.00  0.00    -0.247 OA 
BRANCH  33  35
HETATM   35  C   UNL     1      -8.780  15.994  66.329  1.00  0.00    -0.336 C  
BRANCH  35  36
HETATM   36  N   UNL     1      -9.850  16.638  67.120  1.00  0.00    -0.251 NA 
HETATM   37  C   UNL     1      -9.483  16.925  68.526  1.00  0.00    -0.266 C  
HETATM   38  C   UNL     1      -8.636  18.201  68.790  1.00  0.00    -0.206 C  
HETATM   39  N   UNL     1      -9.030  19.412  68.039  1.00  0.00    -0.313 NA 
HETATM   40  C   UNL     1     -10.198  20.068  68.625  1.00  0.00    -0.320 C  
HETATM   41  C   UNL     1      -9.272  19.055  66.632  1.00  0.00    -0.329 C  
HETATM   42  C   UNL     1     -10.267  17.886  66.453  1.00  0.00    -0.372 C  
ENDBRANCH  35  36
ENDBRANCH  33  35
ENDBRANCH  26  31
ENDBRANCH  23  25
ENDBRANCH  16  23
ENDBRANCH   3   5
ENDBRANCH   2   3
TORSDOF 8
ENDMDL
MODEL       56
REMARK 921   NORMALIZED FREE ENERGY PREDICTED BY IDOCK:   -4.61 KCAL/MOL
REMARK 922        TOTAL FREE ENERGY PREDICTED BY IDOCK:   -8.30 KCAL/MOL
REMARK 923 INTER-LIGAND FREE ENERGY PREDICTED BY IDOCK:   -8.33 KCAL/MOL
REMARK 924 INTRA-LIGAND FREE ENERGY PREDICTED BY IDOCK:    0.02 KCAL/MOL
REMARK 927      BINDING AFFINITY PREDICTED BY RF-SCORE:    0.00 PKD
ROOT
HETATM    1  C   UNL     1      -6.920   3.482  68.985  1.00  0.00    -0.046 C  
HETATM    2  O   UNL     1      -6.788   4.847  69.381  1.00  0.00    -0.050 OA 
ENDROOT
BRANCH   2   3
HETATM    3  C   UNL     1      -7.531   5.196  70.466  1.00  0.00    -0.070 C  
HETATM    4  O   UNL     1      -7.478   4.665  71.568  1.00  0.00    -0.069 OA 
BRANCH   3   5
HETATM    5  C   UNL     1      -8.409   6.348  70.142  1.00  0.00    -0.134 A  
HETATM    6  C   UNL     1      -8.173   7.176  69.025  1.00  0.00    -0.125 A  
HETATM    7  C   UNL     1      -8.994   8.280  68.752  1.00  0.00    -0.144 A  
HETATM    8  C   UNL     1     -10.052   8.562  69.600  1.00  0.00    -0.202 A  
HETATM    9  C   UNL     1     -10.271   7.729  70.704  1.00  0.00    -0.199 A  
HETATM   10  C   UNL     1      -9.489   6.623  70.990  1.00  0.00    -0.168 A  
HETATM   11  N   UNL     1     -11.353   8.177  71.447  1.00  0.00    -0.252 N  
HETATM   12  H   UNL     1     -11.689   7.727  72.299  1.00  0.00     0.000 HD 
HETATM   13  C   UNL     1     -11.923   9.312  70.890  1.00  0.00    -0.257 C  
HETATM   14  O   UNL     1     -12.916   9.878  71.307  1.00  0.00    -0.351 OA 
HETATM   15  C   UNL     1     -11.085   9.623  69.661  1.00  0.00    -0.223 C  
HETATM   16  C   UNL     1     -11.301  10.690  68.854  1.00  0.00    -0.274 C  
BRANCH  16  17
HETATM   17  C   UNL     1     -10.464  10.879  67.650  1.00  0.00    -0.244 A  
HETATM   18  C   UNL     1      -8.807  11.102  65.409  1.00  0.00    -0.110 A  
HETATM   19  C   UNL     1     -10.878  10.361  66.416  1.00  0.00    -0.057 A  
HETATM   20  C   UNL     1      -9.228  11.531  67.743  1.00  0.00    -0.165 A  
HETATM   21  C   UNL     1     -10.046  10.469  65.300  1.00  0.00    -0.369 A  
HETATM   22  C   UNL     1      -8.400  11.639  66.628  1.00  0.00    -0.154 A  
ENDBRANCH  16  17
BRANCH  16  23
HETATM   23  N   UNL     1     -12.261  11.701  68.988  1.00  0.00    -0.339 NA 
HETATM   24  H   UNL     1     -13.193  11.470  69.332  1.00  0.00     0.000 HD 
BRANCH  23  25
HETATM   25  C   UNL     1     -11.947  13.049  68.649  1.00  0.00    -0.263 A  
HETATM   26  C   UNL     1     -11.010  15.643  67.909  1.00  0.00    -0.319 A  
HETATM   27  C   UNL     1     -12.210  13.575  67.390  1.00  0.00    -0.278 A  
HETATM   28  C   UNL     1     -11.406  13.906  69.603  1.00  0.00    -0.259 A  
HETATM   29  C   UNL     1     -11.735  14.838  67.025  1.00  0.00    -0.330 A  
HETATM   30  C   UNL     1     -10.943  15.181  69.236  1.00  0.00    -0.260 A  
BRANCH  26  31
HETATM   31  N   UNL     1     -10.324  16.845  67.469  1.00  0.00    -0.310 N  
HETATM   32  C   UNL     1     -10.722  18.126  68.060  1.00  0.00    -0.277 C  
HETATM   33  C   UNL     1      -9.242  16.809  66.557  1.00  0.00    -0.268 C  
HETATM   34  O   UNL     1      -8.845  15.801  65.959  1.00  0.00    -0.327 OA 
BRANCH  33  35
HETATM   35  C   UNL     1      -8.549  18.125  66.173  1.00  0.00    -0.097 C  
BRANCH  35  36
HETATM   36  N   UNL     1      -7.144  18.246  66.620  1.00  0.00    -0.201 NA 
HETATM   37  C   UNL     1      -6.955  19.084  67.826  1.00  0.00    -0.215 C  
HETATM   38  C   UNL     1      -7.246  18.421  69.201  1.00  0.00    -0.174 C  
HETATM   39  N   UNL     1      -6.751  17.039  69.377  1.00  0.00    -0.233 NA 
HETATM   40  C   UNL     1      -5.318  17.000  69.663  1.00  0.00    -0.167 C  
HETATM   41  C   UNL     1      -7.075  16.250  68.177  1.00  0.00    -0.135 C  
HETATM   42  C   UNL     1      -6.591  16.899  66.861  1.00  0.00    -0.214 C  
ENDBRANCH  35  36
ENDBRANCH  33  35
ENDBRANCH  26  31
ENDBRANCH  23  25
ENDBRANCH  16  23
ENDBRANCH   3   5
ENDBRANCH   2   3
TORSDOF 8
ENDMDL
MODEL       57
REMARK 921   NORMALIZED FREE ENERGY PREDICTED BY IDOCK:   -4.61 KCAL/MOL
REMARK 922        TOTAL FREE ENERGY PREDICTED BY IDOCK:   -8.30 KCAL/MOL
REMARK 923 INTER-LIGAND FREE ENERGY PREDICTED BY IDOCK:   -7.46 KCAL/MOL
REMARK 924 INTRA-LIGAND FREE ENERGY PREDICTED BY IDOCK:   -0.84 KCAL/MOL
REMARK 927      BINDING AFFINITY PREDICTED BY RF-SCORE:    0.00 PKD
ROOT
HETATM    1  C   UNL     1      -9.189  20.693  67.189  1.00  0.00    -0.292 C  
HETATM    2  O   UNL     1      -9.459  19.478  67.888  1.00  0.00    -0.313 OA 
ENDROOT
BRANCH   2   3
HETATM    3  C   UNL     1      -8.378  18.671  68.059  1.00  0.00    -0.277 C  
HETATM    4  O   UNL     1      -7.301  19.011  68.534  1.00  0.00    -0.280 OA 
BRANCH   3   5
HETATM    5  C   UNL     1      -8.690  17.289  67.617  1.00  0.00    -0.219 A  
HETATM    6  C   UNL     1      -8.010  16.167  68.136  1.00  0.00    -0.148 A  
HETATM    7  C   UNL     1      -8.295  14.871  67.683  1.00  0.00    -0.178 A  
HETATM    8  C   UNL     1      -9.261  14.693  66.706  1.00  0.00    -0.285 A  
HETATM    9  C   UNL     1      -9.926  15.818  66.204  1.00  0.00    -0.311 A  
HETATM   10  C   UNL     1      -9.678  17.108  66.641  1.00  0.00    -0.285 A  
HETATM   11  N   UNL     1     -10.835  15.450  65.222  1.00  0.00    -0.384 N  
HETATM   12  H   UNL     1     -11.425  16.108  64.713  1.00  0.00     0.000 HD 
HETATM   13  C   UNL     1     -10.843  14.078  65.019  1.00  0.00    -0.392 C  
HETATM   14  O   UNL     1     -11.583  13.484  64.258  1.00  0.00    -0.378 OA 
HETATM   15  C   UNL     1      -9.800  13.523  65.974  1.00  0.00    -0.277 C  
HETATM   16  C   UNL     1      -9.479  12.208  66.054  1.00  0.00    -0.207 C  
BRANCH  16  17
HETATM   17  C   UNL     1      -8.487  11.757  67.053  1.00  0.00    -0.175 A  
HETATM   18  C   UNL     1      -6.587  11.054  68.981  1.00  0.00    -0.065 A  
HETATM   19  C   UNL     1      -8.890  11.461  68.363  1.00  0.00    -0.167 A  
HETATM   20  C   UNL     1      -7.130  11.672  66.715  1.00  0.00    -0.083 A  
HETATM   21  C   UNL     1      -7.938  11.115  69.324  1.00  0.00     0.018 A  
HETATM   22  C   UNL     1      -6.182  11.325  67.676  1.00  0.00    -0.055 A  
ENDBRANCH  16  17
BRANCH  16  23
HETATM   23  N   UNL     1      -9.979  11.143  65.296  1.00  0.00    -0.245 NA 
HETATM   24  H   UNL     1     -10.654  11.325  64.553  1.00  0.00     0.000 HD 
BRANCH  23  25
HETATM   25  C   UNL     1      -9.555   9.808  65.553  1.00  0.00    -0.282 A  
HETATM   26  C   UNL     1      -8.966   7.033  65.884  1.00  0.00    -0.062 A  
HETATM   27  C   UNL     1      -8.560   9.190  64.805  1.00  0.00    -0.209 A  
HETATM   28  C   UNL     1     -10.101   9.088  66.613  1.00  0.00    -0.355 A  
HETATM   29  C   UNL     1      -8.285   7.829  64.957  1.00  0.00    -0.123 A  
HETATM   30  C   UNL     1      -9.812   7.722  66.772  1.00  0.00    -0.312 A  
BRANCH  26  31
HETATM   31  N   UNL     1      -8.848   5.585  65.889  1.00  0.00    -0.147 N  
HETATM   32  C   UNL     1     -10.068   4.790  65.730  1.00  0.00    -0.214 C  
HETATM   33  C   UNL     1      -7.597   4.928  65.963  1.00  0.00    -0.090 C  
HETATM   34  O   UNL     1      -6.507   5.484  66.143  1.00  0.00    -0.041 OA 
BRANCH  33  35
HETATM   35  C   UNL     1      -7.560   3.392  65.925  1.00  0.00    -0.081 C  
BRANCH  35  36
HETATM   36  N   UNL     1      -7.172   2.744  67.196  1.00  0.00    -0.053 NA 
HETATM   37  C   UNL     1      -7.386   3.579  68.400  1.00  0.00    -0.050 C  
HETATM   38  C   UNL     1      -8.830   3.639  68.972  1.00  0.00    -0.103 C  
HETATM   39  N   UNL     1      -9.567   2.357  69.020  1.00  0.00    -0.068 NA 
HETATM   40  C   UNL     1      -9.155   1.529  70.152  1.00  0.00    -0.083 C  
HETATM   41  C   UNL     1      -9.386   1.643  67.746  1.00  0.00    -0.125 C  
HETATM   42  C   UNL     1      -7.905   1.471  67.339  1.00  0.00    -0.060 C  
ENDBRANCH  35  36
ENDBRANCH  33  35
ENDBRANCH  26  31
ENDBRANCH  23  25
ENDBRANCH  16  23
ENDBRANCH   3   5
ENDBRANCH   2   3
TORSDOF 8
ENDMDL
MODEL       58
REMARK 921   NORMALIZED FREE ENERGY PREDICTED BY IDOCK:   -4.60 KCAL/MOL
REMARK 922        TOTAL FREE ENERGY PREDICTED BY IDOCK:   -8.29 KCAL/MOL
REMARK 923 INTER-LIGAND FREE ENERGY PREDICTED BY IDOCK:   -7.82 KCAL/MOL
REMARK 924 INTRA-LIGAND FREE ENERGY PREDICTED BY IDOCK:   -0.47 KCAL/MOL
REMARK 927      BINDING AFFINITY PREDICTED BY RF-SCORE:    0.00 PKD
ROOT
HETATM    1  C   UNL     1      -7.764  20.017  65.887  1.00  0.00    -0.282 C  
HETATM    2  O   UNL     1      -8.283  20.003  67.217  1.00  0.00    -0.302 OA 
ENDROOT
BRANCH   2   3
HETATM    3  C   UNL     1      -9.465  19.344  67.355  1.00  0.00    -0.316 C  
HETATM    4  O   UNL     1     -10.551  19.865  67.576  1.00  0.00    -0.408 OA 
BRANCH   3   5
HETATM    5  C   UNL     1      -9.268  17.885  67.167  1.00  0.00    -0.258 A  
HETATM    6  C   UNL     1     -10.195  17.091  66.460  1.00  0.00    -0.321 A  
HETATM    7  C   UNL     1     -10.009  15.708  66.320  1.00  0.00    -0.315 A  
HETATM    8  C   UNL     1      -8.896  15.114  66.890  1.00  0.00    -0.284 A  
HETATM    9  C   UNL     1      -7.986  15.918  67.586  1.00  0.00    -0.146 A  
HETATM   10  C   UNL     1      -8.133  17.287  67.729  1.00  0.00    -0.201 A  
HETATM   11  N   UNL     1      -6.953  15.151  68.105  1.00  0.00    -0.114 N  
HETATM   12  H   UNL     1      -6.180  15.526  68.655  1.00  0.00     0.000 HD 
HETATM   13  C   UNL     1      -7.099  13.809  67.782  1.00  0.00    -0.167 C  
HETATM   14  O   UNL     1      -6.308  12.929  68.062  1.00  0.00    -0.081 OA 
HETATM   15  C   UNL     1      -8.388  13.725  66.982  1.00  0.00    -0.107 C  
HETATM   16  C   UNL     1      -8.903  12.564  66.508  1.00  0.00    -0.087 C  
BRANCH  16  17
HETATM   17  C   UNL     1     -10.138  12.590  65.694  1.00  0.00    -0.285 A  
HETATM   18  C   UNL     1     -12.482  12.482  64.175  1.00  0.00    -0.518 A  
HETATM   19  C   UNL     1     -11.382  12.787  66.308  1.00  0.00    -0.365 A  
HETATM   20  C   UNL     1     -10.078  12.365  64.313  1.00  0.00    -0.305 A  
HETATM   21  C   UNL     1     -12.551  12.728  65.546  1.00  0.00    -0.292 A  
HETATM   22  C   UNL     1     -11.247  12.307  63.556  1.00  0.00    -0.535 A  
ENDBRANCH  16  17
BRANCH  16  23
HETATM   23  N   UNL     1      -8.412  11.264  66.673  1.00  0.00    -0.164 NA 
HETATM   24  H   UNL     1      -7.876  10.827  65.922  1.00  0.00     0.000 HD 
BRANCH  23  25
HETATM   25  C   UNL     1      -8.653  10.544  67.879  1.00  0.00    -0.123 A  
HETATM   26  C   UNL     1      -8.969   8.851  70.157  1.00  0.00    -0.172 A  
HETATM   27  C   UNL     1      -7.857  10.701  69.006  1.00  0.00    -0.137 A  
HETATM   28  C   UNL     1      -9.746   9.686  67.979  1.00  0.00    -0.167 A  
HETATM   29  C   UNL     1      -8.002   9.860  70.113  1.00  0.00    -0.181 A  
HETATM   30  C   UNL     1      -9.897   8.852  69.100  1.00  0.00    -0.180 A  
BRANCH  26  31
HETATM   31  N   UNL     1      -8.976   7.836  71.196  1.00  0.00    -0.136 N  
HETATM   32  C   UNL     1     -10.168   6.997  71.338  1.00  0.00    -0.196 C  
HETATM   33  C   UNL     1      -7.849   7.583  72.014  1.00  0.00    -0.090 C  
HETATM   34  O   UNL     1      -6.806   8.249  72.021  1.00  0.00    -0.072 OA 
BRANCH  33  35
HETATM   35  C   UNL     1      -7.929   6.466  73.065  1.00  0.00    -0.106 C  
BRANCH  35  36
HETATM   36  N   UNL     1      -6.841   5.466  73.001  1.00  0.00    -0.076 NA 
HETATM   37  C   UNL     1      -6.678   4.659  74.232  1.00  0.00    -0.065 C  
HETATM   38  C   UNL     1      -7.650   3.461  74.426  1.00  0.00    -0.058 C  
HETATM   39  N   UNL     1      -7.920   2.638  73.228  1.00  0.00    -0.058 NA 
HETATM   40  C   UNL     1      -6.830   1.705  72.945  1.00  0.00    -0.022 C  
HETATM   41  C   UNL     1      -8.175   3.521  72.078  1.00  0.00    -0.071 C  
HETATM   42  C   UNL     1      -7.066   4.573  71.849  1.00  0.00    -0.056 C  
ENDBRANCH  35  36
ENDBRANCH  33  35
ENDBRANCH  26  31
ENDBRANCH  23  25
ENDBRANCH  16  23
ENDBRANCH   3   5
ENDBRANCH   2   3
TORSDOF 8
ENDMDL
MODEL       59
REMARK 921   NORMALIZED FREE ENERGY PREDICTED BY IDOCK:   -4.51 KCAL/MOL
REMARK 922        TOTAL FREE ENERGY PREDICTED BY IDOCK:   -8.16 KCAL/MOL
REMARK 923 INTER-LIGAND FREE ENERGY PREDICTED BY IDOCK:   -7.32 KCAL/MOL
REMARK 924 INTRA-LIGAND FREE ENERGY PREDICTED BY IDOCK:   -0.85 KCAL/MOL
REMARK 927      BINDING AFFINITY PREDICTED BY RF-SCORE:    0.00 PKD
ROOT
HETATM    1  C   UNL     1      -8.572  20.506  67.345  1.00  0.00    -0.271 C  
HETATM    2  O   UNL     1      -8.910  19.479  68.278  1.00  0.00    -0.322 OA 
ENDROOT
BRANCH   2   3
HETATM    3  C   UNL     1      -7.934  18.551  68.475  1.00  0.00    -0.323 C  
HETATM    4  O   UNL     1      -6.847  18.759  68.999  1.00  0.00    -0.285 OA 
BRANCH   3   5
HETATM    5  C   UNL     1      -8.382  17.221  67.993  1.00  0.00    -0.228 A  
HETATM    6  C   UNL     1      -7.947  16.022  68.595  1.00  0.00    -0.174 A  
HETATM    7  C   UNL     1      -8.354  14.773  68.105  1.00  0.00    -0.144 A  
HETATM    8  C   UNL     1      -9.197  14.719  67.008  1.00  0.00    -0.248 A  
HETATM    9  C   UNL     1      -9.620  15.919  66.424  1.00  0.00    -0.287 A  
HETATM   10  C   UNL     1      -9.248  17.167  66.893  1.00  0.00    -0.255 A  
HETATM   11  N   UNL     1     -10.435  15.668  65.329  1.00  0.00    -0.405 N  
HETATM   12  H   UNL     1     -10.851  16.395  64.746  1.00  0.00     0.000 HD 
HETATM   13  C   UNL     1     -10.614  14.308  65.124  1.00  0.00    -0.406 C  
HETATM   14  O   UNL     1     -11.325  13.814  64.270  1.00  0.00    -0.376 OA 
HETATM   15  C   UNL     1      -9.798  13.626  66.208  1.00  0.00    -0.310 C  
HETATM   16  C   UNL     1      -9.685  12.280  66.328  1.00  0.00    -0.244 C  
BRANCH  16  17
HETATM   17  C   UNL     1      -8.910  11.708  67.450  1.00  0.00    -0.160 A  
HETATM   18  C   UNL     1      -7.464  10.484  69.507  1.00  0.00    -0.146 A  
HETATM   19  C   UNL     1      -7.516  11.596  67.359  1.00  0.00    -0.135 A  
HETATM   20  C   UNL     1      -9.567  11.225  68.590  1.00  0.00    -0.195 A  
HETATM   21  C   UNL     1      -6.798  10.980  68.386  1.00  0.00    -0.065 A  
HETATM   22  C   UNL     1      -8.847  10.612  69.613  1.00  0.00     0.140 A  
ENDBRANCH  16  17
BRANCH  16  23
HETATM   23  N   UNL     1     -10.230  11.285  65.508  1.00  0.00    -0.249 NA 
HETATM   24  H   UNL     1     -11.132  11.440  65.057  1.00  0.00     0.000 HD 
BRANCH  23  25
HETATM   25  C   UNL     1      -9.536  10.059  65.296  1.00  0.00    -0.263 A  
HETATM   26  C   UNL     1      -8.401   7.512  64.679  1.00  0.00     0.022 A  
HETATM   27  C   UNL     1      -8.527   9.933  64.350  1.00  0.00    -0.183 A  
HETATM   28  C   UNL     1      -9.821   8.945  66.083  1.00  0.00    -0.326 A  
HETATM   29  C   UNL     1      -7.985   8.683  64.037  1.00  0.00    -0.158 A  
HETATM   30  C   UNL     1      -9.263   7.693  65.776  1.00  0.00     0.025 A  
BRANCH  26  31
HETATM   31  N   UNL     1      -8.012   6.195  64.205  1.00  0.00    -0.121 N  
HETATM   32  C   UNL     1      -8.088   5.925  62.767  1.00  0.00    -0.104 C  
HETATM   33  C   UNL     1      -7.493   5.203  65.071  1.00  0.00    -0.073 C  
HETATM   34  O   UNL     1      -7.422   5.294  66.302  1.00  0.00    -0.084 OA 
BRANCH  33  35
HETATM   35  C   UNL     1      -7.071   3.848  64.481  1.00  0.00    -0.054 C  
BRANCH  35  36
HETATM   36  N   UNL     1      -7.973   2.720  64.795  1.00  0.00    -0.081 NA 
HETATM   37  C   UNL     1      -9.301   3.124  65.313  1.00  0.00    -0.135 C  
HETATM   38  C   UNL     1     -10.362   3.569  64.268  1.00  0.00    -0.190 C  
HETATM   39  N   UNL     1     -10.446   2.756  63.036  1.00  0.00    -0.154 NA 
HETATM   40  C   UNL     1     -11.182   1.510  63.249  1.00  0.00    -0.196 C  
HETATM   41  C   UNL     1      -9.089   2.492  62.533  1.00  0.00    -0.087 C  
HETATM   42  C   UNL     1      -8.145   1.882  63.593  1.00  0.00    -0.065 C  
ENDBRANCH  35  36
ENDBRANCH  33  35
ENDBRANCH  26  31
ENDBRANCH  23  25
ENDBRANCH  16  23
ENDBRANCH   3   5
ENDBRANCH   2   3
TORSDOF 8
ENDMDL
MODEL       60
REMARK 921   NORMALIZED FREE ENERGY PREDICTED BY IDOCK:   -4.50 KCAL/MOL
REMARK 922        TOTAL FREE ENERGY PREDICTED BY IDOCK:   -8.14 KCAL/MOL
REMARK 923 INTER-LIGAND FREE ENERGY PREDICTED BY IDOCK:   -7.21 KCAL/MOL
REMARK 924 INTRA-LIGAND FREE ENERGY PREDICTED BY IDOCK:   -0.94 KCAL/MOL
REMARK 927      BINDING AFFINITY PREDICTED BY RF-SCORE:    0.00 PKD
ROOT
HETATM    1  C   UNL     1      -7.283  19.695  69.325  1.00  0.00    -0.299 C  
HETATM    2  O   UNL     1      -8.305  19.097  68.527  1.00  0.00    -0.340 OA 
ENDROOT
BRANCH   2   3
HETATM    3  C   UNL     1      -7.863  18.540  67.367  1.00  0.00    -0.235 C  
HETATM    4  O   UNL     1      -7.222  19.117  66.497  1.00  0.00    -0.212 OA 
BRANCH   3   5
HETATM    5  C   UNL     1      -8.238  17.105  67.307  1.00  0.00    -0.206 A  
HETATM    6  C   UNL     1      -9.164  16.614  66.363  1.00  0.00    -0.318 A  
HETATM    7  C   UNL     1      -9.531  15.260  66.342  1.00  0.00    -0.326 A  
HETATM    8  C   UNL     1      -8.974  14.394  67.269  1.00  0.00    -0.221 A  
HETATM    9  C   UNL     1      -8.056  14.900  68.197  1.00  0.00    -0.137 A  
HETATM   10  C   UNL     1      -7.662  16.226  68.233  1.00  0.00    -0.158 A  
HETATM   11  N   UNL     1      -7.626  13.898  69.054  1.00  0.00    -0.286 N  
HETATM   12  H   UNL     1      -6.961  14.040  69.815  1.00  0.00     0.000 HD 
HETATM   13  C   UNL     1      -8.211  12.677  68.750  1.00  0.00     0.119 C  
HETATM   14  O   UNL     1      -7.968  11.623  69.307  1.00  0.00     0.076 OA 
HETATM   15  C   UNL     1      -9.132  12.953  67.574  1.00  0.00    -0.191 C  
HETATM   16  C   UNL     1      -9.919  12.010  66.999  1.00  0.00    -0.204 C  
BRANCH  16  17
HETATM   17  C   UNL     1     -10.743  12.363  65.823  1.00  0.00    -0.301 A  
HETATM   18  C   UNL     1     -12.343  12.879  63.589  1.00  0.00    -0.520 A  
HETATM   19  C   UNL     1     -12.079  12.753  65.990  1.00  0.00    -0.458 A  
HETATM   20  C   UNL     1     -10.212  12.261  64.531  1.00  0.00    -0.322 A  
HETATM   21  C   UNL     1     -12.877  13.005  64.872  1.00  0.00    -0.368 A  
HETATM   22  C   UNL     1     -11.010  12.514  63.417  1.00  0.00    -0.386 A  
ENDBRANCH  16  17
BRANCH  16  23
HETATM   23  N   UNL     1     -10.075  10.668  67.363  1.00  0.00    -0.187 NA 
HETATM   24  H   UNL     1     -10.732  10.418  68.103  1.00  0.00     0.000 HD 
BRANCH  23  25
HETATM   25  C   UNL     1      -9.325   9.647  66.711  1.00  0.00    -0.152 A  
HETATM   26  C   UNL     1      -8.014   7.657  65.138  1.00  0.00    -0.130 A  
HETATM   27  C   UNL     1      -8.097   9.899  66.111  1.00  0.00    -0.119 A  
HETATM   28  C   UNL     1      -9.786   8.333  66.701  1.00  0.00    -0.337 A  
HETATM   29  C   UNL     1      -7.466   8.930  65.328  1.00  0.00    -0.089 A  
HETATM   30  C   UNL     1      -9.141   7.356  65.924  1.00  0.00    -0.073 A  
BRANCH  26  31
HETATM   31  N   UNL     1      -7.486   6.731  64.151  1.00  0.00    -0.086 N  
HETATM   32  C   UNL     1      -7.919   6.878  62.759  1.00  0.00    -0.093 C  
HETATM   33  C   UNL     1      -6.516   5.751  64.475  1.00  0.00    -0.037 C  
HETATM   34  O   UNL     1      -6.108   5.501  65.616  1.00  0.00    -0.027 OA 
BRANCH  33  35
HETATM   35  C   UNL     1      -5.983   4.836  63.363  1.00  0.00    -0.018 C  
BRANCH  35  36
HETATM   36  N   UNL     1      -6.432   3.429  63.441  1.00  0.00    -0.028 NA 
HETATM   37  C   UNL     1      -7.066   3.059  64.728  1.00  0.00    -0.057 C  
HETATM   38  C   UNL     1      -8.556   3.456  64.922  1.00  0.00    -0.102 C  
HETATM   39  N   UNL     1      -9.444   3.243  63.760  1.00  0.00    -0.120 NA 
HETATM   40  C   UNL     1      -9.838   1.842  63.616  1.00  0.00    -0.129 C  
HETATM   41  C   UNL     1      -8.780   3.735  62.542  1.00  0.00    -0.087 C  
HETATM   42  C   UNL     1      -7.365   3.151  62.332  1.00  0.00    -0.044 C  
ENDBRANCH  35  36
ENDBRANCH  33  35
ENDBRANCH  26  31
ENDBRANCH  23  25
ENDBRANCH  16  23
ENDBRANCH   3   5
ENDBRANCH   2   3
TORSDOF 8
ENDMDL
MODEL       61
REMARK 921   NORMALIZED FREE ENERGY PREDICTED BY IDOCK:   -4.47 KCAL/MOL
REMARK 922        TOTAL FREE ENERGY PREDICTED BY IDOCK:   -8.10 KCAL/MOL
REMARK 923 INTER-LIGAND FREE ENERGY PREDICTED BY IDOCK:   -9.82 KCAL/MOL
REMARK 924 INTRA-LIGAND FREE ENERGY PREDICTED BY IDOCK:    1.71 KCAL/MOL
REMARK 927      BINDING AFFINITY PREDICTED BY RF-SCORE:    0.00 PKD
ROOT
HETATM    1  C   UNL     1      -9.523  20.076  68.004  1.00  0.00    -0.315 C  
HETATM    2  O   UNL     1     -10.238  18.841  68.037  1.00  0.00    -0.353 OA 
ENDROOT
BRANCH   2   3
HETATM    3  C   UNL     1     -10.328  18.207  66.836  1.00  0.00    -0.375 C  
HETATM    4  O   UNL     1     -10.144  18.723  65.741  1.00  0.00    -0.519 OA 
BRANCH   3   5
HETATM    5  C   UNL     1     -10.650  16.772  67.033  1.00  0.00    -0.234 A  
HETATM    6  C   UNL     1     -11.070  16.264  68.280  1.00  0.00    -0.346 A  
HETATM    7  C   UNL     1     -11.340  14.899  68.455  1.00  0.00    -0.314 A  
HETATM    8  C   UNL     1     -11.187  14.036  67.382  1.00  0.00    -0.328 A  
HETATM    9  C   UNL     1     -10.770  14.558  66.152  1.00  0.00    -0.310 A  
HETATM   10  C   UNL     1     -10.512  15.902  65.943  1.00  0.00    -0.373 A  
HETATM   11  N   UNL     1     -10.651  13.548  65.209  1.00  0.00    -0.313 N  
HETATM   12  H   UNL     1     -10.353  13.697  64.244  1.00  0.00     0.000 HD 
HETATM   13  C   UNL     1     -10.985  12.310  65.737  1.00  0.00    -0.301 C  
HETATM   14  O   UNL     1     -11.021  11.266  65.115  1.00  0.00    -0.241 OA 
HETATM   15  C   UNL     1     -11.338  12.575  67.191  1.00  0.00    -0.381 C  
HETATM   16  C   UNL     1     -11.689  11.602  68.068  1.00  0.00    -0.281 C  
BRANCH  16  17
HETATM   17  C   UNL     1     -12.067  11.965  69.451  1.00  0.00    -0.277 A  
HETATM   18  C   UNL     1     -12.928  12.677  72.014  1.00  0.00    -0.379 A  
HETATM   19  C   UNL     1     -12.524  10.980  70.338  1.00  0.00    -0.397 A  
HETATM   20  C   UNL     1     -12.022  13.301  69.869  1.00  0.00    -0.400 A  
HETATM   21  C   UNL     1     -12.958  11.340  71.615  1.00  0.00    -0.537 A  
HETATM   22  C   UNL     1     -12.455  13.657  71.144  1.00  0.00    -0.442 A  
ENDBRANCH  16  17
BRANCH  16  23
HETATM   23  N   UNL     1     -11.762  10.221  67.851  1.00  0.00    -0.621 NA 
HETATM   24  H   UNL     1     -12.670   9.782  67.692  1.00  0.00     0.000 HD 
BRANCH  23  25
HETATM   25  C   UNL     1     -10.582   9.423  67.850  1.00  0.00    -0.237 A  
HETATM   26  C   UNL     1      -8.365   7.638  68.080  1.00  0.00    -0.124 A  
HETATM   27  C   UNL     1     -10.369   8.418  66.915  1.00  0.00    -0.378 A  
HETATM   28  C   UNL     1      -9.567   9.668  68.771  1.00  0.00    -0.153 A  
HETATM   29  C   UNL     1      -9.293   7.535  67.039  1.00  0.00    -0.186 A  
HETATM   30  C   UNL     1      -8.478   8.787  68.884  1.00  0.00    -0.131 A  
BRANCH  26  31
HETATM   31  N   UNL     1      -7.386   6.598  68.344  1.00  0.00    -0.085 N  
HETATM   32  C   UNL     1      -5.967   6.920  68.168  1.00  0.00    -0.032 C  
HETATM   33  C   UNL     1      -7.751   5.323  68.837  1.00  0.00    -0.082 C  
HETATM   34  O   UNL     1      -8.911   4.918  68.983  1.00  0.00    -0.090 OA 
BRANCH  33  35
HETATM   35  C   UNL     1      -6.648   4.293  69.125  1.00  0.00    -0.041 C  
BRANCH  35  36
HETATM   36  N   UNL     1      -6.070   4.358  70.485  1.00  0.00    -0.017 NA 
HETATM   37  C   UNL     1      -7.037   4.728  71.544  1.00  0.00    -0.056 C  
HETATM   38  C   UNL     1      -7.962   3.601  72.084  1.00  0.00    -0.071 C  
HETATM   39  N   UNL     1      -7.322   2.290  72.320  1.00  0.00    -0.041 NA 
HETATM   40  C   UNL     1      -6.564   2.265  73.571  1.00  0.00    -0.021 C  
HETATM   41  C   UNL     1      -6.463   1.952  71.173  1.00  0.00    -0.023 C  
HETATM   42  C   UNL     1      -5.449   3.061  70.814  1.00  0.00    -0.012 C  
ENDBRANCH  35  36
ENDBRANCH  33  35
ENDBRANCH  26  31
ENDBRANCH  23  25
ENDBRANCH  16  23
ENDBRANCH   3   5
ENDBRANCH   2   3
TORSDOF 8
ENDMDL
MODEL       62
REMARK 921   NORMALIZED FREE ENERGY PREDICTED BY IDOCK:   -4.46 KCAL/MOL
REMARK 922        TOTAL FREE ENERGY PREDICTED BY IDOCK:   -8.08 KCAL/MOL
REMARK 923 INTER-LIGAND FREE ENERGY PREDICTED BY IDOCK:   -6.60 KCAL/MOL
REMARK 924 INTRA-LIGAND FREE ENERGY PREDICTED BY IDOCK:   -1.48 KCAL/MOL
REMARK 927      BINDING AFFINITY PREDICTED BY RF-SCORE:    0.00 PKD
ROOT
HETATM    1  C   UNL     1      -7.031   3.935  64.507  1.00  0.00    -0.050 C  
HETATM    2  O   UNL     1      -6.245   5.118  64.646  1.00  0.00    -0.025 OA 
ENDROOT
BRANCH   2   3
HETATM    3  C   UNL     1      -6.436   6.043  63.667  1.00  0.00    -0.029 C  
HETATM    4  O   UNL     1      -6.050   5.947  62.509  1.00  0.00    -0.024 OA 
BRANCH   3   5
HETATM    5  C   UNL     1      -7.219   7.192  64.188  1.00  0.00    -0.069 A  
HETATM    6  C   UNL     1      -7.382   7.420  65.570  1.00  0.00    -0.074 A  
HETATM    7  C   UNL     1      -8.152   8.493  66.044  1.00  0.00    -0.110 A  
HETATM    8  C   UNL     1      -8.764   9.339  65.135  1.00  0.00    -0.216 A  
HETATM    9  C   UNL     1      -8.590   9.098  63.767  1.00  0.00    -0.169 A  
HETATM   10  C   UNL     1      -7.824   8.058  63.269  1.00  0.00    -0.147 A  
HETATM   11  N   UNL     1      -9.292  10.028  63.014  1.00  0.00    -0.346 N  
HETATM   12  H   UNL     1      -9.315  10.039  61.994  1.00  0.00     0.000 HD 
HETATM   13  C   UNL     1      -9.958  10.941  63.818  1.00  0.00    -0.351 C  
HETATM   14  O   UNL     1     -10.602  11.892  63.418  1.00  0.00    -0.407 OA 
HETATM   15  C   UNL     1      -9.652  10.520  65.245  1.00  0.00    -0.303 C  
HETATM   16  C   UNL     1     -10.154  11.147  66.337  1.00  0.00    -0.226 C  
BRANCH  16  17
HETATM   17  C   UNL     1      -9.756  10.696  67.688  1.00  0.00    -0.186 A  
HETATM   18  C   UNL     1      -8.908   9.736  70.174  1.00  0.00    -0.226 A  
HETATM   19  C   UNL     1      -8.669  11.295  68.339  1.00  0.00    -0.159 A  
HETATM   20  C   UNL     1     -10.427   9.632  68.305  1.00  0.00    -0.259 A  
HETATM   21  C   UNL     1      -8.245  10.810  69.578  1.00  0.00     0.034 A  
HETATM   22  C   UNL     1     -10.003   9.151  69.542  1.00  0.00    -0.193 A  
ENDBRANCH  16  17
BRANCH  16  23
HETATM   23  N   UNL     1     -11.040  12.229  66.388  1.00  0.00    -0.287 NA 
HETATM   24  H   UNL     1     -12.047  12.059  66.397  1.00  0.00     0.000 HD 
BRANCH  23  25
HETATM   25  C   UNL     1     -10.551  13.567  66.426  1.00  0.00    -0.283 A  
HETATM   26  C   UNL     1      -9.280  16.118  66.602  1.00  0.00    -0.246 A  
HETATM   27  C   UNL     1     -10.082  14.215  65.290  1.00  0.00    -0.364 A  
HETATM   28  C   UNL     1     -10.577  14.292  67.614  1.00  0.00    -0.253 A  
HETATM   29  C   UNL     1      -9.444  15.456  65.381  1.00  0.00    -0.033 A  
HETATM   30  C   UNL     1      -9.949  15.546  67.699  1.00  0.00    -0.233 A  
BRANCH  26  31
HETATM   31  N   UNL     1      -8.427  17.286  66.736  1.00  0.00    -0.232 N  
HETATM   32  C   UNL     1      -6.979  17.081  66.826  1.00  0.00    -0.233 C  
HETATM   33  C   UNL     1      -8.939  18.605  66.702  1.00  0.00    -0.306 C  
HETATM   34  O   UNL     1     -10.139  18.905  66.676  1.00  0.00    -0.337 OA 
BRANCH  33  35
HETATM   35  C   UNL     1      -7.962  19.786  66.813  1.00  0.00    -0.296 C  
BRANCH  35  36
HETATM   36  N   UNL     1      -7.939  20.457  68.131  1.00  0.00    -0.074 NA 
HETATM   37  C   UNL     1      -8.461  19.635  69.246  1.00  0.00     0.078 C  
HETATM   38  C   UNL     1      -7.497  18.582  69.861  1.00  0.00     0.807 C  
HETATM   39  N   UNL     1      -6.101  19.020  70.072  1.00  0.00    -0.232 NA 
HETATM   40  C   UNL     1      -5.959  19.847  71.271  1.00  0.00    -0.225 C  
HETATM   41  C   UNL     1      -5.628  19.735  68.876  1.00  0.00    -0.215 C  
HETATM   42  C   UNL     1      -6.560  20.886  68.435  1.00  0.00    -0.096 C  
ENDBRANCH  35  36
ENDBRANCH  33  35
ENDBRANCH  26  31
ENDBRANCH  23  25
ENDBRANCH  16  23
ENDBRANCH   3   5
ENDBRANCH   2   3
TORSDOF 8
ENDMDL
MODEL       63
REMARK 921   NORMALIZED FREE ENERGY PREDICTED BY IDOCK:   -4.41 KCAL/MOL
REMARK 922        TOTAL FREE ENERGY PREDICTED BY IDOCK:   -8.02 KCAL/MOL
REMARK 923 INTER-LIGAND FREE ENERGY PREDICTED BY IDOCK:   -6.83 KCAL/MOL
REMARK 924 INTRA-LIGAND FREE ENERGY PREDICTED BY IDOCK:   -1.18 KCAL/MOL
REMARK 927      BINDING AFFINITY PREDICTED BY RF-SCORE:    0.00 PKD
ROOT
HETATM    1  C   UNL     1     -11.174   1.749  62.766  1.00  0.00    -0.248 C  
HETATM    2  O   UNL     1     -10.743   2.813  63.614  1.00  0.00    -0.210 OA 
ENDROOT
BRANCH   2   3
HETATM    3  C   UNL     1      -9.413   3.088  63.547  1.00  0.00    -0.098 C  
HETATM    4  O   UNL     1      -8.633   2.643  62.713  1.00  0.00    -0.077 OA 
BRANCH   3   5
HETATM    5  C   UNL     1      -9.027   4.042  64.616  1.00  0.00    -0.136 A  
HETATM    6  C   UNL     1      -9.718   4.108  65.844  1.00  0.00    -0.208 A  
HETATM    7  C   UNL     1      -9.360   5.038  66.831  1.00  0.00    -0.134 A  
HETATM    8  C   UNL     1      -8.310   5.909  66.590  1.00  0.00    -0.110 A  
HETATM    9  C   UNL     1      -7.635   5.828  65.366  1.00  0.00    -0.084 A  
HETATM   10  C   UNL     1      -7.954   4.911  64.380  1.00  0.00    -0.104 A  
HETATM   11  N   UNL     1      -6.636   6.788  65.296  1.00  0.00    -0.049 N  
HETATM   12  H   UNL     1      -6.022   6.918  64.491  1.00  0.00     0.000 HD 
HETATM   13  C   UNL     1      -6.574   7.550  66.453  1.00  0.00    -0.053 C  
HETATM   14  O   UNL     1      -5.756   8.421  66.679  1.00  0.00    -0.041 OA 
HETATM   15  C   UNL     1      -7.679   7.015  67.348  1.00  0.00    -0.110 C  
HETATM   16  C   UNL     1      -7.970   7.525  68.570  1.00  0.00    -0.123 C  
BRANCH  16  17
HETATM   17  C   UNL     1      -9.031   6.902  69.389  1.00  0.00    -0.138 A  
HETATM   18  C   UNL     1     -11.066   5.625  70.820  1.00  0.00    -0.196 A  
HETATM   19  C   UNL     1      -8.726   5.834  70.244  1.00  0.00    -0.137 A  
HETATM   20  C   UNL     1     -10.358   7.338  69.279  1.00  0.00    -0.208 A  
HETATM   21  C   UNL     1      -9.745   5.196  70.953  1.00  0.00    -0.252 A  
HETATM   22  C   UNL     1     -11.373   6.700  69.989  1.00  0.00    -0.440 A  
ENDBRANCH  16  17
BRANCH  16  23
HETATM   23  N   UNL     1      -7.378   8.614  69.220  1.00  0.00    -0.073 NA 
HETATM   24  H   UNL     1      -6.752   8.452  70.009  1.00  0.00     0.000 HD 
BRANCH  23  25
HETATM   25  C   UNL     1      -7.643   9.947  68.791  1.00  0.00    -0.081 A  
HETATM   26  C   UNL     1      -8.308  12.667  68.230  1.00  0.00    -0.165 A  
HETATM   27  C   UNL     1      -6.683  10.949  68.854  1.00  0.00    -0.067 A  
HETATM   28  C   UNL     1      -8.878  10.276  68.237  1.00  0.00    -0.126 A  
HETATM   29  C   UNL     1      -7.015  12.282  68.597  1.00  0.00    -0.097 A  
HETATM   30  C   UNL     1      -9.204  11.615  67.965  1.00  0.00    -0.178 A  
BRANCH  26  31
HETATM   31  N   UNL     1      -8.712  14.062  68.184  1.00  0.00    -0.173 N  
HETATM   32  C   UNL     1     -10.051  14.412  68.665  1.00  0.00    -0.242 C  
HETATM   33  C   UNL     1      -7.834  15.090  67.766  1.00  0.00    -0.148 C  
HETATM   34  O   UNL     1      -6.702  14.918  67.298  1.00  0.00    -0.277 OA 
BRANCH  33  35
HETATM   35  C   UNL     1      -8.331  16.544  67.782  1.00  0.00    -0.170 C  
BRANCH  35  36
HETATM   36  N   UNL     1      -7.505  17.496  67.009  1.00  0.00    -0.190 NA 
HETATM   37  C   UNL     1      -8.271  18.588  66.365  1.00  0.00    -0.268 C  
HETATM   38  C   UNL     1      -8.672  19.794  67.259  1.00  0.00    -0.322 C  
HETATM   39  N   UNL     1      -7.637  20.289  68.191  1.00  0.00    -0.211 NA 
HETATM   40  C   UNL     1      -6.642  21.123  67.516  1.00  0.00    -0.363 C  
HETATM   41  C   UNL     1      -7.001  19.145  68.865  1.00  0.00    -0.336 C  
HETATM   42  C   UNL     1      -6.469  18.071  67.890  1.00  0.00    -0.188 C  
ENDBRANCH  35  36
ENDBRANCH  33  35
ENDBRANCH  26  31
ENDBRANCH  23  25
ENDBRANCH  16  23
ENDBRANCH   3   5
ENDBRANCH   2   3
TORSDOF 8
ENDMDL
MODEL       64
REMARK 921   NORMALIZED FREE ENERGY PREDICTED BY IDOCK:   -4.39 KCAL/MOL
REMARK 922        TOTAL FREE ENERGY PREDICTED BY IDOCK:   -7.98 KCAL/MOL
REMARK 923 INTER-LIGAND FREE ENERGY PREDICTED BY IDOCK:   -6.77 KCAL/MOL
REMARK 924 INTRA-LIGAND FREE ENERGY PREDICTED BY IDOCK:   -1.21 KCAL/MOL
REMARK 927      BINDING AFFINITY PREDICTED BY RF-SCORE:    0.00 PKD
ROOT
HETATM    1  C   UNL     1      -5.240  20.602  70.580  1.00  0.00    -0.274 C  
HETATM    2  O   UNL     1      -6.563  20.483  70.057  1.00  0.00    -0.262 OA 
ENDROOT
BRANCH   2   3
HETATM    3  C   UNL     1      -6.625  20.070  68.762  1.00  0.00    -0.321 C  
HETATM    4  O   UNL     1      -6.391  20.763  67.780  1.00  0.00    -0.272 OA 
BRANCH   3   5
HETATM    5  C   UNL     1      -6.987  18.632  68.695  1.00  0.00    -0.297 A  
HETATM    6  C   UNL     1      -8.090  18.174  67.945  1.00  0.00    -0.251 A  
HETATM    7  C   UNL     1      -8.437  16.815  67.919  1.00  0.00    -0.200 A  
HETATM    8  C   UNL     1      -7.683  15.911  68.648  1.00  0.00    -0.161 A  
HETATM    9  C   UNL     1      -6.591  16.384  69.386  1.00  0.00    -0.210 A  
HETATM   10  C   UNL     1      -6.214  17.715  69.419  1.00  0.00    -0.249 A  
HETATM   11  N   UNL     1      -5.975  15.344  70.066  1.00  0.00    -0.142 N  
HETATM   12  H   UNL     1      -5.162  15.458  70.673  1.00  0.00     0.000 HD 
HETATM   13  C   UNL     1      -6.597  14.129  69.820  1.00  0.00    -0.104 C  
HETATM   14  O   UNL     1      -6.228  13.051  70.245  1.00  0.00    -0.109 OA 
HETATM   15  C   UNL     1      -7.754  14.450  68.890  1.00  0.00    -0.128 C  
HETATM   16  C   UNL     1      -8.636  13.524  68.440  1.00  0.00    -0.142 C  
BRANCH  16  17
HETATM   17  C   UNL     1      -9.700  13.924  67.494  1.00  0.00    -0.232 A  
HETATM   18  C   UNL     1     -11.689  14.831  65.750  1.00  0.00    -0.252 A  
HETATM   19  C   UNL     1      -9.379  14.247  66.169  1.00  0.00    -0.191 A  
HETATM   20  C   UNL     1     -11.027  14.036  67.928  1.00  0.00    -0.261 A  
HETATM   21  C   UNL     1     -10.374  14.704  65.302  1.00  0.00    -0.425 A  
HETATM   22  C   UNL     1     -12.018  14.491  67.061  1.00  0.00    -0.371 A  
ENDBRANCH  16  17
BRANCH  16  23
HETATM   23  N   UNL     1      -8.694  12.159  68.745  1.00  0.00    -0.372 NA 
HETATM   24  H   UNL     1      -9.146  11.852  69.607  1.00  0.00     0.000 HD 
BRANCH  23  25
HETATM   25  C   UNL     1      -8.128  11.194  67.864  1.00  0.00    -0.119 A  
HETATM   26  C   UNL     1      -7.286   9.259  65.939  1.00  0.00    -0.091 A  
HETATM   27  C   UNL     1      -7.335  11.555  66.781  1.00  0.00    -0.111 A  
HETATM   28  C   UNL     1      -8.314   9.833  68.097  1.00  0.00    -0.110 A  
HETATM   29  C   UNL     1      -6.939  10.610  65.831  1.00  0.00    -0.116 A  
HETATM   30  C   UNL     1      -7.901   8.884  67.147  1.00  0.00    -0.096 A  
BRANCH  26  31
HETATM   31  N   UNL     1      -7.074   8.321  64.851  1.00  0.00    -0.077 N  
HETATM   32  C   UNL     1      -7.923   8.435  63.662  1.00  0.00    -0.159 C  
HETATM   33  C   UNL     1      -6.034   7.361  64.870  1.00  0.00    -0.038 C  
HETATM   34  O   UNL     1      -5.285   7.138  65.829  1.00  0.00    -0.023 OA 
BRANCH  33  35
HETATM   35  C   UNL     1      -5.858   6.431  63.660  1.00  0.00    -0.023 C  
BRANCH  35  36
HETATM   36  N   UNL     1      -6.097   4.997  63.933  1.00  0.00    -0.021 NA 
HETATM   37  C   UNL     1      -6.925   4.731  65.131  1.00  0.00    -0.062 C  
HETATM   38  C   UNL     1      -8.465   4.870  64.973  1.00  0.00    -0.142 C  
HETATM   39  N   UNL     1      -9.046   4.309  63.735  1.00  0.00    -0.141 NA 
HETATM   40  C   UNL     1      -9.185   2.854  63.802  1.00  0.00    -0.103 C  
HETATM   41  C   UNL     1      -8.221   4.710  62.584  1.00  0.00    -0.083 C  
HETATM   42  C   UNL     1      -6.722   4.373  62.751  1.00  0.00    -0.031 C  
ENDBRANCH  35  36
ENDBRANCH  33  35
ENDBRANCH  26  31
ENDBRANCH  23  25
ENDBRANCH  16  23
ENDBRANCH   3   5
ENDBRANCH   2   3
TORSDOF 8
ENDMDL
MODEL       65
REMARK 921   NORMALIZED FREE ENERGY PREDICTED BY IDOCK:   -4.32 KCAL/MOL
REMARK 922        TOTAL FREE ENERGY PREDICTED BY IDOCK:   -7.88 KCAL/MOL
REMARK 923 INTER-LIGAND FREE ENERGY PREDICTED BY IDOCK:   -7.09 KCAL/MOL
REMARK 924 INTRA-LIGAND FREE ENERGY PREDICTED BY IDOCK:   -0.79 KCAL/MOL
REMARK 927      BINDING AFFINITY PREDICTED BY RF-SCORE:    0.00 PKD
ROOT
HETATM    1  C   UNL     1      -7.637   1.561  66.659  1.00  0.00    -0.060 C  
HETATM    2  O   UNL     1      -7.696   2.742  67.458  1.00  0.00    -0.064 OA 
ENDROOT
BRANCH   2   3
HETATM    3  C   UNL     1      -8.927   3.020  67.967  1.00  0.00    -0.151 C  
HETATM    4  O   UNL     1      -9.708   2.200  68.434  1.00  0.00    -0.156 OA 
BRANCH   3   5
HETATM    5  C   UNL     1      -9.192   4.479  67.912  1.00  0.00    -0.162 A  
HETATM    6  C   UNL     1      -8.781   5.273  66.821  1.00  0.00    -0.112 A  
HETATM    7  C   UNL     1      -9.011   6.656  66.800  1.00  0.00    -0.139 A  
HETATM    8  C   UNL     1      -9.651   7.251  67.875  1.00  0.00    -0.153 A  
HETATM    9  C   UNL     1     -10.052   6.447  68.949  1.00  0.00    -0.162 A  
HETATM   10  C   UNL     1      -9.854   5.078  68.991  1.00  0.00    -0.252 A  
HETATM   11  N   UNL     1     -10.650   7.216  69.937  1.00  0.00    -0.224 N  
HETATM   12  H   UNL     1     -11.012   6.841  70.814  1.00  0.00     0.000 HD 
HETATM   13  C   UNL     1     -10.696   8.557  69.586  1.00  0.00    -0.197 C  
HETATM   14  O   UNL     1     -11.216   9.439  70.244  1.00  0.00    -0.245 OA 
HETATM   15  C   UNL     1     -10.029   8.641  68.224  1.00  0.00    -0.207 C  
HETATM   16  C   UNL     1      -9.844   9.801  67.548  1.00  0.00    -0.167 C  
BRANCH  16  17
HETATM   17  C   UNL     1      -9.231   9.775  66.202  1.00  0.00    -0.221 A  
HETATM   18  C   UNL     1      -8.064   9.882  63.663  1.00  0.00    -0.153 A  
HETATM   19  C   UNL     1      -7.841   9.667  66.063  1.00  0.00    -0.102 A  
HETATM   20  C   UNL     1     -10.030   9.910  65.059  1.00  0.00    -0.236 A  
HETATM   21  C   UNL     1      -7.261   9.726  64.794  1.00  0.00    -0.130 A  
HETATM   22  C   UNL     1      -9.449   9.967  63.794  1.00  0.00    -0.267 A  
ENDBRANCH  16  17
BRANCH  16  23
HETATM   23  N   UNL     1     -10.170  11.102  67.948  1.00  0.00    -0.176 NA 
HETATM   24  H   UNL     1     -11.104  11.301  68.308  1.00  0.00     0.000 HD 
BRANCH  23  25
HETATM   25  C   UNL     1      -9.211  12.151  67.859  1.00  0.00    -0.188 A  
HETATM   26  C   UNL     1      -7.474  14.418  67.901  1.00  0.00    -0.152 A  
HETATM   27  C   UNL     1      -8.028  12.136  68.587  1.00  0.00    -0.063 A  
HETATM   28  C   UNL     1      -9.412  13.216  66.983  1.00  0.00    -0.242 A  
HETATM   29  C   UNL     1      -7.188  13.253  68.620  1.00  0.00    -0.106 A  
HETATM   30  C   UNL     1      -8.557  14.331  67.008  1.00  0.00    -0.213 A  
BRANCH  26  31
HETATM   31  N   UNL     1      -6.734  15.651  68.107  1.00  0.00    -0.116 N  
HETATM   32  C   UNL     1      -5.427  15.792  67.461  1.00  0.00    -0.055 C  
HETATM   33  C   UNL     1      -7.267  16.739  68.840  1.00  0.00    -0.225 C  
HETATM   34  O   UNL     1      -8.333  16.725  69.466  1.00  0.00     0.068 OA 
BRANCH  33  35
HETATM   35  C   UNL     1      -6.432  18.021  68.978  1.00  0.00    -0.240 C  
BRANCH  35  36
HETATM   36  N   UNL     1      -6.705  19.059  67.962  1.00  0.00    -0.228 NA 
HETATM   37  C   UNL     1      -7.277  18.542  66.697  1.00  0.00    -0.216 C  
HETATM   38  C   UNL     1      -8.803  18.245  66.680  1.00  0.00    -0.284 C  
HETATM   39  N   UNL     1      -9.670  19.245  67.338  1.00  0.00    -0.313 NA 
HETATM   40  C   UNL     1      -9.891  20.421  66.496  1.00  0.00    -0.317 C  
HETATM   41  C   UNL     1      -9.082  19.623  68.633  1.00  0.00    -0.285 C  
HETATM   42  C   UNL     1      -7.608  20.077  68.533  1.00  0.00    -0.180 C  
ENDBRANCH  35  36
ENDBRANCH  33  35
ENDBRANCH  26  31
ENDBRANCH  23  25
ENDBRANCH  16  23
ENDBRANCH   3   5
ENDBRANCH   2   3
TORSDOF 8
ENDMDL
MODEL       66
REMARK 921   NORMALIZED FREE ENERGY PREDICTED BY IDOCK:   -4.26 KCAL/MOL
REMARK 922        TOTAL FREE ENERGY PREDICTED BY IDOCK:   -7.79 KCAL/MOL
REMARK 923 INTER-LIGAND FREE ENERGY PREDICTED BY IDOCK:   -6.04 KCAL/MOL
REMARK 924 INTRA-LIGAND FREE ENERGY PREDICTED BY IDOCK:   -1.75 KCAL/MOL
REMARK 927      BINDING AFFINITY PREDICTED BY RF-SCORE:    0.00 PKD
ROOT
HETATM    1  C   UNL     1      -8.884   1.536  67.923  1.00  0.00    -0.109 C  
HETATM    2  O   UNL     1      -9.742   2.553  67.406  1.00  0.00     0.005 OA 
ENDROOT
BRANCH   2   3
HETATM    3  C   UNL     1      -9.148   3.399  66.522  1.00  0.00    -0.161 C  
HETATM    4  O   UNL     1      -9.023   3.203  65.320  1.00  0.00    -0.132 OA 
BRANCH   3   5
HETATM    5  C   UNL     1      -8.691   4.631  67.213  1.00  0.00    -0.104 A  
HETATM    6  C   UNL     1      -9.337   5.125  68.365  1.00  0.00    -0.155 A  
HETATM    7  C   UNL     1      -8.911   6.308  68.987  1.00  0.00    -0.124 A  
HETATM    8  C   UNL     1      -7.838   7.003  68.453  1.00  0.00    -0.122 A  
HETATM    9  C   UNL     1      -7.209   6.497  67.310  1.00  0.00    -0.078 A  
HETATM   10  C   UNL     1      -7.595   5.325  66.684  1.00  0.00    -0.088 A  
HETATM   11  N   UNL     1      -6.178   7.335  66.909  1.00  0.00    -0.041 N  
HETATM   12  H   UNL     1      -5.587   7.167  66.095  1.00  0.00     0.000 HD 
HETATM   13  C   UNL     1      -6.048   8.428  67.753  1.00  0.00    -0.048 C  
HETATM   14  O   UNL     1      -5.190   9.286  67.665  1.00  0.00    -0.037 OA 
HETATM   15  C   UNL     1      -7.141   8.266  68.795  1.00  0.00    -0.071 C  
HETATM   16  C   UNL     1      -7.371   9.159  69.788  1.00  0.00    -0.064 C  
BRANCH  16  17
HETATM   17  C   UNL     1      -8.426   8.887  70.788  1.00  0.00    -0.216 A  
HETATM   18  C   UNL     1     -10.391   8.514  72.742  1.00  0.00    -0.123 A  
HETATM   19  C   UNL     1      -9.755   9.248  70.526  1.00  0.00    -0.316 A  
HETATM   20  C   UNL     1      -8.098   8.315  72.024  1.00  0.00    -0.188 A  
HETATM   21  C   UNL     1     -10.733   9.065  71.506  1.00  0.00    -0.421 A  
HETATM   22  C   UNL     1      -9.077   8.132  72.999  1.00  0.00    -0.344 A  
ENDBRANCH  16  17
BRANCH  16  23
HETATM   23  N   UNL     1      -6.717  10.372  70.035  1.00  0.00    -0.131 NA 
HETATM   24  H   UNL     1      -6.018  10.428  70.776  1.00  0.00     0.000 HD 
BRANCH  23  25
HETATM   25  C   UNL     1      -7.018  11.529  69.261  1.00  0.00    -0.098 A  
HETATM   26  C   UNL     1      -7.733  13.986  67.991  1.00  0.00    -0.149 A  
HETATM   27  C   UNL     1      -6.058  12.486  68.955  1.00  0.00    -0.081 A  
HETATM   28  C   UNL     1      -8.295  11.711  68.735  1.00  0.00    -0.040 A  
HETATM   29  C   UNL     1      -6.413  13.694  68.349  1.00  0.00    -0.095 A  
HETATM   30  C   UNL     1      -8.645  12.922  68.113  1.00  0.00    -0.188 A  
BRANCH  26  31
HETATM   31  N   UNL     1      -8.142  15.316  67.574  1.00  0.00    -0.158 N  
HETATM   32  C   UNL     1      -8.552  15.511  66.182  1.00  0.00    -0.043 C  
HETATM   33  C   UNL     1      -8.230  16.399  68.481  1.00  0.00    -0.201 C  
HETATM   34  O   UNL     1      -7.871  16.371  69.665  1.00  0.00    -0.020 OA 
BRANCH  33  35
HETATM   35  C   UNL     1      -8.708  17.764  67.965  1.00  0.00    -0.251 C  
BRANCH  35  36
HETATM   36  N   UNL     1      -7.668  18.815  67.918  1.00  0.00    -0.252 NA 
HETATM   37  C   UNL     1      -6.368  18.365  67.370  1.00  0.00    -0.182 C  
HETATM   38  C   UNL     1      -6.240  18.290  65.822  1.00  0.00    -0.253 C  
HETATM   39  N   UNL     1      -6.827  19.415  65.064  1.00  0.00    -0.422 NA 
HETATM   40  C   UNL     1      -5.965  20.596  65.076  1.00  0.00    -0.251 C  
HETATM   41  C   UNL     1      -8.160  19.725  65.606  1.00  0.00     0.022 C  
HETATM   42  C   UNL     1      -8.166  19.961  67.133  1.00  0.00    -0.312 C  
ENDBRANCH  35  36
ENDBRANCH  33  35
ENDBRANCH  26  31
ENDBRANCH  23  25
ENDBRANCH  16  23
ENDBRANCH   3   5
ENDBRANCH   2   3
TORSDOF 8
ENDMDL
MODEL       67
REMARK 921   NORMALIZED FREE ENERGY PREDICTED BY IDOCK:   -4.24 KCAL/MOL
REMARK 922        TOTAL FREE ENERGY PREDICTED BY IDOCK:   -7.76 KCAL/MOL
REMARK 923 INTER-LIGAND FREE ENERGY PREDICTED BY IDOCK:   -5.56 KCAL/MOL
REMARK 924 INTRA-LIGAND FREE ENERGY PREDICTED BY IDOCK:   -2.20 KCAL/MOL
REMARK 927      BINDING AFFINITY PREDICTED BY RF-SCORE:    0.00 PKD
ROOT
HETATM    1  C   UNL     1     -10.971   1.942  63.666  1.00  0.00    -0.001 C  
HETATM    2  O   UNL     1     -10.253   2.943  64.387  1.00  0.00    -0.082 OA 
ENDROOT
BRANCH   2   3
HETATM    3  C   UNL     1      -9.744   3.941  63.614  1.00  0.00    -0.162 C  
HETATM    4  O   UNL     1      -9.888   4.050  62.403  1.00  0.00    -0.127 OA 
BRANCH   3   5
HETATM    5  C   UNL     1      -9.004   4.917  64.452  1.00  0.00    -0.080 A  
HETATM    6  C   UNL     1      -9.232   5.036  65.839  1.00  0.00    -0.159 A  
HETATM    7  C   UNL     1      -8.547   5.987  66.610  1.00  0.00    -0.113 A  
HETATM    8  C   UNL     1      -7.632   6.824  65.993  1.00  0.00    -0.086 A  
HETATM    9  C   UNL     1      -7.417   6.691  64.616  1.00  0.00    -0.093 A  
HETATM   10  C   UNL     1      -8.066   5.753  63.832  1.00  0.00    -0.113 A  
HETATM   11  N   UNL     1      -6.491   7.624  64.174  1.00  0.00    -0.052 N  
HETATM   12  H   UNL     1      -6.188   7.715  63.204  1.00  0.00     0.000 HD 
HETATM   13  C   UNL     1      -6.027   8.419  65.212  1.00  0.00    -0.045 C  
HETATM   14  O   UNL     1      -5.171   9.276  65.113  1.00  0.00    -0.040 OA 
HETATM   15  C   UNL     1      -6.767   7.938  66.449  1.00  0.00    -0.054 C  
HETATM   16  C   UNL     1      -6.616   8.491  67.678  1.00  0.00    -0.062 C  
BRANCH  16  17
HETATM   17  C   UNL     1      -7.340   7.919  68.833  1.00  0.00    -0.085 A  
HETATM   18  C   UNL     1      -8.782   6.738  70.917  1.00  0.00    -0.142 A  
HETATM   19  C   UNL     1      -6.792   6.844  69.545  1.00  0.00    -0.051 A  
HETATM   20  C   UNL     1      -8.602   8.411  69.190  1.00  0.00    -0.134 A  
HETATM   21  C   UNL     1      -7.517   6.254  70.582  1.00  0.00    -0.087 A  
HETATM   22  C   UNL     1      -9.322   7.820  70.226  1.00  0.00    -0.156 A  
ENDBRANCH  16  17
BRANCH  16  23
HETATM   23  N   UNL     1      -5.823   9.585  68.046  1.00  0.00    -0.041 NA 
HETATM   24  H   UNL     1      -4.818   9.462  68.171  1.00  0.00     0.000 HD 
BRANCH  23  25
HETATM   25  C   UNL     1      -6.408  10.868  68.251  1.00  0.00    -0.056 A  
HETATM   26  C   UNL     1      -7.299  13.567  68.531  1.00  0.00    -0.114 A  
HETATM   27  C   UNL     1      -7.299  11.428  67.344  1.00  0.00    -0.119 A  
HETATM   28  C   UNL     1      -6.136  11.588  69.412  1.00  0.00    -0.085 A  
HETATM   29  C   UNL     1      -7.720  12.754  67.474  1.00  0.00    -0.168 A  
HETATM   30  C   UNL     1      -6.574  12.917  69.546  1.00  0.00    -0.029 A  
BRANCH  26  31
HETATM   31  N   UNL     1      -7.547  14.998  68.549  1.00  0.00    -0.112 N  
HETATM   32  C   UNL     1      -8.637  15.503  69.388  1.00  0.00    -0.259 C  
HETATM   33  C   UNL     1      -6.728  15.917  67.850  1.00  0.00    -0.146 C  
HETATM   34  O   UNL     1      -5.811  15.612  67.077  1.00  0.00    -0.294 OA 
BRANCH  33  35
HETATM   35  C   UNL     1      -7.039  17.417  67.952  1.00  0.00    -0.173 C  
BRANCH  35  36
HETATM   36  N   UNL     1      -7.530  18.042  66.705  1.00  0.00    -0.203 NA 
HETATM   37  C   UNL     1      -8.746  17.411  66.142  1.00  0.00    -0.147 C  
HETATM   38  C   UNL     1     -10.108  17.808  66.776  1.00  0.00    -0.349 C  
HETATM   39  N   UNL     1     -10.292  19.243  67.081  1.00  0.00    -0.401 NA 
HETATM   40  C   UNL     1     -10.623  20.021  65.888  1.00  0.00    -0.354 C  
HETATM   41  C   UNL     1      -9.079  19.762  67.733  1.00  0.00    -0.332 C  
HETATM   42  C   UNL     1      -7.782  19.476  66.943  1.00  0.00    -0.254 C  
ENDBRANCH  35  36
ENDBRANCH  33  35
ENDBRANCH  26  31
ENDBRANCH  23  25
ENDBRANCH  16  23
ENDBRANCH   3   5
ENDBRANCH   2   3
TORSDOF 8
ENDMDL
MODEL       68
REMARK 921   NORMALIZED FREE ENERGY PREDICTED BY IDOCK:   -4.24 KCAL/MOL
REMARK 922        TOTAL FREE ENERGY PREDICTED BY IDOCK:   -7.76 KCAL/MOL
REMARK 923 INTER-LIGAND FREE ENERGY PREDICTED BY IDOCK:   -7.97 KCAL/MOL
REMARK 924 INTRA-LIGAND FREE ENERGY PREDICTED BY IDOCK:    0.21 KCAL/MOL
REMARK 927      BINDING AFFINITY PREDICTED BY RF-SCORE:    0.00 PKD
ROOT
HETATM    1  C   UNL     1      -8.830   3.578  74.534  1.00  0.00    -0.086 C  
HETATM    2  O   UNL     1      -9.299   4.699  73.783  1.00  0.00    -0.120 OA 
ENDROOT
BRANCH   2   3
HETATM    3  C   UNL     1     -10.414   4.457  73.042  1.00  0.00    -0.183 C  
HETATM    4  O   UNL     1     -11.423   3.885  73.437  1.00  0.00    -0.223 OA 
BRANCH   3   5
HETATM    5  C   UNL     1     -10.259   5.016  71.676  1.00  0.00    -0.275 A  
HETATM    6  C   UNL     1      -9.447   4.398  70.703  1.00  0.00    -0.242 A  
HETATM    7  C   UNL     1      -9.286   4.958  69.428  1.00  0.00    -0.186 A  
HETATM    8  C   UNL     1      -9.936   6.142  69.123  1.00  0.00    -0.190 A  
HETATM    9  C   UNL     1     -10.739   6.741  70.101  1.00  0.00    -0.233 A  
HETATM   10  C   UNL     1     -10.930   6.205  71.362  1.00  0.00    -0.334 A  
HETATM   11  N   UNL     1     -11.286   7.924  69.626  1.00  0.00    -0.448 N  
HETATM   12  H   UNL     1     -11.898   8.532  70.171  1.00  0.00     0.000 HD 
HETATM   13  C   UNL     1     -10.899   8.180  68.318  1.00  0.00     0.089 C  
HETATM   14  O   UNL     1     -11.278   9.118  67.643  1.00  0.00     0.063 OA 
HETATM   15  C   UNL     1      -9.985   7.029  67.936  1.00  0.00    -0.183 C  
HETATM   16  C   UNL     1      -9.365   6.928  66.734  1.00  0.00    -0.158 C  
BRANCH  16  17
HETATM   17  C   UNL     1      -8.535   5.742  66.435  1.00  0.00    -0.122 A  
HETATM   18  C   UNL     1      -6.914   3.572  65.741  1.00  0.00    -0.058 A  
HETATM   19  C   UNL     1      -7.233   5.646  66.944  1.00  0.00    -0.078 A  
HETATM   20  C   UNL     1      -9.024   4.729  65.599  1.00  0.00    -0.142 A  
HETATM   21  C   UNL     1      -6.424   4.564  66.592  1.00  0.00    -0.041 A  
HETATM   22  C   UNL     1      -8.215   3.650  65.250  1.00  0.00    -0.097 A  
ENDBRANCH  16  17
BRANCH  16  23
HETATM   23  N   UNL     1      -9.399   7.826  65.661  1.00  0.00    -0.392 NA 
HETATM   24  H   UNL     1      -9.653   7.493  64.731  1.00  0.00     0.000 HD 
BRANCH  23  25
HETATM   25  C   UNL     1      -9.083   9.202  65.856  1.00  0.00    -0.205 A  
HETATM   26  C   UNL     1      -8.694  11.963  66.472  1.00  0.00    -0.158 A  
HETATM   27  C   UNL     1      -8.052   9.613  66.691  1.00  0.00    -0.119 A  
HETATM   28  C   UNL     1      -9.779  10.189  65.162  1.00  0.00    -0.370 A  
HETATM   29  C   UNL     1      -7.874  10.963  67.005  1.00  0.00    -0.132 A  
HETATM   30  C   UNL     1      -9.587  11.547  65.468  1.00  0.00    -0.252 A  
BRANCH  26  31
HETATM   31  N   UNL     1      -8.661  13.329  66.965  1.00  0.00    -0.208 N  
HETATM   32  C   UNL     1      -7.795  13.634  68.106  1.00  0.00    -0.143 C  
HETATM   33  C   UNL     1      -9.373  14.378  66.334  1.00  0.00    -0.258 C  
HETATM   34  O   UNL     1     -10.168  14.240  65.397  1.00  0.00    -0.336 OA 
BRANCH  33  35
HETATM   35  C   UNL     1      -9.254  15.802  66.900  1.00  0.00    -0.229 C  
BRANCH  35  36
HETATM   36  N   UNL     1     -10.505  16.362  67.454  1.00  0.00    -0.306 NA 
HETATM   37  C   UNL     1     -11.627  15.398  67.528  1.00  0.00    -0.169 C  
HETATM   38  C   UNL     1     -11.636  14.413  68.730  1.00  0.00    -0.315 C  
HETATM   39  N   UNL     1     -11.280  14.986  70.046  1.00  0.00    -0.261 NA 
HETATM   40  C   UNL     1     -12.393  15.722  70.644  1.00  0.00    -0.371 C  
HETATM   41  C   UNL     1     -10.094  15.844  69.899  1.00  0.00    -0.190 C  
HETATM   42  C   UNL     1     -10.239  16.916  68.796  1.00  0.00    -0.311 C  
ENDBRANCH  35  36
ENDBRANCH  33  35
ENDBRANCH  26  31
ENDBRANCH  23  25
ENDBRANCH  16  23
ENDBRANCH   3   5
ENDBRANCH   2   3
TORSDOF 8
ENDMDL
MODEL       69
REMARK 921   NORMALIZED FREE ENERGY PREDICTED BY IDOCK:   -4.15 KCAL/MOL
REMARK 922        TOTAL FREE ENERGY PREDICTED BY IDOCK:   -7.63 KCAL/MOL
REMARK 923 INTER-LIGAND FREE ENERGY PREDICTED BY IDOCK:   -7.45 KCAL/MOL
REMARK 924 INTRA-LIGAND FREE ENERGY PREDICTED BY IDOCK:   -0.17 KCAL/MOL
REMARK 927      BINDING AFFINITY PREDICTED BY RF-SCORE:    0.00 PKD
ROOT
HETATM    1  C   UNL     1      -8.807   4.080  74.528  1.00  0.00    -0.093 C  
HETATM    2  O   UNL     1      -9.100   5.208  73.703  1.00  0.00    -0.123 OA 
ENDROOT
BRANCH   2   3
HETATM    3  C   UNL     1     -10.385   5.265  73.259  1.00  0.00    -0.207 C  
HETATM    4  O   UNL     1     -11.377   4.946  73.902  1.00  0.00    -0.227 OA 
BRANCH   3   5
HETATM    5  C   UNL     1     -10.430   5.806  71.878  1.00  0.00    -0.272 A  
HETATM    6  C   UNL     1      -9.930   5.082  70.775  1.00  0.00    -0.291 A  
HETATM    7  C   UNL     1      -9.952   5.623  69.481  1.00  0.00    -0.263 A  
HETATM    8  C   UNL     1     -10.471   6.892  69.287  1.00  0.00    -0.233 A  
HETATM    9  C   UNL     1     -10.964   7.595  70.393  1.00  0.00    -0.247 A  
HETATM   10  C   UNL     1     -10.971   7.083  71.679  1.00  0.00    -0.258 A  
HETATM   11  N   UNL     1     -11.419   8.849  70.011  1.00  0.00    -0.454 N  
HETATM   12  H   UNL     1     -11.813   9.535  70.655  1.00  0.00     0.000 HD 
HETATM   13  C   UNL     1     -11.272   9.054  68.647  1.00  0.00     0.349 C  
HETATM   14  O   UNL     1     -11.640  10.043  68.042  1.00  0.00    -0.166 OA 
HETATM   15  C   UNL     1     -10.630   7.785  68.115  1.00  0.00    -0.182 C  
HETATM   16  C   UNL     1     -10.288   7.604  66.815  1.00  0.00    -0.273 C  
BRANCH  16  17
HETATM   17  C   UNL     1      -9.717   6.311  66.382  1.00  0.00    -0.146 A  
HETATM   18  C   UNL     1      -8.618   3.827  65.715  1.00  0.00    -0.112 A  
HETATM   19  C   UNL     1     -10.553   5.207  66.169  1.00  0.00    -0.293 A  
HETATM   20  C   UNL     1      -8.332   6.164  66.233  1.00  0.00    -0.124 A  
HETATM   21  C   UNL     1     -10.001   3.967  65.840  1.00  0.00    -0.144 A  
HETATM   22  C   UNL     1      -7.783   4.926  65.904  1.00  0.00    -0.091 A  
ENDBRANCH  16  17
BRANCH  16  23
HETATM   23  N   UNL     1     -10.409   8.505  65.751  1.00  0.00     0.209 NA 
HETATM   24  H   UNL     1     -10.894   8.221  64.900  1.00  0.00     0.000 HD 
BRANCH  23  25
HETATM   25  C   UNL     1      -9.859   9.817  65.846  1.00  0.00    -0.282 A  
HETATM   26  C   UNL     1      -8.940  12.480  66.311  1.00  0.00    -0.003 A  
HETATM   27  C   UNL     1      -8.613  10.058  66.411  1.00  0.00    -0.136 A  
HETATM   28  C   UNL     1     -10.546  10.907  65.317  1.00  0.00    -0.259 A  
HETATM   29  C   UNL     1      -8.173  11.362  66.654  1.00  0.00    -0.163 A  
HETATM   30  C   UNL     1     -10.093  12.217  65.550  1.00  0.00    -0.275 A  
BRANCH  26  31
HETATM   31  N   UNL     1      -8.596  13.817  66.762  1.00  0.00    -0.107 N  
HETATM   32  C   UNL     1      -7.512  13.963  67.737  1.00  0.00    -0.167 C  
HETATM   33  C   UNL     1      -9.214  14.976  66.235  1.00  0.00    -0.289 C  
HETATM   34  O   UNL     1     -10.166  14.982  65.445  1.00  0.00    -0.339 OA 
BRANCH  33  35
HETATM   35  C   UNL     1      -8.764  16.355  66.741  1.00  0.00    -0.226 C  
BRANCH  35  36
HETATM   36  N   UNL     1      -9.131  16.658  68.141  1.00  0.00    -0.209 NA 
HETATM   37  C   UNL     1      -8.151  17.504  68.861  1.00  0.00    -0.168 C  
HETATM   38  C   UNL     1      -8.213  19.035  68.604  1.00  0.00    -0.364 C  
HETATM   39  N   UNL     1      -9.564  19.634  68.553  1.00  0.00    -0.378 NA 
HETATM   40  C   UNL     1     -10.126  19.838  69.888  1.00  0.00     0.353 C  
HETATM   41  C   UNL     1     -10.443  18.786  67.731  1.00  0.00    -0.420 C  
HETATM   42  C   UNL     1     -10.457  17.304  68.170  1.00  0.00    -0.382 C  
ENDBRANCH  35  36
ENDBRANCH  33  35
ENDBRANCH  26  31
ENDBRANCH  23  25
ENDBRANCH  16  23
ENDBRANCH   3   5
ENDBRANCH   2   3
TORSDOF 8
ENDMDL
MODEL       70
REMARK 921   NORMALIZED FREE ENERGY PREDICTED BY IDOCK:   -4.14 KCAL/MOL
REMARK 922        TOTAL FREE ENERGY PREDICTED BY IDOCK:   -7.62 KCAL/MOL
REMARK 923 INTER-LIGAND FREE ENERGY PREDICTED BY IDOCK:   -6.05 KCAL/MOL
REMARK 924 INTRA-LIGAND FREE ENERGY PREDICTED BY IDOCK:   -1.57 KCAL/MOL
REMARK 927      BINDING AFFINITY PREDICTED BY RF-SCORE:    0.00 PKD
ROOT
HETATM    1  C   UNL     1      -5.648  18.468  64.613  1.00  0.00    -0.137 C  
HETATM    2  O   UNL     1      -5.661  18.922  65.966  1.00  0.00    -0.149 OA 
ENDROOT
BRANCH   2   3
HETATM    3  C   UNL     1      -6.887  18.910  66.556  1.00  0.00    -0.203 C  
HETATM    4  O   UNL     1      -7.587  19.892  66.768  1.00  0.00    -0.251 OA 
BRANCH   3   5
HETATM    5  C   UNL     1      -7.288  17.519  66.885  1.00  0.00    -0.239 A  
HETATM    6  C   UNL     1      -8.417  16.909  66.300  1.00  0.00    -0.322 A  
HETATM    7  C   UNL     1      -8.800  15.605  66.647  1.00  0.00    -0.327 A  
HETATM    8  C   UNL     1      -8.055  14.908  67.585  1.00  0.00    -0.180 A  
HETATM    9  C   UNL     1      -6.937  15.530  68.154  1.00  0.00    -0.122 A  
HETATM   10  C   UNL     1      -6.525  16.809  67.820  1.00  0.00    -0.162 A  
HETATM   11  N   UNL     1      -6.334  14.695  69.083  1.00  0.00    -0.100 N  
HETATM   12  H   UNL     1      -5.507  14.944  69.626  1.00  0.00     0.000 HD 
HETATM   13  C   UNL     1      -6.993  13.478  69.182  1.00  0.00    -0.055 C  
HETATM   14  O   UNL     1      -6.643  12.544  69.878  1.00  0.00    -0.029 OA 
HETATM   15  C   UNL     1      -8.159  13.571  68.213  1.00  0.00    -0.155 C  
HETATM   16  C   UNL     1      -9.074  12.584  68.042  1.00  0.00    -0.200 C  
BRANCH  16  17
HETATM   17  C   UNL     1     -10.145  12.746  67.036  1.00  0.00    -0.240 A  
HETATM   18  C   UNL     1     -12.132  13.205  65.123  1.00  0.00    -0.463 A  
HETATM   19  C   UNL     1      -9.868  12.558  65.675  1.00  0.00    -0.227 A  
HETATM   20  C   UNL     1     -11.431  13.141  67.428  1.00  0.00    -0.375 A  
HETATM   21  C   UNL     1     -10.861  12.792  64.722  1.00  0.00    -0.335 A  
HETATM   22  C   UNL     1     -12.420  13.373  66.475  1.00  0.00    -0.255 A  
ENDBRANCH  16  17
BRANCH  16  23
HETATM   23  N   UNL     1      -9.161  11.355  68.706  1.00  0.00    -0.347 NA 
HETATM   24  H   UNL     1      -9.400  11.332  69.698  1.00  0.00     0.000 HD 
BRANCH  23  25
HETATM   25  C   UNL     1      -8.919  10.136  68.010  1.00  0.00    -0.125 A  
HETATM   26  C   UNL     1      -8.554   7.845  66.344  1.00  0.00    -0.147 A  
HETATM   27  C   UNL     1      -7.668   9.810  67.500  1.00  0.00    -0.095 A  
HETATM   28  C   UNL     1      -9.936   9.196  67.863  1.00  0.00    -0.228 A  
HETATM   29  C   UNL     1      -7.495   8.698  66.671  1.00  0.00    -0.089 A  
HETATM   30  C   UNL     1      -9.755   8.071  67.041  1.00  0.00    -0.275 A  
BRANCH  26  31
HETATM   31  N   UNL     1      -8.434   6.830  65.312  1.00  0.00    -0.106 N  
HETATM   32  C   UNL     1      -9.401   5.729  65.306  1.00  0.00     0.257 C  
HETATM   33  C   UNL     1      -7.472   6.913  64.277  1.00  0.00    -0.101 C  
HETATM   34  O   UNL     1      -6.578   7.764  64.200  1.00  0.00    -0.055 OA 
BRANCH  33  35
HETATM   35  C   UNL     1      -7.437   5.815  63.204  1.00  0.00    -0.070 C  
BRANCH  35  36
HETATM   36  N   UNL     1      -6.168   5.061  63.119  1.00  0.00    -0.021 NA 
HETATM   37  C   UNL     1      -5.517   4.811  64.425  1.00  0.00    -0.013 C  
HETATM   38  C   UNL     1      -6.062   3.630  65.275  1.00  0.00    -0.023 C  
HETATM   39  N   UNL     1      -6.373   2.386  64.538  1.00  0.00    -0.019 NA 
HETATM   40  C   UNL     1      -5.170   1.611  64.236  1.00  0.00    -0.004 C  
HETATM   41  C   UNL     1      -7.112   2.718  63.310  1.00  0.00    -0.044 C  
HETATM   42  C   UNL     1      -6.408   3.777  62.432  1.00  0.00    -0.021 C  
ENDBRANCH  35  36
ENDBRANCH  33  35
ENDBRANCH  26  31
ENDBRANCH  23  25
ENDBRANCH  16  23
ENDBRANCH   3   5
ENDBRANCH   2   3
TORSDOF 8
ENDMDL
MODEL       71
REMARK 921   NORMALIZED FREE ENERGY PREDICTED BY IDOCK:   -3.99 KCAL/MOL
REMARK 922        TOTAL FREE ENERGY PREDICTED BY IDOCK:   -7.39 KCAL/MOL
REMARK 923 INTER-LIGAND FREE ENERGY PREDICTED BY IDOCK:   -6.64 KCAL/MOL
REMARK 924 INTRA-LIGAND FREE ENERGY PREDICTED BY IDOCK:   -0.75 KCAL/MOL
REMARK 927      BINDING AFFINITY PREDICTED BY RF-SCORE:    0.00 PKD
ROOT
HETATM    1  C   UNL     1     -10.895   4.635  72.704  1.00  0.00    -0.148 C  
HETATM    2  O   UNL     1     -10.081   3.660  73.356  1.00  0.00    -0.123 OA 
ENDROOT
BRANCH   2   3
HETATM    3  C   UNL     1      -8.877   3.439  72.762  1.00  0.00    -0.085 C  
HETATM    4  O   UNL     1      -8.215   2.413  72.850  1.00  0.00    -0.057 OA 
BRANCH   3   5
HETATM    5  C   UNL     1      -8.479   4.616  71.950  1.00  0.00    -0.120 A  
HETATM    6  C   UNL     1      -8.350   4.547  70.548  1.00  0.00    -0.087 A  
HETATM    7  C   UNL     1      -7.941   5.661  69.800  1.00  0.00    -0.098 A  
HETATM    8  C   UNL     1      -7.655   6.848  70.455  1.00  0.00    -0.088 A  
HETATM    9  C   UNL     1      -7.790   6.898  71.847  1.00  0.00    -0.095 A  
HETATM   10  C   UNL     1      -8.206   5.821  72.611  1.00  0.00    -0.112 A  
HETATM   11  N   UNL     1      -7.440   8.152  72.327  1.00  0.00    -0.107 N  
HETATM   12  H   UNL     1      -7.455   8.412  73.313  1.00  0.00     0.000 HD 
HETATM   13  C   UNL     1      -7.068   9.008  71.301  1.00  0.00    -0.079 C  
HETATM   14  O   UNL     1      -6.769  10.179  71.436  1.00  0.00    -0.247 OA 
HETATM   15  C   UNL     1      -7.179   8.185  70.029  1.00  0.00    -0.056 C  
HETATM   16  C   UNL     1      -6.864   8.658  68.798  1.00  0.00    -0.062 C  
BRANCH  16  17
HETATM   17  C   UNL     1      -7.056   7.797  67.611  1.00  0.00    -0.083 A  
HETATM   18  C   UNL     1      -7.381   6.291  65.277  1.00  0.00    -0.077 A  
HETATM   19  C   UNL     1      -5.985   7.049  67.102  1.00  0.00    -0.025 A  
HETATM   20  C   UNL     1      -8.294   7.762  66.956  1.00  0.00    -0.117 A  
HETATM   21  C   UNL     1      -6.150   6.302  65.934  1.00  0.00    -0.033 A  
HETATM   22  C   UNL     1      -8.455   7.015  65.791  1.00  0.00    -0.154 A  
ENDBRANCH  16  17
BRANCH  16  23
HETATM   23  N   UNL     1      -6.361   9.918  68.454  1.00  0.00    -0.050 NA 
HETATM   24  H   UNL     1      -5.356  10.090  68.495  1.00  0.00     0.000 HD 
BRANCH  23  25
HETATM   25  C   UNL     1      -7.240  10.963  68.046  1.00  0.00    -0.086 A  
HETATM   26  C   UNL     1      -8.960  13.184  67.533  1.00  0.00    -0.197 A  
HETATM   27  C   UNL     1      -6.796  12.064  67.324  1.00  0.00    -0.150 A  
HETATM   28  C   UNL     1      -8.603  10.883  68.320  1.00  0.00    -0.139 A  
HETATM   29  C   UNL     1      -7.634  13.157  67.089  1.00  0.00    -0.008 A  
HETATM   30  C   UNL     1      -9.447  11.978  68.069  1.00  0.00    -0.199 A  
BRANCH  26  31
HETATM   31  N   UNL     1      -9.761  14.396  67.494  1.00  0.00    -0.213 N  
HETATM   32  C   UNL     1     -10.592  14.640  66.312  1.00  0.00    -0.306 C  
HETATM   33  C   UNL     1      -9.821  15.298  68.583  1.00  0.00    -0.211 C  
HETATM   34  O   UNL     1      -9.136  15.226  69.610  1.00  0.00    -0.232 OA 
BRANCH  33  35
HETATM   35  C   UNL     1     -10.723  16.537  68.472  1.00  0.00    -0.336 C  
BRANCH  35  36
HETATM   36  N   UNL     1     -10.023  17.834  68.600  1.00  0.00    -0.362 NA 
HETATM   37  C   UNL     1      -8.558  17.762  68.395  1.00  0.00    -0.292 C  
HETATM   38  C   UNL     1      -8.049  17.729  66.926  1.00  0.00    -0.228 C  
HETATM   39  N   UNL     1      -8.719  18.651  65.984  1.00  0.00    -0.488 NA 
HETATM   40  C   UNL     1      -8.234  20.024  66.120  1.00  0.00    -0.272 C  
HETATM   41  C   UNL     1     -10.175  18.580  66.184  1.00  0.00    -0.398 C  
HETATM   42  C   UNL     1     -10.608  18.800  67.651  1.00  0.00    -0.419 C  
ENDBRANCH  35  36
ENDBRANCH  33  35
ENDBRANCH  26  31
ENDBRANCH  23  25
ENDBRANCH  16  23
ENDBRANCH   3   5
ENDBRANCH   2   3
TORSDOF 8
ENDMDL
MODEL       72
REMARK 921   NORMALIZED FREE ENERGY PREDICTED BY IDOCK:   -3.97 KCAL/MOL
REMARK 922        TOTAL FREE ENERGY PREDICTED BY IDOCK:   -7.36 KCAL/MOL
REMARK 923 INTER-LIGAND FREE ENERGY PREDICTED BY IDOCK:   -7.53 KCAL/MOL
REMARK 924 INTRA-LIGAND FREE ENERGY PREDICTED BY IDOCK:    0.17 KCAL/MOL
REMARK 927      BINDING AFFINITY PREDICTED BY RF-SCORE:    0.00 PKD
ROOT
HETATM    1  C   UNL     1     -14.403  15.818  72.560  1.00  0.00    -0.198 C  
HETATM    2  O   UNL     1     -13.211  15.667  73.331  1.00  0.00    -0.520 OA 
ENDROOT
BRANCH   2   3
HETATM    3  C   UNL     1     -12.150  16.388  72.879  1.00  0.00    -0.474 C  
HETATM    4  O   UNL     1     -11.539  17.237  73.516  1.00  0.00     0.064 OA 
BRANCH   3   5
HETATM    5  C   UNL     1     -11.800  15.979  71.495  1.00  0.00    -0.554 A  
HETATM    6  C   UNL     1     -10.979  16.772  70.667  1.00  0.00     0.288 A  
HETATM    7  C   UNL     1     -10.685  16.386  69.351  1.00  0.00    -0.324 A  
HETATM    8  C   UNL     1     -11.215  15.206  68.858  1.00  0.00    -0.292 A  
HETATM    9  C   UNL     1     -12.028  14.431  69.695  1.00  0.00    -0.336 A  
HETATM   10  C   UNL     1     -12.323  14.777  71.002  1.00  0.00    -0.397 A  
HETATM   11  N   UNL     1     -12.484  13.305  69.026  1.00  0.00     0.055 N  
HETATM   12  H   UNL     1     -13.098  12.602  69.439  1.00  0.00     0.000 HD 
HETATM   13  C   UNL     1     -12.004  13.251  67.725  1.00  0.00    -0.314 C  
HETATM   14  O   UNL     1     -12.204  12.345  66.939  1.00  0.00    -0.527 OA 
HETATM   15  C   UNL     1     -11.162  14.504  67.554  1.00  0.00    -0.333 C  
HETATM   16  C   UNL     1     -10.542  14.840  66.396  1.00  0.00    -0.300 C  
BRANCH  16  17
HETATM   17  C   UNL     1      -9.699  16.054  66.343  1.00  0.00    -0.307 A  
HETATM   18  C   UNL     1      -8.144  18.377  66.392  1.00  0.00    -0.285 A  
HETATM   19  C   UNL     1      -8.337  15.981  66.666  1.00  0.00    -0.331 A  
HETATM   20  C   UNL     1     -10.266  17.294  66.021  1.00  0.00    -0.314 A  
HETATM   21  C   UNL     1      -7.565  17.144  66.694  1.00  0.00    -0.299 A  
HETATM   22  C   UNL     1      -9.492  18.453  66.049  1.00  0.00    -0.035 A  
ENDBRANCH  16  17
BRANCH  16  23
HETATM   23  N   UNL     1     -10.569  14.168  65.169  1.00  0.00    -0.373 NA 
HETATM   24  H   UNL     1     -10.942  14.638  64.343  1.00  0.00     0.000 HD 
BRANCH  23  25
HETATM   25  C   UNL     1     -10.082  12.833  65.061  1.00  0.00    -0.218 A  
HETATM   26  C   UNL     1      -8.933  10.263  64.579  1.00  0.00    -0.219 A  
HETATM   27  C   UNL     1      -9.005  12.376  65.811  1.00  0.00     0.277 A  
HETATM   28  C   UNL     1     -10.715  11.919  64.223  1.00  0.00    -0.388 A  
HETATM   29  C   UNL     1      -8.434  11.125  65.561  1.00  0.00    -0.003 A  
HETATM   30  C   UNL     1     -10.147  10.655  63.986  1.00  0.00    -0.378 A  
BRANCH  26  31
HETATM   31  N   UNL     1      -8.214   9.072  64.163  1.00  0.00    -0.158 N  
HETATM   32  C   UNL     1      -7.139   9.220  63.179  1.00  0.00    -0.088 C  
HETATM   33  C   UNL     1      -8.465   7.799  64.729  1.00  0.00     0.031 C  
HETATM   34  O   UNL     1      -9.372   7.540  65.530  1.00  0.00     0.173 OA 
BRANCH  33  35
HETATM   35  C   UNL     1      -7.633   6.598  64.257  1.00  0.00    -0.104 C  
BRANCH  35  36
HETATM   36  N   UNL     1      -7.987   5.306  64.883  1.00  0.00    -0.099 NA 
HETATM   37  C   UNL     1      -7.272   4.137  64.322  1.00  0.00    -0.055 C  
HETATM   38  C   UNL     1      -5.823   3.885  64.825  1.00  0.00    -0.022 C  
HETATM   39  N   UNL     1      -5.597   4.058  66.276  1.00  0.00    -0.017 NA 
HETATM   40  C   UNL     1      -6.062   2.904  67.045  1.00  0.00    -0.024 C  
HETATM   41  C   UNL     1      -6.251   5.296  66.727  1.00  0.00    -0.035 C  
HETATM   42  C   UNL     1      -7.743   5.384  66.336  1.00  0.00    -0.099 C  
ENDBRANCH  35  36
ENDBRANCH  33  35
ENDBRANCH  26  31
ENDBRANCH  23  25
ENDBRANCH  16  23
ENDBRANCH   3   5
ENDBRANCH   2   3
TORSDOF 8
ENDMDL
MODEL       73
REMARK 921   NORMALIZED FREE ENERGY PREDICTED BY IDOCK:   -3.93 KCAL/MOL
REMARK 922        TOTAL FREE ENERGY PREDICTED BY IDOCK:   -7.31 KCAL/MOL
REMARK 923 INTER-LIGAND FREE ENERGY PREDICTED BY IDOCK:   -8.38 KCAL/MOL
REMARK 924 INTRA-LIGAND FREE ENERGY PREDICTED BY IDOCK:    1.07 KCAL/MOL
REMARK 927      BINDING AFFINITY PREDICTED BY RF-SCORE:    0.00 PKD
ROOT
HETATM    1  C   UNL     1      -8.955   3.430  63.574  1.00  0.00    -0.093 C  
HETATM    2  O   UNL     1      -8.079   2.833  64.531  1.00  0.00    -0.081 OA 
ENDROOT
BRANCH   2   3
HETATM    3  C   UNL     1      -8.647   2.588  65.742  1.00  0.00    -0.115 C  
HETATM    4  O   UNL     1      -8.853   1.481  66.224  1.00  0.00    -0.116 OA 
BRANCH   3   5
HETATM    5  C   UNL     1      -8.960   3.864  66.433  1.00  0.00    -0.133 A  
HETATM    6  C   UNL     1      -8.795   5.115  65.804  1.00  0.00    -0.143 A  
HETATM    7  C   UNL     1      -9.065   6.312  66.483  1.00  0.00    -0.162 A  
HETATM    8  C   UNL     1      -9.499   6.260  67.797  1.00  0.00    -0.118 A  
HETATM    9  C   UNL     1      -9.659   5.009  68.406  1.00  0.00    -0.144 A  
HETATM   10  C   UNL     1      -9.416   3.811  67.757  1.00  0.00    -0.231 A  
HETATM   11  N   UNL     1     -10.074   5.156  69.721  1.00  0.00    -0.245 N  
HETATM   12  H   UNL     1     -10.246   4.377  70.357  1.00  0.00     0.000 HD 
HETATM   13  C   UNL     1     -10.227   6.491  70.065  1.00  0.00    -0.184 C  
HETATM   14  O   UNL     1     -10.634   6.898  71.136  1.00  0.00    -0.219 OA 
HETATM   15  C   UNL     1      -9.843   7.274  68.822  1.00  0.00    -0.161 C  
HETATM   16  C   UNL     1      -9.827   8.629  68.762  1.00  0.00    -0.172 C  
BRANCH  16  17
HETATM   17  C   UNL     1      -9.489   9.301  67.490  1.00  0.00    -0.160 A  
HETATM   18  C   UNL     1      -8.850  10.711  65.161  1.00  0.00    -0.207 A  
HETATM   19  C   UNL     1      -8.149   9.466  67.114  1.00  0.00    -0.102 A  
HETATM   20  C   UNL     1     -10.503   9.826  66.676  1.00  0.00    -0.233 A  
HETATM   21  C   UNL     1      -7.834  10.175  65.953  1.00  0.00    -0.132 A  
HETATM   22  C   UNL     1     -10.184  10.531  65.518  1.00  0.00    -0.325 A  
ENDBRANCH  16  17
BRANCH  16  23
HETATM   23  N   UNL     1     -10.107   9.547  69.781  1.00  0.00    -0.201 NA 
HETATM   24  H   UNL     1     -10.203   9.221  70.743  1.00  0.00     0.000 HD 
BRANCH  23  25
HETATM   25  C   UNL     1     -10.260  10.932  69.487  1.00  0.00    -0.062 A  
HETATM   26  C   UNL     1     -10.607  13.618  68.581  1.00  0.00    -0.248 A  
HETATM   27  C   UNL     1     -11.471  11.594  69.649  1.00  0.00    -0.359 A  
HETATM   28  C   UNL     1      -9.166  11.688  69.071  1.00  0.00     0.169 A  
HETATM   29  C   UNL     1     -11.643  12.902  69.189  1.00  0.00    -0.375 A  
HETATM   30  C   UNL     1      -9.340  13.008  68.623  1.00  0.00     0.009 A  
BRANCH  26  31
HETATM   31  N   UNL     1     -10.839  14.881  67.902  1.00  0.00    -0.269 N  
HETATM   32  C   UNL     1     -11.641  15.899  68.585  1.00  0.00    -0.380 C  
HETATM   33  C   UNL     1     -10.254  15.185  66.649  1.00  0.00    -0.266 C  
HETATM   34  O   UNL     1      -9.598  14.398  65.957  1.00  0.00    -0.302 OA 
BRANCH  33  35
HETATM   35  C   UNL     1     -10.521  16.560  66.018  1.00  0.00    -0.310 C  
BRANCH  35  36
HETATM   36  N   UNL     1      -9.367  17.483  66.015  1.00  0.00    -0.510 NA 
HETATM   37  C   UNL     1      -9.724  18.912  66.168  1.00  0.00    -0.277 C  
HETATM   38  C   UNL     1     -10.016  19.418  67.609  1.00  0.00    -0.371 C  
HETATM   39  N   UNL     1      -9.103  18.935  68.667  1.00  0.00    -0.349 NA 
HETATM   40  C   UNL     1      -7.833  19.661  68.671  1.00  0.00    -0.314 C  
HETATM   41  C   UNL     1      -8.887  17.489  68.502  1.00  0.00    -0.282 C  
HETATM   42  C   UNL     1      -8.425  17.091  67.082  1.00  0.00    -0.202 C  
ENDBRANCH  35  36
ENDBRANCH  33  35
ENDBRANCH  26  31
ENDBRANCH  23  25
ENDBRANCH  16  23
ENDBRANCH   3   5
ENDBRANCH   2   3
TORSDOF 8
ENDMDL
MODEL       74
REMARK 921   NORMALIZED FREE ENERGY PREDICTED BY IDOCK:   -3.92 KCAL/MOL
REMARK 922        TOTAL FREE ENERGY PREDICTED BY IDOCK:   -7.29 KCAL/MOL
REMARK 923 INTER-LIGAND FREE ENERGY PREDICTED BY IDOCK:   -5.90 KCAL/MOL
REMARK 924 INTRA-LIGAND FREE ENERGY PREDICTED BY IDOCK:   -1.38 KCAL/MOL
REMARK 927      BINDING AFFINITY PREDICTED BY RF-SCORE:    0.00 PKD
ROOT
HETATM    1  C   UNL     1     -11.035   2.665  63.387  1.00  0.00    -0.168 C  
HETATM    2  O   UNL     1     -10.441   3.441  64.427  1.00  0.00    -0.156 OA 
ENDROOT
BRANCH   2   3
HETATM    3  C   UNL     1      -9.517   4.345  64.001  1.00  0.00    -0.083 C  
HETATM    4  O   UNL     1      -9.124   4.475  62.849  1.00  0.00    -0.132 OA 
BRANCH   3   5
HETATM    5  C   UNL     1      -9.063   5.191  65.133  1.00  0.00    -0.101 A  
HETATM    6  C   UNL     1      -9.870   5.420  66.266  1.00  0.00    -0.186 A  
HETATM    7  C   UNL     1      -9.438   6.249  67.312  1.00  0.00    -0.126 A  
HETATM    8  C   UNL     1      -8.195   6.855  67.224  1.00  0.00    -0.118 A  
HETATM    9  C   UNL     1      -7.407   6.615  66.092  1.00  0.00    -0.076 A  
HETATM   10  C   UNL     1      -7.799   5.791  65.052  1.00  0.00    -0.107 A  
HETATM   11  N   UNL     1      -6.215   7.321  66.169  1.00  0.00    -0.040 N  
HETATM   12  H   UNL     1      -5.491   7.303  65.451  1.00  0.00     0.000 HD 
HETATM   13  C   UNL     1      -6.128   8.055  67.343  1.00  0.00    -0.051 C  
HETATM   14  O   UNL     1      -5.168   8.717  67.689  1.00  0.00    -0.033 OA 
HETATM   15  C   UNL     1      -7.430   7.792  68.080  1.00  0.00    -0.108 C  
HETATM   16  C   UNL     1      -7.749   8.362  69.268  1.00  0.00    -0.098 C  
BRANCH  16  17
HETATM   17  C   UNL     1      -9.019   8.003  69.935  1.00  0.00    -0.145 A  
HETATM   18  C   UNL     1     -11.375   7.409  71.319  1.00  0.00    -0.289 A  
HETATM   19  C   UNL     1     -10.157   8.802  69.761  1.00  0.00    -0.198 A  
HETATM   20  C   UNL     1      -9.081   6.892  70.786  1.00  0.00    -0.154 A  
HETATM   21  C   UNL     1     -11.330   8.505  70.457  1.00  0.00    -0.235 A  
HETATM   22  C   UNL     1     -10.254   6.598  71.479  1.00  0.00    -0.218 A  
ENDBRANCH  16  17
BRANCH  16  23
HETATM   23  N   UNL     1      -7.012   9.290  70.013  1.00  0.00    -0.053 NA 
HETATM   24  H   UNL     1      -6.510   8.985  70.847  1.00  0.00     0.000 HD 
BRANCH  23  25
HETATM   25  C   UNL     1      -6.957  10.658  69.617  1.00  0.00    -0.134 A  
HETATM   26  C   UNL     1      -7.100  13.450  69.033  1.00  0.00    -0.053 A  
HETATM   27  C   UNL     1      -6.063  11.557  70.185  1.00  0.00    -0.156 A  
HETATM   28  C   UNL     1      -7.778  11.128  68.595  1.00  0.00    -0.135 A  
HETATM   29  C   UNL     1      -6.145  12.925  69.911  1.00  0.00    -0.126 A  
HETATM   30  C   UNL     1      -7.848  12.503  68.311  1.00  0.00    -0.144 A  
BRANCH  26  31
HETATM   31  N   UNL     1      -7.338  14.878  68.920  1.00  0.00    -0.126 N  
HETATM   32  C   UNL     1      -8.432  15.462  69.700  1.00  0.00    -0.124 C  
HETATM   33  C   UNL     1      -6.506  15.726  68.150  1.00  0.00    -0.130 C  
HETATM   34  O   UNL     1      -5.584  15.348  67.417  1.00  0.00    -0.330 OA 
BRANCH  33  35
HETATM   35  C   UNL     1      -6.807  17.231  68.114  1.00  0.00    -0.182 C  
BRANCH  35  36
HETATM   36  N   UNL     1      -7.398  17.722  66.851  1.00  0.00    -0.189 NA 
HETATM   37  C   UNL     1      -7.932  19.102  66.919  1.00  0.00    -0.259 C  
HETATM   38  C   UNL     1      -6.908  20.264  66.791  1.00  0.00    -0.235 C  
HETATM   39  N   UNL     1      -5.862  20.101  65.760  1.00  0.00    -0.171 NA 
HETATM   40  C   UNL     1      -6.362  20.397  64.417  1.00  0.00    -0.269 C  
HETATM   41  C   UNL     1      -5.313  18.737  65.833  1.00  0.00    -0.158 C  
HETATM   42  C   UNL     1      -6.393  17.633  65.775  1.00  0.00    -0.107 C  
ENDBRANCH  35  36
ENDBRANCH  33  35
ENDBRANCH  26  31
ENDBRANCH  23  25
ENDBRANCH  16  23
ENDBRANCH   3   5
ENDBRANCH   2   3
TORSDOF 8
ENDMDL
MODEL       75
REMARK 921   NORMALIZED FREE ENERGY PREDICTED BY IDOCK:   -3.91 KCAL/MOL
REMARK 922        TOTAL FREE ENERGY PREDICTED BY IDOCK:   -7.28 KCAL/MOL
REMARK 923 INTER-LIGAND FREE ENERGY PREDICTED BY IDOCK:   -5.82 KCAL/MOL
REMARK 924 INTRA-LIGAND FREE ENERGY PREDICTED BY IDOCK:   -1.46 KCAL/MOL
REMARK 927      BINDING AFFINITY PREDICTED BY RF-SCORE:    0.00 PKD
ROOT
HETATM    1  C   UNL     1     -14.397  15.817  72.805  1.00  0.00     0.026 C  
HETATM    2  O   UNL     1     -13.797  15.841  71.510  1.00  0.00    -0.493 OA 
ENDROOT
BRANCH   2   3
HETATM    3  C   UNL     1     -12.456  16.070  71.511  1.00  0.00    -0.330 C  
HETATM    4  O   UNL     1     -11.847  16.745  72.332  1.00  0.00    -0.397 OA 
BRANCH   3   5
HETATM    5  C   UNL     1     -11.809  15.352  70.384  1.00  0.00    -0.366 A  
HETATM    6  C   UNL     1     -10.436  15.029  70.394  1.00  0.00    -0.013 A  
HETATM    7  C   UNL     1      -9.834  14.379  69.306  1.00  0.00     0.042 A  
HETATM    8  C   UNL     1     -10.605  14.054  68.203  1.00  0.00    -0.252 A  
HETATM    9  C   UNL     1     -11.966  14.382  68.211  1.00  0.00    -0.288 A  
HETATM   10  C   UNL     1     -12.592  15.008  69.275  1.00  0.00     0.101 A  
HETATM   11  N   UNL     1     -12.567  14.004  67.019  1.00  0.00    -0.455 N  
HETATM   12  H   UNL     1     -13.552  14.152  66.801  1.00  0.00     0.000 HD 
HETATM   13  C   UNL     1     -11.662  13.398  66.159  1.00  0.00    -0.368 C  
HETATM   14  O   UNL     1     -11.935  12.922  65.073  1.00  0.00    -0.356 OA 
HETATM   15  C   UNL     1     -10.332  13.417  66.892  1.00  0.00    -0.257 C  
HETATM   16  C   UNL     1      -9.177  12.944  66.365  1.00  0.00    -0.137 C  
BRANCH  16  17
HETATM   17  C   UNL     1      -7.942  12.958  67.178  1.00  0.00    -0.104 A  
HETATM   18  C   UNL     1      -5.690  13.046  68.834  1.00  0.00    -0.074 A  
HETATM   19  C   UNL     1      -7.593  11.841  67.950  1.00  0.00    -0.121 A  
HETATM   20  C   UNL     1      -7.139  14.106  67.226  1.00  0.00     0.057 A  
HETATM   21  C   UNL     1      -6.471  11.890  68.779  1.00  0.00    -0.071 A  
HETATM   22  C   UNL     1      -6.020  14.151  68.054  1.00  0.00    -0.146 A  
ENDBRANCH  16  17
BRANCH  16  23
HETATM   23  N   UNL     1      -8.960  12.401  65.094  1.00  0.00     0.029 NA 
HETATM   24  H   UNL     1      -8.808  13.021  64.298  1.00  0.00     0.000 HD 
BRANCH  23  25
HETATM   25  C   UNL     1      -8.948  10.989  64.900  1.00  0.00    -0.101 A  
HETATM   26  C   UNL     1      -8.677   8.151  64.731  1.00  0.00     0.123 A  
HETATM   27  C   UNL     1      -9.823  10.143  65.570  1.00  0.00    -0.365 A  
HETATM   28  C   UNL     1      -8.079  10.413  63.977  1.00  0.00    -0.092 A  
HETATM   29  C   UNL     1      -9.677   8.755  65.500  1.00  0.00     0.103 A  
HETATM   30  C   UNL     1      -7.945   9.016  63.898  1.00  0.00    -0.146 A  
BRANCH  26  31
HETATM   31  N   UNL     1      -8.378   6.733  64.833  1.00  0.00    -0.075 N  
HETATM   32  C   UNL     1      -8.810   6.018  66.036  1.00  0.00    -0.153 C  
HETATM   33  C   UNL     1      -7.760   6.013  63.782  1.00  0.00    -0.101 C  
HETATM   34  O   UNL     1      -7.312   6.511  62.742  1.00  0.00    -0.052 OA 
BRANCH  33  35
HETATM   35  C   UNL     1      -7.514   4.507  63.958  1.00  0.00    -0.059 C  
BRANCH  35  36
HETATM   36  N   UNL     1      -8.021   3.658  62.859  1.00  0.00    -0.070 NA 
HETATM   37  C   UNL     1      -8.030   2.208  63.160  1.00  0.00    -0.064 C  
HETATM   38  C   UNL     1      -9.216   1.669  64.008  1.00  0.00    -0.110 C  
HETATM   39  N   UNL     1     -10.554   2.196  63.667  1.00  0.00    -0.133 NA 
HETATM   40  C   UNL     1     -11.113   1.550  62.480  1.00  0.00    -0.184 C  
HETATM   41  C   UNL     1     -10.474   3.654  63.490  1.00  0.00    -0.251 C  
HETATM   42  C   UNL     1      -9.381   4.096  62.491  1.00  0.00    -0.120 C  
ENDBRANCH  35  36
ENDBRANCH  33  35
ENDBRANCH  26  31
ENDBRANCH  23  25
ENDBRANCH  16  23
ENDBRANCH   3   5
ENDBRANCH   2   3
TORSDOF 8
ENDMDL
MODEL       76
REMARK 921   NORMALIZED FREE ENERGY PREDICTED BY IDOCK:   -3.91 KCAL/MOL
REMARK 922        TOTAL FREE ENERGY PREDICTED BY IDOCK:   -7.28 KCAL/MOL
REMARK 923 INTER-LIGAND FREE ENERGY PREDICTED BY IDOCK:   -6.37 KCAL/MOL
REMARK 924 INTRA-LIGAND FREE ENERGY PREDICTED BY IDOCK:   -0.91 KCAL/MOL
REMARK 927      BINDING AFFINITY PREDICTED BY RF-SCORE:    0.00 PKD
ROOT
HETATM    1  C   UNL     1     -12.327  15.781  64.247  1.00  0.00     0.205 C  
HETATM    2  O   UNL     1     -11.690  14.707  64.940  1.00  0.00    -0.372 OA 
ENDROOT
BRANCH   2   3
HETATM    3  C   UNL     1     -10.889  15.094  65.969  1.00  0.00    -0.335 C  
HETATM    4  O   UNL     1     -10.480  16.232  66.167  1.00  0.00    -0.321 OA 
BRANCH   3   5
HETATM    5  C   UNL     1     -10.595  13.942  66.857  1.00  0.00    -0.280 A  
HETATM    6  C   UNL     1      -9.305  13.380  66.950  1.00  0.00    -0.253 A  
HETATM    7  C   UNL     1      -9.053  12.271  67.771  1.00  0.00    -0.191 A  
HETATM    8  C   UNL     1     -10.093  11.717  68.498  1.00  0.00    -0.212 A  
HETATM    9  C   UNL     1     -11.367  12.288  68.393  1.00  0.00    -0.292 A  
HETATM   10  C   UNL     1     -11.644  13.392  67.606  1.00  0.00    -0.377 A  
HETATM   11  N   UNL     1     -12.280  11.590  69.169  1.00  0.00    -0.242 N  
HETATM   12  H   UNL     1     -13.271  11.825  69.239  1.00  0.00     0.000 HD 
HETATM   13  C   UNL     1     -11.682  10.533  69.839  1.00  0.00    -0.294 C  
HETATM   14  O   UNL     1     -12.240   9.794  70.628  1.00  0.00    -0.269 OA 
HETATM   15  C   UNL     1     -10.223  10.561  69.416  1.00  0.00    -0.245 C  
HETATM   16  C   UNL     1      -9.303   9.657  69.832  1.00  0.00    -0.228 C  
BRANCH  16  17
HETATM   17  C   UNL     1      -7.893   9.799  69.407  1.00  0.00    -0.114 A  
HETATM   18  C   UNL     1      -5.197   9.934  68.681  1.00  0.00    -0.036 A  
HETATM   19  C   UNL     1      -7.465   9.250  68.191  1.00  0.00    -0.083 A  
HETATM   20  C   UNL     1      -6.965  10.437  70.240  1.00  0.00    -0.104 A  
HETATM   21  C   UNL     1      -6.117   9.314  67.834  1.00  0.00    -0.050 A  
HETATM   22  C   UNL     1      -5.620  10.501  69.880  1.00  0.00    -0.048 A  
ENDBRANCH  16  17
BRANCH  16  23
HETATM   23  N   UNL     1      -9.490   8.544  70.660  1.00  0.00    -0.166 NA 
HETATM   24  H   UNL     1      -9.608   8.676  71.665  1.00  0.00     0.000 HD 
BRANCH  23  25
HETATM   25  C   UNL     1      -9.517   7.229  70.112  1.00  0.00    -0.165 A  
HETATM   26  C   UNL     1      -9.448   4.727  68.737  1.00  0.00    -0.148 A  
HETATM   27  C   UNL     1      -8.505   6.307  70.348  1.00  0.00    -0.134 A  
HETATM   28  C   UNL     1     -10.606   6.806  69.353  1.00  0.00    -0.265 A  
HETATM   29  C   UNL     1      -8.463   5.091  69.661  1.00  0.00    -0.092 A  
HETATM   30  C   UNL     1     -10.568   5.575  68.676  1.00  0.00    -0.215 A  
BRANCH  26  31
HETATM   31  N   UNL     1      -9.293   3.579  67.860  1.00  0.00    -0.184 N  
HETATM   32  C   UNL     1      -9.110   2.260  68.470  1.00  0.00    -0.157 C  
HETATM   33  C   UNL     1      -9.393   3.684  66.452  1.00  0.00    -0.182 C  
HETATM   34  O   UNL     1      -9.500   4.742  65.820  1.00  0.00    -0.152 OA 
BRANCH  33  35
HETATM   35  C   UNL     1      -9.253   2.413  65.600  1.00  0.00    -0.044 C  
BRANCH  35  36
HETATM   36  N   UNL     1      -7.864   2.024  65.279  1.00  0.00    -0.072 NA 
HETATM   37  C   UNL     1      -7.679   1.482  63.913  1.00  0.00    -0.059 C  
HETATM   38  C   UNL     1      -7.568   2.510  62.753  1.00  0.00    -0.053 C  
HETATM   39  N   UNL     1      -6.736   3.704  63.017  1.00  0.00    -0.030 NA 
HETATM   40  C   UNL     1      -5.307   3.416  62.897  1.00  0.00    -0.008 C  
HETATM   41  C   UNL     1      -7.060   4.239  64.350  1.00  0.00    -0.047 C  
HETATM   42  C   UNL     1      -6.973   3.184  65.476  1.00  0.00    -0.053 C  
ENDBRANCH  35  36
ENDBRANCH  33  35
ENDBRANCH  26  31
ENDBRANCH  23  25
ENDBRANCH  16  23
ENDBRANCH   3   5
ENDBRANCH   2   3
TORSDOF 8
ENDMDL
MODEL       77
REMARK 921   NORMALIZED FREE ENERGY PREDICTED BY IDOCK:   -3.86 KCAL/MOL
REMARK 922        TOTAL FREE ENERGY PREDICTED BY IDOCK:   -7.21 KCAL/MOL
REMARK 923 INTER-LIGAND FREE ENERGY PREDICTED BY IDOCK:   -7.33 KCAL/MOL
REMARK 924 INTRA-LIGAND FREE ENERGY PREDICTED BY IDOCK:    0.11 KCAL/MOL
REMARK 927      BINDING AFFINITY PREDICTED BY RF-SCORE:    0.00 PKD
ROOT
HETATM    1  C   UNL     1      -7.886  18.256  65.896  1.00  0.00    -0.047 C  
HETATM    2  O   UNL     1      -8.696  17.093  66.064  1.00  0.00    -0.484 OA 
ENDROOT
BRANCH   2   3
HETATM    3  C   UNL     1      -8.089  16.071  66.726  1.00  0.00    -0.267 C  
HETATM    4  O   UNL     1      -6.888  15.831  66.721  1.00  0.00    -0.229 OA 
BRANCH   3   5
HETATM    5  C   UNL     1      -9.087  15.289  67.497  1.00  0.00    -0.189 A  
HETATM    6  C   UNL     1      -9.660  15.778  68.689  1.00  0.00    -0.207 A  
HETATM    7  C   UNL     1     -10.578  15.011  69.422  1.00  0.00    -0.262 A  
HETATM    8  C   UNL     1     -10.923  13.750  68.965  1.00  0.00    -0.277 A  
HETATM    9  C   UNL     1     -10.346  13.283  67.778  1.00  0.00    -0.233 A  
HETATM   10  C   UNL     1      -9.450  14.021  67.025  1.00  0.00    -0.253 A  
HETATM   11  N   UNL     1     -10.790  12.000  67.492  1.00  0.00    -0.231 N  
HETATM   12  H   UNL     1     -10.494  11.459  66.679  1.00  0.00     0.000 HD 
HETATM   13  C   UNL     1     -11.686  11.542  68.447  1.00  0.00    -0.303 C  
HETATM   14  O   UNL     1     -12.269  10.476  68.410  1.00  0.00    -0.251 OA 
HETATM   15  C   UNL     1     -11.802  12.666  69.463  1.00  0.00    -0.376 C  
HETATM   16  C   UNL     1     -12.565  12.592  70.581  1.00  0.00    -0.160 C  
BRANCH  16  17
HETATM   17  C   UNL     1     -12.655  13.760  71.484  1.00  0.00    -0.405 A  
HETATM   18  C   UNL     1     -12.670  15.987  73.174  1.00  0.00    -0.619 A  
HETATM   19  C   UNL     1     -12.904  15.036  70.962  1.00  0.00    -0.451 A  
HETATM   20  C   UNL     1     -12.441  13.608  72.860  1.00  0.00     0.373 A  
HETATM   21  C   UNL     1     -12.906  16.147  71.808  1.00  0.00    -0.045 A  
HETATM   22  C   UNL     1     -12.444  14.718  73.702  1.00  0.00    -0.503 A  
ENDBRANCH  16  17
BRANCH  16  23
HETATM   23  N   UNL     1     -13.336  11.517  71.037  1.00  0.00     0.193 NA 
HETATM   24  H   UNL     1     -14.347  11.624  71.132  1.00  0.00     0.000 HD 
BRANCH  23  25
HETATM   25  C   UNL     1     -12.724  10.275  71.371  1.00  0.00    -0.442 A  
HETATM   26  C   UNL     1     -11.407   7.765  71.720  1.00  0.00    -0.261 A  
HETATM   27  C   UNL     1     -11.451  10.202  71.925  1.00  0.00     0.648 A  
HETATM   28  C   UNL     1     -13.417   9.079  71.195  1.00  0.00    -0.150 A  
HETATM   29  C   UNL     1     -10.802   8.974  72.079  1.00  0.00    -0.342 A  
HETATM   30  C   UNL     1     -12.765   7.845  71.365  1.00  0.00    -0.312 A  
BRANCH  26  31
HETATM   31  N   UNL     1     -10.662   6.519  71.664  1.00  0.00    -0.225 N  
HETATM   32  C   UNL     1     -11.192   5.361  72.387  1.00  0.00    -0.210 C  
HETATM   33  C   UNL     1      -9.495   6.370  70.876  1.00  0.00    -0.175 C  
HETATM   34  O   UNL     1      -8.927   7.280  70.260  1.00  0.00    -0.150 OA 
BRANCH  33  35
HETATM   35  C   UNL     1      -8.789   5.006  70.844  1.00  0.00    -0.133 C  
BRANCH  35  36
HETATM   36  N   UNL     1      -8.839   4.305  69.543  1.00  0.00    -0.086 NA 
HETATM   37  C   UNL     1      -8.064   4.960  68.464  1.00  0.00    -0.085 C  
HETATM   38  C   UNL     1      -6.531   4.710  68.442  1.00  0.00    -0.037 C  
HETATM   39  N   UNL     1      -6.092   3.323  68.707  1.00  0.00    -0.027 NA 
HETATM   40  C   UNL     1      -6.247   2.464  67.533  1.00  0.00    -0.028 C  
HETATM   41  C   UNL     1      -6.836   2.788  69.859  1.00  0.00    -0.034 C  
HETATM   42  C   UNL     1      -8.369   2.917  69.718  1.00  0.00    -0.051 C  
ENDBRANCH  35  36
ENDBRANCH  33  35
ENDBRANCH  26  31
ENDBRANCH  23  25
ENDBRANCH  16  23
ENDBRANCH   3   5
ENDBRANCH   2   3
TORSDOF 8
ENDMDL
MODEL       78
REMARK 921   NORMALIZED FREE ENERGY PREDICTED BY IDOCK:   -3.86 KCAL/MOL
REMARK 922        TOTAL FREE ENERGY PREDICTED BY IDOCK:   -7.21 KCAL/MOL
REMARK 923 INTER-LIGAND FREE ENERGY PREDICTED BY IDOCK:   -6.87 KCAL/MOL
REMARK 924 INTRA-LIGAND FREE ENERGY PREDICTED BY IDOCK:   -0.34 KCAL/MOL
REMARK 927      BINDING AFFINITY PREDICTED BY RF-SCORE:    0.00 PKD
ROOT
HETATM    1  C   UNL     1      -7.454  18.542  66.708  1.00  0.00    -0.222 C  
HETATM    2  O   UNL     1      -8.093  17.272  66.841  1.00  0.00    -0.202 OA 
ENDROOT
BRANCH   2   3
HETATM    3  C   UNL     1      -7.598  16.492  67.840  1.00  0.00    -0.152 C  
HETATM    4  O   UNL     1      -6.448  16.516  68.262  1.00  0.00    -0.130 OA 
BRANCH   3   5
HETATM    5  C   UNL     1      -8.662  15.613  68.385  1.00  0.00    -0.178 A  
HETATM    6  C   UNL     1      -9.504  16.024  69.440  1.00  0.00    -0.226 A  
HETATM    7  C   UNL     1     -10.484  15.168  69.964  1.00  0.00    -0.207 A  
HETATM    8  C   UNL     1     -10.622  13.895  69.435  1.00  0.00     0.019 A  
HETATM    9  C   UNL     1      -9.779  13.505  68.388  1.00  0.00    -0.207 A  
HETATM   10  C   UNL     1      -8.814  14.332  67.839  1.00  0.00    -0.179 A  
HETATM   11  N   UNL     1     -10.046  12.198  68.007  1.00  0.00    -0.198 N  
HETATM   12  H   UNL     1      -9.547  11.703  67.267  1.00  0.00     0.000 HD 
HETATM   13  C   UNL     1     -11.075  11.646  68.755  1.00  0.00    -0.230 C  
HETATM   14  O   UNL     1     -11.547  10.537  68.591  1.00  0.00    -0.258 OA 
HETATM   15  C   UNL     1     -11.489  12.731  69.735  1.00  0.00    -0.199 C  
HETATM   16  C   UNL     1     -12.453  12.568  70.673  1.00  0.00    -0.238 C  
BRANCH  16  17
HETATM   17  C   UNL     1     -12.823  13.701  71.548  1.00  0.00    -0.445 A  
HETATM   18  C   UNL     1     -13.383  15.913  73.165  1.00  0.00    -0.681 A  
HETATM   19  C   UNL     1     -13.538  14.789  71.028  1.00  0.00    -0.364 A  
HETATM   20  C   UNL     1     -12.415  13.722  72.888  1.00  0.00     0.211 A  
HETATM   21  C   UNL     1     -13.812  15.893  71.837  1.00  0.00    -0.111 A  
HETATM   22  C   UNL     1     -12.691  14.826  73.693  1.00  0.00    -0.511 A  
ENDBRANCH  16  17
BRANCH  16  23
HETATM   23  N   UNL     1     -13.208  11.423  70.954  1.00  0.00     0.057 NA 
HETATM   24  H   UNL     1     -14.225  11.489  71.012  1.00  0.00     0.000 HD 
BRANCH  23  25
HETATM   25  C   UNL     1     -12.570  10.166  71.161  1.00  0.00    -0.386 A  
HETATM   26  C   UNL     1     -11.214   7.654  71.251  1.00  0.00    -0.254 A  
HETATM   27  C   UNL     1     -11.275  10.066  71.657  1.00  0.00     0.188 A  
HETATM   28  C   UNL     1     -13.257   8.980  70.915  1.00  0.00     0.090 A  
HETATM   29  C   UNL     1     -10.608   8.838  71.684  1.00  0.00    -0.401 A  
HETATM   30  C   UNL     1     -12.587   7.745  70.958  1.00  0.00    -0.140 A  
BRANCH  26  31
HETATM   31  N   UNL     1     -10.459   6.427  71.064  1.00  0.00    -0.217 N  
HETATM   32  C   UNL     1      -9.633   6.298  69.861  1.00  0.00    -0.156 C  
HETATM   33  C   UNL     1     -10.436   5.397  72.035  1.00  0.00    -0.221 C  
HETATM   34  O   UNL     1     -11.121   5.370  73.064  1.00  0.00    -0.272 OA 
BRANCH  33  35
HETATM   35  C   UNL     1      -9.581   4.148  71.773  1.00  0.00    -0.156 C  
BRANCH  35  36
HETATM   36  N   UNL     1      -8.232   4.174  72.377  1.00  0.00    -0.097 NA 
HETATM   37  C   UNL     1      -8.042   3.220  73.493  1.00  0.00    -0.074 C  
HETATM   38  C   UNL     1      -7.751   1.740  73.117  1.00  0.00    -0.037 C  
HETATM   39  N   UNL     1      -6.800   1.524  72.006  1.00  0.00    -0.018 NA 
HETATM   40  C   UNL     1      -5.411   1.687  72.431  1.00  0.00     0.000 C  
HETATM   41  C   UNL     1      -7.128   2.438  70.900  1.00  0.00    -0.033 C  
HETATM   42  C   UNL     1      -7.223   3.919  71.330  1.00  0.00    -0.033 C  
ENDBRANCH  35  36
ENDBRANCH  33  35
ENDBRANCH  26  31
ENDBRANCH  23  25
ENDBRANCH  16  23
ENDBRANCH   3   5
ENDBRANCH   2   3
TORSDOF 8
ENDMDL
MODEL       79
REMARK 921   NORMALIZED FREE ENERGY PREDICTED BY IDOCK:   -3.77 KCAL/MOL
REMARK 922        TOTAL FREE ENERGY PREDICTED BY IDOCK:   -7.08 KCAL/MOL
REMARK 923 INTER-LIGAND FREE ENERGY PREDICTED BY IDOCK:   -8.24 KCAL/MOL
REMARK 924 INTRA-LIGAND FREE ENERGY PREDICTED BY IDOCK:    1.17 KCAL/MOL
REMARK 927      BINDING AFFINITY PREDICTED BY RF-SCORE:    0.00 PKD
ROOT
HETATM    1  C   UNL     1      -8.784   4.153  70.944  1.00  0.00    -0.081 C  
HETATM    2  O   UNL     1     -10.096   4.167  71.507  1.00  0.00    -0.179 OA 
ENDROOT
BRANCH   2   3
HETATM    3  C   UNL     1     -10.546   5.401  71.861  1.00  0.00    -0.226 C  
HETATM    4  O   UNL     1     -11.227   5.658  72.846  1.00  0.00    -0.275 OA 
BRANCH   3   5
HETATM    5  C   UNL     1     -10.065   6.423  70.897  1.00  0.00    -0.218 A  
HETATM    6  C   UNL     1      -8.948   7.240  71.169  1.00  0.00    -0.147 A  
HETATM    7  C   UNL     1      -8.527   8.222  70.260  1.00  0.00    -0.125 A  
HETATM    8  C   UNL     1      -9.227   8.392  69.077  1.00  0.00    -0.147 A  
HETATM    9  C   UNL     1     -10.332   7.571  68.824  1.00  0.00    -0.200 A  
HETATM   10  C   UNL     1     -10.762   6.583  69.693  1.00  0.00    -0.323 A  
HETATM   11  N   UNL     1     -10.917   7.901  67.610  1.00  0.00    -0.512 N  
HETATM   12  H   UNL     1     -11.741   7.438  67.226  1.00  0.00     0.000 HD 
HETATM   13  C   UNL     1     -10.243   8.937  66.980  1.00  0.00    -0.275 C  
HETATM   14  O   UNL     1     -10.509   9.384  65.881  1.00  0.00    -0.080 OA 
HETATM   15  C   UNL     1      -9.112   9.314  67.923  1.00  0.00    -0.133 C  
HETATM   16  C   UNL     1      -8.237  10.321  67.681  1.00  0.00    -0.114 C  
BRANCH  16  17
HETATM   17  C   UNL     1      -7.137  10.578  68.634  1.00  0.00    -0.077 A  
HETATM   18  C   UNL     1      -5.148  11.010  70.552  1.00  0.00    -0.083 A  
HETATM   19  C   UNL     1      -6.178   9.588  68.888  1.00  0.00    -0.042 A  
HETATM   20  C   UNL     1      -7.073  11.793  69.330  1.00  0.00     0.025 A  
HETATM   21  C   UNL     1      -5.189   9.805  69.850  1.00  0.00    -0.033 A  
HETATM   22  C   UNL     1      -6.085  12.007  70.289  1.00  0.00    -0.091 A  
ENDBRANCH  16  17
BRANCH  16  23
HETATM   23  N   UNL     1      -8.207  11.205  66.596  1.00  0.00    -0.153 NA 
HETATM   24  H   UNL     1      -7.794  10.906  65.712  1.00  0.00     0.000 HD 
BRANCH  23  25
HETATM   25  C   UNL     1      -8.748  12.518  66.715  1.00  0.00    -0.147 A  
HETATM   26  C   UNL     1      -9.899  15.072  67.268  1.00  0.00    -0.228 A  
HETATM   27  C   UNL     1      -7.949  13.628  66.957  1.00  0.00     0.047 A  
HETATM   28  C   UNL     1     -10.112  12.735  66.535  1.00  0.00    -0.264 A  
HETATM   29  C   UNL     1      -8.515  14.873  67.245  1.00  0.00    -0.229 A  
HETATM   30  C   UNL     1     -10.676  13.992  66.811  1.00  0.00    -0.285 A  
BRANCH  26  31
HETATM   31  N   UNL     1     -10.493  16.293  67.785  1.00  0.00    -0.288 N  
HETATM   32  C   UNL     1     -11.021  16.283  69.151  1.00  0.00    -0.324 C  
HETATM   33  C   UNL     1     -10.505  17.500  67.045  1.00  0.00    -0.293 C  
HETATM   34  O   UNL     1     -10.133  17.623  65.872  1.00  0.00    -0.519 OA 
BRANCH  33  35
HETATM   35  C   UNL     1     -11.121  18.755  67.681  1.00  0.00    -0.001 C  
BRANCH  35  36
HETATM   36  N   UNL     1     -10.145  19.739  68.196  1.00  0.00    -0.432 NA 
HETATM   37  C   UNL     1      -8.982  19.142  68.892  1.00  0.00    -0.287 C  
HETATM   38  C   UNL     1      -7.831  18.593  68.004  1.00  0.00    -0.271 C  
HETATM   39  N   UNL     1      -7.443  19.429  66.848  1.00  0.00    -0.219 NA 
HETATM   40  C   UNL     1      -6.599  20.556  67.242  1.00  0.00    -0.260 C  
HETATM   41  C   UNL     1      -8.655  19.891  66.153  1.00  0.00    -0.312 C  
HETATM   42  C   UNL     1      -9.674  20.587  67.084  1.00  0.00    -0.441 C  
ENDBRANCH  35  36
ENDBRANCH  33  35
ENDBRANCH  26  31
ENDBRANCH  23  25
ENDBRANCH  16  23
ENDBRANCH   3   5
ENDBRANCH   2   3
TORSDOF 8
ENDMDL
MODEL       80
REMARK 921   NORMALIZED FREE ENERGY PREDICTED BY IDOCK:   -3.74 KCAL/MOL
REMARK 922        TOTAL FREE ENERGY PREDICTED BY IDOCK:   -7.03 KCAL/MOL
REMARK 923 INTER-LIGAND FREE ENERGY PREDICTED BY IDOCK:   -5.33 KCAL/MOL
REMARK 924 INTRA-LIGAND FREE ENERGY PREDICTED BY IDOCK:   -1.71 KCAL/MOL
REMARK 927      BINDING AFFINITY PREDICTED BY RF-SCORE:    0.00 PKD
ROOT
HETATM    1  C   UNL     1     -11.932   4.091  73.852  1.00  0.00     0.920 C  
HETATM    2  O   UNL     1     -11.484   5.426  73.617  1.00  0.00    -0.051 OA 
ENDROOT
BRANCH   2   3
HETATM    3  C   UNL     1     -10.872   5.613  72.416  1.00  0.00    -0.248 C  
HETATM    4  O   UNL     1     -10.171   4.793  71.836  1.00  0.00    -0.192 OA 
BRANCH   3   5
HETATM    5  C   UNL     1     -11.196   6.957  71.875  1.00  0.00    -0.287 A  
HETATM    6  C   UNL     1     -10.627   7.438  70.678  1.00  0.00    -0.234 A  
HETATM    7  C   UNL     1     -10.921   8.723  70.198  1.00  0.00    -0.236 A  
HETATM    8  C   UNL     1     -11.783   9.533  70.919  1.00  0.00    -0.391 A  
HETATM    9  C   UNL     1     -12.339   9.038  72.105  1.00  0.00    -0.372 A  
HETATM   10  C   UNL     1     -12.081   7.770  72.595  1.00  0.00    -0.191 A  
HETATM   11  N   UNL     1     -13.153   9.993  72.697  1.00  0.00    -0.360 N  
HETATM   12  H   UNL     1     -13.655   9.853  73.574  1.00  0.00     0.000 HD 
HETATM   13  C   UNL     1     -13.201  11.161  71.951  1.00  0.00    -0.382 C  
HETATM   14  O   UNL     1     -13.881  12.135  72.212  1.00  0.00    -0.245 OA 
HETATM   15  C   UNL     1     -12.292  10.915  70.758  1.00  0.00    -0.487 C  
HETATM   16  C   UNL     1     -12.042  11.842  69.801  1.00  0.00    -0.252 C  
BRANCH  16  17
HETATM   17  C   UNL     1     -11.184  11.491  68.649  1.00  0.00    -0.307 A  
HETATM   18  C   UNL     1      -9.567  10.978  66.426  1.00  0.00    -0.227 A  
HETATM   19  C   UNL     1      -9.788  11.532  68.771  1.00  0.00    -0.153 A  
HETATM   20  C   UNL     1     -11.758  11.166  67.413  1.00  0.00    -0.030 A  
HETATM   21  C   UNL     1      -8.984  11.280  67.658  1.00  0.00    -0.142 A  
HETATM   22  C   UNL     1     -10.953  10.914  66.304  1.00  0.00    -0.130 A  
ENDBRANCH  16  17
BRANCH  16  23
HETATM   23  N   UNL     1     -12.505  13.160  69.726  1.00  0.00    -0.075 NA 
HETATM   24  H   UNL     1     -13.508  13.346  69.751  1.00  0.00     0.000 HD 
BRANCH  23  25
HETATM   25  C   UNL     1     -11.590  14.246  69.613  1.00  0.00    -0.296 A  
HETATM   26  C   UNL     1      -9.528  16.197  69.297  1.00  0.00    -0.224 A  
HETATM   27  C   UNL     1     -11.523  15.043  68.477  1.00  0.00    -0.335 A  
HETATM   28  C   UNL     1     -10.756  14.577  70.679  1.00  0.00     0.456 A  
HETATM   29  C   UNL     1     -10.503  15.985  68.317  1.00  0.00    -0.269 A  
HETATM   30  C   UNL     1      -9.741  15.535  70.520  1.00  0.00     0.663 A  
BRANCH  26  31
HETATM   31  N   UNL     1      -8.345  17.002  69.045  1.00  0.00    -0.185 N  
HETATM   32  C   UNL     1      -8.378  18.418  69.418  1.00  0.00     0.416 C  
HETATM   33  C   UNL     1      -7.149  16.448  68.529  1.00  0.00    -0.157 C  
HETATM   34  O   UNL     1      -7.012  15.283  68.136  1.00  0.00    -0.110 OA 
BRANCH  33  35
HETATM   35  C   UNL     1      -5.932  17.364  68.327  1.00  0.00    -0.157 C  
BRANCH  35  36
HETATM   36  N   UNL     1      -5.685  17.778  66.929  1.00  0.00    -0.136 NA 
HETATM   37  C   UNL     1      -6.822  17.541  66.010  1.00  0.00    -0.246 C  
HETATM   38  C   UNL     1      -7.974  18.585  66.025  1.00  0.00    -0.119 C  
HETATM   39  N   UNL     1      -7.567  20.005  66.085  1.00  0.00    -0.311 NA 
HETATM   40  C   UNL     1      -7.131  20.507  64.782  1.00  0.00     0.118 C  
HETATM   41  C   UNL     1      -6.510  20.167  67.096  1.00  0.00    -0.202 C  
HETATM   42  C   UNL     1      -5.315  19.207  66.901  1.00  0.00    -0.163 C  
ENDBRANCH  35  36
ENDBRANCH  33  35
ENDBRANCH  26  31
ENDBRANCH  23  25
ENDBRANCH  16  23
ENDBRANCH   3   5
ENDBRANCH   2   3
TORSDOF 8
ENDMDL
MODEL       81
REMARK 921   NORMALIZED FREE ENERGY PREDICTED BY IDOCK:   -3.69 KCAL/MOL
REMARK 922        TOTAL FREE ENERGY PREDICTED BY IDOCK:   -6.96 KCAL/MOL
REMARK 923 INTER-LIGAND FREE ENERGY PREDICTED BY IDOCK:   -6.00 KCAL/MOL
REMARK 924 INTRA-LIGAND FREE ENERGY PREDICTED BY IDOCK:   -0.96 KCAL/MOL
REMARK 927      BINDING AFFINITY PREDICTED BY RF-SCORE:    0.00 PKD
ROOT
HETATM    1  C   UNL     1     -11.556   1.904  63.078  1.00  0.00     0.069 C  
HETATM    2  O   UNL     1     -10.363   1.786  63.854  1.00  0.00    -0.098 OA 
ENDROOT
BRANCH   2   3
HETATM    3  C   UNL     1      -9.342   2.587  63.446  1.00  0.00    -0.097 C  
HETATM    4  O   UNL     1      -8.835   2.585  62.331  1.00  0.00    -0.074 OA 
BRANCH   3   5
HETATM    5  C   UNL     1      -8.936   3.504  64.540  1.00  0.00    -0.121 A  
HETATM    6  C   UNL     1      -9.771   3.763  65.647  1.00  0.00    -0.144 A  
HETATM    7  C   UNL     1      -9.385   4.658  66.655  1.00  0.00    -0.153 A  
HETATM    8  C   UNL     1      -8.162   5.300  66.557  1.00  0.00    -0.108 A  
HETATM    9  C   UNL     1      -7.346   5.030  65.452  1.00  0.00    -0.072 A  
HETATM   10  C   UNL     1      -7.692   4.141  64.449  1.00  0.00    -0.084 A  
HETATM   11  N   UNL     1      -6.179   5.779  65.512  1.00  0.00    -0.036 N  
HETATM   12  H   UNL     1      -5.442   5.749  64.807  1.00  0.00     0.000 HD 
HETATM   13  C   UNL     1      -6.138   6.573  66.648  1.00  0.00    -0.033 C  
HETATM   14  O   UNL     1      -5.206   7.284  66.975  1.00  0.00    -0.020 OA 
HETATM   15  C   UNL     1      -7.443   6.304  67.377  1.00  0.00    -0.085 C  
HETATM   16  C   UNL     1      -7.802   6.923  68.528  1.00  0.00    -0.118 C  
BRANCH  16  17
HETATM   17  C   UNL     1      -9.072   6.555  69.192  1.00  0.00    -0.136 A  
HETATM   18  C   UNL     1     -11.441   5.969  70.555  1.00  0.00    -0.227 A  
HETATM   19  C   UNL     1     -10.266   7.195  68.832  1.00  0.00    -0.188 A  
HETATM   20  C   UNL     1      -9.082   5.603  70.220  1.00  0.00    -0.163 A  
HETATM   21  C   UNL     1     -11.446   6.903  69.519  1.00  0.00    -0.165 A  
HETATM   22  C   UNL     1     -10.262   5.314  70.902  1.00  0.00    -0.304 A  
ENDBRANCH  16  17
BRANCH  16  23
HETATM   23  N   UNL     1      -7.109   7.912  69.236  1.00  0.00    -0.070 NA 
HETATM   24  H   UNL     1      -6.480   7.644  69.994  1.00  0.00     0.000 HD 
BRANCH  23  25
HETATM   25  C   UNL     1      -7.274   9.289  68.909  1.00  0.00    -0.073 A  
HETATM   26  C   UNL     1      -7.930  12.003  68.311  1.00  0.00    -0.149 A  
HETATM   27  C   UNL     1      -7.056  10.301  69.835  1.00  0.00    -0.152 A  
HETATM   28  C   UNL     1      -7.616   9.667  67.613  1.00  0.00    -0.091 A  
HETATM   29  C   UNL     1      -7.393  11.626  69.547  1.00  0.00     0.184 A  
HETATM   30  C   UNL     1      -7.941  11.003  67.322  1.00  0.00    -0.126 A  
BRANCH  26  31
HETATM   31  N   UNL     1      -8.490  13.325  68.086  1.00  0.00    -0.167 N  
HETATM   32  C   UNL     1      -7.766  14.483  68.615  1.00  0.00    -0.137 C  
HETATM   33  C   UNL     1      -9.658  13.530  67.313  1.00  0.00    -0.235 C  
HETATM   34  O   UNL     1     -10.378  12.634  66.855  1.00  0.00    -0.231 OA 
BRANCH  33  35
HETATM   35  C   UNL     1     -10.162  14.964  67.094  1.00  0.00    -0.245 C  
BRANCH  35  36
HETATM   36  N   UNL     1     -11.526  15.232  67.597  1.00  0.00    -0.316 NA 
HETATM   37  C   UNL     1     -12.127  14.115  68.361  1.00  0.00    -0.273 C  
HETATM   38  C   UNL     1     -11.701  13.964  69.848  1.00  0.00    -0.291 C  
HETATM   39  N   UNL     1     -11.611  15.214  70.631  1.00  0.00    -0.286 NA 
HETATM   40  C   UNL     1     -12.925  15.692  71.059  1.00  0.00    -0.458 C  
HETATM   41  C   UNL     1     -10.907  16.236  69.839  1.00  0.00    -0.352 C  
HETATM   42  C   UNL     1     -11.508  16.449  68.432  1.00  0.00    -0.181 C  
ENDBRANCH  35  36
ENDBRANCH  33  35
ENDBRANCH  26  31
ENDBRANCH  23  25
ENDBRANCH  16  23
ENDBRANCH   3   5
ENDBRANCH   2   3
TORSDOF 8
ENDMDL
MODEL       82
REMARK 921   NORMALIZED FREE ENERGY PREDICTED BY IDOCK:   -3.69 KCAL/MOL
REMARK 922        TOTAL FREE ENERGY PREDICTED BY IDOCK:   -6.95 KCAL/MOL
REMARK 923 INTER-LIGAND FREE ENERGY PREDICTED BY IDOCK:   -6.31 KCAL/MOL
REMARK 924 INTRA-LIGAND FREE ENERGY PREDICTED BY IDOCK:   -0.64 KCAL/MOL
REMARK 927      BINDING AFFINITY PREDICTED BY RF-SCORE:    0.00 PKD
ROOT
HETATM    1  C   UNL     1      -8.392   3.338  72.145  1.00  0.00    -0.074 C  
HETATM    2  O   UNL     1      -7.434   3.704  71.152  1.00  0.00    -0.042 OA 
ENDROOT
BRANCH   2   3
HETATM    3  C   UNL     1      -7.911   3.698  69.877  1.00  0.00    -0.050 C  
HETATM    4  O   UNL     1      -7.952   2.725  69.135  1.00  0.00    -0.049 OA 
BRANCH   3   5
HETATM    5  C   UNL     1      -8.417   5.044  69.509  1.00  0.00    -0.091 A  
HETATM    6  C   UNL     1      -8.038   5.681  68.309  1.00  0.00    -0.103 A  
HETATM    7  C   UNL     1      -8.500   6.967  67.992  1.00  0.00    -0.125 A  
HETATM    8  C   UNL     1      -9.341   7.621  68.878  1.00  0.00    -0.145 A  
HETATM    9  C   UNL     1      -9.706   6.972  70.063  1.00  0.00    -0.170 A  
HETATM   10  C   UNL     1      -9.280   5.698  70.397  1.00  0.00    -0.179 A  
HETATM   11  N   UNL     1     -10.527   7.785  70.832  1.00  0.00    -0.205 N  
HETATM   12  H   UNL     1     -10.908   7.520  71.740  1.00  0.00     0.000 HD 
HETATM   13  C   UNL     1     -10.767   9.003  70.212  1.00  0.00    -0.230 C  
HETATM   14  O   UNL     1     -11.497   9.877  70.640  1.00  0.00    -0.283 OA 
HETATM   15  C   UNL     1      -9.988   8.954  68.910  1.00  0.00    -0.199 C  
HETATM   16  C   UNL     1      -9.936   9.981  68.026  1.00  0.00    -0.150 C  
BRANCH  16  17
HETATM   17  C   UNL     1      -9.192   9.819  66.759  1.00  0.00    -0.179 A  
HETATM   18  C   UNL     1      -7.792   9.668  64.342  1.00  0.00    -0.129 A  
HETATM   19  C   UNL     1      -7.791   9.847  66.755  1.00  0.00    -0.109 A  
HETATM   20  C   UNL     1      -9.881   9.688  65.546  1.00  0.00    -0.352 A  
HETATM   21  C   UNL     1      -7.095   9.777  65.546  1.00  0.00    -0.108 A  
HETATM   22  C   UNL     1      -9.184   9.617  64.341  1.00  0.00    -0.258 A  
ENDBRANCH  16  17
BRANCH  16  23
HETATM   23  N   UNL     1     -10.522  11.247  68.130  1.00  0.00    -0.182 NA 
HETATM   24  H   UNL     1     -11.525  11.328  68.301  1.00  0.00     0.000 HD 
BRANCH  23  25
HETATM   25  C   UNL     1      -9.731  12.426  68.001  1.00  0.00    -0.210 A  
HETATM   26  C   UNL     1      -8.334  14.917  67.983  1.00  0.00    -0.147 A  
HETATM   27  C   UNL     1      -8.500  12.563  68.630  1.00  0.00     0.031 A  
HETATM   28  C   UNL     1     -10.155  13.471  67.183  1.00  0.00    -0.245 A  
HETATM   29  C   UNL     1      -7.827  13.788  68.634  1.00  0.00    -0.108 A  
HETATM   30  C   UNL     1      -9.467  14.696  67.178  1.00  0.00    -0.234 A  
BRANCH  26  31
HETATM   31  N   UNL     1      -7.762  16.238  68.172  1.00  0.00    -0.153 N  
HETATM   32  C   UNL     1      -8.427  17.156  69.100  1.00  0.00     0.003 C  
HETATM   33  C   UNL     1      -6.550  16.633  67.556  1.00  0.00    -0.154 C  
HETATM   34  O   UNL     1      -5.922  15.968  66.723  1.00  0.00    -0.268 OA 
BRANCH  33  35
HETATM   35  C   UNL     1      -5.995  18.037  67.840  1.00  0.00    -0.162 C  
BRANCH  35  36
HETATM   36  N   UNL     1      -6.803  19.151  67.299  1.00  0.00    -0.196 NA 
HETATM   37  C   UNL     1      -6.102  20.455  67.265  1.00  0.00    -0.195 C  
HETATM   38  C   UNL     1      -5.125  20.704  66.083  1.00  0.00    -0.168 C  
HETATM   39  N   UNL     1      -5.590  20.264  64.750  1.00  0.00    -0.176 NA 
HETATM   40  C   UNL     1      -6.540  21.206  64.160  1.00  0.00    -0.056 C  
HETATM   41  C   UNL     1      -6.174  18.918  64.857  1.00  0.00    -0.225 C  
HETATM   42  C   UNL     1      -7.268  18.804  65.942  1.00  0.00    -0.235 C  
ENDBRANCH  35  36
ENDBRANCH  33  35
ENDBRANCH  26  31
ENDBRANCH  23  25
ENDBRANCH  16  23
ENDBRANCH   3   5
ENDBRANCH   2   3
TORSDOF 8
ENDMDL
MODEL       83
REMARK 921   NORMALIZED FREE ENERGY PREDICTED BY IDOCK:   -3.63 KCAL/MOL
REMARK 922        TOTAL FREE ENERGY PREDICTED BY IDOCK:   -6.86 KCAL/MOL
REMARK 923 INTER-LIGAND FREE ENERGY PREDICTED BY IDOCK:   -5.97 KCAL/MOL
REMARK 924 INTRA-LIGAND FREE ENERGY PREDICTED BY IDOCK:   -0.89 KCAL/MOL
REMARK 927      BINDING AFFINITY PREDICTED BY RF-SCORE:    0.00 PKD
ROOT
HETATM    1  C   UNL     1     -10.318   1.488  63.124  1.00  0.00    -0.124 C  
HETATM    2  O   UNL     1      -9.805   2.738  63.587  1.00  0.00    -0.125 OA 
ENDROOT
BRANCH   2   3
HETATM    3  C   UNL     1      -9.341   2.719  64.866  1.00  0.00    -0.139 C  
HETATM    4  O   UNL     1      -9.374   1.758  65.623  1.00  0.00    -0.051 OA 
BRANCH   3   5
HETATM    5  C   UNL     1      -8.750   4.034  65.220  1.00  0.00    -0.120 A  
HETATM    6  C   UNL     1      -8.735   5.115  64.314  1.00  0.00    -0.071 A  
HETATM    7  C   UNL     1      -8.143   6.340  64.654  1.00  0.00    -0.115 A  
HETATM    8  C   UNL     1      -7.559   6.486  65.901  1.00  0.00    -0.087 A  
HETATM    9  C   UNL     1      -7.584   5.402  66.788  1.00  0.00    -0.088 A  
HETATM   10  C   UNL     1      -8.174   4.187  66.488  1.00  0.00    -0.101 A  
HETATM   11  N   UNL     1      -6.935   5.724  67.970  1.00  0.00    -0.064 N  
HETATM   12  H   UNL     1      -6.824   5.083  68.756  1.00  0.00     0.000 HD 
HETATM   13  C   UNL     1      -6.454   7.025  67.954  1.00  0.00    -0.051 C  
HETATM   14  O   UNL     1      -5.896   7.580  68.881  1.00  0.00    -0.022 OA 
HETATM   15  C   UNL     1      -6.830   7.577  66.590  1.00  0.00    -0.066 C  
HETATM   16  C   UNL     1      -6.503   8.823  66.167  1.00  0.00    -0.065 C  
BRANCH  16  17
HETATM   17  C   UNL     1      -6.960   9.289  64.841  1.00  0.00    -0.090 A  
HETATM   18  C   UNL     1      -7.813  10.320  62.385  1.00  0.00    -0.165 A  
HETATM   19  C   UNL     1      -6.031   9.537  63.822  1.00  0.00    -0.094 A  
HETATM   20  C   UNL     1      -8.320   9.538  64.609  1.00  0.00    -0.161 A  
HETATM   21  C   UNL     1      -6.460  10.056  62.598  1.00  0.00    -0.121 A  
HETATM   22  C   UNL     1      -8.744  10.055  63.386  1.00  0.00    -0.226 A  
ENDBRANCH  16  17
BRANCH  16  23
HETATM   23  N   UNL     1      -5.760   9.801  66.838  1.00  0.00    -0.050 NA 
HETATM   24  H   UNL     1      -4.748   9.699  66.920  1.00  0.00     0.000 HD 
BRANCH  23  25
HETATM   25  C   UNL     1      -6.403  10.938  67.407  1.00  0.00    -0.064 A  
HETATM   26  C   UNL     1      -7.569  13.390  68.291  1.00  0.00    -0.135 A  
HETATM   27  C   UNL     1      -7.747  11.214  67.189  1.00  0.00    -0.136 A  
HETATM   28  C   UNL     1      -5.702  11.792  68.255  1.00  0.00    -0.045 A  
HETATM   29  C   UNL     1      -8.311  12.422  67.608  1.00  0.00    -0.169 A  
HETATM   30  C   UNL     1      -6.277  12.999  68.687  1.00  0.00    -0.079 A  
BRANCH  26  31
HETATM   31  N   UNL     1      -8.081  14.729  68.526  1.00  0.00    -0.139 N  
HETATM   32  C   UNL     1      -9.475  14.873  68.954  1.00  0.00    -0.209 C  
HETATM   33  C   UNL     1      -7.262  15.880  68.432  1.00  0.00    -0.121 C  
HETATM   34  O   UNL     1      -6.089  15.892  68.038  1.00  0.00    -0.112 OA 
BRANCH  33  35
HETATM   35  C   UNL     1      -7.875  17.256  68.732  1.00  0.00    -0.254 C  
BRANCH  35  36
HETATM   36  N   UNL     1      -7.921  18.185  67.584  1.00  0.00    -0.230 NA 
HETATM   37  C   UNL     1      -8.579  17.635  66.376  1.00  0.00    -0.238 C  
HETATM   38  C   UNL     1     -10.133  17.655  66.345  1.00  0.00    -0.356 C  
HETATM   39  N   UNL     1     -10.779  18.888  66.841  1.00  0.00    -0.413 NA 
HETATM   40  C   UNL     1     -10.747  19.964  65.851  1.00  0.00    -0.339 C  
HETATM   41  C   UNL     1     -10.135  19.305  68.097  1.00  0.00    -0.412 C  
HETATM   42  C   UNL     1      -8.599  19.432  67.991  1.00  0.00    -0.324 C  
ENDBRANCH  35  36
ENDBRANCH  33  35
ENDBRANCH  26  31
ENDBRANCH  23  25
ENDBRANCH  16  23
ENDBRANCH   3   5
ENDBRANCH   2   3
TORSDOF 8
ENDMDL
MODEL       84
REMARK 921   NORMALIZED FREE ENERGY PREDICTED BY IDOCK:   -3.53 KCAL/MOL
REMARK 922        TOTAL FREE ENERGY PREDICTED BY IDOCK:   -6.72 KCAL/MOL
REMARK 923 INTER-LIGAND FREE ENERGY PREDICTED BY IDOCK:   -8.44 KCAL/MOL
REMARK 924 INTRA-LIGAND FREE ENERGY PREDICTED BY IDOCK:    1.72 KCAL/MOL
REMARK 927      BINDING AFFINITY PREDICTED BY RF-SCORE:    0.00 PKD
ROOT
HETATM    1  C   UNL     1     -14.403  15.816  71.717  1.00  0.00    -0.056 C  
HETATM    2  O   UNL     1     -13.925  15.250  72.938  1.00  0.00    -0.430 OA 
ENDROOT
BRANCH   2   3
HETATM    3  C   UNL     1     -12.580  15.049  72.979  1.00  0.00    -0.437 C  
HETATM    4  O   UNL     1     -11.858  15.246  73.949  1.00  0.00    -0.440 OA 
BRANCH   3   5
HETATM    5  C   UNL     1     -12.097  14.519  71.680  1.00  0.00    -0.379 A  
HETATM    6  C   UNL     1     -11.326  15.299  70.794  1.00  0.00    -0.365 A  
HETATM    7  C   UNL     1     -10.905  14.792  69.556  1.00  0.00    -0.268 A  
HETATM    8  C   UNL     1     -11.258  13.501  69.199  1.00  0.00    -0.310 A  
HETATM    9  C   UNL     1     -12.023  12.741  70.091  1.00  0.00    -0.296 A  
HETATM   10  C   UNL     1     -12.440  13.207  71.326  1.00  0.00    -0.327 A  
HETATM   11  N   UNL     1     -12.298  11.491  69.556  1.00  0.00    -0.189 N  
HETATM   12  H   UNL     1     -12.848  10.773  70.029  1.00  0.00     0.000 HD 
HETATM   13  C   UNL     1     -11.734  11.336  68.298  1.00  0.00    -0.274 C  
HETATM   14  O   UNL     1     -11.774  10.320  67.630  1.00  0.00    -0.192 OA 
HETATM   15  C   UNL     1     -11.039  12.654  68.003  1.00  0.00    -0.288 C  
HETATM   16  C   UNL     1     -10.391  12.918  66.841  1.00  0.00    -0.243 C  
BRANCH  16  17
HETATM   17  C   UNL     1      -9.699  14.213  66.668  1.00  0.00    -0.297 A  
HETATM   18  C   UNL     1      -8.480  16.720  66.454  1.00  0.00    -0.338 A  
HETATM   19  C   UNL     1      -8.533  14.492  67.394  1.00  0.00    -0.220 A  
HETATM   20  C   UNL     1     -10.231  15.191  65.817  1.00  0.00    -0.365 A  
HETATM   21  C   UNL     1      -7.930  15.746  67.289  1.00  0.00    -0.216 A  
HETATM   22  C   UNL     1      -9.626  16.442  65.713  1.00  0.00    -0.227 A  
ENDBRANCH  16  17
BRANCH  16  23
HETATM   23  N   UNL     1     -10.260  12.100  65.714  1.00  0.00    -0.247 NA 
HETATM   24  H   UNL     1     -10.761  12.336  64.857  1.00  0.00     0.000 HD 
BRANCH  23  25
HETATM   25  C   UNL     1      -9.435  10.939  65.751  1.00  0.00    -0.211 A  
HETATM   26  C   UNL     1      -7.799   8.634  66.158  1.00  0.00    -0.098 A  
HETATM   27  C   UNL     1      -9.953   9.657  65.614  1.00  0.00    -0.321 A  
HETATM   28  C   UNL     1      -8.053  11.063  65.877  1.00  0.00    -0.075 A  
HETATM   29  C   UNL     1      -9.154   8.531  65.830  1.00  0.00    -0.237 A  
HETATM   30  C   UNL     1      -7.250   9.927  66.080  1.00  0.00    -0.104 A  
BRANCH  26  31
HETATM   31  N   UNL     1      -7.025   7.488  66.604  1.00  0.00    -0.072 N  
HETATM   32  C   UNL     1      -6.536   6.546  65.594  1.00  0.00    -0.042 C  
HETATM   33  C   UNL     1      -6.667   7.298  67.960  1.00  0.00    -0.058 C  
HETATM   34  O   UNL     1      -7.054   7.995  68.906  1.00  0.00    -0.064 OA 
BRANCH  33  35
HETATM   35  C   UNL     1      -5.815   6.078  68.340  1.00  0.00    -0.012 C  
BRANCH  35  36
HETATM   36  N   UNL     1      -6.513   5.055  69.148  1.00  0.00    -0.034 NA 
HETATM   37  C   UNL     1      -7.016   5.543  70.453  1.00  0.00    -0.057 C  
HETATM   38  C   UNL     1      -8.357   6.328  70.446  1.00  0.00    -0.126 C  
HETATM   39  N   UNL     1      -9.427   5.784  69.582  1.00  0.00    -0.137 NA 
HETATM   40  C   UNL     1     -10.102   4.641  70.196  1.00  0.00    -0.213 C  
HETATM   41  C   UNL     1      -8.860   5.425  68.272  1.00  0.00    -0.104 C  
HETATM   42  C   UNL     1      -7.631   4.494  68.365  1.00  0.00    -0.068 C  
ENDBRANCH  35  36
ENDBRANCH  33  35
ENDBRANCH  26  31
ENDBRANCH  23  25
ENDBRANCH  16  23
ENDBRANCH   3   5
ENDBRANCH   2   3
TORSDOF 8
ENDMDL
MODEL       85
REMARK 921   NORMALIZED FREE ENERGY PREDICTED BY IDOCK:   -3.47 KCAL/MOL
REMARK 922        TOTAL FREE ENERGY PREDICTED BY IDOCK:   -6.63 KCAL/MOL
REMARK 923 INTER-LIGAND FREE ENERGY PREDICTED BY IDOCK:   -7.15 KCAL/MOL
REMARK 924 INTRA-LIGAND FREE ENERGY PREDICTED BY IDOCK:    0.52 KCAL/MOL
REMARK 927      BINDING AFFINITY PREDICTED BY RF-SCORE:    0.00 PKD
ROOT
HETATM    1  C   UNL     1     -12.258  16.817  73.336  1.00  0.00    -0.137 C  
HETATM    2  O   UNL     1     -12.978  15.799  72.640  1.00  0.00    -0.416 OA 
ENDROOT
BRANCH   2   3
HETATM    3  C   UNL     1     -12.569  15.592  71.359  1.00  0.00    -0.457 C  
HETATM    4  O   UNL     1     -12.401  16.463  70.513  1.00  0.00     0.098 OA 
BRANCH   3   5
HETATM    5  C   UNL     1     -12.316  14.149  71.124  1.00  0.00    -0.447 A  
HETATM    6  C   UNL     1     -11.393  13.699  70.156  1.00  0.00     0.006 A  
HETATM    7  C   UNL     1     -11.191  12.331  69.926  1.00  0.00     0.048 A  
HETATM    8  C   UNL     1     -11.915  11.407  70.661  1.00  0.00    -0.413 A  
HETATM    9  C   UNL     1     -12.825  11.871  71.618  1.00  0.00    -0.312 A  
HETATM   10  C   UNL     1     -13.036  13.214  71.879  1.00  0.00    -0.414 A  
HETATM   11  N   UNL     1     -13.470  10.809  72.234  1.00  0.00    -0.539 N  
HETATM   12  H   UNL     1     -14.181  10.913  72.958  1.00  0.00     0.000 HD 
HETATM   13  C   UNL     1     -13.030   9.588  71.744  1.00  0.00    -0.412 C  
HETATM   14  O   UNL     1     -13.389   8.498  72.148  1.00  0.00    -0.344 OA 
HETATM   15  C   UNL     1     -12.000   9.927  70.680  1.00  0.00    -0.361 C  
HETATM   16  C   UNL     1     -11.356   8.997  69.934  1.00  0.00    -0.001 C  
BRANCH  16  17
HETATM   17  C   UNL     1     -10.329   9.423  68.959  1.00  0.00    -0.224 A  
HETATM   18  C   UNL     1      -8.431  10.379  67.142  1.00  0.00    -0.126 A  
HETATM   19  C   UNL     1      -9.019   9.682  69.383  1.00  0.00    -0.186 A  
HETATM   20  C   UNL     1     -10.671   9.623  67.615  1.00  0.00    -0.324 A  
HETATM   21  C   UNL     1      -8.075  10.164  68.474  1.00  0.00    -0.106 A  
HETATM   22  C   UNL     1      -9.726  10.103  66.710  1.00  0.00    -0.235 A  
ENDBRANCH  16  17
BRANCH  16  23
HETATM   23  N   UNL     1     -11.515   7.606  69.952  1.00  0.00    -0.471 NA 
HETATM   24  H   UNL     1     -12.068   7.170  70.690  1.00  0.00     0.000 HD 
BRANCH  23  25
HETATM   25  C   UNL     1     -10.911   6.794  68.949  1.00  0.00    -0.218 A  
HETATM   26  C   UNL     1      -9.570   5.447  66.818  1.00  0.00    -0.147 A  
HETATM   27  C   UNL     1      -9.722   6.109  69.168  1.00  0.00    -0.164 A  
HETATM   28  C   UNL     1     -11.535   6.620  67.716  1.00  0.00     0.172 A  
HETATM   29  C   UNL     1      -9.059   5.466  68.119  1.00  0.00    -0.115 A  
HETATM   30  C   UNL     1     -10.872   5.959  66.668  1.00  0.00    -0.292 A  
BRANCH  26  31
HETATM   31  N   UNL     1      -8.784   4.982  65.688  1.00  0.00    -0.134 N  
HETATM   32  C   UNL     1      -7.731   5.857  65.169  1.00  0.00    -0.093 C  
HETATM   33  C   UNL     1      -8.950   3.691  65.132  1.00  0.00    -0.133 C  
HETATM   34  O   UNL     1      -9.829   2.882  65.451  1.00  0.00     0.054 OA 
BRANCH  33  35
HETATM   35  C   UNL     1      -8.050   3.265  63.961  1.00  0.00    -0.082 C  
BRANCH  35  36
HETATM   36  N   UNL     1      -7.011   2.270  64.300  1.00  0.00    -0.045 NA 
HETATM   37  C   UNL     1      -5.677   2.849  64.581  1.00  0.00    -0.014 C  
HETATM   38  C   UNL     1      -5.447   3.445  65.998  1.00  0.00    -0.017 C  
HETATM   39  N   UNL     1      -5.985   2.661  67.130  1.00  0.00    -0.023 NA 
HETATM   40  C   UNL     1      -5.126   1.527  67.470  1.00  0.00    -0.004 C  
HETATM   41  C   UNL     1      -7.350   2.216  66.810  1.00  0.00    -0.057 C  
HETATM   42  C   UNL     1      -7.457   1.473  65.459  1.00  0.00    -0.061 C  
ENDBRANCH  35  36
ENDBRANCH  33  35
ENDBRANCH  26  31
ENDBRANCH  23  25
ENDBRANCH  16  23
ENDBRANCH   3   5
ENDBRANCH   2   3
TORSDOF 8
ENDMDL
MODEL       86
REMARK 921   NORMALIZED FREE ENERGY PREDICTED BY IDOCK:   -3.06 KCAL/MOL
REMARK 922        TOTAL FREE ENERGY PREDICTED BY IDOCK:   -6.04 KCAL/MOL
REMARK 923 INTER-LIGAND FREE ENERGY PREDICTED BY IDOCK:   -6.62 KCAL/MOL
REMARK 924 INTRA-LIGAND FREE ENERGY PREDICTED BY IDOCK:    0.58 KCAL/MOL
REMARK 927      BINDING AFFINITY PREDICTED BY RF-SCORE:    0.00 PKD
ROOT
HETATM    1  C   UNL     1     -14.191  12.503  72.436  1.00  0.00     0.399 C  
HETATM    2  O   UNL     1     -12.933  13.133  72.192  1.00  0.00    -0.327 OA 
ENDROOT
BRANCH   2   3
HETATM    3  C   UNL     1     -12.944  14.047  71.185  1.00  0.00    -0.332 C  
HETATM    4  O   UNL     1     -13.452  15.160  71.236  1.00  0.00    -0.421 OA 
BRANCH   3   5
HETATM    5  C   UNL     1     -12.216  13.521  70.003  1.00  0.00    -0.381 A  
HETATM    6  C   UNL     1     -11.421  12.358  70.071  1.00  0.00    -0.110 A  
HETATM    7  C   UNL     1     -10.714  11.894  68.952  1.00  0.00    -0.236 A  
HETATM    8  C   UNL     1     -10.798  12.595  67.761  1.00  0.00    -0.248 A  
HETATM    9  C   UNL     1     -11.593  13.746  67.711  1.00  0.00    -0.346 A  
HETATM   10  C   UNL     1     -12.315  14.220  68.793  1.00  0.00    -0.086 A  
HETATM   11  N   UNL     1     -11.537  14.324  66.452  1.00  0.00    -0.359 N  
HETATM   12  H   UNL     1     -12.033  15.177  66.190  1.00  0.00     0.000 HD 
HETATM   13  C   UNL     1     -10.724  13.601  65.591  1.00  0.00    -0.283 C  
HETATM   14  O   UNL     1     -10.544  13.854  64.415  1.00  0.00    -0.400 OA 
HETATM   15  C   UNL     1     -10.192  12.443  66.417  1.00  0.00    -0.253 C  
HETATM   16  C   UNL     1      -9.324  11.516  65.941  1.00  0.00    -0.226 C  
BRANCH  16  17
HETATM   17  C   UNL     1      -8.904  10.394  66.806  1.00  0.00    -0.139 A  
HETATM   18  C   UNL     1      -8.199   8.331  68.558  1.00  0.00    -0.131 A  
HETATM   19  C   UNL     1      -9.641   9.201  66.822  1.00  0.00    -0.253 A  
HETATM   20  C   UNL     1      -7.799  10.531  67.656  1.00  0.00    -0.105 A  
HETATM   21  C   UNL     1      -9.289   8.176  67.701  1.00  0.00    -0.160 A  
HETATM   22  C   UNL     1      -7.450   9.505  68.532  1.00  0.00    -0.080 A  
ENDBRANCH  16  17
BRANCH  16  23
HETATM   23  N   UNL     1      -8.734  11.449  64.674  1.00  0.00    -0.343 NA 
HETATM   24  H   UNL     1      -8.755  12.266  64.062  1.00  0.00     0.000 HD 
BRANCH  23  25
HETATM   25  C   UNL     1      -8.105  10.250  64.229  1.00  0.00    -0.143 A  
HETATM   26  C   UNL     1      -6.959   7.707  63.616  1.00  0.00    -0.060 A  
HETATM   27  C   UNL     1      -8.708   9.391  63.319  1.00  0.00    -0.220 A  
HETATM   28  C   UNL     1      -6.821   9.927  64.663  1.00  0.00    -0.126 A  
HETATM   29  C   UNL     1      -8.155   8.140  63.034  1.00  0.00    -0.135 A  
HETATM   30  C   UNL     1      -6.261   8.674  64.362  1.00  0.00    -0.067 A  
BRANCH  26  31
HETATM   31  N   UNL     1      -6.500   6.334  63.503  1.00  0.00    -0.029 N  
HETATM   32  C   UNL     1      -5.567   6.001  62.424  1.00  0.00    -0.022 C  
HETATM   33  C   UNL     1      -6.862   5.336  64.440  1.00  0.00    -0.048 C  
HETATM   34  O   UNL     1      -7.673   5.481  65.362  1.00  0.00    -0.084 OA 
BRANCH  33  35
HETATM   35  C   UNL     1      -6.302   3.916  64.266  1.00  0.00    -0.026 C  
BRANCH  35  36
HETATM   36  N   UNL     1      -7.189   2.977  63.546  1.00  0.00    -0.048 NA 
HETATM   37  C   UNL     1      -7.985   2.090  64.426  1.00  0.00    -0.073 C  
HETATM   38  C   UNL     1      -9.273   2.688  65.057  1.00  0.00    -0.137 C  
HETATM   39  N   UNL     1     -10.111   3.518  64.165  1.00  0.00    -0.188 NA 
HETATM   40  C   UNL     1     -10.931   2.706  63.267  1.00  0.00    -0.199 C  
HETATM   41  C   UNL     1      -9.251   4.442  63.409  1.00  0.00    -0.123 C  
HETATM   42  C   UNL     1      -8.094   3.739  62.664  1.00  0.00    -0.071 C  
ENDBRANCH  35  36
ENDBRANCH  33  35
ENDBRANCH  26  31
ENDBRANCH  23  25
ENDBRANCH  16  23
ENDBRANCH   3   5
ENDBRANCH   2   3
TORSDOF 8
ENDMDL
MODEL       87
REMARK 921   NORMALIZED FREE ENERGY PREDICTED BY IDOCK:   -2.97 KCAL/MOL
REMARK 922        TOTAL FREE ENERGY PREDICTED BY IDOCK:   -5.90 KCAL/MOL
REMARK 923 INTER-LIGAND FREE ENERGY PREDICTED BY IDOCK:   -6.16 KCAL/MOL
REMARK 924 INTRA-LIGAND FREE ENERGY PREDICTED BY IDOCK:    0.25 KCAL/MOL
REMARK 927      BINDING AFFINITY PREDICTED BY RF-SCORE:    0.00 PKD
ROOT
HETATM    1  C   UNL     1     -14.216  15.609  72.558  1.00  0.00    -0.388 C  
HETATM    2  O   UNL     1     -13.617  15.365  71.286  1.00  0.00    -0.492 OA 
ENDROOT
BRANCH   2   3
HETATM    3  C   UNL     1     -12.337  15.812  71.168  1.00  0.00    -0.427 C  
HETATM    4  O   UNL     1     -11.799  16.638  71.895  1.00  0.00    -0.362 OA 
BRANCH   3   5
HETATM    5  C   UNL     1     -11.653  15.130  70.041  1.00  0.00    -0.326 A  
HETATM    6  C   UNL     1     -12.284  14.929  68.796  1.00  0.00    -0.122 A  
HETATM    7  C   UNL     1     -11.634  14.253  67.752  1.00  0.00    -0.383 A  
HETATM    8  C   UNL     1     -10.351  13.773  67.954  1.00  0.00    -0.244 A  
HETATM    9  C   UNL     1      -9.740  13.983  69.196  1.00  0.00     0.161 A  
HETATM   10  C   UNL     1     -10.349  14.659  70.239  1.00  0.00     0.359 A  
HETATM   11  N   UNL     1      -8.475  13.415  69.220  1.00  0.00    -0.003 N  
HETATM   12  H   UNL     1      -7.851  13.439  70.027  1.00  0.00     0.000 HD 
HETATM   13  C   UNL     1      -8.161  12.810  68.011  1.00  0.00    -0.162 C  
HETATM   14  O   UNL     1      -7.096  12.287  67.743  1.00  0.00    -0.093 OA 
HETATM   15  C   UNL     1      -9.384  13.007  67.132  1.00  0.00    -0.230 C  
HETATM   16  C   UNL     1      -9.488  12.524  65.870  1.00  0.00    -0.107 C  
BRANCH  16  17
HETATM   17  C   UNL     1     -10.699  12.812  65.073  1.00  0.00    -0.321 A  
HETATM   18  C   UNL     1     -12.906  13.328  63.435  1.00  0.00     0.342 A  
HETATM   19  C   UNL     1     -11.602  11.785  64.765  1.00  0.00    -0.241 A  
HETATM   20  C   UNL     1     -10.927  14.101  64.574  1.00  0.00    -0.340 A  
HETATM   21  C   UNL     1     -12.700  12.045  63.944  1.00  0.00    -0.467 A  
HETATM   22  C   UNL     1     -12.024  14.358  63.755  1.00  0.00     0.006 A  
ENDBRANCH  16  17
BRANCH  16  23
HETATM   23  N   UNL     1      -8.563  11.753  65.156  1.00  0.00    -0.094 NA 
HETATM   24  H   UNL     1      -8.007  12.185  64.418  1.00  0.00     0.000 HD 
BRANCH  23  25
HETATM   25  C   UNL     1      -8.391  10.369  65.451  1.00  0.00    -0.165 A  
HETATM   26  C   UNL     1      -7.955   7.693  66.346  1.00  0.00    -0.107 A  
HETATM   27  C   UNL     1      -9.453   9.553  65.820  1.00  0.00    -0.314 A  
HETATM   28  C   UNL     1      -7.138   9.774  65.324  1.00  0.00    -0.119 A  
HETATM   29  C   UNL     1      -9.235   8.250  66.275  1.00  0.00    -0.258 A  
HETATM   30  C   UNL     1      -6.925   8.457  65.768  1.00  0.00    -0.067 A  
BRANCH  26  31
HETATM   31  N   UNL     1      -7.699   6.434  67.025  1.00  0.00    -0.099 N  
HETATM   32  C   UNL     1      -8.361   5.228  66.521  1.00  0.00    -0.108 C  
HETATM   33  C   UNL     1      -6.780   6.324  68.096  1.00  0.00    -0.068 C  
HETATM   34  O   UNL     1      -6.197   7.271  68.637  1.00  0.00    -0.029 OA 
BRANCH  33  35
HETATM   35  C   UNL     1      -6.542   4.947  68.733  1.00  0.00    -0.048 C  
BRANCH  35  36
HETATM   36  N   UNL     1      -7.057   4.798  70.112  1.00  0.00    -0.048 NA 
HETATM   37  C   UNL     1      -7.178   6.069  70.861  1.00  0.00    -0.074 C  
HETATM   38  C   UNL     1      -8.434   6.941  70.579  1.00  0.00    -0.137 C  
HETATM   39  N   UNL     1      -9.717   6.217  70.461  1.00  0.00    -0.171 NA 
HETATM   40  C   UNL     1     -10.266   5.853  71.767  1.00  0.00    -0.203 C  
HETATM   41  C   UNL     1      -9.530   5.027  69.614  1.00  0.00    -0.143 C  
HETATM   42  C   UNL     1      -8.367   4.119  70.073  1.00  0.00    -0.061 C  
ENDBRANCH  35  36
ENDBRANCH  33  35
ENDBRANCH  26  31
ENDBRANCH  23  25
ENDBRANCH  16  23
ENDBRANCH   3   5
ENDBRANCH   2   3
TORSDOF 8
ENDMDL
MODEL       88
REMARK 921   NORMALIZED FREE ENERGY PREDICTED BY IDOCK:   -2.88 KCAL/MOL
REMARK 922        TOTAL FREE ENERGY PREDICTED BY IDOCK:   -5.77 KCAL/MOL
REMARK 923 INTER-LIGAND FREE ENERGY PREDICTED BY IDOCK:   -5.59 KCAL/MOL
REMARK 924 INTRA-LIGAND FREE ENERGY PREDICTED BY IDOCK:   -0.18 KCAL/MOL
REMARK 927      BINDING AFFINITY PREDICTED BY RF-SCORE:    0.00 PKD
ROOT
HETATM    1  C   UNL     1      -8.789   1.664  68.702  1.00  0.00    -0.087 C  
HETATM    2  O   UNL     1      -9.823   2.152  67.846  1.00  0.00     0.029 OA 
ENDROOT
BRANCH   2   3
HETATM    3  C   UNL     1      -9.439   3.155  67.011  1.00  0.00    -0.094 C  
HETATM    4  O   UNL     1      -9.437   3.103  65.787  1.00  0.00    -0.138 OA 
BRANCH   3   5
HETATM    5  C   UNL     1      -9.048   4.355  67.791  1.00  0.00    -0.149 A  
HETATM    6  C   UNL     1      -9.956   5.026  68.637  1.00  0.00    -0.215 A  
HETATM    7  C   UNL     1      -9.577   6.178  69.341  1.00  0.00    -0.159 A  
HETATM    8  C   UNL     1      -8.289   6.665  69.198  1.00  0.00    -0.124 A  
HETATM    9  C   UNL     1      -7.401   5.986  68.355  1.00  0.00    -0.085 A  
HETATM   10  C   UNL     1      -7.740   4.838  67.660  1.00  0.00    -0.086 A  
HETATM   11  N   UNL     1      -6.173   6.630  68.319  1.00  0.00    -0.028 N  
HETATM   12  H   UNL     1      -5.377   6.315  67.764  1.00  0.00     0.000 HD 
HETATM   13  C   UNL     1      -6.159   7.754  69.132  1.00  0.00    -0.035 C  
HETATM   14  O   UNL     1      -5.194   8.468  69.328  1.00  0.00    -0.030 OA 
HETATM   15  C   UNL     1      -7.552   7.835  69.733  1.00  0.00    -0.091 C  
HETATM   16  C   UNL     1      -7.955   8.826  70.566  1.00  0.00    -0.113 C  
BRANCH  16  17
HETATM   17  C   UNL     1      -9.315   8.789  71.143  1.00  0.00    -0.297 A  
HETATM   18  C   UNL     1     -11.914   8.586  72.155  1.00  0.00    -0.451 A  
HETATM   19  C   UNL     1      -9.545   8.144  72.366  1.00  0.00    -0.335 A  
HETATM   20  C   UNL     1     -10.394   9.352  70.447  1.00  0.00    -0.318 A  
HETATM   21  C   UNL     1     -10.845   8.040  72.865  1.00  0.00    -0.399 A  
HETATM   22  C   UNL     1     -11.690   9.247  70.949  1.00  0.00    -0.360 A  
ENDBRANCH  16  17
BRANCH  16  23
HETATM   23  N   UNL     1      -7.233   9.945  70.997  1.00  0.00    -0.312 NA 
HETATM   24  H   UNL     1      -6.889   9.985  71.957  1.00  0.00     0.000 HD 
BRANCH  23  25
HETATM   25  C   UNL     1      -6.976  11.029  70.110  1.00  0.00     0.173 A  
HETATM   26  C   UNL     1      -6.650  13.387  68.531  1.00  0.00    -0.089 A  
HETATM   27  C   UNL     1      -5.819  11.794  70.192  1.00  0.00    -0.156 A  
HETATM   28  C   UNL     1      -7.869  11.325  69.083  1.00  0.00    -0.020 A  
HETATM   29  C   UNL     1      -5.669  12.957  69.431  1.00  0.00    -0.090 A  
HETATM   30  C   UNL     1      -7.708  12.487  68.309  1.00  0.00    -0.141 A  
BRANCH  26  31
HETATM   31  N   UNL     1      -6.605  14.700  67.912  1.00  0.00    -0.149 N  
HETATM   32  C   UNL     1      -5.379  15.096  67.215  1.00  0.00     0.464 C  
HETATM   33  C   UNL     1      -7.723  15.568  67.895  1.00  0.00    -0.130 C  
HETATM   34  O   UNL     1      -8.792  15.367  68.484  1.00  0.00    -0.170 OA 
BRANCH  33  35
HETATM   35  C   UNL     1      -7.601  16.925  67.186  1.00  0.00    -0.179 C  
BRANCH  35  36
HETATM   36  N   UNL     1      -6.366  17.680  67.489  1.00  0.00    -0.158 NA 
HETATM   37  C   UNL     1      -6.379  19.086  67.024  1.00  0.00    -0.186 C  
HETATM   38  C   UNL     1      -7.126  20.119  67.913  1.00  0.00    -0.290 C  
HETATM   39  N   UNL     1      -6.918  19.996  69.371  1.00  0.00    -0.251 NA 
HETATM   40  C   UNL     1      -5.638  20.562  69.794  1.00  0.00    -0.349 C  
HETATM   41  C   UNL     1      -7.028  18.581  69.762  1.00  0.00     0.208 C  
HETATM   42  C   UNL     1      -6.114  17.642  68.942  1.00  0.00    -0.197 C  
ENDBRANCH  35  36
ENDBRANCH  33  35
ENDBRANCH  26  31
ENDBRANCH  23  25
ENDBRANCH  16  23
ENDBRANCH   3   5
ENDBRANCH   2   3
TORSDOF 8
ENDMDL
MODEL       89
REMARK 921   NORMALIZED FREE ENERGY PREDICTED BY IDOCK:   -2.62 KCAL/MOL
REMARK 922        TOTAL FREE ENERGY PREDICTED BY IDOCK:   -5.39 KCAL/MOL
REMARK 923 INTER-LIGAND FREE ENERGY PREDICTED BY IDOCK:   -4.49 KCAL/MOL
REMARK 924 INTRA-LIGAND FREE ENERGY PREDICTED BY IDOCK:   -0.90 KCAL/MOL
REMARK 927      BINDING AFFINITY PREDICTED BY RF-SCORE:    0.00 PKD
ROOT
HETATM    1  C   UNL     1      -7.912  18.405  67.733  1.00  0.00    -0.249 C  
HETATM    2  O   UNL     1      -8.150  17.347  68.661  1.00  0.00    -0.262 OA 
ENDROOT
BRANCH   2   3
HETATM    3  C   UNL     1      -7.193  16.380  68.673  1.00  0.00    -0.178 C  
HETATM    4  O   UNL     1      -6.007  16.552  68.926  1.00  0.00    -0.135 OA 
BRANCH   3   5
HETATM    5  C   UNL     1      -7.791  15.057  68.366  1.00  0.00    -0.125 A  
HETATM    6  C   UNL     1      -8.784  14.478  69.183  1.00  0.00     0.032 A  
HETATM    7  C   UNL     1      -9.315  13.212  68.895  1.00  0.00     0.261 A  
HETATM    8  C   UNL     1      -8.850  12.519  67.790  1.00  0.00    -0.178 A  
HETATM    9  C   UNL     1      -7.864  13.109  66.990  1.00  0.00     0.049 A  
HETATM   10  C   UNL     1      -7.333  14.363  67.239  1.00  0.00    -0.070 A  
HETATM   11  N   UNL     1      -7.508  12.263  65.950  1.00  0.00     0.771 N  
HETATM   12  H   UNL     1      -6.802  12.485  65.248  1.00  0.00     0.000 HD 
HETATM   13  C   UNL     1      -8.230  11.079  65.982  1.00  0.00    -0.129 C  
HETATM   14  O   UNL     1      -8.156  10.188  65.158  1.00  0.00    -0.138 OA 
HETATM   15  C   UNL     1      -9.132  11.189  67.199  1.00  0.00    -0.151 C  
HETATM   16  C   UNL     1      -9.977  10.208  67.599  1.00  0.00    -0.181 C  
BRANCH  16  17
HETATM   17  C   UNL     1     -10.856  10.429  68.768  1.00  0.00    -0.269 A  
HETATM   18  C   UNL     1     -12.442  10.986  71.003  1.00  0.00    -0.512 A  
HETATM   19  C   UNL     1     -12.086  11.081  68.612  1.00  0.00    -0.129 A  
HETATM   20  C   UNL     1     -10.442  10.038  70.048  1.00  0.00    -0.337 A  
HETATM   21  C   UNL     1     -12.874  11.362  69.730  1.00  0.00     0.267 A  
HETATM   22  C   UNL     1     -11.230  10.318  71.162  1.00  0.00    -0.116 A  
ENDBRANCH  16  17
BRANCH  16  23
HETATM   23  N   UNL     1     -10.166   8.940  67.036  1.00  0.00    -0.256 NA 
HETATM   24  H   UNL     1     -10.385   8.856  66.043  1.00  0.00     0.000 HD 
BRANCH  23  25
HETATM   25  C   UNL     1     -10.055   7.767  67.837  1.00  0.00    -0.185 A  
HETATM   26  C   UNL     1      -9.865   5.615  69.705  1.00  0.00    -0.185 A  
HETATM   27  C   UNL     1     -11.141   6.939  68.091  1.00  0.00    -0.165 A  
HETATM   28  C   UNL     1      -8.820   7.383  68.354  1.00  0.00    -0.121 A  
HETATM   29  C   UNL     1     -11.051   5.897  69.019  1.00  0.00    -0.295 A  
HETATM   30  C   UNL     1      -8.730   6.325  69.275  1.00  0.00    -0.124 A  
BRANCH  26  31
HETATM   31  N   UNL     1      -9.826   4.691  70.826  1.00  0.00    -0.201 N  
HETATM   32  C   UNL     1      -9.291   3.347  70.597  1.00  0.00    -0.162 C  
HETATM   33  C   UNL     1     -10.210   5.072  72.134  1.00  0.00    -0.201 C  
HETATM   34  O   UNL     1     -10.716   6.157  72.443  1.00  0.00    -0.212 OA 
BRANCH  33  35
HETATM   35  C   UNL     1     -10.102   4.043  73.269  1.00  0.00    -0.140 C  
BRANCH  35  36
HETATM   36  N   UNL     1      -9.075   4.343  74.291  1.00  0.00    -0.103 NA 
HETATM   37  C   UNL     1      -8.057   3.282  74.465  1.00  0.00    -0.069 C  
HETATM   38  C   UNL     1      -6.895   3.239  73.434  1.00  0.00    -0.035 C  
HETATM   39  N   UNL     1      -6.310   4.543  73.056  1.00  0.00    -0.035 NA 
HETATM   40  C   UNL     1      -5.387   5.047  74.073  1.00  0.00    -0.017 C  
HETATM   41  C   UNL     1      -7.392   5.507  72.798  1.00  0.00    -0.092 C  
HETATM   42  C   UNL     1      -8.410   5.617  73.955  1.00  0.00    -0.108 C  
ENDBRANCH  35  36
ENDBRANCH  33  35
ENDBRANCH  26  31
ENDBRANCH  23  25
ENDBRANCH  16  23
ENDBRANCH   3   5
ENDBRANCH   2   3
TORSDOF 8
ENDMDL
MODEL       90
REMARK 921   NORMALIZED FREE ENERGY PREDICTED BY IDOCK:   -2.49 KCAL/MOL
REMARK 922        TOTAL FREE ENERGY PREDICTED BY IDOCK:   -5.20 KCAL/MOL
REMARK 923 INTER-LIGAND FREE ENERGY PREDICTED BY IDOCK:   -5.45 KCAL/MOL
REMARK 924 INTRA-LIGAND FREE ENERGY PREDICTED BY IDOCK:    0.26 KCAL/MOL
REMARK 927      BINDING AFFINITY PREDICTED BY RF-SCORE:    0.00 PKD
ROOT
HETATM    1  C   UNL     1     -12.215  16.891  74.069  1.00  0.00    -0.085 C  
HETATM    2  O   UNL     1     -12.905  16.113  73.090  1.00  0.00    -0.478 OA 
ENDROOT
BRANCH   2   3
HETATM    3  C   UNL     1     -12.323  16.105  71.861  1.00  0.00    -0.380 C  
HETATM    4  O   UNL     1     -11.938  17.091  71.246  1.00  0.00     0.826 OA 
BRANCH   3   5
HETATM    5  C   UNL     1     -12.182  14.712  71.366  1.00  0.00    -0.411 A  
HETATM    6  C   UNL     1     -11.399  14.397  70.236  1.00  0.00    -0.188 A  
HETATM    7  C   UNL     1     -11.303  13.079  69.764  1.00  0.00    -0.114 A  
HETATM    8  C   UNL     1     -11.993  12.074  70.419  1.00  0.00    -0.379 A  
HETATM    9  C   UNL     1     -12.765  12.406  71.539  1.00  0.00    -0.228 A  
HETATM   10  C   UNL     1     -12.867  13.692  72.039  1.00  0.00    -0.367 A  
HETATM   11  N   UNL     1     -13.399  11.281  72.046  1.00  0.00    -0.524 N  
HETATM   12  H   UNL     1     -14.018  11.289  72.857  1.00  0.00     0.000 HD 
HETATM   13  C   UNL     1     -13.087  10.143  71.316  1.00  0.00    -0.396 C  
HETATM   14  O   UNL     1     -13.461   9.016  71.577  1.00  0.00    -0.355 OA 
HETATM   15  C   UNL     1     -12.162  10.617  70.208  1.00  0.00    -0.417 C  
HETATM   16  C   UNL     1     -11.659   9.800  69.249  1.00  0.00     0.167 C  
BRANCH  16  17
HETATM   17  C   UNL     1     -10.723  10.345  68.242  1.00  0.00    -0.275 A  
HETATM   18  C   UNL     1      -8.913  11.226  66.301  1.00  0.00    -0.204 A  
HETATM   19  C   UNL     1     -11.156  10.573  66.929  1.00  0.00    -0.124 A  
HETATM   20  C   UNL     1      -9.385  10.586  68.577  1.00  0.00    -0.168 A  
HETATM   21  C   UNL     1     -10.248  11.008  65.961  1.00  0.00    -0.305 A  
HETATM   22  C   UNL     1      -8.481  11.021  67.610  1.00  0.00    -0.121 A  
ENDBRANCH  16  17
BRANCH  16  23
HETATM   23  N   UNL     1     -11.896   8.434  69.059  1.00  0.00     0.844 NA 
HETATM   24  H   UNL     1     -12.799   8.123  68.702  1.00  0.00     0.000 HD 
BRANCH  23  25
HETATM   25  C   UNL     1     -10.887   7.474  69.361  1.00  0.00    -0.150 A  
HETATM   26  C   UNL     1      -8.725   5.785  70.154  1.00  0.00    -0.139 A  
HETATM   27  C   UNL     1     -11.053   6.510  70.347  1.00  0.00    -0.389 A  
HETATM   28  C   UNL     1      -9.704   7.442  68.625  1.00  0.00    -0.152 A  
HETATM   29  C   UNL     1      -9.989   5.697  70.746  1.00  0.00    -0.254 A  
HETATM   30  C   UNL     1      -8.641   6.612  69.019  1.00  0.00    -0.130 A  
BRANCH  26  31
HETATM   31  N   UNL     1      -7.566   5.110  70.711  1.00  0.00    -0.077 N  
HETATM   32  C   UNL     1      -6.814   5.785  71.772  1.00  0.00    -0.068 C  
HETATM   33  C   UNL     1      -7.191   3.802  70.320  1.00  0.00    -0.041 C  
HETATM   34  O   UNL     1      -7.715   3.151  69.409  1.00  0.00    -0.047 OA 
BRANCH  33  35
HETATM   35  C   UNL     1      -5.971   3.148  70.987  1.00  0.00    -0.014 C  
BRANCH  35  36
HETATM   36  N   UNL     1      -6.289   2.115  71.996  1.00  0.00    -0.014 NA 
HETATM   37  C   UNL     1      -6.106   2.552  73.399  1.00  0.00    -0.008 C  
HETATM   38  C   UNL     1      -7.247   3.397  74.031  1.00  0.00    -0.048 C  
HETATM   39  N   UNL     1      -8.626   2.952  73.741  1.00  0.00    -0.073 NA 
HETATM   40  C   UNL     1      -9.020   1.809  74.564  1.00  0.00    -0.061 C  
HETATM   41  C   UNL     1      -8.747   2.640  72.308  1.00  0.00    -0.067 C  
HETATM   42  C   UNL     1      -7.675   1.650  71.799  1.00  0.00    -0.040 C  
ENDBRANCH  35  36
ENDBRANCH  33  35
ENDBRANCH  26  31
ENDBRANCH  23  25
ENDBRANCH  16  23
ENDBRANCH   3   5
ENDBRANCH   2   3
TORSDOF 8
ENDMDL
MODEL       91
REMARK 921   NORMALIZED FREE ENERGY PREDICTED BY IDOCK:   -2.46 KCAL/MOL
REMARK 922        TOTAL FREE ENERGY PREDICTED BY IDOCK:   -5.15 KCAL/MOL
REMARK 923 INTER-LIGAND FREE ENERGY PREDICTED BY IDOCK:   -5.45 KCAL/MOL
REMARK 924 INTRA-LIGAND FREE ENERGY PREDICTED BY IDOCK:    0.30 KCAL/MOL
REMARK 927      BINDING AFFINITY PREDICTED BY RF-SCORE:    0.00 PKD
ROOT
HETATM    1  C   UNL     1     -11.527   4.662  73.364  1.00  0.00    -0.245 C  
HETATM    2  O   UNL     1     -11.158   3.515  74.130  1.00  0.00    -0.138 OA 
ENDROOT
BRANCH   2   3
HETATM    3  C   UNL     1      -9.962   2.966  73.785  1.00  0.00    -0.106 C  
HETATM    4  O   UNL     1      -9.370   2.095  74.410  1.00  0.00    -0.074 OA 
BRANCH   3   5
HETATM    5  C   UNL     1      -9.475   3.548  72.510  1.00  0.00    -0.179 A  
HETATM    6  C   UNL     1      -9.553   2.846  71.289  1.00  0.00    -0.228 A  
HETATM    7  C   UNL     1      -9.058   3.399  70.099  1.00  0.00    -0.203 A  
HETATM    8  C   UNL     1      -8.479   4.657  70.128  1.00  0.00    -0.090 A  
HETATM    9  C   UNL     1      -8.411   5.339  71.348  1.00  0.00    -0.121 A  
HETATM   10  C   UNL     1      -8.904   4.827  72.536  1.00  0.00    -0.125 A  
HETATM   11  N   UNL     1      -7.781   6.565  71.187  1.00  0.00    -0.096 N  
HETATM   12  H   UNL     1      -7.614   7.227  71.945  1.00  0.00     0.000 HD 
HETATM   13  C   UNL     1      -7.405   6.780  69.869  1.00  0.00    -0.089 C  
HETATM   14  O   UNL     1      -6.887   7.794  69.442  1.00  0.00    -0.042 OA 
HETATM   15  C   UNL     1      -7.834   5.530  69.119  1.00  0.00    -0.091 C  
HETATM   16  C   UNL     1      -7.611   5.334  67.796  1.00  0.00    -0.087 C  
BRANCH  16  17
HETATM   17  C   UNL     1      -8.114   4.107  67.143  1.00  0.00    -0.100 A  
HETATM   18  C   UNL     1      -9.021   1.847  65.769  1.00  0.00    -0.103 A  
HETATM   19  C   UNL     1      -7.265   3.006  66.963  1.00  0.00    -0.058 A  
HETATM   20  C   UNL     1      -9.425   4.053  66.653  1.00  0.00    -0.214 A  
HETATM   21  C   UNL     1      -7.720   1.881  66.272  1.00  0.00    -0.070 A  
HETATM   22  C   UNL     1      -9.876   2.929  65.965  1.00  0.00     0.418 A  
ENDBRANCH  16  17
BRANCH  16  23
HETATM   23  N   UNL     1      -6.943   6.171  66.895  1.00  0.00    -0.069 NA 
HETATM   24  H   UNL     1      -5.989   5.948  66.609  1.00  0.00     0.000 HD 
BRANCH  23  25
HETATM   25  C   UNL     1      -7.584   7.331  66.371  1.00  0.00    -0.092 A  
HETATM   26  C   UNL     1      -8.977   9.711  65.630  1.00  0.00    -0.169 A  
HETATM   27  C   UNL     1      -6.909   8.533  66.196  1.00  0.00    -0.072 A  
HETATM   28  C   UNL     1      -8.915   7.276  65.964  1.00  0.00    -0.149 A  
HETATM   29  C   UNL     1      -7.596   9.700  65.850  1.00  0.00    -0.103 A  
HETATM   30  C   UNL     1      -9.599   8.450  65.602  1.00  0.00     0.118 A  
BRANCH  26  31
HETATM   31  N   UNL     1      -9.726  10.949  65.496  1.00  0.00    -0.219 N  
HETATM   32  C   UNL     1      -9.668  11.659  64.216  1.00  0.00    -0.173 C  
HETATM   33  C   UNL     1     -10.562  11.443  66.526  1.00  0.00    -0.263 C  
HETATM   34  O   UNL     1     -10.659  10.960  67.661  1.00  0.00    -0.196 OA 
BRANCH  33  35
HETATM   35  C   UNL     1     -11.348  12.741  66.287  1.00  0.00    -0.320 C  
BRANCH  35  36
HETATM   36  N   UNL     1     -10.517  13.935  66.018  1.00  0.00    -0.291 NA 
HETATM   37  C   UNL     1     -11.166  15.221  66.360  1.00  0.00    -0.224 C  
HETATM   38  C   UNL     1     -11.145  15.649  67.855  1.00  0.00    -0.324 C  
HETATM   39  N   UNL     1      -9.873  15.435  68.577  1.00  0.00    -0.203 NA 
HETATM   40  C   UNL     1      -8.884  16.468  68.269  1.00  0.00    -0.210 C  
HETATM   41  C   UNL     1      -9.354  14.094  68.263  1.00  0.00    -0.203 C  
HETATM   42  C   UNL     1      -9.240  13.815  66.747  1.00  0.00    -0.244 C  
ENDBRANCH  35  36
ENDBRANCH  33  35
ENDBRANCH  26  31
ENDBRANCH  23  25
ENDBRANCH  16  23
ENDBRANCH   3   5
ENDBRANCH   2   3
TORSDOF 8
ENDMDL
MODEL       92
REMARK 921   NORMALIZED FREE ENERGY PREDICTED BY IDOCK:   -2.42 KCAL/MOL
REMARK 922        TOTAL FREE ENERGY PREDICTED BY IDOCK:   -5.09 KCAL/MOL
REMARK 923 INTER-LIGAND FREE ENERGY PREDICTED BY IDOCK:   -4.48 KCAL/MOL
REMARK 924 INTRA-LIGAND FREE ENERGY PREDICTED BY IDOCK:   -0.61 KCAL/MOL
REMARK 927      BINDING AFFINITY PREDICTED BY RF-SCORE:    0.00 PKD
ROOT
HETATM    1  C   UNL     1     -10.685  17.140  69.799  1.00  0.00     0.161 C  
HETATM    2  O   UNL     1     -11.488  16.315  70.642  1.00  0.00    -0.377 OA 
ENDROOT
BRANCH   2   3
HETATM    3  C   UNL     1     -12.305  15.453  69.978  1.00  0.00    -0.336 C  
HETATM    4  O   UNL     1     -13.520  15.377  70.108  1.00  0.00     0.008 OA 
BRANCH   3   5
HETATM    5  C   UNL     1     -11.519  14.622  69.031  1.00  0.00    -0.317 A  
HETATM    6  C   UNL     1     -10.331  13.969  69.419  1.00  0.00     0.113 A  
HETATM    7  C   UNL     1      -9.584  13.215  68.502  1.00  0.00    -0.118 A  
HETATM    8  C   UNL     1     -10.022  13.115  67.192  1.00  0.00    -0.236 A  
HETATM    9  C   UNL     1     -11.204  13.770  66.825  1.00  0.00    -0.316 A  
HETATM   10  C   UNL     1     -11.971  14.508  67.710  1.00  0.00    -0.345 A  
HETATM   11  N   UNL     1     -11.471  13.578  65.478  1.00  0.00    -0.301 N  
HETATM   12  H   UNL     1     -12.277  13.971  64.992  1.00  0.00     0.000 HD 
HETATM   13  C   UNL     1     -10.506  12.786  64.872  1.00  0.00    -0.321 C  
HETATM   14  O   UNL     1     -10.526  12.417  63.713  1.00  0.00    -0.406 OA 
HETATM   15  C   UNL     1      -9.506  12.460  65.967  1.00  0.00    -0.168 C  
HETATM   16  C   UNL     1      -8.383  11.727  65.765  1.00  0.00     0.385 C  
BRANCH  16  17
HETATM   17  C   UNL     1      -7.497  11.417  66.907  1.00  0.00    -0.147 A  
HETATM   18  C   UNL     1      -5.729  10.747  68.968  1.00  0.00    -0.040 A  
HETATM   19  C   UNL     1      -6.427  12.267  67.220  1.00  0.00    -0.152 A  
HETATM   20  C   UNL     1      -7.686  10.245  67.652  1.00  0.00    -0.090 A  
HETATM   21  C   UNL     1      -5.544  11.927  68.246  1.00  0.00    -0.050 A  
HETATM   22  C   UNL     1      -6.803   9.909  68.677  1.00  0.00    -0.051 A  
ENDBRANCH  16  17
BRANCH  16  23
HETATM   23  N   UNL     1      -7.909  11.175  64.570  1.00  0.00    -0.036 NA 
HETATM   24  H   UNL     1      -7.775  11.774  63.754  1.00  0.00     0.000 HD 
BRANCH  23  25
HETATM   25  C   UNL     1      -7.610   9.785  64.480  1.00  0.00    -0.134 A  
HETATM   26  C   UNL     1      -6.961   7.008  64.629  1.00  0.00    -0.051 A  
HETATM   27  C   UNL     1      -8.604   8.813  64.475  1.00  0.00    -0.125 A  
HETATM   28  C   UNL     1      -6.293   9.356  64.341  1.00  0.00    -0.084 A  
HETATM   29  C   UNL     1      -8.284   7.456  64.566  1.00  0.00    -0.023 A  
HETATM   30  C   UNL     1      -5.975   7.989  64.417  1.00  0.00    -0.053 A  
BRANCH  26  31
HETATM   31  N   UNL     1      -6.629   5.630  64.950  1.00  0.00    -0.041 N  
HETATM   32  C   UNL     1      -6.189   5.323  66.313  1.00  0.00    -0.031 C  
HETATM   33  C   UNL     1      -6.792   4.576  64.020  1.00  0.00    -0.045 C  
HETATM   34  O   UNL     1      -7.111   4.714  62.833  1.00  0.00    -0.038 OA 
BRANCH  33  35
HETATM   35  C   UNL     1      -6.452   3.142  64.453  1.00  0.00    -0.031 C  
BRANCH  35  36
HETATM   36  N   UNL     1      -7.611   2.322  64.866  1.00  0.00    -0.067 NA 
HETATM   37  C   UNL     1      -8.745   3.097  65.417  1.00  0.00    -0.120 C  
HETATM   38  C   UNL     1      -9.700   3.778  64.397  1.00  0.00    -0.180 C  
HETATM   39  N   UNL     1     -10.073   2.972  63.215  1.00  0.00    -0.125 NA 
HETATM   40  C   UNL     1     -11.109   1.988  63.525  1.00  0.00    -0.062 C  
HETATM   41  C   UNL     1      -8.870   2.323  62.668  1.00  0.00    -0.074 C  
HETATM   42  C   UNL     1      -8.073   1.517  63.718  1.00  0.00    -0.061 C  
ENDBRANCH  35  36
ENDBRANCH  33  35
ENDBRANCH  26  31
ENDBRANCH  23  25
ENDBRANCH  16  23
ENDBRANCH   3   5
ENDBRANCH   2   3
TORSDOF 8
ENDMDL
MODEL       93
REMARK 921   NORMALIZED FREE ENERGY PREDICTED BY IDOCK:   -2.42 KCAL/MOL
REMARK 922        TOTAL FREE ENERGY PREDICTED BY IDOCK:   -5.08 KCAL/MOL
REMARK 923 INTER-LIGAND FREE ENERGY PREDICTED BY IDOCK:   -3.93 KCAL/MOL
REMARK 924 INTRA-LIGAND FREE ENERGY PREDICTED BY IDOCK:   -1.16 KCAL/MOL
REMARK 927      BINDING AFFINITY PREDICTED BY RF-SCORE:    0.00 PKD
ROOT
HETATM    1  C   UNL     1     -11.491  16.772  74.566  1.00  0.00     1.282 C  
HETATM    2  O   UNL     1     -12.333  16.177  73.579  1.00  0.00    -0.479 OA 
ENDROOT
BRANCH   2   3
HETATM    3  C   UNL     1     -11.976  16.444  72.294  1.00  0.00    -0.439 C  
HETATM    4  O   UNL     1     -11.742  17.555  71.834  1.00  0.00     1.291 OA 
BRANCH   3   5
HETATM    5  C   UNL     1     -11.872  15.186  71.513  1.00  0.00    -0.436 A  
HETATM    6  C   UNL     1     -11.271  15.145  70.238  1.00  0.00    -0.306 A  
HETATM    7  C   UNL     1     -11.210  13.953  69.501  1.00  0.00    -0.237 A  
HETATM    8  C   UNL     1     -11.755  12.798  70.037  1.00  0.00    -0.282 A  
HETATM    9  C   UNL     1     -12.346  12.858  71.305  1.00  0.00    -0.078 A  
HETATM   10  C   UNL     1     -12.407  14.014  72.063  1.00  0.00    -0.173 A  
HETATM   11  N   UNL     1     -12.855  11.618  71.665  1.00  0.00    -0.383 N  
HETATM   12  H   UNL     1     -13.336  11.430  72.544  1.00  0.00     0.000 HD 
HETATM   13  C   UNL     1     -12.628  10.666  70.682  1.00  0.00    -0.365 C  
HETATM   14  O   UNL     1     -12.920   9.488  70.764  1.00  0.00    -0.174 OA 
HETATM   15  C   UNL     1     -11.909  11.402  69.565  1.00  0.00    -0.426 C  
HETATM   16  C   UNL     1     -11.540  10.820  68.397  1.00  0.00    -0.239 C  
BRANCH  16  17
HETATM   17  C   UNL     1     -10.796  11.607  67.390  1.00  0.00    -0.298 A  
HETATM   18  C   UNL     1      -9.447  13.226  65.552  1.00  0.00     0.162 A  
HETATM   19  C   UNL     1      -9.482  12.021  67.650  1.00  0.00    -0.185 A  
HETATM   20  C   UNL     1     -11.416  11.990  66.193  1.00  0.00    -0.401 A  
HETATM   21  C   UNL     1      -8.814  12.833  66.732  1.00  0.00    -0.161 A  
HETATM   22  C   UNL     1     -10.745  12.800  65.279  1.00  0.00    -0.319 A  
ENDBRANCH  16  17
BRANCH  16  23
HETATM   23  N   UNL     1     -11.761   9.505  67.974  1.00  0.00     0.208 NA 
HETATM   24  H   UNL     1     -12.667   9.245  67.582  1.00  0.00     0.000 HD 
BRANCH  23  25
HETATM   25  C   UNL     1     -10.734   8.524  68.086  1.00  0.00    -0.042 A  
HETATM   26  C   UNL     1      -8.918   6.336  68.350  1.00  0.00    -0.116 A  
HETATM   27  C   UNL     1     -10.133   7.951  66.972  1.00  0.00    -0.347 A  
HETATM   28  C   UNL     1     -10.258   8.144  69.339  1.00  0.00    -0.211 A  
HETATM   29  C   UNL     1      -9.258   6.869  67.102  1.00  0.00    -0.153 A  
HETATM   30  C   UNL     1      -9.367   7.065  69.466  1.00  0.00    -0.148 A  
BRANCH  26  31
HETATM   31  N   UNL     1      -8.197   5.081  68.480  1.00  0.00    -0.085 N  
HETATM   32  C   UNL     1      -8.958   3.833  68.394  1.00  0.00    -0.125 C  
HETATM   33  C   UNL     1      -6.788   5.028  68.607  1.00  0.00    -0.052 C  
HETATM   34  O   UNL     1      -6.044   6.008  68.735  1.00  0.00    -0.028 OA 
BRANCH  33  35
HETATM   35  C   UNL     1      -6.102   3.657  68.702  1.00  0.00    -0.028 C  
BRANCH  35  36
HETATM   36  N   UNL     1      -5.205   3.326  67.575  1.00  0.00    -0.008 NA 
HETATM   37  C   UNL     1      -5.250   1.907  67.152  1.00  0.00    -0.008 C  
HETATM   38  C   UNL     1      -6.426   1.480  66.230  1.00  0.00    -0.023 C  
HETATM   39  N   UNL     1      -6.774   2.417  65.140  1.00  0.00    -0.038 NA 
HETATM   40  C   UNL     1      -5.852   2.313  64.010  1.00  0.00    -0.010 C  
HETATM   41  C   UNL     1      -6.811   3.789  65.671  1.00  0.00    -0.057 C  
HETATM   42  C   UNL     1      -5.524   4.195  66.425  1.00  0.00    -0.013 C  
ENDBRANCH  35  36
ENDBRANCH  33  35
ENDBRANCH  26  31
ENDBRANCH  23  25
ENDBRANCH  16  23
ENDBRANCH   3   5
ENDBRANCH   2   3
TORSDOF 8
ENDMDL
MODEL       94
REMARK 921   NORMALIZED FREE ENERGY PREDICTED BY IDOCK:   -2.29 KCAL/MOL
REMARK 922        TOTAL FREE ENERGY PREDICTED BY IDOCK:   -4.90 KCAL/MOL
REMARK 923 INTER-LIGAND FREE ENERGY PREDICTED BY IDOCK:   -6.67 KCAL/MOL
REMARK 924 INTRA-LIGAND FREE ENERGY PREDICTED BY IDOCK:    1.77 KCAL/MOL
REMARK 927      BINDING AFFINITY PREDICTED BY RF-SCORE:    0.00 PKD
ROOT
HETATM    1  C   UNL     1      -9.060  18.562  67.144  1.00  0.00    -0.277 C  
HETATM    2  O   UNL     1      -9.104  17.475  68.069  1.00  0.00    -0.255 OA 
ENDROOT
BRANCH   2   3
HETATM    3  C   UNL     1      -8.135  16.538  67.887  1.00  0.00    -0.163 C  
HETATM    4  O   UNL     1      -6.935  16.762  67.782  1.00  0.00    -0.128 OA 
BRANCH   3   5
HETATM    5  C   UNL     1      -8.729  15.178  67.864  1.00  0.00    -0.157 A  
HETATM    6  C   UNL     1      -9.520  14.690  68.925  1.00  0.00    -0.173 A  
HETATM    7  C   UNL     1     -10.046  13.390  68.901  1.00  0.00    -0.010 A  
HETATM    8  C   UNL     1      -9.779  12.572  67.815  1.00  0.00    -0.202 A  
HETATM    9  C   UNL     1      -8.993  13.074  66.771  1.00  0.00    -0.175 A  
HETATM   10  C   UNL     1      -8.473  14.357  66.758  1.00  0.00    -0.076 A  
HETATM   11  N   UNL     1      -8.814  12.111  65.788  1.00  0.00    -0.398 N  
HETATM   12  H   UNL     1      -8.269  12.254  64.938  1.00  0.00     0.000 HD 
HETATM   13  C   UNL     1      -9.469  10.929  66.103  1.00  0.00    -0.200 C  
HETATM   14  O   UNL     1      -9.522   9.944  65.392  1.00  0.00    -0.216 OA 
HETATM   15  C   UNL     1     -10.119  11.176  67.454  1.00  0.00    -0.213 C  
HETATM   16  C   UNL     1     -10.830  10.239  68.128  1.00  0.00    -0.265 C  
BRANCH  16  17
HETATM   17  C   UNL     1     -11.470  10.590  69.413  1.00  0.00    -0.329 A  
HETATM   18  C   UNL     1     -12.806  11.169  71.801  1.00  0.00    -0.479 A  
HETATM   19  C   UNL     1     -11.271   9.786  70.543  1.00  0.00    -0.381 A  
HETATM   20  C   UNL     1     -12.323  11.698  69.499  1.00  0.00    -0.152 A  
HETATM   21  C   UNL     1     -11.943  10.075  71.732  1.00  0.00    -0.254 A  
HETATM   22  C   UNL     1     -12.992  11.985  70.687  1.00  0.00     0.106 A  
ENDBRANCH  16  17
BRANCH  16  23
HETATM   23  N   UNL     1     -11.075   8.908  67.768  1.00  0.00    -0.445 NA 
HETATM   24  H   UNL     1     -11.597   8.703  66.915  1.00  0.00     0.000 HD 
BRANCH  23  25
HETATM   25  C   UNL     1     -10.603   7.838  68.581  1.00  0.00    -0.120 A  
HETATM   26  C   UNL     1      -9.627   5.916  70.455  1.00  0.00    -0.168 A  
HETATM   27  C   UNL     1     -11.466   6.963  69.228  1.00  0.00    -0.070 A  
HETATM   28  C   UNL     1      -9.236   7.603  68.710  1.00  0.00    -0.142 A  
HETATM   29  C   UNL     1     -10.989   6.035  70.158  1.00  0.00    -0.429 A  
HETATM   30  C   UNL     1      -8.758   6.659  69.634  1.00  0.00    -0.140 A  
BRANCH  26  31
HETATM   31  N   UNL     1      -9.150   5.122  71.573  1.00  0.00    -0.143 N  
HETATM   32  C   UNL     1      -9.899   3.918  71.938  1.00  0.00    -0.178 C  
HETATM   33  C   UNL     1      -7.952   5.429  72.263  1.00  0.00    -0.107 C  
HETATM   34  O   UNL     1      -7.260   6.437  72.079  1.00  0.00    -0.087 OA 
BRANCH  33  35
HETATM   35  C   UNL     1      -7.500   4.514  73.412  1.00  0.00    -0.082 C  
BRANCH  35  36
HETATM   36  N   UNL     1      -6.362   3.626  73.094  1.00  0.00    -0.022 NA 
HETATM   37  C   UNL     1      -6.718   2.193  72.979  1.00  0.00    -0.022 C  
HETATM   38  C   UNL     1      -7.347   1.725  71.637  1.00  0.00    -0.035 C  
HETATM   39  N   UNL     1      -6.735   2.267  70.405  1.00  0.00    -0.032 NA 
HETATM   40  C   UNL     1      -5.492   1.579  70.060  1.00  0.00    -0.012 C  
HETATM   41  C   UNL     1      -6.515   3.713  70.567  1.00  0.00    -0.031 C  
HETATM   42  C   UNL     1      -5.724   4.079  71.843  1.00  0.00    -0.008 C  
ENDBRANCH  35  36
ENDBRANCH  33  35
ENDBRANCH  26  31
ENDBRANCH  23  25
ENDBRANCH  16  23
ENDBRANCH   3   5
ENDBRANCH   2   3
TORSDOF 8
ENDMDL
MODEL       95
REMARK 921   NORMALIZED FREE ENERGY PREDICTED BY IDOCK:   -2.27 KCAL/MOL
REMARK 922        TOTAL FREE ENERGY PREDICTED BY IDOCK:   -4.87 KCAL/MOL
REMARK 923 INTER-LIGAND FREE ENERGY PREDICTED BY IDOCK:   -3.49 KCAL/MOL
REMARK 924 INTRA-LIGAND FREE ENERGY PREDICTED BY IDOCK:   -1.38 KCAL/MOL
REMARK 927      BINDING AFFINITY PREDICTED BY RF-SCORE:    0.00 PKD
ROOT
HETATM    1  C   UNL     1     -10.510   1.797  71.945  1.00  0.00     0.075 C  
HETATM    2  O   UNL     1     -11.145   2.861  72.655  1.00  0.00     0.100 OA 
ENDROOT
BRANCH   2   3
HETATM    3  C   UNL     1     -10.296   3.662  73.353  1.00  0.00    -0.159 C  
HETATM    4  O   UNL     1     -10.075   3.593  74.555  1.00  0.00    -0.142 OA 
BRANCH   3   5
HETATM    5  C   UNL     1      -9.632   4.629  72.442  1.00  0.00    -0.192 A  
HETATM    6  C   UNL     1     -10.201   5.003  71.207  1.00  0.00    -0.273 A  
HETATM    7  C   UNL     1      -9.544   5.893  70.345  1.00  0.00    -0.204 A  
HETATM    8  C   UNL     1      -8.314   6.409  70.715  1.00  0.00    -0.126 A  
HETATM    9  C   UNL     1      -7.765   6.027  71.945  1.00  0.00    -0.098 A  
HETATM   10  C   UNL     1      -8.395   5.164  72.824  1.00  0.00    -0.113 A  
HETATM   11  N   UNL     1      -6.526   6.622  72.133  1.00  0.00    -0.053 N  
HETATM   12  H   UNL     1      -5.941   6.479  72.956  1.00  0.00     0.000 HD 
HETATM   13  C   UNL     1      -6.180   7.435  71.063  1.00  0.00    -0.036 C  
HETATM   14  O   UNL     1      -5.175   8.116  70.994  1.00  0.00    -0.026 OA 
HETATM   15  C   UNL     1      -7.332   7.319  70.079  1.00  0.00    -0.083 C  
HETATM   16  C   UNL     1      -7.358   7.944  68.876  1.00  0.00    -0.085 C  
BRANCH  16  17
HETATM   17  C   UNL     1      -8.548   7.813  68.009  1.00  0.00    -0.123 A  
HETATM   18  C   UNL     1     -10.720   7.640  66.256  1.00  0.00     0.977 A  
HETATM   19  C   UNL     1      -8.705   6.684  67.194  1.00  0.00    -0.111 A  
HETATM   20  C   UNL     1      -9.501   8.839  67.956  1.00  0.00    -0.158 A  
HETATM   21  C   UNL     1      -9.789   6.603  66.317  1.00  0.00    -0.016 A  
HETATM   22  C   UNL     1     -10.581   8.755  67.080  1.00  0.00    -0.303 A  
ENDBRANCH  16  17
BRANCH  16  23
HETATM   23  N   UNL     1      -6.374   8.752  68.295  1.00  0.00    -0.054 NA 
HETATM   24  H   UNL     1      -5.652   8.328  67.711  1.00  0.00     0.000 HD 
BRANCH  23  25
HETATM   25  C   UNL     1      -6.370  10.160  68.511  1.00  0.00    -0.048 A  
HETATM   26  C   UNL     1      -6.538  13.007  68.661  1.00  0.00    -0.092 A  
HETATM   27  C   UNL     1      -7.287  10.782  69.349  1.00  0.00    -0.128 A  
HETATM   28  C   UNL     1      -5.397  10.960  67.917  1.00  0.00    -0.039 A  
HETATM   29  C   UNL     1      -7.379  12.176  69.408  1.00  0.00     0.253 A  
HETATM   30  C   UNL     1      -5.483  12.361  67.990  1.00  0.00    -0.073 A  
BRANCH  26  31
HETATM   31  N   UNL     1      -6.774  14.435  68.543  1.00  0.00    -0.090 N  
HETATM   32  C   UNL     1      -7.764  14.896  67.566  1.00  0.00    -0.192 C  
HETATM   33  C   UNL     1      -6.143  15.380  69.388  1.00  0.00    -0.120 C  
HETATM   34  O   UNL     1      -5.261  15.121  70.216  1.00  0.00    -0.108 OA 
BRANCH  33  35
HETATM   35  C   UNL     1      -6.478  16.869  69.220  1.00  0.00    -0.228 C  
BRANCH  35  36
HETATM   36  N   UNL     1      -5.356  17.715  68.760  1.00  0.00    -0.154 NA 
HETATM   37  C   UNL     1      -5.302  17.917  67.294  1.00  0.00    -0.131 C  
HETATM   38  C   UNL     1      -6.248  18.993  66.692  1.00  0.00    -0.181 C  
HETATM   39  N   UNL     1      -6.356  20.261  67.444  1.00  0.00    -0.200 NA 
HETATM   40  C   UNL     1      -5.210  21.139  67.209  1.00  0.00    -0.239 C  
HETATM   41  C   UNL     1      -6.513  19.966  68.877  1.00  0.00    -0.312 C  
HETATM   42  C   UNL     1      -5.423  19.025  69.437  1.00  0.00    -0.200 C  
ENDBRANCH  35  36
ENDBRANCH  33  35
ENDBRANCH  26  31
ENDBRANCH  23  25
ENDBRANCH  16  23
ENDBRANCH   3   5
ENDBRANCH   2   3
TORSDOF 8
ENDMDL
MODEL       96
REMARK 921   NORMALIZED FREE ENERGY PREDICTED BY IDOCK:   -2.24 KCAL/MOL
REMARK 922        TOTAL FREE ENERGY PREDICTED BY IDOCK:   -4.83 KCAL/MOL
REMARK 923 INTER-LIGAND FREE ENERGY PREDICTED BY IDOCK:   -5.83 KCAL/MOL
REMARK 924 INTRA-LIGAND FREE ENERGY PREDICTED BY IDOCK:    1.00 KCAL/MOL
REMARK 927      BINDING AFFINITY PREDICTED BY RF-SCORE:    0.00 PKD
ROOT
HETATM    1  C   UNL     1     -11.576   4.638  73.157  1.00  0.00    -0.165 C  
HETATM    2  O   UNL     1     -10.782   3.861  74.053  1.00  0.00    -0.202 OA 
ENDROOT
BRANCH   2   3
HETATM    3  C   UNL     1      -9.489   3.695  73.664  1.00  0.00    -0.099 C  
HETATM    4  O   UNL     1      -8.692   2.903  74.153  1.00  0.00    -0.075 OA 
BRANCH   3   5
HETATM    5  C   UNL     1      -9.173   4.593  72.525  1.00  0.00    -0.147 A  
HETATM    6  C   UNL     1      -9.134   4.127  71.195  1.00  0.00    -0.183 A  
HETATM    7  C   UNL     1      -8.801   4.983  70.134  1.00  0.00    -0.138 A  
HETATM    8  C   UNL     1      -8.503   6.308  70.404  1.00  0.00    -0.134 A  
HETATM    9  C   UNL     1      -8.547   6.753  71.730  1.00  0.00    -0.121 A  
HETATM   10  C   UNL     1      -8.887   5.937  72.796  1.00  0.00    -0.124 A  
HETATM   11  N   UNL     1      -8.198   8.093  71.808  1.00  0.00    -0.118 N  
HETATM   12  H   UNL     1      -8.155   8.625  72.678  1.00  0.00     0.000 HD 
HETATM   13  C   UNL     1      -7.914   8.623  70.558  1.00  0.00    -0.106 C  
HETATM   14  O   UNL     1      -7.635   9.785  70.333  1.00  0.00    -0.159 OA 
HETATM   15  C   UNL     1      -8.088   7.471  69.583  1.00  0.00    -0.127 C  
HETATM   16  C   UNL     1      -7.865   7.574  68.250  1.00  0.00    -0.122 C  
BRANCH  16  17
HETATM   17  C   UNL     1      -8.113   6.409  67.373  1.00  0.00    -0.116 A  
HETATM   18  C   UNL     1      -8.563   4.301  65.592  1.00  0.00    -0.118 A  
HETATM   19  C   UNL     1      -7.047   5.598  66.960  1.00  0.00    -0.070 A  
HETATM   20  C   UNL     1      -9.406   6.138  66.907  1.00  0.00    -0.143 A  
HETATM   21  C   UNL     1      -7.275   4.550  66.067  1.00  0.00    -0.076 A  
HETATM   22  C   UNL     1      -9.630   5.090  66.016  1.00  0.00    -0.179 A  
ENDBRANCH  16  17
BRANCH  16  23
HETATM   23  N   UNL     1      -7.417   8.686  67.527  1.00  0.00    -0.089 NA 
HETATM   24  H   UNL     1      -6.515   8.649  67.050  1.00  0.00     0.000 HD 
BRANCH  23  25
HETATM   25  C   UNL     1      -8.207   9.869  67.452  1.00  0.00    -0.118 A  
HETATM   26  C   UNL     1      -9.914  12.154  67.597  1.00  0.00    -0.197 A  
HETATM   27  C   UNL     1      -7.710  11.115  67.815  1.00  0.00    -0.112 A  
HETATM   28  C   UNL     1      -9.507   9.816  66.955  1.00  0.00    -0.202 A  
HETATM   29  C   UNL     1      -8.551  12.228  67.902  1.00  0.00    -0.169 A  
HETATM   30  C   UNL     1     -10.346  10.941  67.030  1.00  0.00    -0.276 A  
BRANCH  26  31
HETATM   31  N   UNL     1     -10.831  13.239  67.902  1.00  0.00    -0.238 N  
HETATM   32  C   UNL     1     -10.774  14.447  67.075  1.00  0.00    -0.285 C  
HETATM   33  C   UNL     1     -11.819  13.134  68.910  1.00  0.00    -0.320 C  
HETATM   34  O   UNL     1     -11.937  12.189  69.700  1.00  0.00    -0.305 OA 
BRANCH  33  35
HETATM   35  C   UNL     1     -12.773  14.316  69.142  1.00  0.00     0.483 C  
BRANCH  35  36
HETATM   36  N   UNL     1     -12.386  15.227  70.240  1.00  0.00    -0.355 NA 
HETATM   37  C   UNL     1     -13.527  15.817  70.977  1.00  0.00     0.044 C  
HETATM   38  C   UNL     1     -14.202  14.933  72.062  1.00  0.00    -0.546 C  
HETATM   39  N   UNL     1     -13.292  14.160  72.934  1.00  0.00    -0.644 NA 
HETATM   40  C   UNL     1     -12.697  14.989  73.982  1.00  0.00    -0.282 C  
HETATM   41  C   UNL     1     -12.253  13.522  72.109  1.00  0.00     0.544 C  
HETATM   42  C   UNL     1     -11.507  14.509  71.183  1.00  0.00    -0.043 C  
ENDBRANCH  35  36
ENDBRANCH  33  35
ENDBRANCH  26  31
ENDBRANCH  23  25
ENDBRANCH  16  23
ENDBRANCH   3   5
ENDBRANCH   2   3
TORSDOF 8
ENDMDL
MODEL       97
REMARK 921   NORMALIZED FREE ENERGY PREDICTED BY IDOCK:   -1.83 KCAL/MOL
REMARK 922        TOTAL FREE ENERGY PREDICTED BY IDOCK:   -4.22 KCAL/MOL
REMARK 923 INTER-LIGAND FREE ENERGY PREDICTED BY IDOCK:   -3.48 KCAL/MOL
REMARK 924 INTRA-LIGAND FREE ENERGY PREDICTED BY IDOCK:   -0.75 KCAL/MOL
REMARK 927      BINDING AFFINITY PREDICTED BY RF-SCORE:    0.00 PKD
ROOT
HETATM    1  C   UNL     1     -13.673  15.492  64.557  1.00  0.00     2.980 C  
HETATM    2  O   UNL     1     -12.961  14.407  65.152  1.00  0.00    -0.631 OA 
ENDROOT
BRANCH   2   3
HETATM    3  C   UNL     1     -11.661  14.678  65.448  1.00  0.00    -0.330 C  
HETATM    4  O   UNL     1     -11.014  15.626  65.020  1.00  0.00    -0.406 OA 
BRANCH   3   5
HETATM    5  C   UNL     1     -11.128  13.675  66.403  1.00  0.00    -0.307 A  
HETATM    6  C   UNL     1      -9.748  13.405  66.511  1.00  0.00    -0.284 A  
HETATM    7  C   UNL     1      -9.265  12.429  67.396  1.00  0.00    -0.184 A  
HETATM    8  C   UNL     1     -10.164  11.718  68.173  1.00  0.00    -0.210 A  
HETATM    9  C   UNL     1     -11.530  12.000  68.054  1.00  0.00    -0.328 A  
HETATM   10  C   UNL     1     -12.036  12.967  67.202  1.00  0.00    -0.374 A  
HETATM   11  N   UNL     1     -12.273  11.178  68.887  1.00  0.00    -0.339 N  
HETATM   12  H   UNL     1     -13.291  11.203  68.958  1.00  0.00     0.000 HD 
HETATM   13  C   UNL     1     -11.463  10.317  69.613  1.00  0.00    -0.235 C  
HETATM   14  O   UNL     1     -11.851   9.531  70.457  1.00  0.00    -0.256 OA 
HETATM   15  C   UNL     1     -10.045  10.624  69.166  1.00  0.00    -0.234 C  
HETATM   16  C   UNL     1      -8.953   9.963  69.623  1.00  0.00    -0.216 C  
BRANCH  16  17
HETATM   17  C   UNL     1      -7.606  10.370  69.167  1.00  0.00    -0.117 A  
HETATM   18  C   UNL     1      -5.128  11.260  68.227  1.00  0.00    -0.039 A  
HETATM   19  C   UNL     1      -6.842  11.260  69.934  1.00  0.00    -0.017 A  
HETATM   20  C   UNL     1      -7.106   9.912  67.941  1.00  0.00    -0.086 A  
HETATM   21  C   UNL     1      -5.607  11.706  69.459  1.00  0.00    -0.065 A  
HETATM   22  C   UNL     1      -5.873  10.358  67.471  1.00  0.00    -0.045 A  
ENDBRANCH  16  17
BRANCH  16  23
HETATM   23  N   UNL     1      -8.899   8.892  70.523  1.00  0.00    -0.172 NA 
HETATM   24  H   UNL     1      -9.058   9.059  71.517  1.00  0.00     0.000 HD 
BRANCH  23  25
HETATM   25  C   UNL     1      -8.623   7.572  70.064  1.00  0.00    -0.139 A  
HETATM   26  C   UNL     1      -7.977   5.065  68.858  1.00  0.00    -0.081 A  
HETATM   27  C   UNL     1      -7.427   6.924  70.350  1.00  0.00    -0.086 A  
HETATM   28  C   UNL     1      -9.582   6.861  69.348  1.00  0.00    -0.147 A  
HETATM   29  C   UNL     1      -7.106   5.706  69.744  1.00  0.00    -0.064 A  
HETATM   30  C   UNL     1      -9.261   5.629  68.753  1.00  0.00    -0.133 A  
BRANCH  26  31
HETATM   31  N   UNL     1      -7.561   3.927  68.057  1.00  0.00    -0.066 N  
HETATM   32  C   UNL     1      -6.179   3.888  67.572  1.00  0.00    -0.036 C  
HETATM   33  C   UNL     1      -8.416   2.829  67.801  1.00  0.00    -0.086 C  
HETATM   34  O   UNL     1      -9.611   2.765  68.116  1.00  0.00    -0.196 OA 
BRANCH  33  35
HETATM   35  C   UNL     1      -7.884   1.648  66.975  1.00  0.00    -0.065 C  
BRANCH  35  36
HETATM   36  N   UNL     1      -8.364   1.594  65.577  1.00  0.00    -0.083 NA 
HETATM   37  C   UNL     1      -9.486   2.514  65.279  1.00  0.00     0.009 C  
HETATM   38  C   UNL     1      -9.129   4.002  65.009  1.00  0.00    -0.140 C  
HETATM   39  N   UNL     1      -7.944   4.245  64.159  1.00  0.00    -0.088 NA 
HETATM   40  C   UNL     1      -8.238   4.060  62.739  1.00  0.00    -0.081 C  
HETATM   41  C   UNL     1      -6.845   3.367  64.593  1.00  0.00    -0.048 C  
HETATM   42  C   UNL     1      -7.239   1.874  64.664  1.00  0.00    -0.053 C  
ENDBRANCH  35  36
ENDBRANCH  33  35
ENDBRANCH  26  31
ENDBRANCH  23  25
ENDBRANCH  16  23
ENDBRANCH   3   5
ENDBRANCH   2   3
TORSDOF 8
ENDMDL
MODEL       98
REMARK 921   NORMALIZED FREE ENERGY PREDICTED BY IDOCK:   -1.76 KCAL/MOL
REMARK 922        TOTAL FREE ENERGY PREDICTED BY IDOCK:   -4.12 KCAL/MOL
REMARK 923 INTER-LIGAND FREE ENERGY PREDICTED BY IDOCK:   -4.05 KCAL/MOL
REMARK 924 INTRA-LIGAND FREE ENERGY PREDICTED BY IDOCK:   -0.06 KCAL/MOL
REMARK 927      BINDING AFFINITY PREDICTED BY RF-SCORE:    0.00 PKD
ROOT
HETATM    1  C   UNL     1     -11.588  16.541  74.073  1.00  0.00     0.621 C  
HETATM    2  O   UNL     1     -12.405  15.925  73.077  1.00  0.00    -0.407 OA 
ENDROOT
BRANCH   2   3
HETATM    3  C   UNL     1     -11.970  16.105  71.800  1.00  0.00    -0.489 C  
HETATM    4  O   UNL     1     -11.709  17.182  71.279  1.00  0.00     0.723 OA 
BRANCH   3   5
HETATM    5  C   UNL     1     -11.820  14.796  71.117  1.00  0.00    -0.387 A  
HETATM    6  C   UNL     1     -11.298  14.690  69.811  1.00  0.00    -0.315 A  
HETATM    7  C   UNL     1     -11.193  13.448  69.168  1.00  0.00    -0.300 A  
HETATM    8  C   UNL     1     -11.613  12.307  69.830  1.00  0.00    -0.278 A  
HETATM    9  C   UNL     1     -12.128  12.430  71.126  1.00  0.00     0.225 A  
HETATM   10  C   UNL     1     -12.229  13.639  71.793  1.00  0.00     0.074 A  
HETATM   11  N   UNL     1     -12.517  11.193  71.617  1.00  0.00    -0.241 N  
HETATM   12  H   UNL     1     -12.927  11.046  72.540  1.00  0.00     0.000 HD 
HETATM   13  C   UNL     1     -12.280  10.179  70.700  1.00  0.00    -0.302 C  
HETATM   14  O   UNL     1     -12.476   8.995  70.895  1.00  0.00    -0.216 OA 
HETATM   15  C   UNL     1     -11.690  10.868  69.482  1.00  0.00    -0.400 C  
HETATM   16  C   UNL     1     -11.352  10.218  68.341  1.00  0.00    -0.178 C  
BRANCH  16  17
HETATM   17  C   UNL     1     -10.734  10.968  67.227  1.00  0.00    -0.312 A  
HETATM   18  C   UNL     1      -9.596  12.519  65.197  1.00  0.00     0.062 A  
HETATM   19  C   UNL     1      -9.360  11.243  67.239  1.00  0.00    -0.173 A  
HETATM   20  C   UNL     1     -11.524  11.454  66.177  1.00  0.00    -0.002 A  
HETATM   21  C   UNL     1      -8.796  12.022  66.227  1.00  0.00    -0.075 A  
HETATM   22  C   UNL     1     -10.959  12.230  65.168  1.00  0.00    -0.344 A  
ENDBRANCH  16  17
BRANCH  16  23
HETATM   23  N   UNL     1     -11.498   8.859  68.040  1.00  0.00     0.247 NA 
HETATM   24  H   UNL     1     -12.430   8.446  68.004  1.00  0.00     0.000 HD 
BRANCH  23  25
HETATM   25  C   UNL     1     -10.356   8.046  67.783  1.00  0.00    -0.231 A  
HETATM   26  C   UNL     1      -8.247   6.162  67.385  1.00  0.00    -0.109 A  
HETATM   27  C   UNL     1     -10.091   7.520  66.524  1.00  0.00    -0.194 A  
HETATM   28  C   UNL     1      -9.430   7.794  68.792  1.00  0.00    -0.149 A  
HETATM   29  C   UNL     1      -9.069   6.585  66.336  1.00  0.00    -0.172 A  
HETATM   30  C   UNL     1      -8.395   6.865  68.595  1.00  0.00    -0.121 A  
BRANCH  26  31
HETATM   31  N   UNL     1      -7.342   5.034  67.248  1.00  0.00    -0.081 N  
HETATM   32  C   UNL     1      -5.942   5.216  67.639  1.00  0.00    -0.022 C  
HETATM   33  C   UNL     1      -7.784   3.756  66.827  1.00  0.00    -0.084 C  
HETATM   34  O   UNL     1      -8.924   3.490  66.429  1.00  0.00    -0.129 OA 
BRANCH  33  35
HETATM   35  C   UNL     1      -6.767   2.608  66.744  1.00  0.00    -0.040 C  
BRANCH  35  36
HETATM   36  N   UNL     1      -6.792   1.666  67.883  1.00  0.00    -0.032 NA 
HETATM   37  C   UNL     1      -5.694   1.854  68.858  1.00  0.00    -0.022 C  
HETATM   38  C   UNL     1      -5.863   2.990  69.905  1.00  0.00    -0.019 C  
HETATM   39  N   UNL     1      -7.203   3.121  70.515  1.00  0.00    -0.037 NA 
HETATM   40  C   UNL     1      -7.431   2.125  71.562  1.00  0.00    -0.040 C  
HETATM   41  C   UNL     1      -8.228   3.029  69.463  1.00  0.00    -0.051 C  
HETATM   42  C   UNL     1      -8.091   1.772  68.576  1.00  0.00    -0.055 C  
ENDBRANCH  35  36
ENDBRANCH  33  35
ENDBRANCH  26  31
ENDBRANCH  23  25
ENDBRANCH  16  23
ENDBRANCH   3   5
ENDBRANCH   2   3
TORSDOF 8
ENDMDL
MODEL       99
REMARK 921   NORMALIZED FREE ENERGY PREDICTED BY IDOCK:   -1.64 KCAL/MOL
REMARK 922        TOTAL FREE ENERGY PREDICTED BY IDOCK:   -3.95 KCAL/MOL
REMARK 923 INTER-LIGAND FREE ENERGY PREDICTED BY IDOCK:   -4.21 KCAL/MOL
REMARK 924 INTRA-LIGAND FREE ENERGY PREDICTED BY IDOCK:    0.26 KCAL/MOL
REMARK 927      BINDING AFFINITY PREDICTED BY RF-SCORE:    0.00 PKD
ROOT
HETATM    1  C   UNL     1      -9.832   1.539  62.375  1.00  0.00    -0.087 C  
HETATM    2  O   UNL     1      -9.773   2.961  62.480  1.00  0.00    -0.092 OA 
ENDROOT
BRANCH   2   3
HETATM    3  C   UNL     1     -10.435   3.477  63.550  1.00  0.00    -0.251 C  
HETATM    4  O   UNL     1     -11.535   3.116  63.951  1.00  0.00    -0.026 OA 
BRANCH   3   5
HETATM    5  C   UNL     1      -9.621   4.534  64.201  1.00  0.00     0.001 A  
HETATM    6  C   UNL     1      -8.759   5.373  63.465  1.00  0.00     0.070 A  
HETATM    7  C   UNL     1      -7.973   6.345  64.101  1.00  0.00    -0.096 A  
HETATM    8  C   UNL     1      -8.045   6.478  65.478  1.00  0.00    -0.127 A  
HETATM    9  C   UNL     1      -8.907   5.637  66.192  1.00  0.00    -0.142 A  
HETATM   10  C   UNL     1      -9.707   4.680  65.592  1.00  0.00    -0.202 A  
HETATM   11  N   UNL     1      -8.828   5.898  67.552  1.00  0.00    -0.107 N  
HETATM   12  H   UNL     1      -9.363   5.399  68.263  1.00  0.00     0.000 HD 
HETATM   13  C   UNL     1      -7.932   6.920  67.827  1.00  0.00    -0.114 C  
HETATM   14  O   UNL     1      -7.712   7.386  68.929  1.00  0.00    -0.110 OA 
HETATM   15  C   UNL     1      -7.368   7.336  66.479  1.00  0.00    -0.080 C  
HETATM   16  C   UNL     1      -6.423   8.295  66.323  1.00  0.00    -0.047 C  
BRANCH  16  17
HETATM   17  C   UNL     1      -5.974   8.667  64.964  1.00  0.00    -0.055 A  
HETATM   18  C   UNL     1      -5.276   9.357  62.346  1.00  0.00    -0.083 A  
HETATM   19  C   UNL     1      -5.938  10.014  64.578  1.00  0.00    -0.120 A  
HETATM   20  C   UNL     1      -5.634   7.675  64.035  1.00  0.00    -0.041 A  
HETATM   21  C   UNL     1      -5.593  10.354  63.269  1.00  0.00    -0.154 A  
HETATM   22  C   UNL     1      -5.290   8.018  62.729  1.00  0.00    -0.059 A  
ENDBRANCH  16  17
BRANCH  16  23
HETATM   23  N   UNL     1      -5.770   9.041  67.312  1.00  0.00    -0.042 NA 
HETATM   24  H   UNL     1      -4.966   8.643  67.797  1.00  0.00     0.000 HD 
BRANCH  23  25
HETATM   25  C   UNL     1      -6.220  10.351  67.647  1.00  0.00    -0.056 A  
HETATM   26  C   UNL     1      -7.170  13.022  67.993  1.00  0.00    -0.119 A  
HETATM   27  C   UNL     1      -7.519  10.602  68.071  1.00  0.00    -0.090 A  
HETATM   28  C   UNL     1      -5.338  11.428  67.607  1.00  0.00    -0.050 A  
HETATM   29  C   UNL     1      -7.986  11.910  68.223  1.00  0.00    -0.148 A  
HETATM   30  C   UNL     1      -5.809  12.742  67.775  1.00  0.00    -0.134 A  
BRANCH  26  31
HETATM   31  N   UNL     1      -7.706  14.370  67.927  1.00  0.00    -0.131 N  
HETATM   32  C   UNL     1      -8.176  14.867  66.632  1.00  0.00     0.072 C  
HETATM   33  C   UNL     1      -7.859  15.181  69.078  1.00  0.00    -0.181 C  
HETATM   34  O   UNL     1      -7.461  14.892  70.213  1.00  0.00     0.087 OA 
BRANCH  33  35
HETATM   35  C   UNL     1      -8.469  16.582  68.925  1.00  0.00    -0.235 C  
BRANCH  35  36
HETATM   36  N   UNL     1      -7.617  17.562  68.217  1.00  0.00    -0.231 NA 
HETATM   37  C   UNL     1      -8.035  18.972  68.387  1.00  0.00    -0.340 C  
HETATM   38  C   UNL     1      -7.611  19.683  69.702  1.00  0.00     0.117 C  
HETATM   39  N   UNL     1      -6.229  19.432  70.163  1.00  0.00    -0.234 NA 
HETATM   40  C   UNL     1      -5.249  20.225  69.421  1.00  0.00    -0.225 C  
HETATM   41  C   UNL     1      -5.934  17.993  70.060  1.00  0.00    -0.169 C  
HETATM   42  C   UNL     1      -6.219  17.403  68.660  1.00  0.00    -0.175 C  
ENDBRANCH  35  36
ENDBRANCH  33  35
ENDBRANCH  26  31
ENDBRANCH  23  25
ENDBRANCH  16  23
ENDBRANCH   3   5
ENDBRANCH   2   3
TORSDOF 8
ENDMDL
MODEL      100
REMARK 921   NORMALIZED FREE ENERGY PREDICTED BY IDOCK:   -1.63 KCAL/MOL
REMARK 922        TOTAL FREE ENERGY PREDICTED BY IDOCK:   -3.93 KCAL/MOL
REMARK 923 INTER-LIGAND FREE ENERGY PREDICTED BY IDOCK:   -3.35 KCAL/MOL
REMARK 924 INTRA-LIGAND FREE ENERGY PREDICTED BY IDOCK:   -0.58 KCAL/MOL
REMARK 927      BINDING AFFINITY PREDICTED BY RF-SCORE:    0.00 PKD
ROOT
HETATM    1  C   UNL     1      -9.893   1.814  62.618  1.00  0.00    -0.089 C  
HETATM    2  O   UNL     1     -10.159   3.182  62.927  1.00  0.00    -0.104 OA 
ENDROOT
BRANCH   2   3
HETATM    3  C   UNL     1     -10.630   3.397  64.185  1.00  0.00    -0.159 C  
HETATM    4  O   UNL     1     -11.618   2.867  64.678  1.00  0.00     1.244 OA 
BRANCH   3   5
HETATM    5  C   UNL     1      -9.752   4.350  64.910  1.00  0.00    -0.154 A  
HETATM    6  C   UNL     1      -9.127   5.433  64.258  1.00  0.00     0.271 A  
HETATM    7  C   UNL     1      -8.275   6.305  64.951  1.00  0.00    -0.119 A  
HETATM    8  C   UNL     1      -8.044   6.094  66.301  1.00  0.00    -0.113 A  
HETATM    9  C   UNL     1      -8.674   5.014  66.931  1.00  0.00    -0.107 A  
HETATM   10  C   UNL     1      -9.532   4.146  66.278  1.00  0.00    -0.193 A  
HETATM   11  N   UNL     1      -8.307   4.947  68.267  1.00  0.00    -0.092 N  
HETATM   12  H   UNL     1      -8.640   4.235  68.918  1.00  0.00     0.000 HD 
HETATM   13  C   UNL     1      -7.432   5.967  68.611  1.00  0.00    -0.087 C  
HETATM   14  O   UNL     1      -6.999   6.175  69.728  1.00  0.00    -0.065 OA 
HETATM   15  C   UNL     1      -7.210   6.756  67.331  1.00  0.00    -0.090 C  
HETATM   16  C   UNL     1      -6.381   7.825  67.242  1.00  0.00    -0.055 C  
BRANCH  16  17
HETATM   17  C   UNL     1      -6.271   8.561  65.964  1.00  0.00    -0.052 A  
HETATM   18  C   UNL     1      -6.150   9.840  63.481  1.00  0.00    -0.113 A  
HETATM   19  C   UNL     1      -7.221   9.535  65.629  1.00  0.00    -0.094 A  
HETATM   20  C   UNL     1      -5.249   8.254  65.057  1.00  0.00    -0.035 A  
HETATM   21  C   UNL     1      -7.160  10.169  64.386  1.00  0.00    -0.111 A  
HETATM   22  C   UNL     1      -5.191   8.889  63.818  1.00  0.00    -0.061 A  
ENDBRANCH  16  17
BRANCH  16  23
HETATM   23  N   UNL     1      -5.568   8.379  68.237  1.00  0.00    -0.034 NA 
HETATM   24  H   UNL     1      -4.879   7.794  68.711  1.00  0.00     0.000 HD 
BRANCH  23  25
HETATM   25  C   UNL     1      -5.692   9.753  68.594  1.00  0.00    -0.039 A  
HETATM   26  C   UNL     1      -6.254  12.488  69.195  1.00  0.00    -0.094 A  
HETATM   27  C   UNL     1      -5.989  10.157  69.889  1.00  0.00    -0.052 A  
HETATM   28  C   UNL     1      -5.465  10.749  67.647  1.00  0.00    -0.043 A  
HETATM   29  C   UNL     1      -6.281  11.493  70.178  1.00  0.00    -0.132 A  
HETATM   30  C   UNL     1      -5.744  12.094  67.945  1.00  0.00    -0.069 A  
BRANCH  26  31
HETATM   31  N   UNL     1      -6.772  13.823  69.437  1.00  0.00    -0.105 N  
HETATM   32  C   UNL     1      -6.227  14.585  70.563  1.00  0.00    -0.165 C  
HETATM   33  C   UNL     1      -7.721  14.433  68.581  1.00  0.00    -0.138 C  
HETATM   34  O   UNL     1      -8.286  13.879  67.630  1.00  0.00    -0.150 OA 
BRANCH  33  35
HETATM   35  C   UNL     1      -8.188  15.863  68.889  1.00  0.00    -0.213 C  
BRANCH  35  36
HETATM   36  N   UNL     1      -7.305  16.934  68.380  1.00  0.00    -0.192 NA 
HETATM   37  C   UNL     1      -6.944  16.802  66.950  1.00  0.00    -0.222 C  
HETATM   38  C   UNL     1      -7.989  17.286  65.907  1.00  0.00    -0.007 C  
HETATM   39  N   UNL     1      -8.673  18.561  66.213  1.00  0.00    -0.447 NA 
HETATM   40  C   UNL     1      -7.836  19.721  65.909  1.00  0.00    -0.301 C  
HETATM   41  C   UNL     1      -9.092  18.563  67.624  1.00  0.00    -0.281 C  
HETATM   42  C   UNL     1      -7.945  18.245  68.609  1.00  0.00    -0.289 C  
ENDBRANCH  35  36
ENDBRANCH  33  35
ENDBRANCH  26  31
ENDBRANCH  23  25
ENDBRANCH  16  23
ENDBRANCH   3   5
ENDBRANCH   2   3
TORSDOF 8
ENDMDL
MODEL      101
REMARK 921   NORMALIZED FREE ENERGY PREDICTED BY IDOCK:   -1.62 KCAL/MOL
REMARK 922        TOTAL FREE ENERGY PREDICTED BY IDOCK:   -3.91 KCAL/MOL
REMARK 923 INTER-LIGAND FREE ENERGY PREDICTED BY IDOCK:   -2.58 KCAL/MOL
REMARK 924 INTRA-LIGAND FREE ENERGY PREDICTED BY IDOCK:   -1.33 KCAL/MOL
REMARK 927      BINDING AFFINITY PREDICTED BY RF-SCORE:    0.00 PKD
ROOT
HETATM    1  C   UNL     1     -11.393   1.666  63.685  1.00  0.00     0.201 C  
HETATM    2  O   UNL     1     -10.534   2.574  64.374  1.00  0.00     0.121 OA 
ENDROOT
BRANCH   2   3
HETATM    3  C   UNL     1      -9.954   3.516  63.582  1.00  0.00    -0.174 C  
HETATM    4  O   UNL     1     -10.044   3.576  62.362  1.00  0.00    -0.111 OA 
BRANCH   3   5
HETATM    5  C   UNL     1      -9.211   4.499  64.408  1.00  0.00    -0.127 A  
HETATM    6  C   UNL     1      -9.443   4.640  65.792  1.00  0.00    -0.176 A  
HETATM    7  C   UNL     1      -8.754   5.597  66.551  1.00  0.00    -0.121 A  
HETATM    8  C   UNL     1      -7.832   6.420  65.926  1.00  0.00    -0.102 A  
HETATM    9  C   UNL     1      -7.614   6.265  64.552  1.00  0.00    -0.099 A  
HETATM   10  C   UNL     1      -8.266   5.320  63.779  1.00  0.00    -0.123 A  
HETATM   11  N   UNL     1      -6.680   7.186  64.099  1.00  0.00    -0.046 N  
HETATM   12  H   UNL     1      -6.373   7.261  63.129  1.00  0.00     0.000 HD 
HETATM   13  C   UNL     1      -6.214   7.992  65.127  1.00  0.00    -0.045 C  
HETATM   14  O   UNL     1      -5.352   8.843  65.018  1.00  0.00    -0.038 OA 
HETATM   15  C   UNL     1      -6.961   7.534  66.369  1.00  0.00    -0.070 C  
HETATM   16  C   UNL     1      -6.810   8.105  67.589  1.00  0.00    -0.070 C  
BRANCH  16  17
HETATM   17  C   UNL     1      -7.541   7.553  68.750  1.00  0.00    -0.106 A  
HETATM   18  C   UNL     1      -8.876   6.635  71.029  1.00  0.00    -0.142 A  
HETATM   19  C   UNL     1      -8.885   7.891  68.961  1.00  0.00    -0.145 A  
HETATM   20  C   UNL     1      -6.884   6.733  69.675  1.00  0.00    -0.055 A  
HETATM   21  C   UNL     1      -9.547   7.435  70.103  1.00  0.00    -0.165 A  
HETATM   22  C   UNL     1      -7.547   6.278  70.813  1.00  0.00    -0.096 A  
ENDBRANCH  16  17
BRANCH  16  23
HETATM   23  N   UNL     1      -6.012   9.198  67.945  1.00  0.00    -0.049 NA 
HETATM   24  H   UNL     1      -5.014   9.063  68.112  1.00  0.00     0.000 HD 
BRANCH  23  25
HETATM   25  C   UNL     1      -6.580  10.498  68.077  1.00  0.00    -0.060 A  
HETATM   26  C   UNL     1      -7.477  13.166  68.562  1.00  0.00    -0.117 A  
HETATM   27  C   UNL     1      -6.288  11.527  67.190  1.00  0.00    -0.124 A  
HETATM   28  C   UNL     1      -7.501  10.764  69.087  1.00  0.00    -0.123 A  
HETATM   29  C   UNL     1      -6.713  12.835  67.438  1.00  0.00    -0.138 A  
HETATM   30  C   UNL     1      -7.939  12.078  69.326  1.00  0.00     0.440 A  
BRANCH  26  31
HETATM   31  N   UNL     1      -7.727  14.545  68.944  1.00  0.00    -0.133 N  
HETATM   32  C   UNL     1      -9.054  15.107  68.682  1.00  0.00    -0.195 C  
HETATM   33  C   UNL     1      -6.764  15.328  69.625  1.00  0.00    -0.181 C  
HETATM   34  O   UNL     1      -5.600  14.983  69.861  1.00  0.00    -0.106 OA 
BRANCH  33  35
HETATM   35  C   UNL     1      -7.125  16.767  70.025  1.00  0.00     0.755 C  
BRANCH  35  36
HETATM   36  N   UNL     1      -6.349  17.821  69.337  1.00  0.00    -0.245 NA 
HETATM   37  C   UNL     1      -7.142  19.009  68.948  1.00  0.00    -0.328 C  
HETATM   38  C   UNL     1      -7.428  20.062  70.055  1.00  0.00     0.457 C  
HETATM   39  N   UNL     1      -6.299  20.391  70.951  1.00  0.00    -0.519 NA 
HETATM   40  C   UNL     1      -5.349  21.310  70.325  1.00  0.00     0.173 C  
HETATM   41  C   UNL     1      -5.634  19.147  71.373  1.00  0.00    -0.168 C  
HETATM   42  C   UNL     1      -5.222  18.236  70.195  1.00  0.00    -0.234 C  
ENDBRANCH  35  36
ENDBRANCH  33  35
ENDBRANCH  26  31
ENDBRANCH  23  25
ENDBRANCH  16  23
ENDBRANCH   3   5
ENDBRANCH   2   3
TORSDOF 8
ENDMDL
MODEL      102
REMARK 921   NORMALIZED FREE ENERGY PREDICTED BY IDOCK:   -1.13 KCAL/MOL
REMARK 922        TOTAL FREE ENERGY PREDICTED BY IDOCK:   -3.20 KCAL/MOL
REMARK 923 INTER-LIGAND FREE ENERGY PREDICTED BY IDOCK:   -3.05 KCAL/MOL
REMARK 924 INTRA-LIGAND FREE ENERGY PREDICTED BY IDOCK:   -0.15 KCAL/MOL
REMARK 927      BINDING AFFINITY PREDICTED BY RF-SCORE:    0.00 PKD
ROOT
HETATM    1  C   UNL     1     -13.359  15.325  69.823  1.00  0.00     0.806 C  
HETATM    2  O   UNL     1     -12.703  16.206  70.734  1.00  0.00    -0.257 OA 
ENDROOT
BRANCH   2   3
HETATM    3  C   UNL     1     -11.626  15.666  71.366  1.00  0.00    -0.433 C  
HETATM    4  O   UNL     1     -11.406  15.715  72.570  1.00  0.00    -0.365 OA 
BRANCH   3   5
HETATM    5  C   UNL     1     -10.751  14.969  70.391  1.00  0.00    -0.134 A  
HETATM    6  C   UNL     1     -10.925  13.606  70.073  1.00  0.00     0.331 A  
HETATM    7  C   UNL     1     -10.068  12.954  69.173  1.00  0.00     0.307 A  
HETATM    8  C   UNL     1      -9.031  13.665  68.592  1.00  0.00    -0.025 A  
HETATM    9  C   UNL     1      -8.874  15.017  68.919  1.00  0.00    -0.201 A  
HETATM   10  C   UNL     1      -9.712  15.692  69.790  1.00  0.00    -0.231 A  
HETATM   11  N   UNL     1      -7.776  15.554  68.263  1.00  0.00    -0.114 N  
HETATM   12  H   UNL     1      -7.469  16.522  68.359  1.00  0.00     0.000 HD 
HETATM   13  C   UNL     1      -7.148  14.614  67.460  1.00  0.00    -0.178 C  
HETATM   14  O   UNL     1      -6.196  14.832  66.734  1.00  0.00     0.496 OA 
HETATM   15  C   UNL     1      -7.935  13.329  67.652  1.00  0.00    -0.176 C  
HETATM   16  C   UNL     1      -7.613  12.154  67.058  1.00  0.00    -0.093 C  
BRANCH  16  17
HETATM   17  C   UNL     1      -8.473  10.969  67.264  1.00  0.00    -0.130 A  
HETATM   18  C   UNL     1      -9.991   8.642  67.578  1.00  0.00    -0.256 A  
HETATM   19  C   UNL     1      -8.325  10.183  68.415  1.00  0.00    -0.113 A  
HETATM   20  C   UNL     1      -9.404  10.592  66.288  1.00  0.00    -0.202 A  
HETATM   21  C   UNL     1      -9.081   9.019  68.566  1.00  0.00    -0.133 A  
HETATM   22  C   UNL     1     -10.158   9.430  66.442  1.00  0.00    -0.332 A  
ENDBRANCH  16  17
BRANCH  16  23
HETATM   23  N   UNL     1      -6.528  11.873  66.218  1.00  0.00    -0.403 NA 
HETATM   24  H   UNL     1      -5.905  12.628  65.928  1.00  0.00     0.000 HD 
BRANCH  23  25
HETATM   25  C   UNL     1      -6.286  10.544  65.765  1.00  0.00    -0.129 A  
HETATM   26  C   UNL     1      -6.058   7.790  65.048  1.00  0.00    -0.038 A  
HETATM   27  C   UNL     1      -6.777  10.075  64.553  1.00  0.00    -0.128 A  
HETATM   28  C   UNL     1      -5.493   9.679  66.515  1.00  0.00    -0.045 A  
HETATM   29  C   UNL     1      -6.679   8.723  64.212  1.00  0.00    -0.075 A  
HETATM   30  C   UNL     1      -5.384   8.324  66.161  1.00  0.00    -0.028 A  
BRANCH  26  31
HETATM   31  N   UNL     1      -6.153   6.360  64.809  1.00  0.00    -0.029 N  
HETATM   32  C   UNL     1      -6.178   5.888  63.423  1.00  0.00    -0.025 C  
HETATM   33  C   UNL     1      -6.142   5.415  65.863  1.00  0.00    -0.033 C  
HETATM   34  O   UNL     1      -6.169   5.688  67.069  1.00  0.00    -0.032 OA 
BRANCH  33  35
HETATM   35  C   UNL     1      -6.209   3.919  65.521  1.00  0.00    -0.031 C  
BRANCH  35  36
HETATM   36  N   UNL     1      -7.545   3.303  65.664  1.00  0.00    -0.076 NA 
HETATM   37  C   UNL     1      -8.650   4.093  65.074  1.00  0.00    -0.117 C  
HETATM   38  C   UNL     1      -8.858   3.982  63.538  1.00  0.00    -0.111 C  
HETATM   39  N   UNL     1      -8.748   2.626  62.961  1.00  0.00    -0.085 NA 
HETATM   40  C   UNL     1      -9.959   1.835  63.180  1.00  0.00    -0.110 C  
HETATM   41  C   UNL     1      -7.565   1.952  63.521  1.00  0.00    -0.055 C  
HETATM   42  C   UNL     1      -7.528   1.954  65.066  1.00  0.00    -0.062 C  
ENDBRANCH  35  36
ENDBRANCH  33  35
ENDBRANCH  26  31
ENDBRANCH  23  25
ENDBRANCH  16  23
ENDBRANCH   3   5
ENDBRANCH   2   3
TORSDOF 8
ENDMDL
MODEL      103
REMARK 921   NORMALIZED FREE ENERGY PREDICTED BY IDOCK:   -1.06 KCAL/MOL
REMARK 922        TOTAL FREE ENERGY PREDICTED BY IDOCK:   -3.09 KCAL/MOL
REMARK 923 INTER-LIGAND FREE ENERGY PREDICTED BY IDOCK:   -4.02 KCAL/MOL
REMARK 924 INTRA-LIGAND FREE ENERGY PREDICTED BY IDOCK:    0.93 KCAL/MOL
REMARK 927      BINDING AFFINITY PREDICTED BY RF-SCORE:    0.00 PKD
ROOT
HETATM    1  C   UNL     1     -10.466  17.725  69.533  1.00  0.00     0.290 C  
HETATM    2  O   UNL     1     -10.690  16.906  70.680  1.00  0.00     0.169 OA 
ENDROOT
BRANCH   2   3
HETATM    3  C   UNL     1     -11.781  16.097  70.593  1.00  0.00    -0.273 C  
HETATM    4  O   UNL     1     -12.796  16.193  71.271  1.00  0.00    -0.292 OA 
BRANCH   3   5
HETATM    5  C   UNL     1     -11.589  15.084  69.525  1.00  0.00    -0.337 A  
HETATM    6  C   UNL     1     -10.578  14.104  69.598  1.00  0.00     0.095 A  
HETATM    7  C   UNL     1     -10.390  13.174  68.565  1.00  0.00    -0.245 A  
HETATM    8  C   UNL     1     -11.213  13.226  67.452  1.00  0.00    -0.316 A  
HETATM    9  C   UNL     1     -12.212  14.206  67.397  1.00  0.00    -0.243 A  
HETATM   10  C   UNL     1     -12.432  15.126  68.407  1.00  0.00     0.406 A  
HETATM   11  N   UNL     1     -12.916  14.119  66.205  1.00  0.00    -0.384 N  
HETATM   12  H   UNL     1     -13.684  14.739  65.946  1.00  0.00     0.000 HD 
HETATM   13  C   UNL     1     -12.447  13.086  65.406  1.00  0.00    -0.476 C  
HETATM   14  O   UNL     1     -12.921  12.754  64.336  1.00  0.00    -0.723 OA 
HETATM   15  C   UNL     1     -11.300  12.464  66.184  1.00  0.00    -0.398 C  
HETATM   16  C   UNL     1     -10.549  11.434  65.721  1.00  0.00    -0.260 C  
BRANCH  16  17
HETATM   17  C   UNL     1      -9.487  10.861  66.574  1.00  0.00    -0.210 A  
HETATM   18  C   UNL     1      -7.504   9.893  68.292  1.00  0.00    -0.080 A  
HETATM   19  C   UNL     1      -9.800   9.886  67.531  1.00  0.00    -0.209 A  
HETATM   20  C   UNL     1      -8.169  11.325  66.470  1.00  0.00    -0.165 A  
HETATM   21  C   UNL     1      -8.809   9.409  68.390  1.00  0.00    -0.128 A  
HETATM   22  C   UNL     1      -7.181  10.846  67.328  1.00  0.00    -0.098 A  
ENDBRANCH  16  17
BRANCH  16  23
HETATM   23  N   UNL     1     -10.636  10.782  64.485  1.00  0.00    -0.285 NA 
HETATM   24  H   UNL     1     -11.336  11.080  63.804  1.00  0.00     0.000 HD 
BRANCH  23  25
HETATM   25  C   UNL     1      -9.757   9.707  64.168  1.00  0.00     0.338 A  
HETATM   26  C   UNL     1      -7.748   7.745  63.645  1.00  0.00    -0.131 A  
HETATM   27  C   UNL     1      -9.555   8.637  65.032  1.00  0.00     0.650 A  
HETATM   28  C   UNL     1      -9.103   9.672  62.939  1.00  0.00    -0.241 A  
HETATM   29  C   UNL     1      -8.560   7.688  64.783  1.00  0.00     0.135 A  
HETATM   30  C   UNL     1      -8.113   8.707  62.685  1.00  0.00    -0.177 A  
BRANCH  26  31
HETATM   31  N   UNL     1      -6.574   6.904  63.495  1.00  0.00    -0.042 N  
HETATM   32  C   UNL     1      -5.307   7.375  64.060  1.00  0.00    -0.029 C  
HETATM   33  C   UNL     1      -6.632   5.623  62.894  1.00  0.00    -0.025 C  
HETATM   34  O   UNL     1      -7.626   5.137  62.343  1.00  0.00    -0.054 OA 
BRANCH  33  35
HETATM   35  C   UNL     1      -5.348   4.784  62.809  1.00  0.00    -0.009 C  
BRANCH  35  36
HETATM   36  N   UNL     1      -5.148   3.831  63.921  1.00  0.00    -0.008 NA 
HETATM   37  C   UNL     1      -5.830   4.208  65.181  1.00  0.00    -0.022 C  
HETATM   38  C   UNL     1      -7.346   3.884  65.290  1.00  0.00    -0.069 C  
HETATM   39  N   UNL     1      -7.770   2.563  64.779  1.00  0.00    -0.072 NA 
HETATM   40  C   UNL     1      -7.474   1.487  65.724  1.00  0.00    -0.057 C  
HETATM   41  C   UNL     1      -7.130   2.316  63.477  1.00  0.00    -0.037 C  
HETATM   42  C   UNL     1      -5.594   2.488  63.501  1.00  0.00    -0.009 C  
ENDBRANCH  35  36
ENDBRANCH  33  35
ENDBRANCH  26  31
ENDBRANCH  23  25
ENDBRANCH  16  23
ENDBRANCH   3   5
ENDBRANCH   2   3
TORSDOF 8
ENDMDL
MODEL      104
REMARK 921   NORMALIZED FREE ENERGY PREDICTED BY IDOCK:   -0.93 KCAL/MOL
REMARK 922        TOTAL FREE ENERGY PREDICTED BY IDOCK:   -2.91 KCAL/MOL
REMARK 923 INTER-LIGAND FREE ENERGY PREDICTED BY IDOCK:   -1.75 KCAL/MOL
REMARK 924 INTRA-LIGAND FREE ENERGY PREDICTED BY IDOCK:   -1.16 KCAL/MOL
REMARK 927      BINDING AFFINITY PREDICTED BY RF-SCORE:    0.00 PKD
ROOT
HETATM    1  C   UNL     1     -11.548   1.903  63.076  1.00  0.00     0.069 C  
HETATM    2  O   UNL     1     -10.354   1.741  63.841  1.00  0.00    -0.098 OA 
ENDROOT
BRANCH   2   3
HETATM    3  C   UNL     1      -9.322   2.537  63.453  1.00  0.00    -0.097 C  
HETATM    4  O   UNL     1      -8.805   2.547  62.343  1.00  0.00    -0.074 OA 
BRANCH   3   5
HETATM    5  C   UNL     1      -8.916   3.435  64.564  1.00  0.00    -0.125 A  
HETATM    6  C   UNL     1      -9.756   3.681  65.670  1.00  0.00    -0.108 A  
HETATM    7  C   UNL     1      -9.370   4.558  66.694  1.00  0.00    -0.156 A  
HETATM    8  C   UNL     1      -8.143   5.194  66.613  1.00  0.00    -0.108 A  
HETATM    9  C   UNL     1      -7.322   4.936  65.509  1.00  0.00    -0.073 A  
HETATM   10  C   UNL     1      -7.668   4.065  64.490  1.00  0.00    -0.081 A  
HETATM   11  N   UNL     1      -6.151   5.676  65.587  1.00  0.00    -0.028 N  
HETATM   12  H   UNL     1      -5.410   5.652  64.886  1.00  0.00     0.000 HD 
HETATM   13  C   UNL     1      -6.111   6.453  66.736  1.00  0.00    -0.029 C  
HETATM   14  O   UNL     1      -5.177   7.152  67.080  1.00  0.00    -0.019 OA 
HETATM   15  C   UNL     1      -7.423   6.181  67.453  1.00  0.00    -0.082 C  
HETATM   16  C   UNL     1      -7.785   6.783  68.612  1.00  0.00    -0.113 C  
BRANCH  16  17
HETATM   17  C   UNL     1      -9.060   6.413  69.262  1.00  0.00    -0.136 A  
HETATM   18  C   UNL     1     -11.497   5.612  70.374  1.00  0.00     0.300 A  
HETATM   19  C   UNL     1      -9.095   5.382  70.210  1.00  0.00    -0.166 A  
HETATM   20  C   UNL     1     -10.252   7.054  68.897  1.00  0.00    -0.183 A  
HETATM   21  C   UNL     1     -10.314   4.981  70.760  1.00  0.00    -0.265 A  
HETATM   22  C   UNL     1     -11.467   6.652  69.448  1.00  0.00    -0.288 A  
ENDBRANCH  16  17
BRANCH  16  23
HETATM   23  N   UNL     1      -7.090   7.757  69.339  1.00  0.00    -0.069 NA 
HETATM   24  H   UNL     1      -6.456   7.473  70.087  1.00  0.00     0.000 HD 
BRANCH  23  25
HETATM   25  C   UNL     1      -7.259   9.140  69.045  1.00  0.00    -0.072 A  
HETATM   26  C   UNL     1      -7.922  11.867  68.513  1.00  0.00    -0.137 A  
HETATM   27  C   UNL     1      -7.046  10.131  69.997  1.00  0.00    -0.156 A  
HETATM   28  C   UNL     1      -7.598   9.550  67.758  1.00  0.00    -0.087 A  
HETATM   29  C   UNL     1      -7.388  11.461  69.740  1.00  0.00     0.288 A  
HETATM   30  C   UNL     1      -7.927  10.891  67.499  1.00  0.00    -0.115 A  
BRANCH  26  31
HETATM   31  N   UNL     1      -8.486  13.191  68.319  1.00  0.00    -0.168 N  
HETATM   32  C   UNL     1      -9.528  13.644  69.245  1.00  0.00     0.593 C  
HETATM   33  C   UNL     1      -8.011  14.078  67.323  1.00  0.00    -0.137 C  
HETATM   34  O   UNL     1      -7.173  13.797  66.457  1.00  0.00     0.885 OA 
BRANCH  33  35
HETATM   35  C   UNL     1      -8.640  15.475  67.210  1.00  0.00    -0.193 C  
BRANCH  35  36
HETATM   36  N   UNL     1      -9.278  15.771  65.910  1.00  0.00    -0.333 NA 
HETATM   37  C   UNL     1      -9.332  14.621  64.978  1.00  0.00     1.060 C  
HETATM   38  C   UNL     1     -10.465  13.581  65.201  1.00  0.00    -0.364 C  
HETATM   39  N   UNL     1     -11.801  14.130  65.516  1.00  0.00    -0.351 NA 
HETATM   40  C   UNL     1     -12.490  14.622  64.324  1.00  0.00    -0.239 C  
HETATM   41  C   UNL     1     -11.666  15.192  66.527  1.00  0.00    -0.029 C  
HETATM   42  C   UNL     1     -10.643  16.284  66.142  1.00  0.00    -0.267 C  
ENDBRANCH  35  36
ENDBRANCH  33  35
ENDBRANCH  26  31
ENDBRANCH  23  25
ENDBRANCH  16  23
ENDBRANCH   3   5
ENDBRANCH   2   3
TORSDOF 8
ENDMDL
MODEL      105
REMARK 921   NORMALIZED FREE ENERGY PREDICTED BY IDOCK:   -0.93 KCAL/MOL
REMARK 922        TOTAL FREE ENERGY PREDICTED BY IDOCK:   -2.91 KCAL/MOL
REMARK 923 INTER-LIGAND FREE ENERGY PREDICTED BY IDOCK:   -3.65 KCAL/MOL
REMARK 924 INTRA-LIGAND FREE ENERGY PREDICTED BY IDOCK:    0.74 KCAL/MOL
REMARK 927      BINDING AFFINITY PREDICTED BY RF-SCORE:    0.00 PKD
ROOT
HETATM    1  C   UNL     1     -10.761   4.177  72.823  1.00  0.00    -0.114 C  
HETATM    2  O   UNL     1     -10.192   2.965  73.317  1.00  0.00    -0.113 OA 
ENDROOT
BRANCH   2   3
HETATM    3  C   UNL     1      -9.026   2.602  72.718  1.00  0.00    -0.078 C  
HETATM    4  O   UNL     1      -8.553   1.472  72.701  1.00  0.00    -0.056 OA 
BRANCH   3   5
HETATM    5  C   UNL     1      -8.405   3.770  72.045  1.00  0.00    -0.090 A  
HETATM    6  C   UNL     1      -8.296   3.853  70.641  1.00  0.00    -0.090 A  
HETATM    7  C   UNL     1      -7.677   4.950  70.024  1.00  0.00    -0.059 A  
HETATM    8  C   UNL     1      -7.163   5.967  70.811  1.00  0.00    -0.080 A  
HETATM    9  C   UNL     1      -7.281   5.868  72.202  1.00  0.00    -0.089 A  
HETATM   10  C   UNL     1      -7.900   4.807  72.840  1.00  0.00    -0.093 A  
HETATM   11  N   UNL     1      -6.691   6.960  72.821  1.00  0.00    -0.065 N  
HETATM   12  H   UNL     1      -6.652   7.094  73.832  1.00  0.00     0.000 HD 
HETATM   13  C   UNL     1      -6.159   7.848  71.897  1.00  0.00    -0.040 C  
HETATM   14  O   UNL     1      -5.636   8.913  72.166  1.00  0.00    -0.053 OA 
HETATM   15  C   UNL     1      -6.434   7.228  70.538  1.00  0.00    -0.043 C  
HETATM   16  C   UNL     1      -6.034   7.780  69.366  1.00  0.00    -0.033 C  
BRANCH  16  17
HETATM   17  C   UNL     1      -6.395   7.128  68.089  1.00  0.00    -0.043 A  
HETATM   18  C   UNL     1      -7.133   5.772  65.758  1.00  0.00    -0.070 A  
HETATM   19  C   UNL     1      -7.649   7.360  67.509  1.00  0.00    -0.106 A  
HETATM   20  C   UNL     1      -5.508   6.233  67.477  1.00  0.00    -0.005 A  
HETATM   21  C   UNL     1      -8.016   6.678  66.347  1.00  0.00    -0.106 A  
HETATM   22  C   UNL     1      -5.877   5.554  66.317  1.00  0.00    -0.018 A  
ENDBRANCH  16  17
BRANCH  16  23
HETATM   23  N   UNL     1      -5.294   8.951  69.165  1.00  0.00    -0.036 NA 
HETATM   24  H   UNL     1      -4.279   8.930  69.261  1.00  0.00     0.000 HD 
BRANCH  23  25
HETATM   25  C   UNL     1      -5.946  10.172  68.827  1.00  0.00    -0.040 A  
HETATM   26  C   UNL     1      -7.426  12.443  67.927  1.00  0.00    -0.120 A  
HETATM   27  C   UNL     1      -7.023  10.663  69.555  1.00  0.00    -0.121 A  
HETATM   28  C   UNL     1      -5.480  10.948  67.768  1.00  0.00    -0.039 A  
HETATM   29  C   UNL     1      -7.756  11.764  69.104  1.00  0.00     0.115 A  
HETATM   30  C   UNL     1      -6.212  12.064  67.326  1.00  0.00    -0.149 A  
BRANCH  26  31
HETATM   31  N   UNL     1      -8.308  13.435  67.337  1.00  0.00    -0.182 N  
HETATM   32  C   UNL     1      -7.913  14.844  67.405  1.00  0.00    -0.199 C  
HETATM   33  C   UNL     1      -9.486  13.078  66.637  1.00  0.00    -0.256 C  
HETATM   34  O   UNL     1      -9.946  11.934  66.549  1.00  0.00    -0.197 OA 
BRANCH  33  35
HETATM   35  C   UNL     1     -10.344  14.188  66.011  1.00  0.00    -0.309 C  
BRANCH  35  36
HETATM   36  N   UNL     1     -11.371  14.765  66.905  1.00  0.00    -0.352 NA 
HETATM   37  C   UNL     1     -11.337  14.245  68.291  1.00  0.00    -0.289 C  
HETATM   38  C   UNL     1     -10.281  14.858  69.252  1.00  0.00    -0.214 C  
HETATM   39  N   UNL     1     -10.109  16.324  69.182  1.00  0.00    -0.249 NA 
HETATM   40  C   UNL     1     -11.168  17.037  69.896  1.00  0.00     0.529 C  
HETATM   41  C   UNL     1     -10.045  16.741  67.772  1.00  0.00    -0.281 C  
HETATM   42  C   UNL     1     -11.233  16.234  66.924  1.00  0.00     0.182 C  
ENDBRANCH  35  36
ENDBRANCH  33  35
ENDBRANCH  26  31
ENDBRANCH  23  25
ENDBRANCH  16  23
ENDBRANCH   3   5
ENDBRANCH   2   3
TORSDOF 8
ENDMDL
MODEL      106
REMARK 921   NORMALIZED FREE ENERGY PREDICTED BY IDOCK:   -0.64 KCAL/MOL
REMARK 922        TOTAL FREE ENERGY PREDICTED BY IDOCK:   -2.48 KCAL/MOL
REMARK 923 INTER-LIGAND FREE ENERGY PREDICTED BY IDOCK:   -7.25 KCAL/MOL
REMARK 924 INTRA-LIGAND FREE ENERGY PREDICTED BY IDOCK:    4.78 KCAL/MOL
REMARK 927      BINDING AFFINITY PREDICTED BY RF-SCORE:    0.00 PKD
ROOT
HETATM    1  C   UNL     1      -7.514   4.749  66.963  1.00  0.00    -0.086 C  
HETATM    2  O   UNL     1      -8.545   4.043  66.272  1.00  0.00    -0.108 OA 
ENDROOT
BRANCH   2   3
HETATM    3  C   UNL     1      -9.505   4.835  65.725  1.00  0.00    -0.167 C  
HETATM    4  O   UNL     1     -10.109   4.610  64.683  1.00  0.00    -0.006 OA 
BRANCH   3   5
HETATM    5  C   UNL     1      -9.755   6.016  66.589  1.00  0.00    -0.189 A  
HETATM    6  C   UNL     1     -10.725   6.001  67.613  1.00  0.00    -0.377 A  
HETATM    7  C   UNL     1     -10.971   7.136  68.398  1.00  0.00    -0.080 A  
HETATM    8  C   UNL     1     -10.248   8.293  68.159  1.00  0.00    -0.255 A  
HETATM    9  C   UNL     1      -9.288   8.289  67.140  1.00  0.00    -0.151 A  
HETATM   10  C   UNL     1      -9.012   7.181  66.358  1.00  0.00    -0.178 A  
HETATM   11  N   UNL     1      -8.686   9.534  67.032  1.00  0.00    -0.127 N  
HETATM   12  H   UNL     1      -7.962   9.763  66.350  1.00  0.00     0.000 HD 
HETATM   13  C   UNL     1      -9.188  10.430  67.965  1.00  0.00    -0.140 C  
HETATM   14  O   UNL     1      -8.797  11.570  68.126  1.00  0.00    -0.151 OA 
HETATM   15  C   UNL     1     -10.245   9.658  68.736  1.00  0.00    -0.213 C  
HETATM   16  C   UNL     1     -10.999  10.200  69.724  1.00  0.00    -0.280 C  
BRANCH  16  17
HETATM   17  C   UNL     1     -11.967   9.353  70.454  1.00  0.00    -0.080 A  
HETATM   18  C   UNL     1     -13.800   7.861  71.947  1.00  0.00    -0.402 A  
HETATM   19  C   UNL     1     -13.343   9.503  70.231  1.00  0.00     0.678 A  
HETATM   20  C   UNL     1     -11.521   8.432  71.410  1.00  0.00    -0.328 A  
HETATM   21  C   UNL     1     -14.255   8.760  70.982  1.00  0.00     0.006 A  
HETATM   22  C   UNL     1     -12.434   7.691  72.158  1.00  0.00    -0.249 A  
ENDBRANCH  16  17
BRANCH  16  23
HETATM   23  N   UNL     1     -10.997  11.518  70.195  1.00  0.00    -0.366 NA 
HETATM   24  H   UNL     1     -11.121  11.698  71.192  1.00  0.00     0.000 HD 
BRANCH  23  25
HETATM   25  C   UNL     1     -10.825  12.610  69.297  1.00  0.00     0.009 A  
HETATM   26  C   UNL     1     -10.616  14.989  67.731  1.00  0.00    -0.264 A  
HETATM   27  C   UNL     1      -9.619  13.292  69.183  1.00  0.00     0.496 A  
HETATM   28  C   UNL     1     -11.863  12.998  68.454  1.00  0.00    -0.370 A  
HETATM   29  C   UNL     1      -9.524  14.465  68.431  1.00  0.00    -0.207 A  
HETATM   30  C   UNL     1     -11.759  14.170  67.686  1.00  0.00    -0.421 A  
BRANCH  26  31
HETATM   31  N   UNL     1     -10.586  16.315  67.139  1.00  0.00    -0.310 N  
HETATM   32  C   UNL     1     -10.714  16.428  65.684  1.00  0.00    -0.270 C  
HETATM   33  C   UNL     1     -10.518  17.492  67.923  1.00  0.00    -0.384 C  
HETATM   34  O   UNL     1     -10.363  17.526  69.149  1.00  0.00    -0.349 OA 
BRANCH  33  35
HETATM   35  C   UNL     1     -10.529  18.857  67.217  1.00  0.00    -0.439 C  
BRANCH  35  36
HETATM   36  N   UNL     1      -9.302  19.662  67.393  1.00  0.00    -0.314 NA 
HETATM   37  C   UNL     1      -8.728  19.614  68.757  1.00  0.00    -0.239 C  
HETATM   38  C   UNL     1      -7.863  18.374  69.118  1.00  0.00    -0.011 C  
HETATM   39  N   UNL     1      -6.918  17.913  68.079  1.00  0.00    -0.198 NA 
HETATM   40  C   UNL     1      -5.711  18.738  68.028  1.00  0.00    -0.191 C  
HETATM   41  C   UNL     1      -7.600  17.890  66.775  1.00  0.00    -0.217 C  
HETATM   42  C   UNL     1      -8.287  19.227  66.414  1.00  0.00    -0.321 C  
ENDBRANCH  35  36
ENDBRANCH  33  35
ENDBRANCH  26  31
ENDBRANCH  23  25
ENDBRANCH  16  23
ENDBRANCH   3   5
ENDBRANCH   2   3
TORSDOF 8
ENDMDL
MODEL      107
REMARK 921   NORMALIZED FREE ENERGY PREDICTED BY IDOCK:   -0.54 KCAL/MOL
REMARK 922        TOTAL FREE ENERGY PREDICTED BY IDOCK:   -2.33 KCAL/MOL
REMARK 923 INTER-LIGAND FREE ENERGY PREDICTED BY IDOCK:   -2.96 KCAL/MOL
REMARK 924 INTRA-LIGAND FREE ENERGY PREDICTED BY IDOCK:    0.63 KCAL/MOL
REMARK 927      BINDING AFFINITY PREDICTED BY RF-SCORE:    0.00 PKD
ROOT
HETATM    1  C   UNL     1     -13.974  16.613  73.136  1.00  0.00     1.177 C  
HETATM    2  O   UNL     1     -13.491  15.644  72.206  1.00  0.00    -0.456 OA 
ENDROOT
BRANCH   2   3
HETATM    3  C   UNL     1     -12.150  15.425  72.262  1.00  0.00    -0.411 C  
HETATM    4  O   UNL     1     -11.444  15.568  73.252  1.00  0.00    -0.274 OA 
BRANCH   3   5
HETATM    5  C   UNL     1     -11.648  14.948  70.949  1.00  0.00    -0.344 A  
HETATM    6  C   UNL     1     -10.276  14.730  70.707  1.00  0.00     0.833 A  
HETATM    7  C   UNL     1      -9.817  14.311  69.450  1.00  0.00     0.212 A  
HETATM    8  C   UNL     1     -10.731  14.111  68.429  1.00  0.00    -0.264 A  
HETATM    9  C   UNL     1     -12.089  14.331  68.687  1.00  0.00    -0.260 A  
HETATM   10  C   UNL     1     -12.574  14.730  69.921  1.00  0.00    -0.215 A  
HETATM   11  N   UNL     1     -12.846  14.105  67.547  1.00  0.00     0.199 N  
HETATM   12  H   UNL     1     -13.859  14.212  67.501  1.00  0.00     0.000 HD 
HETATM   13  C   UNL     1     -12.056  13.715  66.476  1.00  0.00    -0.423 C  
HETATM   14  O   UNL     1     -12.468  13.401  65.375  1.00  0.00    -0.450 OA 
HETATM   15  C   UNL     1     -10.631  13.715  67.004  1.00  0.00    -0.274 C  
HETATM   16  C   UNL     1      -9.548  13.420  66.244  1.00  0.00    -0.235 C  
BRANCH  16  17
HETATM   17  C   UNL     1      -8.205  13.396  66.862  1.00  0.00     0.040 A  
HETATM   18  C   UNL     1      -5.604  13.359  67.887  1.00  0.00    -0.121 A  
HETATM   19  C   UNL     1      -7.582  14.592  67.241  1.00  0.00    -0.173 A  
HETATM   20  C   UNL     1      -7.524  12.183  67.026  1.00  0.00    -0.086 A  
HETATM   21  C   UNL     1      -6.281  14.571  67.748  1.00  0.00    -0.152 A  
HETATM   22  C   UNL     1      -6.226  12.164  67.532  1.00  0.00    -0.130 A  
ENDBRANCH  16  17
BRANCH  16  23
HETATM   23  N   UNL     1      -9.502  13.106  64.881  1.00  0.00    -0.260 NA 
HETATM   24  H   UNL     1      -9.622  13.845  64.187  1.00  0.00     0.000 HD 
BRANCH  23  25
HETATM   25  C   UNL     1      -9.290  11.764  64.452  1.00  0.00     0.136 A  
HETATM   26  C   UNL     1      -8.575   9.088  63.755  1.00  0.00    -0.130 A  
HETATM   27  C   UNL     1      -9.830  10.677  65.128  1.00  0.00    -0.344 A  
HETATM   28  C   UNL     1      -8.565  11.503  63.292  1.00  0.00     0.372 A  
HETATM   29  C   UNL     1      -9.465   9.369  64.797  1.00  0.00    -0.088 A  
HETATM   30  C   UNL     1      -8.213  10.185  62.953  1.00  0.00    -0.161 A  
BRANCH  26  31
HETATM   31  N   UNL     1      -8.020   7.761  63.554  1.00  0.00    -0.130 N  
HETATM   32  C   UNL     1      -7.133   7.547  62.408  1.00  0.00    -0.080 C  
HETATM   33  C   UNL     1      -8.245   6.701  64.464  1.00  0.00    -0.014 C  
HETATM   34  O   UNL     1      -9.006   6.744  65.438  1.00  0.00     0.016 OA 
BRANCH  33  35
HETATM   35  C   UNL     1      -7.589   5.338  64.195  1.00  0.00    -0.071 C  
BRANCH  35  36
HETATM   36  N   UNL     1      -6.529   4.953  65.150  1.00  0.00    -0.035 NA 
HETATM   37  C   UNL     1      -5.922   6.089  65.881  1.00  0.00    -0.029 C  
HETATM   38  C   UNL     1      -6.704   6.643  67.105  1.00  0.00    -0.063 C  
HETATM   39  N   UNL     1      -7.308   5.636  68.003  1.00  0.00    -0.072 NA 
HETATM   40  C   UNL     1      -6.322   5.042  68.905  1.00  0.00    -0.032 C  
HETATM   41  C   UNL     1      -7.980   4.604  67.197  1.00  0.00    -0.102 C  
HETATM   42  C   UNL     1      -7.071   3.977  66.115  1.00  0.00    -0.067 C  
ENDBRANCH  35  36
ENDBRANCH  33  35
ENDBRANCH  26  31
ENDBRANCH  23  25
ENDBRANCH  16  23
ENDBRANCH   3   5
ENDBRANCH   2   3
TORSDOF 8
ENDMDL
MODEL      108
REMARK 921   NORMALIZED FREE ENERGY PREDICTED BY IDOCK:   -0.50 KCAL/MOL
REMARK 922        TOTAL FREE ENERGY PREDICTED BY IDOCK:   -2.27 KCAL/MOL
REMARK 923 INTER-LIGAND FREE ENERGY PREDICTED BY IDOCK:   -1.62 KCAL/MOL
REMARK 924 INTRA-LIGAND FREE ENERGY PREDICTED BY IDOCK:   -0.65 KCAL/MOL
REMARK 927      BINDING AFFINITY PREDICTED BY RF-SCORE:    0.00 PKD
ROOT
HETATM    1  C   UNL     1     -13.568  15.689  63.352  1.00  0.00     4.504 C  
HETATM    2  O   UNL     1     -12.901  14.936  64.365  1.00  0.00    -0.516 OA 
ENDROOT
BRANCH   2   3
HETATM    3  C   UNL     1     -11.647  15.374  64.661  1.00  0.00    -0.311 C  
HETATM    4  O   UNL     1     -11.139  16.412  64.257  1.00  0.00    -0.845 OA 
BRANCH   3   5
HETATM    5  C   UNL     1     -10.973  14.425  65.583  1.00  0.00    -0.314 A  
HETATM    6  C   UNL     1      -9.680  14.668  66.090  1.00  0.00    -0.344 A  
HETATM    7  C   UNL     1      -9.046  13.745  66.935  1.00  0.00    -0.253 A  
HETATM    8  C   UNL     1      -9.704  12.574  67.272  1.00  0.00    -0.202 A  
HETATM    9  C   UNL     1     -10.988  12.351  66.760  1.00  0.00    -0.263 A  
HETATM   10  C   UNL     1     -11.646  13.249  65.938  1.00  0.00    -0.380 A  
HETATM   11  N   UNL     1     -11.476  11.123  67.184  1.00  0.00    -0.186 N  
HETATM   12  H   UNL     1     -12.389  10.750  66.926  1.00  0.00     0.000 HD 
HETATM   13  C   UNL     1     -10.569  10.465  68.002  1.00  0.00    -0.221 C  
HETATM   14  O   UNL     1     -10.765   9.399  68.554  1.00  0.00    -0.214 OA 
HETATM   15  C   UNL     1      -9.360  11.382  68.084  1.00  0.00    -0.181 C  
HETATM   16  C   UNL     1      -8.231  11.077  68.769  1.00  0.00    -0.146 C  
BRANCH  16  17
HETATM   17  C   UNL     1      -7.127  12.059  68.834  1.00  0.00    -0.104 A  
HETATM   18  C   UNL     1      -5.146  14.029  68.942  1.00  0.00    -0.076 A  
HETATM   19  C   UNL     1      -6.709  12.568  70.071  1.00  0.00     0.358 A  
HETATM   20  C   UNL     1      -6.526  12.526  67.658  1.00  0.00    -0.138 A  
HETATM   21  C   UNL     1      -5.723  13.556  70.120  1.00  0.00    -0.140 A  
HETATM   22  C   UNL     1      -5.542  13.511  67.711  1.00  0.00    -0.087 A  
ENDBRANCH  16  17
BRANCH  16  23
HETATM   23  N   UNL     1      -7.933   9.907  69.476  1.00  0.00    -0.132 NA 
HETATM   24  H   UNL     1      -8.035   9.890  70.491  1.00  0.00     0.000 HD 
BRANCH  23  25
HETATM   25  C   UNL     1      -7.488   8.739  68.792  1.00  0.00    -0.084 A  
HETATM   26  C   UNL     1      -6.849   6.449  67.210  1.00  0.00    -0.069 A  
HETATM   27  C   UNL     1      -6.458   8.774  67.860  1.00  0.00    -0.057 A  
HETATM   28  C   UNL     1      -8.049   7.498  69.081  1.00  0.00    -0.123 A  
HETATM   29  C   UNL     1      -6.158   7.658  67.075  1.00  0.00    -0.051 A  
HETATM   30  C   UNL     1      -7.735   6.373  68.300  1.00  0.00    -0.104 A  
BRANCH  26  31
HETATM   31  N   UNL     1      -6.700   5.366  66.253  1.00  0.00    -0.056 N  
HETATM   32  C   UNL     1      -6.723   5.695  64.825  1.00  0.00    -0.047 C  
HETATM   33  C   UNL     1      -6.457   4.030  66.653  1.00  0.00    -0.041 C  
HETATM   34  O   UNL     1      -6.461   3.622  67.820  1.00  0.00    -0.036 OA 
BRANCH  33  35
HETATM   35  C   UNL     1      -6.276   2.952  65.573  1.00  0.00    -0.024 C  
BRANCH  35  36
HETATM   36  N   UNL     1      -7.390   1.988  65.458  1.00  0.00    -0.063 NA 
HETATM   37  C   UNL     1      -8.668   2.456  66.042  1.00  0.00    -0.123 C  
HETATM   38  C   UNL     1      -9.529   3.422  65.181  1.00  0.00    -0.152 C  
HETATM   39  N   UNL     1      -9.638   3.093  63.744  1.00  0.00    -0.123 NA 
HETATM   40  C   UNL     1     -10.601   2.019  63.497  1.00  0.00    -0.135 C  
HETATM   41  C   UNL     1      -8.308   2.743  63.221  1.00  0.00    -0.085 C  
HETATM   42  C   UNL     1      -7.593   1.643  64.037  1.00  0.00    -0.059 C  
ENDBRANCH  35  36
ENDBRANCH  33  35
ENDBRANCH  26  31
ENDBRANCH  23  25
ENDBRANCH  16  23
ENDBRANCH   3   5
ENDBRANCH   2   3
TORSDOF 8
ENDMDL
MODEL      109
REMARK 921   NORMALIZED FREE ENERGY PREDICTED BY IDOCK:   -0.12 KCAL/MOL
REMARK 922        TOTAL FREE ENERGY PREDICTED BY IDOCK:   -1.71 KCAL/MOL
REMARK 923 INTER-LIGAND FREE ENERGY PREDICTED BY IDOCK:   -2.48 KCAL/MOL
REMARK 924 INTRA-LIGAND FREE ENERGY PREDICTED BY IDOCK:    0.77 KCAL/MOL
REMARK 927      BINDING AFFINITY PREDICTED BY RF-SCORE:    0.00 PKD
ROOT
HETATM    1  C   UNL     1     -12.116  16.167  72.449  1.00  0.00    -0.540 C  
HETATM    2  O   UNL     1     -10.959  16.054  71.620  1.00  0.00     0.012 OA 
ENDROOT
BRANCH   2   3
HETATM    3  C   UNL     1     -11.161  16.392  70.318  1.00  0.00    -0.246 C  
HETATM    4  O   UNL     1     -11.755  17.387  69.922  1.00  0.00     1.609 OA 
BRANCH   3   5
HETATM    5  C   UNL     1     -10.526  15.394  69.421  1.00  0.00    -0.257 A  
HETATM    6  C   UNL     1     -11.161  14.930  68.251  1.00  0.00    -0.306 A  
HETATM    7  C   UNL     1     -10.560  13.962  67.432  1.00  0.00    -0.267 A  
HETATM    8  C   UNL     1      -9.321  13.454  67.785  1.00  0.00    -0.211 A  
HETATM    9  C   UNL     1      -8.705  13.927  68.950  1.00  0.00     0.106 A  
HETATM   10  C   UNL     1      -9.265  14.892  69.769  1.00  0.00     0.183 A  
HETATM   11  N   UNL     1      -7.489  13.290  69.153  1.00  0.00    -0.310 N  
HETATM   12  H   UNL     1      -6.872  13.472  69.944  1.00  0.00     0.000 HD 
HETATM   13  C   UNL     1      -7.216  12.375  68.147  1.00  0.00    -0.100 C  
HETATM   14  O   UNL     1      -6.195  11.721  68.050  1.00  0.00    -0.049 OA 
HETATM   15  C   UNL     1      -8.412  12.432  67.213  1.00  0.00    -0.183 C  
HETATM   16  C   UNL     1      -8.545  11.651  66.113  1.00  0.00    -0.053 C  
BRANCH  16  17
HETATM   17  C   UNL     1      -9.723  11.817  65.235  1.00  0.00    -0.236 A  
HETATM   18  C   UNL     1     -11.912  11.995  63.505  1.00  0.00    -0.605 A  
HETATM   19  C   UNL     1     -10.968  11.303  65.622  1.00  0.00    -0.201 A  
HETATM   20  C   UNL     1      -9.593  12.442  63.988  1.00  0.00     0.126 A  
HETATM   21  C   UNL     1     -12.058  11.390  64.753  1.00  0.00     0.511 A  
HETATM   22  C   UNL     1     -10.683  12.528  63.124  1.00  0.00     0.068 A  
ENDBRANCH  16  17
BRANCH  16  23
HETATM   23  N   UNL     1      -7.680  10.655  65.645  1.00  0.00    -0.247 NA 
HETATM   24  H   UNL     1      -7.326  10.701  64.689  1.00  0.00     0.000 HD 
BRANCH  23  25
HETATM   25  C   UNL     1      -7.289   9.578  66.491  1.00  0.00    -0.090 A  
HETATM   26  C   UNL     1      -6.772   7.257  68.073  1.00  0.00    -0.058 A  
HETATM   27  C   UNL     1      -6.333   8.645  66.107  1.00  0.00    -0.056 A  
HETATM   28  C   UNL     1      -7.825   9.458  67.770  1.00  0.00    -0.095 A  
HETATM   29  C   UNL     1      -6.095   7.501  66.874  1.00  0.00    -0.047 A  
HETATM   30  C   UNL     1      -7.572   8.313  68.546  1.00  0.00    -0.100 A  
BRANCH  26  31
HETATM   31  N   UNL     1      -6.698   5.975  68.752  1.00  0.00    -0.061 N  
HETATM   32  C   UNL     1      -5.574   5.737  69.662  1.00  0.00    -0.012 C  
HETATM   33  C   UNL     1      -7.707   4.991  68.624  1.00  0.00    -0.078 C  
HETATM   34  O   UNL     1      -8.675   5.055  67.857  1.00  0.00    -0.103 OA 
BRANCH  33  35
HETATM   35  C   UNL     1      -7.567   3.676  69.407  1.00  0.00    -0.052 C  
BRANCH  35  36
HETATM   36  N   UNL     1      -7.501   3.827  70.877  1.00  0.00    -0.040 NA 
HETATM   37  C   UNL     1      -8.769   4.263  71.505  1.00  0.00    -0.112 C  
HETATM   38  C   UNL     1      -9.849   3.173  71.752  1.00  0.00    -0.159 C  
HETATM   39  N   UNL     1      -9.361   1.879  72.275  1.00  0.00    -0.077 NA 
HETATM   40  C   UNL     1      -9.091   1.933  73.711  1.00  0.00    -0.068 C  
HETATM   41  C   UNL     1      -8.163   1.470  71.524  1.00  0.00    -0.043 C  
HETATM   42  C   UNL     1      -7.063   2.553  71.479  1.00  0.00    -0.032 C  
ENDBRANCH  35  36
ENDBRANCH  33  35
ENDBRANCH  26  31
ENDBRANCH  23  25
ENDBRANCH  16  23
ENDBRANCH   3   5
ENDBRANCH   2   3
TORSDOF 8
ENDMDL
MODEL      110
REMARK 921   NORMALIZED FREE ENERGY PREDICTED BY IDOCK:    0.09 KCAL/MOL
REMARK 922        TOTAL FREE ENERGY PREDICTED BY IDOCK:   -1.40 KCAL/MOL
REMARK 923 INTER-LIGAND FREE ENERGY PREDICTED BY IDOCK:   -3.41 KCAL/MOL
REMARK 924 INTRA-LIGAND FREE ENERGY PREDICTED BY IDOCK:    2.01 KCAL/MOL
REMARK 927      BINDING AFFINITY PREDICTED BY RF-SCORE:    0.00 PKD
ROOT
HETATM    1  C   UNL     1      -5.987  17.775  64.722  1.00  0.00     0.976 C  
HETATM    2  O   UNL     1      -6.368  18.784  65.657  1.00  0.00    -0.218 OA 
ENDROOT
BRANCH   2   3
HETATM    3  C   UNL     1      -7.543  18.546  66.300  1.00  0.00    -0.255 C  
HETATM    4  O   UNL     1      -8.429  19.368  66.497  1.00  0.00    -0.305 OA 
BRANCH   3   5
HETATM    5  C   UNL     1      -7.628  17.122  66.710  1.00  0.00    -0.274 A  
HETATM    6  C   UNL     1      -8.864  16.486  66.952  1.00  0.00    -0.233 A  
HETATM    7  C   UNL     1      -8.924  15.149  67.370  1.00  0.00    -0.193 A  
HETATM    8  C   UNL     1      -7.746  14.444  67.551  1.00  0.00    -0.210 A  
HETATM    9  C   UNL     1      -6.529  15.090  67.304  1.00  0.00     0.175 A  
HETATM   10  C   UNL     1      -6.438  16.403  66.876  1.00  0.00    -0.139 A  
HETATM   11  N   UNL     1      -5.463  14.239  67.559  1.00  0.00     0.103 N  
HETATM   12  H   UNL     1      -4.483  14.501  67.455  1.00  0.00     0.000 HD 
HETATM   13  C   UNL     1      -5.894  12.988  67.974  1.00  0.00    -0.112 C  
HETATM   14  O   UNL     1      -5.172  12.038  68.210  1.00  0.00    -0.046 OA 
HETATM   15  C   UNL     1      -7.411  13.072  68.000  1.00  0.00    -0.123 C  
HETATM   16  C   UNL     1      -8.213  12.051  68.391  1.00  0.00    -0.151 C  
BRANCH  16  17
HETATM   17  C   UNL     1      -9.682  12.211  68.332  1.00  0.00    -0.193 A  
HETATM   18  C   UNL     1     -12.444  12.648  68.299  1.00  0.00     0.645 A  
HETATM   19  C   UNL     1     -10.275  12.877  67.251  1.00  0.00    -0.234 A  
HETATM   20  C   UNL     1     -10.487  11.745  69.379  1.00  0.00     0.115 A  
HETATM   21  C   UNL     1     -11.654  13.098  67.240  1.00  0.00    -0.404 A  
HETATM   22  C   UNL     1     -11.863  11.966  69.365  1.00  0.00    -0.389 A  
ENDBRANCH  16  17
BRANCH  16  23
HETATM   23  N   UNL     1      -7.843  10.787  68.864  1.00  0.00    -0.127 NA 
HETATM   24  H   UNL     1      -7.530  10.680  69.829  1.00  0.00     0.000 HD 
BRANCH  23  25
HETATM   25  C   UNL     1      -7.899   9.648  68.010  1.00  0.00    -0.086 A  
HETATM   26  C   UNL     1      -7.681   7.346  66.333  1.00  0.00    -0.093 A  
HETATM   27  C   UNL     1      -8.213   8.381  68.485  1.00  0.00    -0.124 A  
HETATM   28  C   UNL     1      -7.687   9.785  66.640  1.00  0.00    -0.102 A  
HETATM   29  C   UNL     1      -8.089   7.254  67.668  1.00  0.00    -0.114 A  
HETATM   30  C   UNL     1      -7.578   8.651  65.818  1.00  0.00    -0.089 A  
BRANCH  26  31
HETATM   31  N   UNL     1      -7.333   6.172  65.552  1.00  0.00    -0.077 N  
HETATM   32  C   UNL     1      -7.013   6.353  64.134  1.00  0.00    -0.047 C  
HETATM   33  C   UNL     1      -7.217   4.885  66.130  1.00  0.00    -0.077 C  
HETATM   34  O   UNL     1      -7.502   4.599  67.299  1.00  0.00    -0.082 OA 
BRANCH  33  35
HETATM   35  C   UNL     1      -6.808   3.703  65.238  1.00  0.00    -0.052 C  
BRANCH  35  36
HETATM   36  N   UNL     1      -7.842   2.660  65.068  1.00  0.00    -0.080 NA 
HETATM   37  C   UNL     1      -9.122   2.949  65.754  1.00  0.00    -0.137 C  
HETATM   38  C   UNL     1     -10.105   3.919  65.041  1.00  0.00    -0.162 C  
HETATM   39  N   UNL     1     -10.263   3.732  63.583  1.00  0.00    -0.198 NA 
HETATM   40  C   UNL     1     -11.143   2.608  63.264  1.00  0.00    -0.114 C  
HETATM   41  C   UNL     1      -8.937   3.559  62.968  1.00  0.00    -0.095 C  
HETATM   42  C   UNL     1      -8.090   2.448  63.628  1.00  0.00    -0.081 C  
ENDBRANCH  35  36
ENDBRANCH  33  35
ENDBRANCH  26  31
ENDBRANCH  23  25
ENDBRANCH  16  23
ENDBRANCH   3   5
ENDBRANCH   2   3
TORSDOF 8
ENDMDL
MODEL      111
REMARK 921   NORMALIZED FREE ENERGY PREDICTED BY IDOCK:    0.11 KCAL/MOL
REMARK 922        TOTAL FREE ENERGY PREDICTED BY IDOCK:   -1.37 KCAL/MOL
REMARK 923 INTER-LIGAND FREE ENERGY PREDICTED BY IDOCK:   -2.70 KCAL/MOL
REMARK 924 INTRA-LIGAND FREE ENERGY PREDICTED BY IDOCK:    1.32 KCAL/MOL
REMARK 927      BINDING AFFINITY PREDICTED BY RF-SCORE:    0.00 PKD
ROOT
HETATM    1  C   UNL     1      -9.519   1.825  62.435  1.00  0.00    -0.086 C  
HETATM    2  O   UNL     1      -9.391   3.184  62.854  1.00  0.00    -0.094 OA 
ENDROOT
BRANCH   2   3
HETATM    3  C   UNL     1      -9.835   3.429  64.117  1.00  0.00    -0.172 C  
HETATM    4  O   UNL     1     -10.612   2.727  64.750  1.00  0.00     0.409 OA 
BRANCH   3   5
HETATM    5  C   UNL     1      -9.215   4.668  64.650  1.00  0.00    -0.119 A  
HETATM    6  C   UNL     1      -9.069   5.830  63.863  1.00  0.00     0.657 A  
HETATM    7  C   UNL     1      -8.452   6.981  64.373  1.00  0.00     0.232 A  
HETATM    8  C   UNL     1      -7.974   6.972  65.673  1.00  0.00    -0.123 A  
HETATM    9  C   UNL     1      -8.128   5.811  66.440  1.00  0.00    -0.106 A  
HETATM   10  C   UNL     1      -8.747   4.665  65.970  1.00  0.00    -0.116 A  
HETATM   11  N   UNL     1      -7.571   5.980  67.699  1.00  0.00    -0.089 N  
HETATM   12  H   UNL     1      -7.561   5.261  68.422  1.00  0.00     0.000 HD 
HETATM   13  C   UNL     1      -7.030   7.248  67.854  1.00  0.00    -0.076 C  
HETATM   14  O   UNL     1      -6.530   7.679  68.876  1.00  0.00    -0.041 OA 
HETATM   15  C   UNL     1      -7.258   7.950  66.526  1.00  0.00    -0.083 C  
HETATM   16  C   UNL     1      -6.836   9.210  66.261  1.00  0.00    -0.082 C  
BRANCH  16  17
HETATM   17  C   UNL     1      -7.153   9.828  64.955  1.00  0.00    -0.125 A  
HETATM   18  C   UNL     1      -7.684  10.872  62.416  1.00  0.00    -0.142 A  
HETATM   19  C   UNL     1      -8.376   9.559  64.326  1.00  0.00    -0.172 A  
HETATM   20  C   UNL     1      -6.213  10.644  64.312  1.00  0.00     0.102 A  
HETATM   21  C   UNL     1      -8.636  10.078  63.056  1.00  0.00    -0.195 A  
HETATM   22  C   UNL     1      -6.475  11.161  63.045  1.00  0.00     0.617 A  
ENDBRANCH  16  17
BRANCH  16  23
HETATM   23  N   UNL     1      -6.110  10.076  67.086  1.00  0.00    -0.054 NA 
HETATM   24  H   UNL     1      -5.230   9.763  67.498  1.00  0.00     0.000 HD 
BRANCH  23  25
HETATM   25  C   UNL     1      -6.587  11.391  67.358  1.00  0.00    -0.090 A  
HETATM   26  C   UNL     1      -7.423  14.110  67.606  1.00  0.00    -0.178 A  
HETATM   27  C   UNL     1      -7.908  11.759  67.134  1.00  0.00    -0.166 A  
HETATM   28  C   UNL     1      -5.740  12.345  67.916  1.00  0.00    -0.086 A  
HETATM   29  C   UNL     1      -8.311  13.094  67.239  1.00  0.00    -0.182 A  
HETATM   30  C   UNL     1      -6.153  13.683  68.034  1.00  0.00    -0.138 A  
BRANCH  26  31
HETATM   31  N   UNL     1      -7.774  15.515  67.496  1.00  0.00    -0.154 N  
HETATM   32  C   UNL     1      -9.191  15.882  67.550  1.00  0.00    -0.207 C  
HETATM   33  C   UNL     1      -6.796  16.536  67.420  1.00  0.00    -0.160 C  
HETATM   34  O   UNL     1      -5.577  16.352  67.322  1.00  0.00    -0.146 OA 
BRANCH  33  35
HETATM   35  C   UNL     1      -7.254  18.000  67.344  1.00  0.00    -0.193 C  
BRANCH  35  36
HETATM   36  N   UNL     1      -7.651  18.463  65.996  1.00  0.00    -0.444 NA 
HETATM   37  C   UNL     1      -8.080  19.879  65.937  1.00  0.00    -0.248 C  
HETATM   38  C   UNL     1      -6.960  20.956  65.883  1.00  0.00     0.031 C  
HETATM   39  N   UNL     1      -5.815  20.663  64.995  1.00  0.00    -0.215 NA 
HETATM   40  C   UNL     1      -6.128  20.921  63.590  1.00  0.00    -0.301 C  
HETATM   41  C   UNL     1      -5.387  19.269  65.196  1.00  0.00    -0.170 C  
HETATM   42  C   UNL     1      -6.535  18.244  65.056  1.00  0.00     0.210 C  
ENDBRANCH  35  36
ENDBRANCH  33  35
ENDBRANCH  26  31
ENDBRANCH  23  25
ENDBRANCH  16  23
ENDBRANCH   3   5
ENDBRANCH   2   3
TORSDOF 8
ENDMDL
MODEL      112
REMARK 921   NORMALIZED FREE ENERGY PREDICTED BY IDOCK:    0.24 KCAL/MOL
REMARK 922        TOTAL FREE ENERGY PREDICTED BY IDOCK:   -1.19 KCAL/MOL
REMARK 923 INTER-LIGAND FREE ENERGY PREDICTED BY IDOCK:   -4.78 KCAL/MOL
REMARK 924 INTRA-LIGAND FREE ENERGY PREDICTED BY IDOCK:    3.59 KCAL/MOL
REMARK 927      BINDING AFFINITY PREDICTED BY RF-SCORE:    0.00 PKD
ROOT
HETATM    1  C   UNL     1     -11.408   1.580  62.983  1.00  0.00    -0.258 C  
HETATM    2  O   UNL     1     -11.409   2.664  63.911  1.00  0.00    -0.081 OA 
ENDROOT
BRANCH   2   3
HETATM    3  C   UNL     1     -10.859   3.815  63.438  1.00  0.00    -0.134 C  
HETATM    4  O   UNL     1     -11.088   4.319  62.346  1.00  0.00    -0.058 OA 
BRANCH   3   5
HETATM    5  C   UNL     1      -9.953   4.409  64.452  1.00  0.00    -0.021 A  
HETATM    6  C   UNL     1     -10.192   4.279  65.836  1.00  0.00    -0.197 A  
HETATM    7  C   UNL     1      -9.342   4.875  66.780  1.00  0.00    -0.141 A  
HETATM    8  C   UNL     1      -8.251   5.606  66.340  1.00  0.00    -0.107 A  
HETATM    9  C   UNL     1      -8.029   5.723  64.963  1.00  0.00    -0.121 A  
HETATM   10  C   UNL     1      -8.839   5.134  64.009  1.00  0.00     0.008 A  
HETATM   11  N   UNL     1      -6.911   6.506  64.714  1.00  0.00    -0.053 N  
HETATM   12  H   UNL     1      -6.566   6.733  63.781  1.00  0.00     0.000 HD 
HETATM   13  C   UNL     1      -6.319   6.944  65.890  1.00  0.00    -0.050 C  
HETATM   14  O   UNL     1      -5.296   7.599  65.961  1.00  0.00    -0.027 OA 
HETATM   15  C   UNL     1      -7.181   6.384  67.008  1.00  0.00    -0.074 C  
HETATM   16  C   UNL     1      -6.952   6.620  68.323  1.00  0.00    -0.077 C  
BRANCH  16  17
HETATM   17  C   UNL     1      -7.816   5.987  69.342  1.00  0.00    -0.099 A  
HETATM   18  C   UNL     1      -9.422   4.912  71.363  1.00  0.00    -0.212 A  
HETATM   19  C   UNL     1      -9.192   6.254  69.364  1.00  0.00    -0.139 A  
HETATM   20  C   UNL     1      -7.260   5.158  70.325  1.00  0.00    -0.058 A  
HETATM   21  C   UNL     1      -9.990   5.719  70.377  1.00  0.00    -0.257 A  
HETATM   22  C   UNL     1      -8.059   4.625  71.335  1.00  0.00    -0.101 A  
ENDBRANCH  16  17
BRANCH  16  23
HETATM   23  N   UNL     1      -5.955   7.414  68.903  1.00  0.00    -0.026 NA 
HETATM   24  H   UNL     1      -5.058   6.997  69.153  1.00  0.00     0.000 HD 
BRANCH  23  25
HETATM   25  C   UNL     1      -6.182   8.799  69.148  1.00  0.00    -0.043 A  
HETATM   26  C   UNL     1      -6.305  11.610  69.640  1.00  0.00    -0.133 A  
HETATM   27  C   UNL     1      -6.454   9.697  68.123  1.00  0.00    -0.057 A  
HETATM   28  C   UNL     1      -6.187   9.292  70.450  1.00  0.00    -0.052 A  
HETATM   29  C   UNL     1      -6.497  11.073  68.363  1.00  0.00    -0.057 A  
HETATM   30  C   UNL     1      -6.245  10.675  70.690  1.00  0.00    -0.045 A  
BRANCH  26  31
HETATM   31  N   UNL     1      -6.122  13.034  69.857  1.00  0.00    -0.136 N  
HETATM   32  C   UNL     1      -5.536  13.473  71.126  1.00  0.00    -0.207 C  
HETATM   33  C   UNL     1      -6.416  13.995  68.860  1.00  0.00    -0.096 C  
HETATM   34  O   UNL     1      -6.953  13.755  67.772  1.00  0.00    -0.139 OA 
BRANCH  33  35
HETATM   35  C   UNL     1      -6.158  15.480  69.159  1.00  0.00    -0.110 C  
BRANCH  35  36
HETATM   36  N   UNL     1      -6.982  16.428  68.380  1.00  0.00    -0.140 NA 
HETATM   37  C   UNL     1      -7.246  16.006  66.985  1.00  0.00    -0.213 C  
HETATM   38  C   UNL     1      -8.382  14.969  66.762  1.00  0.00    -0.154 C  
HETATM   39  N   UNL     1      -9.619  15.178  67.545  1.00  0.00    -0.206 NA 
HETATM   40  C   UNL     1     -10.464  16.224  66.971  1.00  0.00    -0.306 C  
HETATM   41  C   UNL     1      -9.266  15.487  68.940  1.00  0.00    -0.218 C  
HETATM   42  C   UNL     1      -8.262  16.653  69.079  1.00  0.00    -0.190 C  
ENDBRANCH  35  36
ENDBRANCH  33  35
ENDBRANCH  26  31
ENDBRANCH  23  25
ENDBRANCH  16  23
ENDBRANCH   3   5
ENDBRANCH   2   3
TORSDOF 8
ENDMDL
MODEL      113
REMARK 921   NORMALIZED FREE ENERGY PREDICTED BY IDOCK:    0.55 KCAL/MOL
REMARK 922        TOTAL FREE ENERGY PREDICTED BY IDOCK:   -0.73 KCAL/MOL
REMARK 923 INTER-LIGAND FREE ENERGY PREDICTED BY IDOCK:   -2.07 KCAL/MOL
REMARK 924 INTRA-LIGAND FREE ENERGY PREDICTED BY IDOCK:    1.34 KCAL/MOL
REMARK 927      BINDING AFFINITY PREDICTED BY RF-SCORE:    0.00 PKD
ROOT
HETATM    1  C   UNL     1     -12.457  15.070  67.405  1.00  0.00     0.745 C  
HETATM    2  O   UNL     1     -12.011  16.357  67.834  1.00  0.00     0.254 OA 
ENDROOT
BRANCH   2   3
HETATM    3  C   UNL     1     -11.102  16.332  68.846  1.00  0.00    -0.345 C  
HETATM    4  O   UNL     1     -11.049  17.125  69.778  1.00  0.00     0.082 OA 
BRANCH   3   5
HETATM    5  C   UNL     1     -10.185  15.176  68.689  1.00  0.00    -0.227 A  
HETATM    6  C   UNL     1     -10.506  13.894  69.181  1.00  0.00    -0.074 A  
HETATM    7  C   UNL     1      -9.613  12.821  69.051  1.00  0.00     0.379 A  
HETATM    8  C   UNL     1      -8.392  13.028  68.431  1.00  0.00    -0.118 A  
HETATM    9  C   UNL     1      -8.090  14.307  67.948  1.00  0.00    -0.151 A  
HETATM   10  C   UNL     1      -8.957  15.382  68.046  1.00  0.00    -0.171 A  
HETATM   11  N   UNL     1      -6.823  14.329  67.384  1.00  0.00    -0.220 N  
HETATM   12  H   UNL     1      -6.393  15.159  66.975  1.00  0.00     0.000 HD 
HETATM   13  C   UNL     1      -6.213  13.085  67.442  1.00  0.00    -0.074 C  
HETATM   14  O   UNL     1      -5.126  12.812  66.972  1.00  0.00    -0.333 OA 
HETATM   15  C   UNL     1      -7.211  12.180  68.145  1.00  0.00    -0.096 C  
HETATM   16  C   UNL     1      -6.972  10.876  68.430  1.00  0.00    -0.070 C  
BRANCH  16  17
HETATM   17  C   UNL     1      -8.026  10.061  69.071  1.00  0.00    -0.108 A  
HETATM   18  C   UNL     1     -10.093   8.655  70.323  1.00  0.00    -0.206 A  
HETATM   19  C   UNL     1      -9.144   9.650  68.332  1.00  0.00    -0.123 A  
HETATM   20  C   UNL     1      -7.943   9.740  70.432  1.00  0.00    -0.139 A  
HETATM   21  C   UNL     1     -10.176   8.952  68.962  1.00  0.00    -0.217 A  
HETATM   22  C   UNL     1      -8.974   9.042  71.057  1.00  0.00    -0.304 A  
ENDBRANCH  16  17
BRANCH  16  23
HETATM   23  N   UNL     1      -5.811  10.133  68.189  1.00  0.00    -0.042 NA 
HETATM   24  H   UNL     1      -4.984  10.284  68.767  1.00  0.00     0.000 HD 
BRANCH  23  25
HETATM   25  C   UNL     1      -5.772   9.167  67.142  1.00  0.00    -0.045 A  
HETATM   26  C   UNL     1      -6.026   7.267  65.024  1.00  0.00    -0.037 A  
HETATM   27  C   UNL     1      -5.465   9.508  65.831  1.00  0.00    -0.040 A  
HETATM   28  C   UNL     1      -5.996   7.820  67.420  1.00  0.00    -0.048 A  
HETATM   29  C   UNL     1      -5.607   8.581  64.794  1.00  0.00    -0.047 A  
HETATM   30  C   UNL     1      -6.123   6.888  66.376  1.00  0.00    -0.034 A  
BRANCH  26  31
HETATM   31  N   UNL     1      -6.391   6.374  63.939  1.00  0.00    -0.029 N  
HETATM   32  C   UNL     1      -6.144   6.816  62.564  1.00  0.00    -0.039 C  
HETATM   33  C   UNL     1      -6.899   5.073  64.168  1.00  0.00    -0.048 C  
HETATM   34  O   UNL     1      -7.192   4.605  65.275  1.00  0.00    -0.065 OA 
BRANCH  33  35
HETATM   35  C   UNL     1      -7.226   4.179  62.962  1.00  0.00    -0.048 C  
BRANCH  35  36
HETATM   36  N   UNL     1      -7.753   2.839  63.300  1.00  0.00    -0.063 NA 
HETATM   37  C   UNL     1      -8.270   2.716  64.682  1.00  0.00    -0.086 C  
HETATM   38  C   UNL     1      -9.703   3.253  64.953  1.00  0.00    -0.109 C  
HETATM   39  N   UNL     1     -10.721   2.942  63.927  1.00  0.00    -0.137 NA 
HETATM   40  C   UNL     1     -11.216   1.571  64.040  1.00  0.00     0.547 C  
HETATM   41  C   UNL     1     -10.158   3.194  62.590  1.00  0.00    -0.108 C  
HETATM   42  C   UNL     1      -8.813   2.475  62.341  1.00  0.00    -0.074 C  
ENDBRANCH  35  36
ENDBRANCH  33  35
ENDBRANCH  26  31
ENDBRANCH  23  25
ENDBRANCH  16  23
ENDBRANCH   3   5
ENDBRANCH   2   3
TORSDOF 8
ENDMDL
MODEL      114
REMARK 921   NORMALIZED FREE ENERGY PREDICTED BY IDOCK:    0.81 KCAL/MOL
REMARK 922        TOTAL FREE ENERGY PREDICTED BY IDOCK:   -0.35 KCAL/MOL
REMARK 923 INTER-LIGAND FREE ENERGY PREDICTED BY IDOCK:    0.38 KCAL/MOL
REMARK 924 INTRA-LIGAND FREE ENERGY PREDICTED BY IDOCK:   -0.73 KCAL/MOL
REMARK 927      BINDING AFFINITY PREDICTED BY RF-SCORE:    0.00 PKD
ROOT
HETATM    1  C   UNL     1     -12.332   4.238  64.685  1.00  0.00     4.368 C  
HETATM    2  O   UNL     1     -11.049   4.834  64.496  1.00  0.00     0.291 OA 
ENDROOT
BRANCH   2   3
HETATM    3  C   UNL     1     -10.036   4.219  65.164  1.00  0.00    -0.204 C  
HETATM    4  O   UNL     1      -9.862   3.009  65.240  1.00  0.00    -0.021 OA 
BRANCH   3   5
HETATM    5  C   UNL     1      -9.131   5.226  65.773  1.00  0.00    -0.161 A  
HETATM    6  C   UNL     1      -9.104   5.461  67.163  1.00  0.00    -0.111 A  
HETATM    7  C   UNL     1      -8.266   6.440  67.718  1.00  0.00    -0.118 A  
HETATM    8  C   UNL     1      -7.455   7.189  66.882  1.00  0.00    -0.100 A  
HETATM    9  C   UNL     1      -7.495   6.940  65.505  1.00  0.00    -0.086 A  
HETATM   10  C   UNL     1      -8.298   5.971  64.929  1.00  0.00    -0.104 A  
HETATM   11  N   UNL     1      -6.638   7.797  64.829  1.00  0.00    -0.044 N  
HETATM   12  H   UNL     1      -6.512   7.800  63.817  1.00  0.00     0.000 HD 
HETATM   13  C   UNL     1      -5.974   8.650  65.699  1.00  0.00    -0.051 C  
HETATM   14  O   UNL     1      -5.127   9.461  65.378  1.00  0.00    -0.035 OA 
HETATM   15  C   UNL     1      -6.492   8.297  67.083  1.00  0.00    -0.058 C  
HETATM   16  C   UNL     1      -6.108   8.938  68.214  1.00  0.00    -0.053 C  
BRANCH  16  17
HETATM   17  C   UNL     1      -6.629   8.488  69.523  1.00  0.00    -0.040 A  
HETATM   18  C   UNL     1      -7.567   7.774  72.058  1.00  0.00    -0.089 A  
HETATM   19  C   UNL     1      -7.964   8.731  69.873  1.00  0.00    -0.106 A  
HETATM   20  C   UNL     1      -5.779   7.861  70.444  1.00  0.00    -0.026 A  
HETATM   21  C   UNL     1      -8.428   8.378  71.141  1.00  0.00    -0.178 A  
HETATM   22  C   UNL     1      -6.245   7.509  71.709  1.00  0.00    -0.039 A  
ENDBRANCH  16  17
BRANCH  16  23
HETATM   23  N   UNL     1      -5.234  10.023  68.345  1.00  0.00    -0.036 NA 
HETATM   24  H   UNL     1      -4.226   9.866  68.321  1.00  0.00     0.000 HD 
BRANCH  23  25
HETATM   25  C   UNL     1      -5.738  11.346  68.510  1.00  0.00    -0.042 A  
HETATM   26  C   UNL     1      -7.050  13.857  68.867  1.00  0.00    -0.110 A  
HETATM   27  C   UNL     1      -5.727  11.993  69.739  1.00  0.00    -0.110 A  
HETATM   28  C   UNL     1      -6.218  12.058  67.413  1.00  0.00    -0.136 A  
HETATM   29  C   UNL     1      -6.385  13.214  69.916  1.00  0.00    -0.038 A  
HETATM   30  C   UNL     1      -6.865  13.293  67.592  1.00  0.00    -0.168 A  
BRANCH  26  31
HETATM   31  N   UNL     1      -7.920  14.999  69.092  1.00  0.00    -0.186 N  
HETATM   32  C   UNL     1      -9.296  14.747  69.527  1.00  0.00     0.107 C  
HETATM   33  C   UNL     1      -7.460  16.333  68.982  1.00  0.00    -0.220 C  
HETATM   34  O   UNL     1      -6.340  16.673  68.582  1.00  0.00    -0.139 OA 
BRANCH  33  35
HETATM   35  C   UNL     1      -8.437  17.482  69.273  1.00  0.00     0.243 C  
BRANCH  35  36
HETATM   36  N   UNL     1      -9.031  18.118  68.078  1.00  0.00    -0.276 NA 
HETATM   37  C   UNL     1      -8.448  17.669  66.793  1.00  0.00    -0.251 C  
HETATM   38  C   UNL     1      -8.954  16.316  66.219  1.00  0.00    -0.331 C  
HETATM   39  N   UNL     1     -10.410  16.074  66.307  1.00  0.00    -0.308 NA 
HETATM   40  C   UNL     1     -11.150  16.789  65.268  1.00  0.00     0.007 C  
HETATM   41  C   UNL     1     -10.886  16.446  67.649  1.00  0.00    -0.280 C  
HETATM   42  C   UNL     1     -10.488  17.879  68.070  1.00  0.00    -0.382 C  
ENDBRANCH  35  36
ENDBRANCH  33  35
ENDBRANCH  26  31
ENDBRANCH  23  25
ENDBRANCH  16  23
ENDBRANCH   3   5
ENDBRANCH   2   3
TORSDOF 8
ENDMDL
MODEL      115
REMARK 921   NORMALIZED FREE ENERGY PREDICTED BY IDOCK:    1.34 KCAL/MOL
REMARK 922        TOTAL FREE ENERGY PREDICTED BY IDOCK:    0.43 KCAL/MOL
REMARK 923 INTER-LIGAND FREE ENERGY PREDICTED BY IDOCK:   -4.15 KCAL/MOL
REMARK 924 INTRA-LIGAND FREE ENERGY PREDICTED BY IDOCK:    4.59 KCAL/MOL
REMARK 927      BINDING AFFINITY PREDICTED BY RF-SCORE:    0.00 PKD
ROOT
HETATM    1  C   UNL     1     -10.581   5.241  66.730  1.00  0.00    -0.242 C  
HETATM    2  O   UNL     1      -9.814   4.181  66.159  1.00  0.00    -0.199 OA 
ENDROOT
BRANCH   2   3
HETATM    3  C   UNL     1      -8.711   4.587  65.473  1.00  0.00    -0.127 C  
HETATM    4  O   UNL     1      -8.277   4.073  64.450  1.00  0.00    -0.092 OA 
BRANCH   3   5
HETATM    5  C   UNL     1      -8.109   5.779  66.122  1.00  0.00    -0.108 A  
HETATM    6  C   UNL     1      -8.175   5.985  67.515  1.00  0.00    -0.106 A  
HETATM    7  C   UNL     1      -7.629   7.134  68.107  1.00  0.00    -0.115 A  
HETATM    8  C   UNL     1      -7.017   8.082  67.304  1.00  0.00    -0.075 A  
HETATM    9  C   UNL     1      -6.961   7.860  65.923  1.00  0.00    -0.057 A  
HETATM   10  C   UNL     1      -7.476   6.731  65.312  1.00  0.00    -0.086 A  
HETATM   11  N   UNL     1      -6.337   8.922  65.283  1.00  0.00    -0.063 N  
HETATM   12  H   UNL     1      -6.193   8.978  64.275  1.00  0.00     0.000 HD 
HETATM   13  C   UNL     1      -5.934   9.898  66.183  1.00  0.00    -0.065 C  
HETATM   14  O   UNL     1      -5.316  10.905  65.897  1.00  0.00    -0.114 OA 
HETATM   15  C   UNL     1      -6.376   9.396  67.547  1.00  0.00    -0.062 C  
HETATM   16  C   UNL     1      -6.195  10.090  68.697  1.00  0.00    -0.044 C  
BRANCH  16  17
HETATM   17  C   UNL     1      -6.612   9.494  69.985  1.00  0.00    -0.065 A  
HETATM   18  C   UNL     1      -7.404   8.226  72.348  1.00  0.00    -0.140 A  
HETATM   19  C   UNL     1      -5.649   9.044  70.898  1.00  0.00    -0.037 A  
HETATM   20  C   UNL     1      -7.971   9.325  70.279  1.00  0.00    -0.155 A  
HETATM   21  C   UNL     1      -6.048   8.408  72.075  1.00  0.00    -0.057 A  
HETATM   22  C   UNL     1      -8.366   8.690  71.455  1.00  0.00    -0.217 A  
ENDBRANCH  16  17
BRANCH  16  23
HETATM   23  N   UNL     1      -5.631  11.359  68.867  1.00  0.00    -0.043 NA 
HETATM   24  H   UNL     1      -4.823  11.476  69.480  1.00  0.00     0.000 HD 
BRANCH  23  25
HETATM   25  C   UNL     1      -6.174  12.491  68.192  1.00  0.00    -0.072 A  
HETATM   26  C   UNL     1      -7.374  14.858  67.137  1.00  0.00    -0.025 A  
HETATM   27  C   UNL     1      -5.409  13.611  67.892  1.00  0.00    -0.090 A  
HETATM   28  C   UNL     1      -7.499  12.483  67.761  1.00  0.00    -0.130 A  
HETATM   29  C   UNL     1      -6.001  14.774  67.392  1.00  0.00     0.220 A  
HETATM   30  C   UNL     1      -8.087  13.650  67.245  1.00  0.00    -0.152 A  
BRANCH  26  31
HETATM   31  N   UNL     1      -8.026  16.121  66.837  1.00  0.00    -0.218 N  
HETATM   32  C   UNL     1      -9.001  16.156  65.745  1.00  0.00    -0.051 C  
HETATM   33  C   UNL     1      -7.808  17.287  67.610  1.00  0.00    -0.182 C  
HETATM   34  O   UNL     1      -6.980  17.395  68.523  1.00  0.00    -0.196 OA 
BRANCH  33  35
HETATM   35  C   UNL     1      -8.567  18.572  67.246  1.00  0.00    -0.262 C  
BRANCH  35  36
HETATM   36  N   UNL     1      -9.937  18.667  67.794  1.00  0.00    -0.330 NA 
HETATM   37  C   UNL     1     -10.965  17.958  66.998  1.00  0.00     0.059 C  
HETATM   38  C   UNL     1     -11.082  16.421  67.200  1.00  0.00     0.026 C  
HETATM   39  N   UNL     1     -11.000  15.939  68.596  1.00  0.00    -0.300 NA 
HETATM   40  C   UNL     1     -12.257  16.128  69.318  1.00  0.00     0.203 C  
HETATM   41  C   UNL     1      -9.887  16.616  69.280  1.00  0.00    -0.194 C  
HETATM   42  C   UNL     1      -9.945  18.157  69.179  1.00  0.00    -0.189 C  
ENDBRANCH  35  36
ENDBRANCH  33  35
ENDBRANCH  26  31
ENDBRANCH  23  25
ENDBRANCH  16  23
ENDBRANCH   3   5
ENDBRANCH   2   3
TORSDOF 8
ENDMDL
MODEL      116
REMARK 921   NORMALIZED FREE ENERGY PREDICTED BY IDOCK:    1.90 KCAL/MOL
REMARK 922        TOTAL FREE ENERGY PREDICTED BY IDOCK:    1.25 KCAL/MOL
REMARK 923 INTER-LIGAND FREE ENERGY PREDICTED BY IDOCK:   -1.56 KCAL/MOL
REMARK 924 INTRA-LIGAND FREE ENERGY PREDICTED BY IDOCK:    2.81 KCAL/MOL
REMARK 927      BINDING AFFINITY PREDICTED BY RF-SCORE:    0.00 PKD
ROOT
HETATM    1  C   UNL     1     -11.058   5.045  67.345  1.00  0.00     1.163 C  
HETATM    2  O   UNL     1     -10.416   3.798  67.083  1.00  0.00     0.703 OA 
ENDROOT
BRANCH   2   3
HETATM    3  C   UNL     1      -9.107   3.900  66.726  1.00  0.00    -0.150 C  
HETATM    4  O   UNL     1      -8.533   3.195  65.905  1.00  0.00    -0.102 OA 
BRANCH   3   5
HETATM    5  C   UNL     1      -8.459   5.020  67.453  1.00  0.00    -0.105 A  
HETATM    6  C   UNL     1      -8.510   5.128  68.858  1.00  0.00    -0.090 A  
HETATM    7  C   UNL     1      -7.920   6.211  69.526  1.00  0.00    -0.107 A  
HETATM    8  C   UNL     1      -7.279   7.193  68.788  1.00  0.00    -0.094 A  
HETATM    9  C   UNL     1      -7.238   7.069  67.394  1.00  0.00    -0.090 A  
HETATM   10  C   UNL     1      -7.797   6.004  66.708  1.00  0.00    -0.101 A  
HETATM   11  N   UNL     1      -6.581   8.151  66.826  1.00  0.00    -0.056 N  
HETATM   12  H   UNL     1      -6.440   8.274  65.824  1.00  0.00     0.000 HD 
HETATM   13  C   UNL     1      -6.138   9.045  67.790  1.00  0.00    -0.051 C  
HETATM   14  O   UNL     1      -5.486  10.048  67.572  1.00  0.00    -0.038 OA 
HETATM   15  C   UNL     1      -6.590   8.462  69.119  1.00  0.00    -0.047 C  
HETATM   16  C   UNL     1      -6.378   9.065  70.314  1.00  0.00    -0.044 C  
BRANCH  16  17
HETATM   17  C   UNL     1      -6.809   8.394  71.559  1.00  0.00    -0.073 A  
HETATM   18  C   UNL     1      -7.697   7.016  73.825  1.00  0.00    -0.117 A  
HETATM   19  C   UNL     1      -5.999   7.413  72.147  1.00  0.00    -0.036 A  
HETATM   20  C   UNL     1      -8.052   8.694  72.131  1.00  0.00    -0.110 A  
HETATM   21  C   UNL     1      -6.448   6.724  73.276  1.00  0.00    -0.063 A  
HETATM   22  C   UNL     1      -8.497   8.005  73.257  1.00  0.00    -0.284 A  
ENDBRANCH  16  17
BRANCH  16  23
HETATM   23  N   UNL     1      -5.768  10.299  70.569  1.00  0.00    -0.075 NA 
HETATM   24  H   UNL     1      -5.097  10.383  71.334  1.00  0.00     0.000 HD 
BRANCH  23  25
HETATM   25  C   UNL     1      -6.076  11.439  69.772  1.00  0.00    -0.124 A  
HETATM   26  C   UNL     1      -6.810  13.863  68.452  1.00  0.00    -0.101 A  
HETATM   27  C   UNL     1      -5.127  12.408  69.469  1.00  0.00    -0.070 A  
HETATM   28  C   UNL     1      -7.346  11.590  69.221  1.00  0.00    -0.009 A  
HETATM   29  C   UNL     1      -5.492  13.601  68.839  1.00  0.00    -0.074 A  
HETATM   30  C   UNL     1      -7.705  12.785  68.574  1.00  0.00    -0.113 A  
BRANCH  26  31
HETATM   31  N   UNL     1      -7.235  15.179  68.008  1.00  0.00    -0.116 N  
HETATM   32  C   UNL     1      -8.351  15.265  67.062  1.00  0.00    -0.234 C  
HETATM   33  C   UNL     1      -6.663  16.370  68.515  1.00  0.00    -0.142 C  
HETATM   34  O   UNL     1      -5.691  16.427  69.279  1.00  0.00    -0.126 OA 
BRANCH  33  35
HETATM   35  C   UNL     1      -7.197  17.722  68.019  1.00  0.00    -0.218 C  
BRANCH  35  36
HETATM   36  N   UNL     1      -8.614  17.719  67.597  1.00  0.00    -0.228 NA 
HETATM   37  C   UNL     1      -9.584  17.820  68.711  1.00  0.00    -0.290 C  
HETATM   38  C   UNL     1      -9.850  19.237  69.292  1.00  0.00    -0.240 C  
HETATM   39  N   UNL     1      -9.987  20.331  68.306  1.00  0.00    -0.310 NA 
HETATM   40  C   UNL     1     -11.308  20.343  67.678  1.00  0.00     1.469 C  
HETATM   41  C   UNL     1      -8.921  20.215  67.298  1.00  0.00    -0.356 C  
HETATM   42  C   UNL     1      -8.842  18.819  66.641  1.00  0.00    -0.314 C  
ENDBRANCH  35  36
ENDBRANCH  33  35
ENDBRANCH  26  31
ENDBRANCH  23  25
ENDBRANCH  16  23
ENDBRANCH   3   5
ENDBRANCH   2   3
TORSDOF 8
ENDMDL
MODEL      117
REMARK 921   NORMALIZED FREE ENERGY PREDICTED BY IDOCK:    1.94 KCAL/MOL
REMARK 922        TOTAL FREE ENERGY PREDICTED BY IDOCK:    1.31 KCAL/MOL
REMARK 923 INTER-LIGAND FREE ENERGY PREDICTED BY IDOCK:    0.72 KCAL/MOL
REMARK 924 INTRA-LIGAND FREE ENERGY PREDICTED BY IDOCK:    0.59 KCAL/MOL
REMARK 927      BINDING AFFINITY PREDICTED BY RF-SCORE:    0.00 PKD
ROOT
HETATM    1  C   UNL     1     -13.792  15.938  63.454  1.00  0.00     5.731 C  
HETATM    2  O   UNL     1     -13.105  15.325  64.544  1.00  0.00     0.004 OA 
ENDROOT
BRANCH   2   3
HETATM    3  C   UNL     1     -11.806  15.708  64.682  1.00  0.00    -0.127 C  
HETATM    4  O   UNL     1     -11.283  16.668  64.131  1.00  0.00    -1.103 OA 
BRANCH   3   5
HETATM    5  C   UNL     1     -11.101  14.811  65.632  1.00  0.00    -0.342 A  
HETATM    6  C   UNL     1      -9.785  15.070  66.066  1.00  0.00    -0.359 A  
HETATM    7  C   UNL     1      -9.122  14.194  66.939  1.00  0.00    -0.260 A  
HETATM    8  C   UNL     1      -9.775  13.054  67.377  1.00  0.00    -0.213 A  
HETATM    9  C   UNL     1     -11.082  12.814  66.937  1.00  0.00    -0.270 A  
HETATM   10  C   UNL     1     -11.767  13.667  66.089  1.00  0.00    -0.391 A  
HETATM   11  N   UNL     1     -11.561  11.621  67.457  1.00  0.00    -0.299 N  
HETATM   12  H   UNL     1     -12.489  11.243  67.263  1.00  0.00     0.000 HD 
HETATM   13  C   UNL     1     -10.625  11.005  68.275  1.00  0.00    -0.187 C  
HETATM   14  O   UNL     1     -10.806   9.978  68.901  1.00  0.00    -0.213 OA 
HETATM   15  C   UNL     1      -9.407  11.912  68.247  1.00  0.00    -0.193 C  
HETATM   16  C   UNL     1      -8.251  11.637  68.900  1.00  0.00     0.020 C  
BRANCH  16  17
HETATM   17  C   UNL     1      -7.137  12.608  68.856  1.00  0.00    -0.069 A  
HETATM   18  C   UNL     1      -5.133  14.555  68.728  1.00  0.00    -0.089 A  
HETATM   19  C   UNL     1      -6.791  13.337  70.002  1.00  0.00     0.412 A  
HETATM   20  C   UNL     1      -6.453  12.846  67.656  1.00  0.00    -0.157 A  
HETATM   21  C   UNL     1      -5.793  14.311  69.934  1.00  0.00    -0.123 A  
HETATM   22  C   UNL     1      -5.458  13.819  67.591  1.00  0.00     0.026 A  
ENDBRANCH  16  17
BRANCH  16  23
HETATM   23  N   UNL     1      -7.932  10.510  69.666  1.00  0.00    -0.332 NA 
HETATM   24  H   UNL     1      -8.074  10.528  70.676  1.00  0.00     0.000 HD 
BRANCH  23  25
HETATM   25  C   UNL     1      -7.411   9.336  69.048  1.00  0.00    -0.073 A  
HETATM   26  C   UNL     1      -6.484   6.818  68.072  1.00  0.00    -0.053 A  
HETATM   27  C   UNL     1      -8.107   8.648  68.062  1.00  0.00    -0.111 A  
HETATM   28  C   UNL     1      -6.144   8.868  69.385  1.00  0.00    -0.040 A  
HETATM   29  C   UNL     1      -7.661   7.407  67.599  1.00  0.00    -0.112 A  
HETATM   30  C   UNL     1      -5.691   7.627  68.905  1.00  0.00    -0.023 A  
BRANCH  26  31
HETATM   31  N   UNL     1      -6.137   5.440  67.768  1.00  0.00    -0.025 N  
HETATM   32  C   UNL     1      -6.369   4.952  66.406  1.00  0.00    -0.036 C  
HETATM   33  C   UNL     1      -5.515   4.590  68.713  1.00  0.00    -0.012 C  
HETATM   34  O   UNL     1      -5.310   4.870  69.900  1.00  0.00     0.000 OA 
BRANCH  33  35
HETATM   35  C   UNL     1      -5.148   3.158  68.296  1.00  0.00    -0.011 C  
BRANCH  35  36
HETATM   36  N   UNL     1      -6.019   2.101  68.853  1.00  0.00    -0.023 NA 
HETATM   37  C   UNL     1      -6.763   2.498  70.070  1.00  0.00    -0.033 C  
HETATM   38  C   UNL     1      -8.056   3.337  69.866  1.00  0.00    -0.045 C  
HETATM   39  N   UNL     1      -8.942   2.912  68.762  1.00  0.00    -0.117 NA 
HETATM   40  C   UNL     1      -9.754   1.751  69.123  1.00  0.00     0.078 C  
HETATM   41  C   UNL     1      -8.131   2.640  67.564  1.00  0.00    -0.069 C  
HETATM   42  C   UNL     1      -6.968   1.654  67.816  1.00  0.00    -0.035 C  
ENDBRANCH  35  36
ENDBRANCH  33  35
ENDBRANCH  26  31
ENDBRANCH  23  25
ENDBRANCH  16  23
ENDBRANCH   3   5
ENDBRANCH   2   3
TORSDOF 8
ENDMDL
MODEL      118
REMARK 921   NORMALIZED FREE ENERGY PREDICTED BY IDOCK:    1.95 KCAL/MOL
REMARK 922        TOTAL FREE ENERGY PREDICTED BY IDOCK:    1.33 KCAL/MOL
REMARK 923 INTER-LIGAND FREE ENERGY PREDICTED BY IDOCK:   -0.51 KCAL/MOL
REMARK 924 INTRA-LIGAND FREE ENERGY PREDICTED BY IDOCK:    1.84 KCAL/MOL
REMARK 927      BINDING AFFINITY PREDICTED BY RF-SCORE:    0.00 PKD
ROOT
HETATM    1  C   UNL     1     -11.261   4.225  64.204  1.00  0.00     0.449 C  
HETATM    2  O   UNL     1      -9.846   4.288  64.378  1.00  0.00    -0.160 OA 
ENDROOT
BRANCH   2   3
HETATM    3  C   UNL     1      -9.275   5.447  63.952  1.00  0.00     0.497 C  
HETATM    4  O   UNL     1      -9.091   5.765  62.784  1.00  0.00     0.239 OA 
BRANCH   3   5
HETATM    5  C   UNL     1      -8.925   6.307  65.110  1.00  0.00     0.216 A  
HETATM    6  C   UNL     1      -9.886   6.702  66.064  1.00  0.00     0.204 A  
HETATM    7  C   UNL     1      -9.545   7.541  67.135  1.00  0.00    -0.207 A  
HETATM    8  C   UNL     1      -8.240   7.991  67.252  1.00  0.00    -0.122 A  
HETATM    9  C   UNL     1      -7.300   7.588  66.296  1.00  0.00    -0.082 A  
HETATM   10  C   UNL     1      -7.602   6.748  65.238  1.00  0.00    -0.092 A  
HETATM   11  N   UNL     1      -6.061   8.153  66.561  1.00  0.00    -0.048 N  
HETATM   12  H   UNL     1      -5.229   8.004  65.990  1.00  0.00     0.000 HD 
HETATM   13  C   UNL     1      -6.092   8.947  67.698  1.00  0.00    -0.047 C  
HETATM   14  O   UNL     1      -5.134   9.514  68.186  1.00  0.00    -0.030 OA 
HETATM   15  C   UNL     1      -7.527   8.887  68.193  1.00  0.00    -0.092 C  
HETATM   16  C   UNL     1      -7.978   9.567  69.276  1.00  0.00    -0.094 C  
BRANCH  16  17
HETATM   17  C   UNL     1      -9.381   9.402  69.712  1.00  0.00    -0.217 A  
HETATM   18  C   UNL     1     -11.992   9.143  70.678  1.00  0.00    -0.171 A  
HETATM   19  C   UNL     1     -10.293  10.456  69.565  1.00  0.00    -0.264 A  
HETATM   20  C   UNL     1      -9.797   8.212  70.322  1.00  0.00    -0.184 A  
HETATM   21  C   UNL     1     -11.595  10.325  70.053  1.00  0.00    -0.349 A  
HETATM   22  C   UNL     1     -11.097   8.083  70.807  1.00  0.00    -0.269 A  
ENDBRANCH  16  17
BRANCH  16  23
HETATM   23  N   UNL     1      -7.274  10.449  70.103  1.00  0.00    -0.304 NA 
HETATM   24  H   UNL     1      -7.019  10.162  71.049  1.00  0.00     0.000 HD 
BRANCH  23  25
HETATM   25  C   UNL     1      -6.908  11.745  69.637  1.00  0.00     0.026 A  
HETATM   26  C   UNL     1      -6.487  14.367  68.585  1.00  0.00    -0.087 A  
HETATM   27  C   UNL     1      -6.932  12.862  70.462  1.00  0.00     1.743 A  
HETATM   28  C   UNL     1      -6.460  11.922  68.330  1.00  0.00    -0.054 A  
HETATM   29  C   UNL     1      -6.743  14.146  69.942  1.00  0.00    -0.036 A  
HETATM   30  C   UNL     1      -6.255  13.213  67.814  1.00  0.00    -0.156 A  
BRANCH  26  31
HETATM   31  N   UNL     1      -6.515  15.697  68.003  1.00  0.00    -0.126 N  
HETATM   32  C   UNL     1      -6.677  15.816  66.552  1.00  0.00     1.013 C  
HETATM   33  C   UNL     1      -6.471  16.870  68.794  1.00  0.00    -0.178 C  
HETATM   34  O   UNL     1      -6.291  16.901  70.017  1.00  0.00    -0.168 OA 
BRANCH  33  35
HETATM   35  C   UNL     1      -6.543  18.239  68.099  1.00  0.00    -0.205 C  
BRANCH  35  36
HETATM   36  N   UNL     1      -7.674  18.405  67.161  1.00  0.00    -0.222 NA 
HETATM   37  C   UNL     1      -8.888  17.638  67.523  1.00  0.00    -0.231 C  
HETATM   38  C   UNL     1      -9.813  18.249  68.612  1.00  0.00    -0.380 C  
HETATM   39  N   UNL     1     -10.057  19.704  68.519  1.00  0.00    -0.441 NA 
HETATM   40  C   UNL     1     -11.050  20.031  67.496  1.00  0.00     0.214 C  
HETATM   41  C   UNL     1      -8.784  20.397  68.265  1.00  0.00     0.192 C  
HETATM   42  C   UNL     1      -8.009  19.838  67.050  1.00  0.00    -0.289 C  
ENDBRANCH  35  36
ENDBRANCH  33  35
ENDBRANCH  26  31
ENDBRANCH  23  25
ENDBRANCH  16  23
ENDBRANCH   3   5
ENDBRANCH   2   3
TORSDOF 8
ENDMDL
MODEL      119
REMARK 921   NORMALIZED FREE ENERGY PREDICTED BY IDOCK:    2.40 KCAL/MOL
REMARK 922        TOTAL FREE ENERGY PREDICTED BY IDOCK:    1.98 KCAL/MOL
REMARK 923 INTER-LIGAND FREE ENERGY PREDICTED BY IDOCK:    0.63 KCAL/MOL
REMARK 924 INTRA-LIGAND FREE ENERGY PREDICTED BY IDOCK:    1.34 KCAL/MOL
REMARK 927      BINDING AFFINITY PREDICTED BY RF-SCORE:    0.00 PKD
ROOT
HETATM    1  C   UNL     1     -13.233  15.034  69.984  1.00  0.00     0.272 C  
HETATM    2  O   UNL     1     -11.863  15.426  69.904  1.00  0.00    -0.304 OA 
ENDROOT
BRANCH   2   3
HETATM    3  C   UNL     1     -11.386  15.558  68.636  1.00  0.00    -0.344 C  
HETATM    4  O   UNL     1     -11.325  16.603  68.002  1.00  0.00    -0.251 OA 
BRANCH   3   5
HETATM    5  C   UNL     1     -10.908  14.248  68.125  1.00  0.00    -0.253 A  
HETATM    6  C   UNL     1      -9.565  14.037  67.749  1.00  0.00    -0.216 A  
HETATM    7  C   UNL     1      -9.139  12.803  67.238  1.00  0.00    -0.200 A  
HETATM    8  C   UNL     1     -10.058  11.776  67.097  1.00  0.00    -0.224 A  
HETATM    9  C   UNL     1     -11.386  12.003  67.476  1.00  0.00    -0.319 A  
HETATM   10  C   UNL     1     -11.834  13.204  67.999  1.00  0.00    -0.398 A  
HETATM   11  N   UNL     1     -12.160  10.876  67.243  1.00  0.00     0.808 N  
HETATM   12  H   UNL     1     -13.160  10.817  67.437  1.00  0.00     0.000 HD 
HETATM   13  C   UNL     1     -11.408   9.838  66.713  1.00  0.00     0.968 C  
HETATM   14  O   UNL     1     -11.824   8.722  66.467  1.00  0.00     3.470 OA 
HETATM   15  C   UNL     1      -9.998  10.388  66.581  1.00  0.00    -0.262 C  
HETATM   16  C   UNL     1      -8.962   9.683  66.063  1.00  0.00    -0.162 C  
BRANCH  16  17
HETATM   17  C   UNL     1      -7.613  10.287  66.025  1.00  0.00    -0.128 A  
HETATM   18  C   UNL     1      -5.127  11.563  65.904  1.00  0.00     0.173 A  
HETATM   19  C   UNL     1      -7.091  10.919  67.162  1.00  0.00    -0.103 A  
HETATM   20  C   UNL     1      -6.868  10.279  64.839  1.00  0.00    -0.100 A  
HETATM   21  C   UNL     1      -5.852  11.559  67.097  1.00  0.00    -0.110 A  
HETATM   22  C   UNL     1      -5.631  10.918  64.777  1.00  0.00     0.090 A  
ENDBRANCH  16  17
BRANCH  16  23
HETATM   23  N   UNL     1      -8.970   8.388  65.534  1.00  0.00    -0.350 NA 
HETATM   24  H   UNL     1      -9.356   8.224  64.604  1.00  0.00     0.000 HD 
BRANCH  23  25
HETATM   25  C   UNL     1      -8.446   7.295  66.283  1.00  0.00    -0.134 A  
HETATM   26  C   UNL     1      -7.368   5.316  68.038  1.00  0.00    -0.072 A  
HETATM   27  C   UNL     1      -9.267   6.361  66.903  1.00  0.00    -0.144 A  
HETATM   28  C   UNL     1      -7.070   7.099  66.372  1.00  0.00    -0.077 A  
HETATM   29  C   UNL     1      -8.739   5.405  67.775  1.00  0.00    -0.106 A  
HETATM   30  C   UNL     1      -6.542   6.127  67.238  1.00  0.00    -0.055 A  
BRANCH  26  31
HETATM   31  N   UNL     1      -6.841   4.484  69.105  1.00  0.00    -0.049 N  
HETATM   32  C   UNL     1      -5.607   4.909  69.771  1.00  0.00    -0.012 C  
HETATM   33  C   UNL     1      -7.517   3.330  69.570  1.00  0.00    -0.045 C  
HETATM   34  O   UNL     1      -8.537   2.847  69.063  1.00  0.00    -0.064 OA 
BRANCH  33  35
HETATM   35  C   UNL     1      -6.908   2.527  70.729  1.00  0.00    -0.033 C  
BRANCH  35  36
HETATM   36  N   UNL     1      -6.970   3.189  72.050  1.00  0.00    -0.033 NA 
HETATM   37  C   UNL     1      -7.655   4.502  72.045  1.00  0.00    -0.088 C  
HETATM   38  C   UNL     1      -9.209   4.489  72.073  1.00  0.00    -0.132 C  
HETATM   39  N   UNL     1      -9.838   3.515  72.990  1.00  0.00    -0.130 NA 
HETATM   40  C   UNL     1      -9.818   3.974  74.379  1.00  0.00    -0.136 C  
HETATM   41  C   UNL     1      -9.166   2.212  72.852  1.00  0.00    -0.073 C  
HETATM   42  C   UNL     1      -7.631   2.289  73.015  1.00  0.00    -0.041 C  
ENDBRANCH  35  36
ENDBRANCH  33  35
ENDBRANCH  26  31
ENDBRANCH  23  25
ENDBRANCH  16  23
ENDBRANCH   3   5
ENDBRANCH   2   3
TORSDOF 8
ENDMDL
MODEL      120
REMARK 921   NORMALIZED FREE ENERGY PREDICTED BY IDOCK:    2.80 KCAL/MOL
REMARK 922        TOTAL FREE ENERGY PREDICTED BY IDOCK:    2.57 KCAL/MOL
REMARK 923 INTER-LIGAND FREE ENERGY PREDICTED BY IDOCK:   -4.19 KCAL/MOL
REMARK 924 INTRA-LIGAND FREE ENERGY PREDICTED BY IDOCK:    6.76 KCAL/MOL
REMARK 927      BINDING AFFINITY PREDICTED BY RF-SCORE:    0.00 PKD
ROOT
HETATM    1  C   UNL     1      -9.947  20.181  68.497  1.00  0.00    -0.249 C  
HETATM    2  O   UNL     1     -10.601  18.913  68.547  1.00  0.00    -0.217 OA 
ENDROOT
BRANCH   2   3
HETATM    3  C   UNL     1     -10.911  18.389  67.330  1.00  0.00    -0.121 C  
HETATM    4  O   UNL     1     -11.008  19.019  66.285  1.00  0.00    -0.226 OA 
BRANCH   3   5
HETATM    5  C   UNL     1     -11.089  16.919  67.432  1.00  0.00     0.036 A  
HETATM    6  C   UNL     1     -11.741  16.318  68.529  1.00  0.00    -0.083 A  
HETATM    7  C   UNL     1     -11.871  14.925  68.624  1.00  0.00    -0.332 A  
HETATM    8  C   UNL     1     -11.345  14.127  67.622  1.00  0.00    -0.342 A  
HETATM    9  C   UNL     1     -10.701  14.740  66.540  1.00  0.00    -0.319 A  
HETATM   10  C   UNL     1     -10.571  16.112  66.410  1.00  0.00    -0.269 A  
HETATM   11  N   UNL     1     -10.221  13.787  65.654  1.00  0.00    -0.305 N  
HETATM   12  H   UNL     1      -9.711  14.007  64.798  1.00  0.00     0.000 HD 
HETATM   13  C   UNL     1     -10.518  12.499  66.075  1.00  0.00    -0.258 C  
HETATM   14  O   UNL     1     -10.263  11.482  65.459  1.00  0.00    -0.237 OA 
HETATM   15  C   UNL     1     -11.256  12.666  67.392  1.00  0.00    -0.337 C  
HETATM   16  C   UNL     1     -11.691  11.626  68.146  1.00  0.00    -0.295 C  
BRANCH  16  17
HETATM   17  C   UNL     1     -12.447  11.890  69.389  1.00  0.00     0.125 A  
HETATM   18  C   UNL     1     -13.758  12.327  71.820  1.00  0.00     0.138 A  
HETATM   19  C   UNL     1     -12.312  13.118  70.049  1.00  0.00    -0.241 A  
HETATM   20  C   UNL     1     -13.264  10.896  69.944  1.00  0.00     0.555 A  
HETATM   21  C   UNL     1     -12.964  13.331  71.265  1.00  0.00    -0.353 A  
HETATM   22  C   UNL     1     -13.914  11.111  71.157  1.00  0.00     1.640 A  
ENDBRANCH  16  17
BRANCH  16  23
HETATM   23  N   UNL     1     -11.531  10.256  67.912  1.00  0.00    -0.652 NA 
HETATM   24  H   UNL     1     -11.982   9.825  67.104  1.00  0.00     0.000 HD 
BRANCH  23  25
HETATM   25  C   UNL     1     -10.745   9.456  68.790  1.00  0.00    -0.171 A  
HETATM   26  C   UNL     1      -9.375   7.602  70.476  1.00  0.00    -0.163 A  
HETATM   27  C   UNL     1      -9.561   8.854  68.383  1.00  0.00    -0.157 A  
HETATM   28  C   UNL     1     -11.122   9.294  70.121  1.00  0.00    -0.260 A  
HETATM   29  C   UNL     1      -8.901   7.934  69.203  1.00  0.00    -0.142 A  
HETATM   30  C   UNL     1     -10.448   8.380  70.948  1.00  0.00    -0.235 A  
BRANCH  26  31
HETATM   31  N   UNL     1      -8.829   6.490  71.235  1.00  0.00    -0.137 N  
HETATM   32  C   UNL     1      -9.516   5.198  71.163  1.00  0.00    -0.153 C  
HETATM   33  C   UNL     1      -7.623   6.594  71.969  1.00  0.00    -0.096 C  
HETATM   34  O   UNL     1      -6.980   7.636  72.142  1.00  0.00    -0.061 OA 
BRANCH  33  35
HETATM   35  C   UNL     1      -7.097   5.358  72.714  1.00  0.00    -0.088 C  
BRANCH  35  36
HETATM   36  N   UNL     1      -7.459   4.060  72.106  1.00  0.00    -0.064 NA 
HETATM   37  C   UNL     1      -7.707   4.115  70.647  1.00  0.00    -0.048 C  
HETATM   38  C   UNL     1      -6.462   4.106  69.716  1.00  0.00    -0.032 C  
HETATM   39  N   UNL     1      -5.380   3.167  70.082  1.00  0.00    -0.008 NA 
HETATM   40  C   UNL     1      -5.686   1.794  69.682  1.00  0.00    -0.018 C  
HETATM   41  C   UNL     1      -5.128   3.254  71.529  1.00  0.00     0.000 C  
HETATM   42  C   UNL     1      -6.398   3.074  72.390  1.00  0.00    -0.014 C  
ENDBRANCH  35  36
ENDBRANCH  33  35
ENDBRANCH  26  31
ENDBRANCH  23  25
ENDBRANCH  16  23
ENDBRANCH   3   5
ENDBRANCH   2   3
TORSDOF 8
ENDMDL
MODEL      121
REMARK 921   NORMALIZED FREE ENERGY PREDICTED BY IDOCK:    3.31 KCAL/MOL
REMARK 922        TOTAL FREE ENERGY PREDICTED BY IDOCK:    3.31 KCAL/MOL
REMARK 923 INTER-LIGAND FREE ENERGY PREDICTED BY IDOCK:    0.50 KCAL/MOL
REMARK 924 INTRA-LIGAND FREE ENERGY PREDICTED BY IDOCK:    2.82 KCAL/MOL
REMARK 927      BINDING AFFINITY PREDICTED BY RF-SCORE:    0.00 PKD
ROOT
HETATM    1  C   UNL     1      -9.534   2.420  63.762  1.00  0.00    -0.116 C  
HETATM    2  O   UNL     1      -9.790   3.763  63.351  1.00  0.00    -0.140 OA 
ENDROOT
BRANCH   2   3
HETATM    3  C   UNL     1     -10.686   4.431  64.127  1.00  0.00     0.171 C  
HETATM    4  O   UNL     1     -11.903   4.412  63.990  1.00  0.00     0.539 OA 
BRANCH   3   5
HETATM    5  C   UNL     1      -9.985   5.173  65.205  1.00  0.00     0.274 A  
HETATM    6  C   UNL     1      -9.041   4.551  66.048  1.00  0.00    -0.130 A  
HETATM    7  C   UNL     1      -8.411   5.260  67.082  1.00  0.00    -0.106 A  
HETATM    8  C   UNL     1      -8.729   6.593  67.278  1.00  0.00    -0.118 A  
HETATM    9  C   UNL     1      -9.668   7.194  66.431  1.00  0.00    -0.072 A  
HETATM   10  C   UNL     1     -10.293   6.526  65.392  1.00  0.00     2.126 A  
HETATM   11  N   UNL     1      -9.874   8.518  66.791  1.00  0.00    -0.232 N  
HETATM   12  H   UNL     1     -10.522   9.146  66.317  1.00  0.00     0.000 HD 
HETATM   13  C   UNL     1      -9.090   8.882  67.876  1.00  0.00    -0.139 C  
HETATM   14  O   UNL     1      -9.033   9.996  68.360  1.00  0.00    -0.118 OA 
HETATM   15  C   UNL     1      -8.314   7.631  68.252  1.00  0.00    -0.125 C  
HETATM   16  C   UNL     1      -7.454   7.565  69.298  1.00  0.00    -0.091 C  
BRANCH  16  17
HETATM   17  C   UNL     1      -6.705   6.316  69.552  1.00  0.00    -0.056 A  
HETATM   18  C   UNL     1      -5.157   4.028  69.986  1.00  0.00     0.000 A  
HETATM   19  C   UNL     1      -6.151   6.072  70.816  1.00  0.00    -0.030 A  
HETATM   20  C   UNL     1      -6.498   5.393  68.519  1.00  0.00    -0.040 A  
HETATM   21  C   UNL     1      -5.374   4.931  71.028  1.00  0.00    -0.004 A  
HETATM   22  C   UNL     1      -5.724   4.255  68.734  1.00  0.00    -0.017 A  
ENDBRANCH  16  17
BRANCH  16  23
HETATM   23  N   UNL     1      -7.139   8.563  70.227  1.00  0.00    -0.042 NA 
HETATM   24  H   UNL     1      -7.164   8.351  71.225  1.00  0.00     0.000 HD 
BRANCH  23  25
HETATM   25  C   UNL     1      -6.784   9.873  69.794  1.00  0.00    -0.076 A  
HETATM   26  C   UNL     1      -6.361  12.501  68.758  1.00  0.00    -0.079 A  
HETATM   27  C   UNL     1      -7.011  10.998  70.576  1.00  0.00     0.786 A  
HETATM   28  C   UNL     1      -6.141  10.059  68.572  1.00  0.00    -0.045 A  
HETATM   29  C   UNL     1      -6.820  12.284  70.061  1.00  0.00     0.494 A  
HETATM   30  C   UNL     1      -5.936  11.353  68.064  1.00  0.00    -0.046 A  
BRANCH  26  31
HETATM   31  N   UNL     1      -6.377  13.818  68.146  1.00  0.00    -0.110 N  
HETATM   32  C   UNL     1      -5.170  14.643  68.244  1.00  0.00    -0.113 C  
HETATM   33  C   UNL     1      -7.482  14.291  67.398  1.00  0.00    -0.149 C  
HETATM   34  O   UNL     1      -8.568  13.710  67.281  1.00  0.00    -0.197 OA 
BRANCH  33  35
HETATM   35  C   UNL     1      -7.401  15.683  66.752  1.00  0.00     0.045 C  
BRANCH  35  36
HETATM   36  N   UNL     1      -8.427  16.645  67.208  1.00  0.00    -0.189 NA 
HETATM   37  C   UNL     1      -8.143  17.265  68.523  1.00  0.00    -0.262 C  
HETATM   38  C   UNL     1      -7.142  18.454  68.543  1.00  0.00    -0.273 C  
HETATM   39  N   UNL     1      -7.285  19.446  67.457  1.00  0.00    -0.218 NA 
HETATM   40  C   UNL     1      -8.388  20.374  67.701  1.00  0.00    -0.228 C  
HETATM   41  C   UNL     1      -7.456  18.744  66.175  1.00  0.00    -0.258 C  
HETATM   42  C   UNL     1      -8.594  17.700  66.190  1.00  0.00    -0.119 C  
ENDBRANCH  35  36
ENDBRANCH  33  35
ENDBRANCH  26  31
ENDBRANCH  23  25
ENDBRANCH  16  23
ENDBRANCH   3   5
ENDBRANCH   2   3
TORSDOF 8
ENDMDL
MODEL      122
REMARK 921   NORMALIZED FREE ENERGY PREDICTED BY IDOCK:    5.12 KCAL/MOL
REMARK 922        TOTAL FREE ENERGY PREDICTED BY IDOCK:    5.98 KCAL/MOL
REMARK 923 INTER-LIGAND FREE ENERGY PREDICTED BY IDOCK:    6.70 KCAL/MOL
REMARK 924 INTRA-LIGAND FREE ENERGY PREDICTED BY IDOCK:   -0.72 KCAL/MOL
REMARK 927      BINDING AFFINITY PREDICTED BY RF-SCORE:    0.00 PKD
ROOT
HETATM    1  C   UNL     1      -6.460  20.555  72.584  1.00  0.00     2.274 C  
HETATM    2  O   UNL     1      -7.523  19.700  72.164  1.00  0.00     1.936 OA 
ENDROOT
BRANCH   2   3
HETATM    3  C   UNL     1      -8.050  20.008  70.948  1.00  0.00     1.787 C  
HETATM    4  O   UNL     1      -8.470  21.108  70.610  1.00  0.00     2.683 OA 
BRANCH   3   5
HETATM    5  C   UNL     1      -8.016  18.823  70.055  1.00  0.00     1.280 A  
HETATM    6  C   UNL     1      -9.193  18.239  69.543  1.00  0.00     0.545 A  
HETATM    7  C   UNL     1      -9.144  17.100  68.727  1.00  0.00    -0.244 A  
HETATM    8  C   UNL     1      -7.915  16.538  68.424  1.00  0.00    -0.194 A  
HETATM    9  C   UNL     1      -6.757  17.132  68.940  1.00  0.00    -0.209 A  
HETATM   10  C   UNL     1      -6.772  18.265  69.734  1.00  0.00     0.081 A  
HETATM   11  N   UNL     1      -5.630  16.422  68.552  1.00  0.00    -0.104 N  
HETATM   12  H   UNL     1      -4.677  16.669  68.819  1.00  0.00     0.000 HD 
HETATM   13  C   UNL     1      -5.958  15.334  67.755  1.00  0.00    -0.137 C  
HETATM   14  O   UNL     1      -5.160  14.578  67.234  1.00  0.00    -0.276 OA 
HETATM   15  C   UNL     1      -7.473  15.355  67.648  1.00  0.00    -0.195 C  
HETATM   16  C   UNL     1      -8.192  14.423  66.974  1.00  0.00    -0.109 C  
BRANCH  16  17
HETATM   17  C   UNL     1      -9.661  14.558  66.882  1.00  0.00    -0.257 A  
HETATM   18  C   UNL     1     -12.430  14.942  66.798  1.00  0.00     0.473 A  
HETATM   19  C   UNL     1     -10.237  15.303  65.843  1.00  0.00    -0.353 A  
HETATM   20  C   UNL     1     -10.487  13.988  67.860  1.00  0.00    -0.241 A  
HETATM   21  C   UNL     1     -11.619  15.497  65.808  1.00  0.00     0.181 A  
HETATM   22  C   UNL     1     -11.866  14.182  67.821  1.00  0.00    -0.414 A  
ENDBRANCH  16  17
BRANCH  16  23
HETATM   23  N   UNL     1      -7.727  13.287  66.302  1.00  0.00     0.711 NA 
HETATM   24  H   UNL     1      -7.327  13.380  65.368  1.00  0.00     0.000 HD 
BRANCH  23  25
HETATM   25  C   UNL     1      -7.810  12.001  66.910  1.00  0.00    -0.095 A  
HETATM   26  C   UNL     1      -8.282   9.405  68.003  1.00  0.00    -0.114 A  
HETATM   27  C   UNL     1      -7.295  10.861  66.303  1.00  0.00    -0.127 A  
HETATM   28  C   UNL     1      -8.373  11.855  68.175  1.00  0.00    -0.161 A  
HETATM   29  C   UNL     1      -7.542   9.591  66.831  1.00  0.00    -0.095 A  
HETATM   30  C   UNL     1      -8.607  10.577  68.710  1.00  0.00    -0.146 A  
BRANCH  26  31
HETATM   31  N   UNL     1      -8.733   8.091  68.428  1.00  0.00    -0.131 N  
HETATM   32  C   UNL     1      -9.906   7.513  67.769  1.00  0.00    -0.155 C  
HETATM   33  C   UNL     1      -8.034   7.328  69.394  1.00  0.00    -0.125 C  
HETATM   34  O   UNL     1      -7.062   7.722  70.050  1.00  0.00    -0.053 OA 
BRANCH  33  35
HETATM   35  C   UNL     1      -8.559   5.931  69.760  1.00  0.00    -0.129 C  
BRANCH  35  36
HETATM   36  N   UNL     1      -9.310   5.858  71.031  1.00  0.00    -0.159 NA 
HETATM   37  C   UNL     1      -9.575   7.171  71.663  1.00  0.00    -0.155 C  
HETATM   38  C   UNL     1     -10.768   7.997  71.105  1.00  0.00    -0.220 C  
HETATM   39  N   UNL     1     -12.003   7.240  70.809  1.00  0.00    -0.301 NA 
HETATM   40  C   UNL     1     -12.773   6.948  72.017  1.00  0.00    -0.193 C  
HETATM   41  C   UNL     1     -11.656   6.004  70.088  1.00  0.00    -0.024 C  
HETATM   42  C   UNL     1     -10.586   5.151  70.805  1.00  0.00    -0.135 C  
ENDBRANCH  35  36
ENDBRANCH  33  35
ENDBRANCH  26  31
ENDBRANCH  23  25
ENDBRANCH  16  23
ENDBRANCH   3   5
ENDBRANCH   2   3
TORSDOF 8
ENDMDL
MODEL      123
REMARK 921   NORMALIZED FREE ENERGY PREDICTED BY IDOCK:    5.69 KCAL/MOL
REMARK 922        TOTAL FREE ENERGY PREDICTED BY IDOCK:    6.81 KCAL/MOL
REMARK 923 INTER-LIGAND FREE ENERGY PREDICTED BY IDOCK:    1.90 KCAL/MOL
REMARK 924 INTRA-LIGAND FREE ENERGY PREDICTED BY IDOCK:    4.91 KCAL/MOL
REMARK 927      BINDING AFFINITY PREDICTED BY RF-SCORE:    0.00 PKD
ROOT
HETATM    1  C   UNL     1      -9.146   3.505  65.558  1.00  0.00    -0.147 C  
HETATM    2  O   UNL     1      -8.388   2.830  66.562  1.00  0.00    -0.086 OA 
ENDROOT
BRANCH   2   3
HETATM    3  C   UNL     1      -9.044   2.646  67.739  1.00  0.00    -0.187 C  
HETATM    4  O   UNL     1      -9.228   1.570  68.294  1.00  0.00    -0.129 OA 
BRANCH   3   5
HETATM    5  C   UNL     1      -9.490   3.950  68.291  1.00  0.00    -0.212 A  
HETATM    6  C   UNL     1      -9.263   5.165  67.612  1.00  0.00    -0.127 A  
HETATM    7  C   UNL     1      -9.663   6.392  68.164  1.00  0.00    -0.122 A  
HETATM    8  C   UNL     1     -10.287   6.405  69.400  1.00  0.00    -0.252 A  
HETATM    9  C   UNL     1     -10.505   5.189  70.059  1.00  0.00    -0.235 A  
HETATM   10  C   UNL     1     -10.137   3.963  69.533  1.00  0.00     0.324 A  
HETATM   11  N   UNL     1     -11.116   5.401  71.285  1.00  0.00    -0.070 N  
HETATM   12  H   UNL     1     -11.362   4.658  71.939  1.00  0.00     0.000 HD 
HETATM   13  C   UNL     1     -11.353   6.749  71.515  1.00  0.00    -0.275 C  
HETATM   14  O   UNL     1     -11.926   7.207  72.485  1.00  0.00    -0.198 OA 
HETATM   15  C   UNL     1     -10.806   7.468  70.293  1.00  0.00    -0.257 C  
HETATM   16  C   UNL     1     -10.816   8.816  70.148  1.00  0.00    -0.227 C  
BRANCH  16  17
HETATM   17  C   UNL     1     -10.308   9.421  68.898  1.00  0.00    -0.230 A  
HETATM   18  C   UNL     1      -9.363  10.706  66.602  1.00  0.00    -0.189 A  
HETATM   19  C   UNL     1      -8.932   9.614  68.717  1.00  0.00    -0.134 A  
HETATM   20  C   UNL     1     -11.201   9.853  67.908  1.00  0.00    -0.108 A  
HETATM   21  C   UNL     1      -8.464  10.260  67.571  1.00  0.00    -0.118 A  
HETATM   22  C   UNL     1     -10.731  10.497  66.766  1.00  0.00    -0.252 A  
ENDBRANCH  16  17
BRANCH  16  23
HETATM   23  N   UNL     1     -11.269   9.784  71.051  1.00  0.00    -0.358 NA 
HETATM   24  H   UNL     1     -11.609   9.498  71.970  1.00  0.00     0.000 HD 
BRANCH  23  25
HETATM   25  C   UNL     1     -11.259  11.165  70.700  1.00  0.00     0.431 A  
HETATM   26  C   UNL     1     -11.297  13.834  69.684  1.00  0.00    -0.178 A  
HETATM   27  C   UNL     1     -12.378  11.974  70.850  1.00  0.00    -0.384 A  
HETATM   28  C   UNL     1     -10.090  11.764  70.237  1.00  0.00     2.562 A  
HETATM   29  C   UNL     1     -12.401  13.274  70.337  1.00  0.00    -0.365 A  
HETATM   30  C   UNL     1     -10.112  13.077  69.735  1.00  0.00     1.481 A  
BRANCH  26  31
HETATM   31  N   UNL     1     -11.388  15.086  68.955  1.00  0.00    -0.280 N  
HETATM   32  C   UNL     1     -12.624  15.865  69.065  1.00  0.00     0.686 C  
HETATM   33  C   UNL     1     -10.302  15.611  68.213  1.00  0.00    -0.244 C  
HETATM   34  O   UNL     1      -9.229  15.030  68.010  1.00  0.00    -0.179 OA 
BRANCH  33  35
HETATM   35  C   UNL     1     -10.471  16.961  67.501  1.00  0.00    -0.328 C  
BRANCH  35  36
HETATM   36  N   UNL     1     -11.407  16.953  66.357  1.00  0.00     0.592 NA 
HETATM   37  C   UNL     1     -10.753  17.010  65.030  1.00  0.00     0.021 C  
HETATM   38  C   UNL     1     -10.184  15.679  64.464  1.00  0.00     0.860 C  
HETATM   39  N   UNL     1     -11.032  14.481  64.637  1.00  0.00    -0.368 NA 
HETATM   40  C   UNL     1     -12.118  14.430  63.659  1.00  0.00     0.187 C  
HETATM   41  C   UNL     1     -11.554  14.448  66.013  1.00  0.00    -0.363 C  
HETATM   42  C   UNL     1     -12.264  15.754  66.435  1.00  0.00     1.355 C  
ENDBRANCH  35  36
ENDBRANCH  33  35
ENDBRANCH  26  31
ENDBRANCH  23  25
ENDBRANCH  16  23
ENDBRANCH   3   5
ENDBRANCH   2   3
TORSDOF 8
ENDMDL
MODEL      124
REMARK 921   NORMALIZED FREE ENERGY PREDICTED BY IDOCK:    5.95 KCAL/MOL
REMARK 922        TOTAL FREE ENERGY PREDICTED BY IDOCK:    7.19 KCAL/MOL
REMARK 923 INTER-LIGAND FREE ENERGY PREDICTED BY IDOCK:    7.42 KCAL/MOL
REMARK 924 INTRA-LIGAND FREE ENERGY PREDICTED BY IDOCK:   -0.22 KCAL/MOL
REMARK 927      BINDING AFFINITY PREDICTED BY RF-SCORE:    0.00 PKD
ROOT
HETATM    1  C   UNL     1      -6.459  20.555  72.584  1.00  0.00     2.274 C  
HETATM    2  O   UNL     1      -7.521  19.702  72.158  1.00  0.00     1.936 OA 
ENDROOT
BRANCH   2   3
HETATM    3  C   UNL     1      -8.044  20.014  70.941  1.00  0.00     1.787 C  
HETATM    4  O   UNL     1      -8.466  21.114  70.606  1.00  0.00     2.683 OA 
BRANCH   3   5
HETATM    5  C   UNL     1      -8.005  18.833  70.043  1.00  0.00     1.280 A  
HETATM    6  C   UNL     1      -9.180  18.248  69.525  1.00  0.00     0.545 A  
HETATM    7  C   UNL     1      -9.125  17.112  68.704  1.00  0.00    -0.268 A  
HETATM    8  C   UNL     1      -7.894  16.555  68.401  1.00  0.00    -0.187 A  
HETATM    9  C   UNL     1      -6.739  17.150  68.923  1.00  0.00    -0.209 A  
HETATM   10  C   UNL     1      -6.759  18.279  69.723  1.00  0.00     0.081 A  
HETATM   11  N   UNL     1      -5.609  16.444  68.535  1.00  0.00    -0.104 N  
HETATM   12  H   UNL     1      -4.657  16.693  68.806  1.00  0.00     0.000 HD 
HETATM   13  C   UNL     1      -5.932  15.360  67.733  1.00  0.00    -0.144 C  
HETATM   14  O   UNL     1      -5.131  14.608  67.211  1.00  0.00    -0.287 OA 
HETATM   15  C   UNL     1      -7.447  15.377  67.622  1.00  0.00    -0.195 C  
HETATM   16  C   UNL     1      -8.161  14.447  66.942  1.00  0.00     0.054 C  
BRANCH  16  17
HETATM   17  C   UNL     1      -9.631  14.578  66.846  1.00  0.00    -0.258 A  
HETATM   18  C   UNL     1     -12.391  14.983  66.665  1.00  0.00     0.436 A  
HETATM   19  C   UNL     1     -10.254  14.619  65.592  1.00  0.00    -0.382 A  
HETATM   20  C   UNL     1     -10.405  14.716  68.005  1.00  0.00    -0.235 A  
HETATM   21  C   UNL     1     -11.632  14.826  65.505  1.00  0.00    -0.301 A  
HETATM   22  C   UNL     1     -11.780  14.922  67.916  1.00  0.00    -0.344 A  
ENDBRANCH  16  17
BRANCH  16  23
HETATM   23  N   UNL     1      -7.692  13.314  66.266  1.00  0.00     0.711 NA 
HETATM   24  H   UNL     1      -7.290  13.413  65.333  1.00  0.00     0.000 HD 
BRANCH  23  25
HETATM   25  C   UNL     1      -7.770  12.025  66.868  1.00  0.00    -0.078 A  
HETATM   26  C   UNL     1      -7.600   9.466  68.124  1.00  0.00    -0.083 A  
HETATM   27  C   UNL     1      -8.145  11.850  68.195  1.00  0.00    -0.155 A  
HETATM   28  C   UNL     1      -7.519  10.881  66.115  1.00  0.00    -0.107 A  
HETATM   29  C   UNL     1      -8.044  10.600  68.812  1.00  0.00    -0.139 A  
HETATM   30  C   UNL     1      -7.433   9.623  66.736  1.00  0.00    -0.094 A  
BRANCH  26  31
HETATM   31  N   UNL     1      -7.278   8.227  68.810  1.00  0.00    -0.077 N  
HETATM   32  C   UNL     1      -5.873   7.951  69.122  1.00  0.00    -0.031 C  
HETATM   33  C   UNL     1      -8.276   7.325  69.251  1.00  0.00    -0.131 C  
HETATM   34  O   UNL     1      -9.485   7.423  69.010  1.00  0.00    -0.149 OA 
BRANCH  33  35
HETATM   35  C   UNL     1      -7.850   6.054  70.001  1.00  0.00    -0.105 C  
BRANCH  35  36
HETATM   36  N   UNL     1      -7.853   4.817  69.191  1.00  0.00    -0.071 NA 
HETATM   37  C   UNL     1      -8.106   5.032  67.748  1.00  0.00    -0.098 C  
HETATM   38  C   UNL     1      -6.905   5.497  66.879  1.00  0.00    -0.063 C  
HETATM   39  N   UNL     1      -5.612   4.831  67.144  1.00  0.00    -0.013 NA 
HETATM   40  C   UNL     1      -5.540   3.505  66.530  1.00  0.00    -0.018 C  
HETATM   41  C   UNL     1      -5.391   4.756  68.597  1.00  0.00    -0.007 C  
HETATM   42  C   UNL     1      -6.567   4.115  69.368  1.00  0.00    -0.037 C  
ENDBRANCH  35  36
ENDBRANCH  33  35
ENDBRANCH  26  31
ENDBRANCH  23  25
ENDBRANCH  16  23
ENDBRANCH   3   5
ENDBRANCH   2   3
TORSDOF 8
ENDMDL
MODEL      125
REMARK 921   NORMALIZED FREE ENERGY PREDICTED BY IDOCK:    6.99 KCAL/MOL
REMARK 922        TOTAL FREE ENERGY PREDICTED BY IDOCK:    8.71 KCAL/MOL
REMARK 923 INTER-LIGAND FREE ENERGY PREDICTED BY IDOCK:    8.08 KCAL/MOL
REMARK 924 INTRA-LIGAND FREE ENERGY PREDICTED BY IDOCK:    0.64 KCAL/MOL
REMARK 927      BINDING AFFINITY PREDICTED BY RF-SCORE:    0.00 PKD
ROOT
HETATM    1  C   UNL     1      -6.460  20.555  72.584  1.00  0.00     2.274 C  
HETATM    2  O   UNL     1      -7.523  19.700  72.164  1.00  0.00     1.936 OA 
ENDROOT
BRANCH   2   3
HETATM    3  C   UNL     1      -8.050  20.008  70.948  1.00  0.00     1.787 C  
HETATM    4  O   UNL     1      -8.470  21.108  70.610  1.00  0.00     2.683 OA 
BRANCH   3   5
HETATM    5  C   UNL     1      -8.016  18.823  70.055  1.00  0.00     1.280 A  
HETATM    6  C   UNL     1      -9.193  18.239  69.543  1.00  0.00     0.545 A  
HETATM    7  C   UNL     1      -9.144  17.100  68.727  1.00  0.00    -0.244 A  
HETATM    8  C   UNL     1      -7.915  16.538  68.424  1.00  0.00    -0.194 A  
HETATM    9  C   UNL     1      -6.757  17.132  68.940  1.00  0.00    -0.209 A  
HETATM   10  C   UNL     1      -6.772  18.265  69.734  1.00  0.00     0.081 A  
HETATM   11  N   UNL     1      -5.630  16.422  68.552  1.00  0.00    -0.104 N  
HETATM   12  H   UNL     1      -4.677  16.669  68.819  1.00  0.00     0.000 HD 
HETATM   13  C   UNL     1      -5.958  15.334  67.755  1.00  0.00    -0.137 C  
HETATM   14  O   UNL     1      -5.160  14.578  67.234  1.00  0.00    -0.276 OA 
HETATM   15  C   UNL     1      -7.473  15.355  67.648  1.00  0.00    -0.195 C  
HETATM   16  C   UNL     1      -8.192  14.423  66.974  1.00  0.00    -0.109 C  
BRANCH  16  17
HETATM   17  C   UNL     1      -9.661  14.558  66.882  1.00  0.00    -0.257 A  
HETATM   18  C   UNL     1     -12.430  14.942  66.798  1.00  0.00     0.473 A  
HETATM   19  C   UNL     1     -10.237  15.303  65.843  1.00  0.00    -0.353 A  
HETATM   20  C   UNL     1     -10.487  13.988  67.860  1.00  0.00    -0.241 A  
HETATM   21  C   UNL     1     -11.619  15.497  65.808  1.00  0.00     0.181 A  
HETATM   22  C   UNL     1     -11.866  14.182  67.821  1.00  0.00    -0.414 A  
ENDBRANCH  16  17
BRANCH  16  23
HETATM   23  N   UNL     1      -7.727  13.287  66.302  1.00  0.00     0.711 NA 
HETATM   24  H   UNL     1      -7.327  13.380  65.368  1.00  0.00     0.000 HD 
BRANCH  23  25
HETATM   25  C   UNL     1      -7.810  12.001  66.910  1.00  0.00    -0.095 A  
HETATM   26  C   UNL     1      -8.282   9.405  68.003  1.00  0.00    -0.114 A  
HETATM   27  C   UNL     1      -7.295  10.861  66.303  1.00  0.00    -0.127 A  
HETATM   28  C   UNL     1      -8.373  11.855  68.175  1.00  0.00    -0.161 A  
HETATM   29  C   UNL     1      -7.542   9.591  66.831  1.00  0.00    -0.095 A  
HETATM   30  C   UNL     1      -8.607  10.577  68.710  1.00  0.00    -0.146 A  
BRANCH  26  31
HETATM   31  N   UNL     1      -8.733   8.091  68.428  1.00  0.00    -0.131 N  
HETATM   32  C   UNL     1      -9.392   7.972  69.731  1.00  0.00    -0.159 C  
HETATM   33  C   UNL     1      -8.627   6.949  67.598  1.00  0.00    -0.121 C  
HETATM   34  O   UNL     1      -8.053   6.913  66.503  1.00  0.00    -0.106 OA 
BRANCH  33  35
HETATM   35  C   UNL     1      -9.162   5.604  68.112  1.00  0.00    -0.110 C  
BRANCH  35  36
HETATM   36  N   UNL     1     -10.248   5.012  67.302  1.00  0.00    -0.187 NA 
HETATM   37  C   UNL     1     -10.530   5.730  66.038  1.00  0.00     0.157 C  
HETATM   38  C   UNL     1      -9.590   5.439  64.834  1.00  0.00     0.446 C  
HETATM   39  N   UNL     1      -9.219   4.024  64.623  1.00  0.00    -0.143 NA 
HETATM   40  C   UNL     1     -10.287   3.267  63.970  1.00  0.00    -0.191 C  
HETATM   41  C   UNL     1      -8.852   3.418  65.914  1.00  0.00    -0.135 C  
HETATM   42  C   UNL     1      -9.926   3.602  67.010  1.00  0.00     0.275 C  
ENDBRANCH  35  36
ENDBRANCH  33  35
ENDBRANCH  26  31
ENDBRANCH  23  25
ENDBRANCH  16  23
ENDBRANCH   3   5
ENDBRANCH   2   3
TORSDOF 8
ENDMDL
MODEL      126
REMARK 921   NORMALIZED FREE ENERGY PREDICTED BY IDOCK:    9.89 KCAL/MOL
REMARK 922        TOTAL FREE ENERGY PREDICTED BY IDOCK:   12.97 KCAL/MOL
REMARK 923 INTER-LIGAND FREE ENERGY PREDICTED BY IDOCK:   13.46 KCAL/MOL
REMARK 924 INTRA-LIGAND FREE ENERGY PREDICTED BY IDOCK:   -0.49 KCAL/MOL
REMARK 927      BINDING AFFINITY PREDICTED BY RF-SCORE:    0.00 PKD
ROOT
HETATM    1  C   UNL     1      -5.549   5.726  72.607  1.00  0.00    -0.027 C  
HETATM    2  O   UNL     1      -6.753   5.335  71.947  1.00  0.00    -0.052 OA 
ENDROOT
BRANCH   2   3
HETATM    3  C   UNL     1      -7.894   5.673  72.606  1.00  0.00    -0.102 C  
HETATM    4  O   UNL     1      -8.176   5.356  73.754  1.00  0.00    -0.111 OA 
BRANCH   3   5
HETATM    5  C   UNL     1      -8.755   6.521  71.744  1.00  0.00    -0.131 A  
HETATM    6  C   UNL     1      -8.283   7.086  70.541  1.00  0.00    -0.123 A  
HETATM    7  C   UNL     1      -9.101   7.912  69.756  1.00  0.00    -0.146 A  
HETATM    8  C   UNL     1     -10.395   8.177  70.174  1.00  0.00    -0.215 A  
HETATM    9  C   UNL     1     -10.847   7.606  71.370  1.00  0.00    -0.225 A  
HETATM   10  C   UNL     1     -10.069   6.775  72.158  1.00  0.00    -0.198 A  
HETATM   11  N   UNL     1     -12.149   8.000  71.637  1.00  0.00    -0.291 N  
HETATM   12  H   UNL     1     -12.678   7.711  72.460  1.00  0.00     0.000 HD 
HETATM   13  C   UNL     1     -12.646   8.835  70.647  1.00  0.00     0.292 C  
HETATM   14  O   UNL     1     -13.777   9.280  70.605  1.00  0.00     0.103 OA 
HETATM   15  C   UNL     1     -11.511   8.999  69.651  1.00  0.00     0.221 C  
HETATM   16  C   UNL     1     -11.589   9.779  68.545  1.00  0.00     0.394 C  
BRANCH  16  17
HETATM   17  C   UNL     1     -10.448   9.834  67.606  1.00  0.00    -0.305 A  
HETATM   18  C   UNL     1      -8.223   9.822  65.913  1.00  0.00    -0.117 A  
HETATM   19  C   UNL     1     -10.445   9.035  66.454  1.00  0.00    -0.110 A  
HETATM   20  C   UNL     1      -9.339  10.643  67.886  1.00  0.00    -0.154 A  
HETATM   21  C   UNL     1      -9.330   9.028  65.614  1.00  0.00    -0.289 A  
HETATM   22  C   UNL     1      -8.229  10.634  67.045  1.00  0.00    -0.124 A  
ENDBRANCH  16  17
BRANCH  16  23
HETATM   23  N   UNL     1     -12.653  10.586  68.124  1.00  0.00     1.002 NA 
HETATM   24  H   UNL     1     -13.518  10.153  67.799  1.00  0.00     0.000 HD 
BRANCH  23  25
HETATM   25  C   UNL     1     -12.539  12.006  68.144  1.00  0.00     1.516 A  
HETATM   26  C   UNL     1     -12.007  14.807  68.313  1.00  0.00    -0.223 A  
HETATM   27  C   UNL     1     -12.160  12.734  67.023  1.00  0.00    -0.252 A  
HETATM   28  C   UNL     1     -12.860  12.721  69.295  1.00  0.00     1.125 A  
HETATM   29  C   UNL     1     -11.883  14.101  67.112  1.00  0.00    -0.454 A  
HETATM   30  C   UNL     1     -12.595  14.099  69.377  1.00  0.00     0.063 A  
BRANCH  26  31
HETATM   31  N   UNL     1     -11.508  16.163  68.464  1.00  0.00    -0.369 N  
HETATM   32  C   UNL     1     -12.102  17.008  69.503  1.00  0.00     2.298 C  
HETATM   33  C   UNL     1     -10.425  16.660  67.701  1.00  0.00    -0.320 C  
HETATM   34  O   UNL     1      -9.874  16.062  66.768  1.00  0.00    -0.236 OA 
BRANCH  33  35
HETATM   35  C   UNL     1      -9.936  18.095  67.950  1.00  0.00    -0.333 C  
BRANCH  35  36
HETATM   36  N   UNL     1      -9.855  18.490  69.373  1.00  0.00    -0.042 NA 
HETATM   37  C   UNL     1      -8.504  18.368  69.966  1.00  0.00     1.880 C  
HETATM   38  C   UNL     1      -7.498  19.518  69.679  1.00  0.00     0.035 C  
HETATM   39  N   UNL     1      -8.039  20.892  69.754  1.00  0.00     2.112 NA 
HETATM   40  C   UNL     1      -8.172  21.356  71.134  1.00  0.00     5.714 C  
HETATM   41  C   UNL     1      -9.330  20.946  69.048  1.00  0.00     1.484 C  
HETATM   42  C   UNL     1     -10.339  19.876  69.523  1.00  0.00     0.171 C  
ENDBRANCH  35  36
ENDBRANCH  33  35
ENDBRANCH  26  31
ENDBRANCH  23  25
ENDBRANCH  16  23
ENDBRANCH   3   5
ENDBRANCH   2   3
TORSDOF 8
ENDMDL
MODEL      127
REMARK 921   NORMALIZED FREE ENERGY PREDICTED BY IDOCK:   13.12 KCAL/MOL
REMARK 922        TOTAL FREE ENERGY PREDICTED BY IDOCK:   17.72 KCAL/MOL
REMARK 923 INTER-LIGAND FREE ENERGY PREDICTED BY IDOCK:    7.35 KCAL/MOL
REMARK 924 INTRA-LIGAND FREE ENERGY PREDICTED BY IDOCK:   10.36 KCAL/MOL
REMARK 927      BINDING AFFINITY PREDICTED BY RF-SCORE:    0.00 PKD
ROOT
HETATM    1  C   UNL     1      -9.850   5.878  63.977  1.00  0.00     2.406 C  
HETATM    2  O   UNL     1      -8.540   6.412  64.171  1.00  0.00     0.128 OA 
ENDROOT
BRANCH   2   3
HETATM    3  C   UNL     1      -8.420   7.735  63.880  1.00  0.00     0.237 C  
HETATM    4  O   UNL     1      -8.452   8.226  62.759  1.00  0.00    -0.148 OA 
BRANCH   3   5
HETATM    5  C   UNL     1      -8.274   8.527  65.128  1.00  0.00    -0.153 A  
HETATM    6  C   UNL     1      -9.361   8.762  65.995  1.00  0.00    -0.296 A  
HETATM    7  C   UNL     1      -9.212   9.539  67.153  1.00  0.00    -0.158 A  
HETATM    8  C   UNL     1      -7.974  10.088  67.444  1.00  0.00    -0.106 A  
HETATM    9  C   UNL     1      -6.906   9.843  66.573  1.00  0.00    -0.085 A  
HETATM   10  C   UNL     1      -7.018   9.067  65.432  1.00  0.00    -0.080 A  
HETATM   11  N   UNL     1      -5.760  10.488  67.012  1.00  0.00    -0.045 N  
HETATM   12  H   UNL     1      -4.863  10.456  66.527  1.00  0.00     0.000 HD 
HETATM   13  C   UNL     1      -5.982  11.183  68.191  1.00  0.00    -0.045 C  
HETATM   14  O   UNL     1      -5.136  11.789  68.821  1.00  0.00    -0.047 OA 
HETATM   15  C   UNL     1      -7.449  10.962  68.519  1.00  0.00    -0.103 C  
HETATM   16  C   UNL     1      -8.071  11.514  69.591  1.00  0.00     0.849 C  
BRANCH  16  17
HETATM   17  C   UNL     1      -9.490  11.197  69.856  1.00  0.00     1.082 A  
HETATM   18  C   UNL     1     -12.177  10.513  70.224  1.00  0.00    -0.393 A  
HETATM   19  C   UNL     1      -9.831  10.067  70.612  1.00  0.00     0.124 A  
HETATM   20  C   UNL     1     -10.506  11.992  69.309  1.00  0.00     0.090 A  
HETATM   21  C   UNL     1     -11.173   9.726  70.790  1.00  0.00    -0.419 A  
HETATM   22  C   UNL     1     -11.845  11.649  69.490  1.00  0.00    -0.414 A  
ENDBRANCH  16  17
BRANCH  16  23
HETATM   23  N   UNL     1      -7.541  12.384  70.550  1.00  0.00     2.147 NA 
HETATM   24  H   UNL     1      -7.597  12.140  71.539  1.00  0.00     0.000 HD 
BRANCH  23  25
HETATM   25  C   UNL     1      -6.925  13.607  70.158  1.00  0.00     0.517 A  
HETATM   26  C   UNL     1      -5.951  16.105  69.173  1.00  0.00    -0.134 A  
HETATM   27  C   UNL     1      -7.053  14.773  70.904  1.00  0.00     0.922 A  
HETATM   28  C   UNL     1      -6.119  13.657  69.023  1.00  0.00    -0.088 A  
HETATM   29  C   UNL     1      -6.592  15.997  70.412  1.00  0.00     0.458 A  
HETATM   30  C   UNL     1      -5.643  14.888  68.539  1.00  0.00    -0.100 A  
BRANCH  26  31
HETATM   31  N   UNL     1      -5.676  17.392  68.559  1.00  0.00    -0.153 N  
HETATM   32  C   UNL     1      -5.277  17.417  67.150  1.00  0.00    -0.135 C  
HETATM   33  C   UNL     1      -5.856  18.615  69.250  1.00  0.00    -0.231 C  
HETATM   34  O   UNL     1      -6.144  18.722  70.448  1.00  0.00    -0.152 OA 
BRANCH  33  35
HETATM   35  C   UNL     1      -5.576  19.933  68.513  1.00  0.00    -0.213 C  
BRANCH  35  36
HETATM   36  N   UNL     1      -5.596  19.842  67.037  1.00  0.00    -0.173 NA 
HETATM   37  C   UNL     1      -6.227  18.611  66.508  1.00  0.00    -0.169 C  
HETATM   38  C   UNL     1      -7.780  18.583  66.445  1.00  0.00    -0.264 C  
HETATM   39  N   UNL     1      -8.436  19.818  65.967  1.00  0.00    -0.364 NA 
HETATM   40  C   UNL     1      -8.381  19.942  64.511  1.00  0.00     3.066 C  
HETATM   41  C   UNL     1      -7.819  20.983  66.623  1.00  0.00     0.280 C  
HETATM   42  C   UNL     1      -6.281  21.027  66.484  1.00  0.00    -0.281 C  
ENDBRANCH  35  36
ENDBRANCH  33  35
ENDBRANCH  26  31
ENDBRANCH  23  25
ENDBRANCH  16  23
ENDBRANCH   3   5
ENDBRANCH   2   3
TORSDOF 8
ENDMDL
MODEL      128
REMARK 921   NORMALIZED FREE ENERGY PREDICTED BY IDOCK:   13.14 KCAL/MOL
REMARK 922        TOTAL FREE ENERGY PREDICTED BY IDOCK:   17.75 KCAL/MOL
REMARK 923 INTER-LIGAND FREE ENERGY PREDICTED BY IDOCK:    4.68 KCAL/MOL
REMARK 924 INTRA-LIGAND FREE ENERGY PREDICTED BY IDOCK:   13.06 KCAL/MOL
REMARK 927      BINDING AFFINITY PREDICTED BY RF-SCORE:    0.00 PKD
ROOT
HETATM    1  C   UNL     1     -10.345  17.010  74.459  1.00  0.00     8.064 C  
HETATM    2  O   UNL     1     -11.518  16.539  73.796  1.00  0.00     0.278 OA 
ENDROOT
BRANCH   2   3
HETATM    3  C   UNL     1     -11.763  17.127  72.594  1.00  0.00     0.764 C  
HETATM    4  O   UNL     1     -11.992  18.317  72.415  1.00  0.00     3.789 OA 
BRANCH   3   5
HETATM    5  C   UNL     1     -11.682  16.125  71.502  1.00  0.00    -0.533 A  
HETATM    6  C   UNL     1     -11.410  16.493  70.169  1.00  0.00    -0.071 A  
HETATM    7  C   UNL     1     -11.369  15.535  69.144  1.00  0.00    -0.333 A  
HETATM    8  C   UNL     1     -11.606  14.206  69.452  1.00  0.00    -0.353 A  
HETATM    9  C   UNL     1     -11.874  13.859  70.781  1.00  0.00    -0.180 A  
HETATM   10  C   UNL     1     -11.905  14.778  71.816  1.00  0.00    -0.373 A  
HETATM   11  N   UNL     1     -12.108  12.496  70.893  1.00  0.00    -0.435 N  
HETATM   12  H   UNL     1     -12.331  12.023  71.769  1.00  0.00     0.000 HD 
HETATM   13  C   UNL     1     -12.000  11.855  69.667  1.00  0.00    -0.298 C  
HETATM   14  O   UNL     1     -12.101  10.656  69.490  1.00  0.00    -0.283 OA 
HETATM   15  C   UNL     1     -11.680  12.952  68.666  1.00  0.00    -0.359 C  
HETATM   16  C   UNL     1     -11.531  12.734  67.336  1.00  0.00    -0.340 C  
BRANCH  16  17
HETATM   17  C   UNL     1     -11.168  13.858  66.447  1.00  0.00    -0.319 A  
HETATM   18  C   UNL     1     -10.587  16.072  64.840  1.00  0.00    -0.242 A  
HETATM   19  C   UNL     1     -10.139  14.739  66.809  1.00  0.00    -0.258 A  
HETATM   20  C   UNL     1     -11.882  14.083  65.262  1.00  0.00    -0.363 A  
HETATM   21  C   UNL     1      -9.855  15.846  66.006  1.00  0.00    -0.366 A  
HETATM   22  C   UNL     1     -11.595  15.188  64.463  1.00  0.00    -0.330 A  
ENDBRANCH  16  17
BRANCH  16  23
HETATM   23  N   UNL     1     -11.668  11.533  66.631  1.00  0.00    -0.445 NA 
HETATM   24  H   UNL     1     -12.359  11.461  65.883  1.00  0.00     0.000 HD 
BRANCH  23  25
HETATM   25  C   UNL     1     -10.853  10.408  66.948  1.00  0.00    -0.161 A  
HETATM   26  C   UNL     1      -9.470   7.966  67.475  1.00  0.00    -0.145 A  
HETATM   27  C   UNL     1      -9.877   9.933  66.080  1.00  0.00    -0.330 A  
HETATM   28  C   UNL     1     -10.978   9.774  68.182  1.00  0.00    -0.228 A  
HETATM   29  C   UNL     1      -9.214   8.729  66.331  1.00  0.00    -0.241 A  
HETATM   30  C   UNL     1     -10.298   8.571  68.438  1.00  0.00    -0.241 A  
BRANCH  26  31
HETATM   31  N   UNL     1      -8.958   6.616  67.630  1.00  0.00    -0.113 N  
HETATM   32  C   UNL     1      -9.379   5.844  68.802  1.00  0.00    -0.122 C  
HETATM   33  C   UNL     1      -8.137   6.001  66.654  1.00  0.00    -0.106 C  
HETATM   34  O   UNL     1      -7.679   6.561  65.650  1.00  0.00    -0.085 OA 
BRANCH  33  35
HETATM   35  C   UNL     1      -7.669   4.555  66.879  1.00  0.00    -0.094 C  
BRANCH  35  36
HETATM   36  N   UNL     1      -8.733   3.607  67.270  1.00  0.00    -0.108 NA 
HETATM   37  C   UNL     1      -8.240   2.286  67.723  1.00  0.00    -0.065 C  
HETATM   38  C   UNL     1      -7.731   2.184  69.188  1.00  0.00    -0.042 C  
HETATM   39  N   UNL     1      -8.542   2.878  70.210  1.00  0.00    -0.056 NA 
HETATM   40  C   UNL     1      -9.736   2.116  70.575  1.00  0.00     0.021 C  
HETATM   41  C   UNL     1      -8.898   4.220  69.722  1.00  0.00    -0.085 C  
HETATM   42  C   UNL     1      -9.564   4.214  68.328  1.00  0.00    -0.128 C  
ENDBRANCH  35  36
ENDBRANCH  33  35
ENDBRANCH  26  31
ENDBRANCH  23  25
ENDBRANCH  16  23
ENDBRANCH   3   5
ENDBRANCH   2   3
TORSDOF 8
ENDMDL
MODEL      129
REMARK 921   NORMALIZED FREE ENERGY PREDICTED BY IDOCK:   17.40 KCAL/MOL
REMARK 922        TOTAL FREE ENERGY PREDICTED BY IDOCK:   24.00 KCAL/MOL
REMARK 923 INTER-LIGAND FREE ENERGY PREDICTED BY IDOCK:   -1.71 KCAL/MOL
REMARK 924 INTRA-LIGAND FREE ENERGY PREDICTED BY IDOCK:   25.71 KCAL/MOL
REMARK 927      BINDING AFFINITY PREDICTED BY RF-SCORE:    0.00 PKD
ROOT
HETATM    1  C   UNL     1     -10.101  20.215  68.479  1.00  0.00    -0.272 C  
HETATM    2  O   UNL     1     -10.872  19.013  68.523  1.00  0.00     0.074 OA 
ENDROOT
BRANCH   2   3
HETATM    3  C   UNL     1     -11.493  18.697  67.355  1.00  0.00     0.894 C  
HETATM    4  O   UNL     1     -11.924  19.499  66.535  1.00  0.00     1.393 OA 
BRANCH   3   5
HETATM    5  C   UNL     1     -11.550  17.224  67.183  1.00  0.00     1.176 A  
HETATM    6  C   UNL     1     -11.732  16.350  68.275  1.00  0.00     0.106 A  
HETATM    7  C   UNL     1     -11.751  14.959  68.098  1.00  0.00    -0.344 A  
HETATM    8  C   UNL     1     -11.585  14.437  66.826  1.00  0.00    -0.399 A  
HETATM    9  C   UNL     1     -11.407  15.319  65.753  1.00  0.00    -0.180 A  
HETATM   10  C   UNL     1     -11.399  16.696  65.894  1.00  0.00     0.603 A  
HETATM   11  N   UNL     1     -11.234  14.619  64.569  1.00  0.00    -0.603 N  
HETATM   12  H   UNL     1     -11.080  15.058  63.661  1.00  0.00     0.000 HD 
HETATM   13  C   UNL     1     -11.297  13.248  64.770  1.00  0.00    -0.327 C  
HETATM   14  O   UNL     1     -11.233  12.405  63.895  1.00  0.00    -0.353 OA 
HETATM   15  C   UNL     1     -11.516  13.068  66.262  1.00  0.00    -0.379 C  
HETATM   16  C   UNL     1     -11.597  11.859  66.869  1.00  0.00    -0.285 C  
BRANCH  16  17
HETATM   17  C   UNL     1     -11.865  11.786  68.322  1.00  0.00    -0.340 A  
HETATM   18  C   UNL     1     -12.219  11.612  71.090  1.00  0.00    -0.249 A  
HETATM   19  C   UNL     1     -11.743  12.932  69.119  1.00  0.00    -0.376 A  
HETATM   20  C   UNL     1     -12.190  10.562  68.920  1.00  0.00     0.253 A  
HETATM   21  C   UNL     1     -11.916  12.841  70.502  1.00  0.00    -0.277 A  
HETATM   22  C   UNL     1     -12.363  10.474  70.300  1.00  0.00    -0.377 A  
ENDBRANCH  16  17
BRANCH  16  23
HETATM   23  N   UNL     1     -11.467  10.589  66.297  1.00  0.00     0.363 NA 
HETATM   24  H   UNL     1     -11.959  10.372  65.430  1.00  0.00     0.000 HD 
BRANCH  23  25
HETATM   25  C   UNL     1     -10.654   9.594  66.914  1.00  0.00    -0.171 A  
HETATM   26  C   UNL     1      -9.252   7.380  68.050  1.00  0.00    -0.132 A  
HETATM   27  C   UNL     1      -9.553   9.038  66.276  1.00  0.00    -0.327 A  
HETATM   28  C   UNL     1     -10.916   9.182  68.219  1.00  0.00    -0.010 A  
HETATM   29  C   UNL     1      -8.879   7.943  66.825  1.00  0.00    -0.154 A  
HETATM   30  C   UNL     1     -10.226   8.091  68.774  1.00  0.00    -0.220 A  
BRANCH  26  31
HETATM   31  N   UNL     1      -8.709   6.115  68.513  1.00  0.00    -0.112 N  
HETATM   32  C   UNL     1      -9.495   4.899  68.287  1.00  0.00    -0.138 C  
HETATM   33  C   UNL     1      -7.424   6.012  69.097  1.00  0.00    -0.086 C  
HETATM   34  O   UNL     1      -6.689   6.966  69.380  1.00  0.00    -0.047 OA 
BRANCH  33  35
HETATM   35  C   UNL     1      -6.911   4.629  69.526  1.00  0.00    -0.050 C  
BRANCH  35  36
HETATM   36  N   UNL     1      -7.865   3.518  69.325  1.00  0.00    -0.051 NA 
HETATM   37  C   UNL     1      -9.216   3.941  68.890  1.00  0.00    -0.152 C  
HETATM   38  C   UNL     1      -9.405   4.262  67.381  1.00  0.00    -0.163 C  
HETATM   39  N   UNL     1      -8.758   3.333  66.430  1.00  0.00    -0.122 NA 
HETATM   40  C   UNL     1      -9.522   2.098  66.261  1.00  0.00     0.240 C  
HETATM   41  C   UNL     1      -7.386   3.051  66.882  1.00  0.00    -0.070 C  
HETATM   42  C   UNL     1      -7.306   2.565  68.347  1.00  0.00    -0.048 C  
ENDBRANCH  35  36
ENDBRANCH  33  35
ENDBRANCH  26  31
ENDBRANCH  23  25
ENDBRANCH  16  23
ENDBRANCH   3   5
ENDBRANCH   2   3
TORSDOF 8
ENDMDL
MODEL      130
REMARK 921   NORMALIZED FREE ENERGY PREDICTED BY IDOCK:   21.10 KCAL/MOL
REMARK 922        TOTAL FREE ENERGY PREDICTED BY IDOCK:   29.44 KCAL/MOL
REMARK 923 INTER-LIGAND FREE ENERGY PREDICTED BY IDOCK:   23.99 KCAL/MOL
REMARK 924 INTRA-LIGAND FREE ENERGY PREDICTED BY IDOCK:    5.45 KCAL/MOL
REMARK 927      BINDING AFFINITY PREDICTED BY RF-SCORE:    0.00 PKD
ROOT
HETATM    1  C   UNL     1     -12.192  16.936  62.670  1.00  0.00    11.993 C  
HETATM    2  O   UNL     1     -11.842  16.431  63.959  1.00  0.00    -1.003 OA 
ENDROOT
BRANCH   2   3
HETATM    3  C   UNL     1     -10.556  16.672  64.331  1.00  0.00     1.231 C  
HETATM    4  O   UNL     1      -9.803  17.486  63.811  1.00  0.00     6.756 OA 
BRANCH   3   5
HETATM    5  C   UNL     1     -10.188  15.827  65.494  1.00  0.00    -0.407 A  
HETATM    6  C   UNL     1      -9.266  16.260  66.470  1.00  0.00    -0.299 A  
HETATM    7  C   UNL     1      -8.905  15.436  67.546  1.00  0.00    -0.190 A  
HETATM    8  C   UNL     1      -9.464  14.172  67.646  1.00  0.00    -0.213 A  
HETATM    9  C   UNL     1     -10.378  13.760  66.669  1.00  0.00    -0.279 A  
HETATM   10  C   UNL     1     -10.766  14.556  65.605  1.00  0.00    -0.335 A  
HETATM   11  N   UNL     1     -10.811  12.466  66.920  1.00  0.00    -0.244 N  
HETATM   12  H   UNL     1     -11.473  11.960  66.333  1.00  0.00     0.000 HD 
HETATM   13  C   UNL     1     -10.232  11.946  68.068  1.00  0.00    -0.192 C  
HETATM   14  O   UNL     1     -10.478  10.855  68.547  1.00  0.00    -0.170 OA 
HETATM   15  C   UNL     1      -9.312  13.037  68.587  1.00  0.00     0.009 C  
HETATM   16  C   UNL     1      -8.530  12.902  69.687  1.00  0.00     1.871 C  
BRANCH  16  17
HETATM   17  C   UNL     1      -7.707  14.042  70.144  1.00  0.00     1.163 A  
HETATM   18  C   UNL     1      -6.064  16.182  70.878  1.00  0.00     0.622 A  
HETATM   19  C   UNL     1      -8.067  15.353  69.804  1.00  0.00    -0.031 A  
HETATM   20  C   UNL     1      -6.533  13.817  70.876  1.00  0.00     0.393 A  
HETATM   21  C   UNL     1      -7.241  16.418  70.167  1.00  0.00     0.929 A  
HETATM   22  C   UNL     1      -5.712  14.883  71.239  1.00  0.00     0.036 A  
ENDBRANCH  16  17
BRANCH  16  23
HETATM   23  N   UNL     1      -8.380  11.782  70.513  1.00  0.00     3.173 NA 
HETATM   24  H   UNL     1      -8.542  11.869  71.517  1.00  0.00     0.000 HD 
BRANCH  23  25
HETATM   25  C   UNL     1      -8.002  10.522  69.966  1.00  0.00     0.251 A  
HETATM   26  C   UNL     1      -7.224   7.888  69.183  1.00  0.00    -0.081 A  
HETATM   27  C   UNL     1      -8.939   9.601  69.514  1.00  0.00    -0.203 A  
HETATM   28  C   UNL     1      -6.656  10.194  69.819  1.00  0.00    -0.080 A  
HETATM   29  C   UNL     1      -8.558   8.307  69.148  1.00  0.00    -0.138 A  
HETATM   30  C   UNL     1      -6.276   8.897  69.436  1.00  0.00    -0.041 A  
BRANCH  26  31
HETATM   31  N   UNL     1      -6.850   6.493  69.025  1.00  0.00    -0.063 N  
HETATM   32  C   UNL     1      -6.464   6.026  67.692  1.00  0.00    -0.046 C  
HETATM   33  C   UNL     1      -6.773   5.602  70.122  1.00  0.00    -0.048 C  
HETATM   34  O   UNL     1      -7.116   5.864  71.282  1.00  0.00    -0.069 OA 
BRANCH  33  35
HETATM   35  C   UNL     1      -6.334   4.151  69.872  1.00  0.00    -0.028 C  
BRANCH  35  36
HETATM   36  N   UNL     1      -7.336   3.124  70.228  1.00  0.00    -0.040 NA 
HETATM   37  C   UNL     1      -6.759   1.829  70.657  1.00  0.00    -0.028 C  
HETATM   38  C   UNL     1      -6.260   1.729  72.126  1.00  0.00    -0.013 C  
HETATM   39  N   UNL     1      -7.129   2.341  73.153  1.00  0.00    -0.027 NA 
HETATM   40  C   UNL     1      -8.272   1.492  73.485  1.00  0.00    -0.045 C  
HETATM   41  C   UNL     1      -7.570   3.667  72.691  1.00  0.00    -0.060 C  
HETATM   42  C   UNL     1      -8.218   3.648  71.288  1.00  0.00    -0.067 C  
ENDBRANCH  35  36
ENDBRANCH  33  35
ENDBRANCH  26  31
ENDBRANCH  23  25
ENDBRANCH  16  23
ENDBRANCH   3   5
ENDBRANCH   2   3
TORSDOF 8
ENDMDL
MODEL      131
REMARK 921   NORMALIZED FREE ENERGY PREDICTED BY IDOCK:   21.17 KCAL/MOL
REMARK 922        TOTAL FREE ENERGY PREDICTED BY IDOCK:   29.54 KCAL/MOL
REMARK 923 INTER-LIGAND FREE ENERGY PREDICTED BY IDOCK:   31.15 KCAL/MOL
REMARK 924 INTRA-LIGAND FREE ENERGY PREDICTED BY IDOCK:   -1.61 KCAL/MOL
REMARK 927      BINDING AFFINITY PREDICTED BY RF-SCORE:    0.00 PKD
ROOT
HETATM    1  C   UNL     1      -7.060   3.053  64.599  1.00  0.00    -0.054 C  
HETATM    2  O   UNL     1      -6.627   4.352  65.005  1.00  0.00    -0.041 OA 
ENDROOT
BRANCH   2   3
HETATM    3  C   UNL     1      -7.267   5.380  64.386  1.00  0.00    -0.055 C  
HETATM    4  O   UNL     1      -7.372   5.531  63.175  1.00  0.00    -0.048 OA 
BRANCH   3   5
HETATM    5  C   UNL     1      -7.862   6.298  65.390  1.00  0.00    -0.104 A  
HETATM    6  C   UNL     1      -7.437   6.310  66.734  1.00  0.00    -0.087 A  
HETATM    7  C   UNL     1      -8.033   7.161  67.677  1.00  0.00    -0.114 A  
HETATM    8  C   UNL     1      -9.059   8.001  67.276  1.00  0.00    -0.153 A  
HETATM    9  C   UNL     1      -9.467   7.975  65.937  1.00  0.00     0.034 A  
HETATM   10  C   UNL     1      -8.888   7.159  64.981  1.00  0.00     0.317 A  
HETATM   11  N   UNL     1     -10.515   8.860  65.729  1.00  0.00     0.195 N  
HETATM   12  H   UNL     1     -10.975   9.001  64.829  1.00  0.00     0.000 HD 
HETATM   13  C   UNL     1     -10.860   9.530  66.893  1.00  0.00    -0.015 C  
HETATM   14  O   UNL     1     -11.706  10.399  66.980  1.00  0.00     0.090 OA 
HETATM   15  C   UNL     1      -9.929   8.985  67.963  1.00  0.00    -0.213 C  
HETATM   16  C   UNL     1      -9.974   9.366  69.263  1.00  0.00    -0.181 C  
BRANCH  16  17
HETATM   17  C   UNL     1      -8.990   8.817  70.221  1.00  0.00    -0.174 A  
HETATM   18  C   UNL     1      -7.055   7.713  71.911  1.00  0.00    -0.064 A  
HETATM   19  C   UNL     1      -7.849   9.557  70.561  1.00  0.00    -0.182 A  
HETATM   20  C   UNL     1      -9.163   7.533  70.755  1.00  0.00    -0.158 A  
HETATM   21  C   UNL     1      -6.883   9.001  71.401  1.00  0.00    -0.073 A  
HETATM   22  C   UNL     1      -8.197   6.981  71.594  1.00  0.00    -0.104 A  
ENDBRANCH  16  17
BRANCH  16  23
HETATM   23  N   UNL     1     -10.857  10.262  69.876  1.00  0.00    -0.283 NA 
HETATM   24  H   UNL     1     -11.769   9.934  70.195  1.00  0.00     0.000 HD 
BRANCH  23  25
HETATM   25  C   UNL     1     -10.494  11.628  70.059  1.00  0.00     1.035 A  
HETATM   26  C   UNL     1      -9.526  14.254  70.625  1.00  0.00     2.848 A  
HETATM   27  C   UNL     1      -9.690  12.308  69.153  1.00  0.00     0.430 A  
HETATM   28  C   UNL     1     -10.987  12.347  71.145  1.00  0.00     3.912 A  
HETATM   29  C   UNL     1      -9.204  13.586  69.440  1.00  0.00     0.942 A  
HETATM   30  C   UNL     1     -10.507  13.638  71.423  1.00  0.00     5.107 A  
BRANCH  26  31
HETATM   31  N   UNL     1      -8.849  15.474  71.030  1.00  0.00     2.416 N  
HETATM   32  C   UNL     1      -9.587  16.736  70.950  1.00  0.00     3.633 C  
HETATM   33  C   UNL     1      -7.540  15.469  71.569  1.00  0.00     3.988 C  
HETATM   34  O   UNL     1      -6.802  14.479  71.645  1.00  0.00     0.826 OA 
BRANCH  33  35
HETATM   35  C   UNL     1      -6.911  16.801  72.006  1.00  0.00     6.897 C  
BRANCH  35  36
HETATM   36  N   UNL     1      -6.033  17.439  71.002  1.00  0.00     0.637 NA 
HETATM   37  C   UNL     1      -6.745  17.978  69.821  1.00  0.00     0.108 C  
HETATM   38  C   UNL     1      -7.428  19.365  69.979  1.00  0.00     0.460 C  
HETATM   39  N   UNL     1      -6.655  20.395  70.706  1.00  0.00    -0.358 NA 
HETATM   40  C   UNL     1      -5.622  21.001  69.867  1.00  0.00    -0.087 C  
HETATM   41  C   UNL     1      -6.071  19.800  71.919  1.00  0.00    -0.025 C  
HETATM   42  C   UNL     1      -5.256  18.516  71.646  1.00  0.00    -0.152 C  
ENDBRANCH  35  36
ENDBRANCH  33  35
ENDBRANCH  26  31
ENDBRANCH  23  25
ENDBRANCH  16  23
ENDBRANCH   3   5
ENDBRANCH   2   3
TORSDOF 8
ENDMDL
MODEL      132
REMARK 921   NORMALIZED FREE ENERGY PREDICTED BY IDOCK:   22.88 KCAL/MOL
REMARK 922        TOTAL FREE ENERGY PREDICTED BY IDOCK:   32.05 KCAL/MOL
REMARK 923 INTER-LIGAND FREE ENERGY PREDICTED BY IDOCK:   17.30 KCAL/MOL
REMARK 924 INTRA-LIGAND FREE ENERGY PREDICTED BY IDOCK:   14.74 KCAL/MOL
REMARK 927      BINDING AFFINITY PREDICTED BY RF-SCORE:    0.00 PKD
ROOT
HETATM    1  C   UNL     1     -10.174  18.902  67.984  1.00  0.00    -0.388 C  
HETATM    2  O   UNL     1      -9.219  17.935  67.549  1.00  0.00    -0.247 OA 
ENDROOT
BRANCH   2   3
HETATM    3  C   UNL     1      -9.587  17.234  66.442  1.00  0.00    -0.274 C  
HETATM    4  O   UNL     1      -9.374  17.567  65.283  1.00  0.00     0.254 OA 
BRANCH   3   5
HETATM    5  C   UNL     1     -10.264  15.972  66.831  1.00  0.00    -0.280 A  
HETATM    6  C   UNL     1     -10.759  15.761  68.135  1.00  0.00    -0.285 A  
HETATM    7  C   UNL     1     -11.368  14.549  68.494  1.00  0.00    -0.309 A  
HETATM    8  C   UNL     1     -11.479  13.542  67.549  1.00  0.00    -0.361 A  
HETATM    9  C   UNL     1     -10.982  13.770  66.261  1.00  0.00    -0.297 A  
HETATM   10  C   UNL     1     -10.391  14.960  65.872  1.00  0.00    -0.330 A  
HETATM   11  N   UNL     1     -11.159  12.648  65.464  1.00  0.00    -0.286 N  
HETATM   12  H   UNL     1     -10.864  12.585  64.489  1.00  0.00     0.000 HD 
HETATM   13  C   UNL     1     -11.785  11.621  66.156  1.00  0.00     0.104 C  
HETATM   14  O   UNL     1     -12.110  10.550  65.681  1.00  0.00     1.998 OA 
HETATM   15  C   UNL     1     -12.010  12.159  67.559  1.00  0.00    -0.175 C  
HETATM   16  C   UNL     1     -12.572  11.436  68.559  1.00  0.00     1.123 C  
BRANCH  16  17
HETATM   17  C   UNL     1     -12.797  12.065  69.878  1.00  0.00     0.512 A  
HETATM   18  C   UNL     1     -13.274  13.383  72.298  1.00  0.00    -0.570 A  
HETATM   19  C   UNL     1     -14.032  11.921  70.526  1.00  0.00     3.442 A  
HETATM   20  C   UNL     1     -11.799  12.853  70.466  1.00  0.00    -0.152 A  
HETATM   21  C   UNL     1     -14.268  12.584  71.731  1.00  0.00     1.109 A  
HETATM   22  C   UNL     1     -12.037  13.512  71.670  1.00  0.00     0.282 A  
ENDBRANCH  16  17
BRANCH  16  23
HETATM   23  N   UNL     1     -13.007  10.107  68.532  1.00  0.00     2.502 NA 
HETATM   24  H   UNL     1     -14.001   9.898  68.632  1.00  0.00     0.000 HD 
BRANCH  23  25
HETATM   25  C   UNL     1     -12.076   9.041  68.366  1.00  0.00     3.200 A  
HETATM   26  C   UNL     1     -10.435   6.711  68.180  1.00  0.00    -0.214 A  
HETATM   27  C   UNL     1     -11.959   8.338  67.174  1.00  0.00     4.722 A  
HETATM   28  C   UNL     1     -11.203   8.703  69.398  1.00  0.00     0.187 A  
HETATM   29  C   UNL     1     -11.170   7.188  67.090  1.00  0.00    -0.033 A  
HETATM   30  C   UNL     1     -10.399   7.554  69.305  1.00  0.00    -0.209 A  
BRANCH  26  31
HETATM   31  N   UNL     1      -9.800   5.404  68.168  1.00  0.00    -0.138 N  
HETATM   32  C   UNL     1     -10.635   4.225  68.409  1.00  0.00     1.121 C  
HETATM   33  C   UNL     1      -8.430   5.232  67.857  1.00  0.00    -0.101 C  
HETATM   34  O   UNL     1      -7.617   6.147  67.680  1.00  0.00    -0.093 OA 
BRANCH  33  35
HETATM   35  C   UNL     1      -7.847   3.811  67.831  1.00  0.00    -0.073 C  
BRANCH  35  36
HETATM   36  N   UNL     1      -8.052   3.027  69.067  1.00  0.00    -0.055 NA 
HETATM   37  C   UNL     1      -7.689   3.742  70.313  1.00  0.00    -0.047 C  
HETATM   38  C   UNL     1      -8.729   4.748  70.880  1.00  0.00    -0.111 C  
HETATM   39  N   UNL     1     -10.141   4.309  70.858  1.00  0.00    -0.151 NA 
HETATM   40  C   UNL     1     -10.446   3.383  71.947  1.00  0.00     0.241 C  
HETATM   41  C   UNL     1     -10.444   3.708  69.549  1.00  0.00     1.759 C  
HETATM   42  C   UNL     1      -9.459   2.589  69.141  1.00  0.00    -0.073 C  
ENDBRANCH  35  36
ENDBRANCH  33  35
ENDBRANCH  26  31
ENDBRANCH  23  25
ENDBRANCH  16  23
ENDBRANCH   3   5
ENDBRANCH   2   3
TORSDOF 8
ENDMDL
MODEL      133
REMARK 921   NORMALIZED FREE ENERGY PREDICTED BY IDOCK:   23.32 KCAL/MOL
REMARK 922        TOTAL FREE ENERGY PREDICTED BY IDOCK:   32.69 KCAL/MOL
REMARK 923 INTER-LIGAND FREE ENERGY PREDICTED BY IDOCK:   17.03 KCAL/MOL
REMARK 924 INTRA-LIGAND FREE ENERGY PREDICTED BY IDOCK:   15.66 KCAL/MOL
REMARK 927      BINDING AFFINITY PREDICTED BY RF-SCORE:    0.00 PKD
ROOT
HETATM    1  C   UNL     1     -10.295  17.060  74.450  1.00  0.00     8.017 C  
HETATM    2  O   UNL     1     -11.493  16.715  73.753  1.00  0.00     0.258 OA 
ENDROOT
BRANCH   2   3
HETATM    3  C   UNL     1     -11.799  17.536  72.713  1.00  0.00     1.663 C  
HETATM    4  O   UNL     1     -12.109  18.718  72.803  1.00  0.00     5.849 OA 
BRANCH   3   5
HETATM    5  C   UNL     1     -11.674  16.808  71.426  1.00  0.00     0.422 A  
HETATM    6  C   UNL     1     -11.485  17.482  70.201  1.00  0.00     2.300 A  
HETATM    7  C   UNL     1     -11.401  16.779  68.990  1.00  0.00     0.031 A  
HETATM    8  C   UNL     1     -11.510  15.398  69.001  1.00  0.00    -0.349 A  
HETATM    9  C   UNL     1     -11.696  14.746  70.226  1.00  0.00    -0.298 A  
HETATM   10  C   UNL     1     -11.767  15.410  71.438  1.00  0.00    -0.453 A  
HETATM   11  N   UNL     1     -11.807  13.376  70.038  1.00  0.00    -0.431 N  
HETATM   12  H   UNL     1     -11.955  12.705  70.791  1.00  0.00     0.000 HD 
HETATM   13  C   UNL     1     -11.691  13.031  68.699  1.00  0.00    -0.323 C  
HETATM   14  O   UNL     1     -11.695  11.896  68.263  1.00  0.00    -0.305 OA 
HETATM   15  C   UNL     1     -11.505  14.345  67.958  1.00  0.00    -0.336 C  
HETATM   16  C   UNL     1     -11.389  14.437  66.611  1.00  0.00    -0.353 C  
BRANCH  16  17
HETATM   17  C   UNL     1     -11.158  15.757  65.985  1.00  0.00    -0.085 A  
HETATM   18  C   UNL     1     -10.833  18.312  64.896  1.00  0.00     1.548 A  
HETATM   19  C   UNL     1     -10.201  16.632  66.518  1.00  0.00    -0.314 A  
HETATM   20  C   UNL     1     -11.929  16.165  64.889  1.00  0.00     0.549 A  
HETATM   21  C   UNL     1     -10.045  17.908  65.975  1.00  0.00    -0.258 A  
HETATM   22  C   UNL     1     -11.770  17.439  64.349  1.00  0.00     2.674 A  
ENDBRANCH  16  17
BRANCH  16  23
HETATM   23  N   UNL     1     -11.449  13.411  65.661  1.00  0.00    -0.311 NA 
HETATM   24  H   UNL     1     -12.085  13.494  64.867  1.00  0.00     0.000 HD 
BRANCH  23  25
HETATM   25  C   UNL     1     -10.630  12.253  65.792  1.00  0.00    -0.254 A  
HETATM   26  C   UNL     1      -9.227   9.767  65.891  1.00  0.00    -0.187 A  
HETATM   27  C   UNL     1      -9.587  11.981  64.915  1.00  0.00    -0.040 A  
HETATM   28  C   UNL     1     -10.822  11.371  66.852  1.00  0.00    -0.335 A  
HETATM   29  C   UNL     1      -8.914  10.757  64.954  1.00  0.00    -0.201 A  
HETATM   30  C   UNL     1     -10.133  10.147  66.897  1.00  0.00    -0.279 A  
BRANCH  26  31
HETATM   31  N   UNL     1      -8.694   8.419  65.794  1.00  0.00    -0.162 N  
HETATM   32  C   UNL     1      -9.195   7.407  66.727  1.00  0.00    -0.156 C  
HETATM   33  C   UNL     1      -7.776   8.039  64.786  1.00  0.00    -0.120 C  
HETATM   34  O   UNL     1      -7.248   8.808  63.973  1.00  0.00    -0.093 OA 
BRANCH  33  35
HETATM   35  C   UNL     1      -7.291   6.582  64.734  1.00  0.00    -0.077 C  
BRANCH  35  36
HETATM   36  N   UNL     1      -8.357   5.563  64.831  1.00  0.00    -0.140 NA 
HETATM   37  C   UNL     1      -7.875   4.201  65.153  1.00  0.00    -0.089 C  
HETATM   38  C   UNL     1      -7.563   3.893  66.644  1.00  0.00    -0.088 C  
HETATM   39  N   UNL     1      -8.533   4.410  67.633  1.00  0.00    -0.099 NA 
HETATM   40  C   UNL     1      -9.732   3.576  67.714  1.00  0.00    -0.021 C  
HETATM   41  C   UNL     1      -8.876   5.801  67.299  1.00  0.00    -0.106 C  
HETATM   42  C   UNL     1      -9.348   5.988  65.840  1.00  0.00    -0.021 C  
ENDBRANCH  35  36
ENDBRANCH  33  35
ENDBRANCH  26  31
ENDBRANCH  23  25
ENDBRANCH  16  23
ENDBRANCH   3   5
ENDBRANCH   2   3
TORSDOF 8
ENDMDL
MODEL      134
REMARK 921   NORMALIZED FREE ENERGY PREDICTED BY IDOCK:   28.19 KCAL/MOL
REMARK 922        TOTAL FREE ENERGY PREDICTED BY IDOCK:   39.84 KCAL/MOL
REMARK 923 INTER-LIGAND FREE ENERGY PREDICTED BY IDOCK:   27.94 KCAL/MOL
REMARK 924 INTRA-LIGAND FREE ENERGY PREDICTED BY IDOCK:   11.89 KCAL/MOL
REMARK 927      BINDING AFFINITY PREDICTED BY RF-SCORE:    0.00 PKD
ROOT
HETATM    1  C   UNL     1     -10.279  17.096  74.431  1.00  0.00     8.691 C  
HETATM    2  O   UNL     1     -11.472  16.953  73.660  1.00  0.00     0.193 OA 
ENDROOT
BRANCH   2   3
HETATM    3  C   UNL     1     -11.678  17.942  72.748  1.00  0.00     2.492 C  
HETATM    4  O   UNL     1     -11.925  19.113  73.008  1.00  0.00     6.357 OA 
BRANCH   3   5
HETATM    5  C   UNL     1     -11.530  17.412  71.369  1.00  0.00     1.892 A  
HETATM    6  C   UNL     1     -11.197  18.244  70.281  1.00  0.00     3.362 A  
HETATM    7  C   UNL     1     -11.093  17.732  68.979  1.00  0.00     0.824 A  
HETATM    8  C   UNL     1     -11.325  16.384  68.763  1.00  0.00    -0.277 A  
HETATM    9  C   UNL     1     -11.654  15.573  69.855  1.00  0.00    -0.335 A  
HETATM   10  C   UNL     1     -11.749  16.045  71.153  1.00  0.00    -0.487 A  
HETATM   11  N   UNL     1     -11.874  14.266  69.445  1.00  0.00    -0.306 N  
HETATM   12  H   UNL     1     -12.133  13.504  70.072  1.00  0.00     0.000 HD 
HETATM   13  C   UNL     1     -11.697  14.121  68.077  1.00  0.00    -0.359 C  
HETATM   14  O   UNL     1     -11.772  13.073  67.465  1.00  0.00    -0.335 OA 
HETATM   15  C   UNL     1     -11.343  15.508  67.567  1.00  0.00    -0.232 C  
HETATM   16  C   UNL     1     -11.126  15.795  66.260  1.00  0.00    -0.073 C  
BRANCH  16  17
HETATM   17  C   UNL     1     -10.734  17.166  65.867  1.00  0.00    -0.132 A  
HETATM   18  C   UNL     1     -10.107  19.813  65.220  1.00  0.00     0.449 A  
HETATM   19  C   UNL     1      -9.746  17.850  66.588  1.00  0.00    -0.319 A  
HETATM   20  C   UNL     1     -11.384  17.811  64.807  1.00  0.00     1.832 A  
HETATM   21  C   UNL     1      -9.438  19.173  66.265  1.00  0.00    -0.359 A  
HETATM   22  C   UNL     1     -11.075  19.131  64.487  1.00  0.00     3.545 A  
ENDBRANCH  16  17
BRANCH  16  23
HETATM   23  N   UNL     1     -11.211  14.939  65.156  1.00  0.00    -0.369 NA 
HETATM   24  H   UNL     1     -11.733  15.231  64.329  1.00  0.00     0.000 HD 
BRANCH  23  25
HETATM   25  C   UNL     1     -10.576  13.664  65.176  1.00  0.00    -0.361 A  
HETATM   26  C   UNL     1      -9.390  11.091  65.537  1.00  0.00    -0.215 A  
HETATM   27  C   UNL     1     -11.219  12.510  64.746  1.00  0.00    -0.344 A  
HETATM   28  C   UNL     1      -9.250  13.545  65.587  1.00  0.00     0.414 A  
HETATM   29  C   UNL     1     -10.644  11.251  64.939  1.00  0.00    -0.364 A  
HETATM   30  C   UNL     1      -8.670  12.277  65.766  1.00  0.00     0.452 A  
BRANCH  26  31
HETATM   31  N   UNL     1      -8.892   9.789  65.945  1.00  0.00    -0.144 N  
HETATM   32  C   UNL     1      -7.649   9.733  66.718  1.00  0.00    -0.095 C  
HETATM   33  C   UNL     1      -9.603   8.592  65.689  1.00  0.00     0.039 C  
HETATM   34  O   UNL     1     -10.635   8.505  65.012  1.00  0.00     3.126 OA 
BRANCH  33  35
HETATM   35  C   UNL     1      -9.022   7.260  66.188  1.00  0.00    -0.149 C  
BRANCH  35  36
HETATM   36  N   UNL     1      -8.567   7.264  67.595  1.00  0.00    -0.126 NA 
HETATM   37  C   UNL     1      -7.649   6.156  67.944  1.00  0.00    -0.101 C  
HETATM   38  C   UNL     1      -6.155   6.324  67.550  1.00  0.00    -0.018 C  
HETATM   39  N   UNL     1      -5.564   7.658  67.787  1.00  0.00    -0.034 NA 
HETATM   40  C   UNL     1      -5.215   7.864  69.192  1.00  0.00    -0.022 C  
HETATM   41  C   UNL     1      -6.496   8.695  67.314  1.00  0.00    -0.058 C  
HETATM   42  C   UNL     1      -7.921   8.556  67.896  1.00  0.00    -0.108 C  
ENDBRANCH  35  36
ENDBRANCH  33  35
ENDBRANCH  26  31
ENDBRANCH  23  25
ENDBRANCH  16  23
ENDBRANCH   3   5
ENDBRANCH   2   3
TORSDOF 8
ENDMDL
MODEL      135
REMARK 921   NORMALIZED FREE ENERGY PREDICTED BY IDOCK:   28.61 KCAL/MOL
REMARK 922        TOTAL FREE ENERGY PREDICTED BY IDOCK:   40.45 KCAL/MOL
REMARK 923 INTER-LIGAND FREE ENERGY PREDICTED BY IDOCK:   17.95 KCAL/MOL
REMARK 924 INTRA-LIGAND FREE ENERGY PREDICTED BY IDOCK:   22.50 KCAL/MOL
REMARK 927      BINDING AFFINITY PREDICTED BY RF-SCORE:    0.00 PKD
ROOT
HETATM    1  C   UNL     1     -13.916  13.364  71.073  1.00  0.00     0.918 C  
HETATM    2  O   UNL     1     -13.396  14.262  72.053  1.00  0.00    -0.339 OA 
ENDROOT
BRANCH   2   3
HETATM    3  C   UNL     1     -12.283  14.941  71.665  1.00  0.00    -0.345 C  
HETATM    4  O   UNL     1     -12.126  16.154  71.731  1.00  0.00    -0.472 OA 
BRANCH   3   5
HETATM    5  C   UNL     1     -11.248  13.997  71.173  1.00  0.00     0.997 A  
HETATM    6  C   UNL     1     -11.291  12.619  71.472  1.00  0.00     3.407 A  
HETATM    7  C   UNL     1     -10.287  11.747  71.025  1.00  0.00     5.318 A  
HETATM    8  C   UNL     1      -9.235  12.253  70.280  1.00  0.00     4.698 A  
HETATM    9  C   UNL     1      -9.210  13.623  69.992  1.00  0.00     2.571 A  
HETATM   10  C   UNL     1     -10.193  14.505  70.405  1.00  0.00     0.780 A  
HETATM   11  N   UNL     1      -8.076  13.947  69.262  1.00  0.00    -0.321 N  
HETATM   12  H   UNL     1      -7.847  14.891  68.948  1.00  0.00     0.000 HD 
HETATM   13  C   UNL     1      -7.291  12.832  69.009  1.00  0.00     0.056 C  
HETATM   14  O   UNL     1      -6.273  12.824  68.344  1.00  0.00    -0.064 OA 
HETATM   15  C   UNL     1      -8.010  11.673  69.679  1.00  0.00     0.841 C  
HETATM   16  C   UNL     1      -7.539  10.402  69.690  1.00  0.00    -0.153 C  
BRANCH  16  17
HETATM   17  C   UNL     1      -8.338   9.331  70.324  1.00  0.00    -0.204 A  
HETATM   18  C   UNL     1      -9.781   7.342  71.658  1.00  0.00    -0.169 A  
HETATM   19  C   UNL     1      -9.613   9.611  70.834  1.00  0.00    -0.085 A  
HETATM   20  C   UNL     1      -7.807   8.042  70.465  1.00  0.00    -0.094 A  
HETATM   21  C   UNL     1     -10.328   8.617  71.504  1.00  0.00    -0.341 A  
HETATM   22  C   UNL     1      -8.524   7.052  71.134  1.00  0.00    -0.119 A  
ENDBRANCH  16  17
BRANCH  16  23
HETATM   23  N   UNL     1      -6.342   9.914  69.154  1.00  0.00    -0.044 NA 
HETATM   24  H   UNL     1      -5.472  10.425  69.311  1.00  0.00     0.000 HD 
BRANCH  23  25
HETATM   25  C   UNL     1      -6.326   8.711  68.391  1.00  0.00    -0.055 A  
HETATM   26  C   UNL     1      -6.615   6.268  66.941  1.00  0.00    -0.059 A  
HETATM   27  C   UNL     1      -6.476   8.709  67.009  1.00  0.00    -0.057 A  
HETATM   28  C   UNL     1      -6.103   7.486  69.014  1.00  0.00    -0.034 A  
HETATM   29  C   UNL     1      -6.635   7.513  66.304  1.00  0.00    -0.049 A  
HETATM   30  C   UNL     1      -6.248   6.285  68.299  1.00  0.00    -0.032 A  
BRANCH  26  31
HETATM   31  N   UNL     1      -7.003   5.047  66.256  1.00  0.00    -0.065 N  
HETATM   32  C   UNL     1      -7.413   5.139  64.853  1.00  0.00    -0.072 C  
HETATM   33  C   UNL     1      -6.921   3.775  66.872  1.00  0.00    -0.058 C  
HETATM   34  O   UNL     1      -6.634   3.573  68.058  1.00  0.00    -0.037 OA 
BRANCH  33  35
HETATM   35  C   UNL     1      -7.317   2.530  66.064  1.00  0.00    -0.067 C  
BRANCH  35  36
HETATM   36  N   UNL     1      -7.927   2.808  64.746  1.00  0.00    -0.081 NA 
HETATM   37  C   UNL     1      -9.286   2.246  64.571  1.00  0.00    -0.131 C  
HETATM   38  C   UNL     1     -10.467   3.044  65.190  1.00  0.00     0.819 C  
HETATM   39  N   UNL     1     -10.424   4.512  65.019  1.00  0.00    -0.118 NA 
HETATM   40  C   UNL     1     -10.850   4.923  63.682  1.00  0.00     1.435 C  
HETATM   41  C   UNL     1      -9.066   4.997  65.316  1.00  0.00    -0.139 C  
HETATM   42  C   UNL     1      -7.961   4.266  64.521  1.00  0.00    -0.090 C  
ENDBRANCH  35  36
ENDBRANCH  33  35
ENDBRANCH  26  31
ENDBRANCH  23  25
ENDBRANCH  16  23
ENDBRANCH   3   5
ENDBRANCH   2   3
TORSDOF 8
ENDMDL
MODEL      136
REMARK 921   NORMALIZED FREE ENERGY PREDICTED BY IDOCK:   33.91 KCAL/MOL
REMARK 922        TOTAL FREE ENERGY PREDICTED BY IDOCK:   48.23 KCAL/MOL
REMARK 923 INTER-LIGAND FREE ENERGY PREDICTED BY IDOCK:   47.51 KCAL/MOL
REMARK 924 INTRA-LIGAND FREE ENERGY PREDICTED BY IDOCK:    0.71 KCAL/MOL
REMARK 927      BINDING AFFINITY PREDICTED BY RF-SCORE:    0.00 PKD
ROOT
HETATM    1  C   UNL     1     -14.206   7.873  64.855  1.00  0.00    19.279 C  
HETATM    2  O   UNL     1     -12.787   7.851  65.008  1.00  0.00    16.351 OA 
ENDROOT
BRANCH   2   3
HETATM    3  C   UNL     1     -12.272   6.632  65.326  1.00  0.00     8.839 C  
HETATM    4  O   UNL     1     -12.592   5.566  64.816  1.00  0.00     3.665 OA 
BRANCH   3   5
HETATM    5  C   UNL     1     -11.227   6.771  66.372  1.00  0.00     0.880 A  
HETATM    6  C   UNL     1     -11.543   6.789  67.746  1.00  0.00     0.537 A  
HETATM    7  C   UNL     1     -10.546   6.953  68.719  1.00  0.00    -0.247 A  
HETATM    8  C   UNL     1      -9.228   7.103  68.318  1.00  0.00    -0.132 A  
HETATM    9  C   UNL     1      -8.934   7.082  66.950  1.00  0.00    -0.126 A  
HETATM   10  C   UNL     1      -9.893   6.906  65.967  1.00  0.00     0.245 A  
HETATM   11  N   UNL     1      -7.576   7.270  66.740  1.00  0.00    -0.098 N  
HETATM   12  H   UNL     1      -7.137   7.298  65.819  1.00  0.00     0.000 HD 
HETATM   13  C   UNL     1      -6.887   7.414  67.935  1.00  0.00    -0.074 C  
HETATM   14  O   UNL     1      -5.681   7.536  68.042  1.00  0.00    -0.025 OA 
HETATM   15  C   UNL     1      -7.944   7.325  69.023  1.00  0.00    -0.119 C  
HETATM   16  C   UNL     1      -7.674   7.456  70.345  1.00  0.00    -0.093 C  
BRANCH  16  17
HETATM   17  C   UNL     1      -8.763   7.301  71.333  1.00  0.00    -0.126 A  
HETATM   18  C   UNL     1     -10.922   6.982  73.081  1.00  0.00    -0.315 A  
HETATM   19  C   UNL     1      -9.042   6.043  71.883  1.00  0.00    -0.143 A  
HETATM   20  C   UNL     1      -9.558   8.399  71.687  1.00  0.00    -0.288 A  
HETATM   21  C   UNL     1     -10.124   5.886  72.751  1.00  0.00    -0.203 A  
HETATM   22  C   UNL     1     -10.637   8.240  72.555  1.00  0.00    -0.407 A  
ENDBRANCH  16  17
BRANCH  16  23
HETATM   23  N   UNL     1      -6.445   7.724  70.959  1.00  0.00    -0.038 NA 
HETATM   24  H   UNL     1      -5.859   6.951  71.276  1.00  0.00     0.000 HD 
BRANCH  23  25
HETATM   25  C   UNL     1      -6.004   9.066  71.146  1.00  0.00    -0.055 A  
HETATM   26  C   UNL     1      -5.421  11.849  71.412  1.00  0.00     0.115 A  
HETATM   27  C   UNL     1      -6.052   9.695  72.384  1.00  0.00     0.394 A  
HETATM   28  C   UNL     1      -5.455   9.780  70.084  1.00  0.00    -0.041 A  
HETATM   29  C   UNL     1      -5.783  11.060  72.508  1.00  0.00     1.231 A  
HETATM   30  C   UNL     1      -5.171  11.150  70.217  1.00  0.00    -0.072 A  
BRANCH  26  31
HETATM   31  N   UNL     1      -5.362  13.298  71.491  1.00  0.00    -0.185 N  
HETATM   32  C   UNL     1      -5.140  13.913  72.802  1.00  0.00    -0.206 C  
HETATM   33  C   UNL     1      -5.435  14.122  70.342  1.00  0.00    -0.120 C  
HETATM   34  O   UNL     1      -5.665  13.727  69.192  1.00  0.00    -0.079 OA 
BRANCH  33  35
HETATM   35  C   UNL     1      -5.328  15.645  70.511  1.00  0.00    -0.157 C  
BRANCH  35  36
HETATM   36  N   UNL     1      -5.320  16.416  69.250  1.00  0.00    -0.120 NA 
HETATM   37  C   UNL     1      -5.892  15.697  68.089  1.00  0.00    -0.129 C  
HETATM   38  C   UNL     1      -7.441  15.674  67.964  1.00  0.00    -0.125 C  
HETATM   39  N   UNL     1      -8.138  16.944  68.256  1.00  0.00    -0.208 NA 
HETATM   40  C   UNL     1      -8.065  17.882  67.137  1.00  0.00    -0.212 C  
HETATM   41  C   UNL     1      -7.580  17.536  69.482  1.00  0.00     0.365 C  
HETATM   42  C   UNL     1      -6.042  17.687  69.450  1.00  0.00    -0.242 C  
ENDBRANCH  35  36
ENDBRANCH  33  35
ENDBRANCH  26  31
ENDBRANCH  23  25
ENDBRANCH  16  23
ENDBRANCH   3   5
ENDBRANCH   2   3
TORSDOF 8
ENDMDL
MODEL      137
REMARK 921   NORMALIZED FREE ENERGY PREDICTED BY IDOCK:   37.62 KCAL/MOL
REMARK 922        TOTAL FREE ENERGY PREDICTED BY IDOCK:   53.68 KCAL/MOL
REMARK 923 INTER-LIGAND FREE ENERGY PREDICTED BY IDOCK:   24.60 KCAL/MOL
REMARK 924 INTRA-LIGAND FREE ENERGY PREDICTED BY IDOCK:   29.07 KCAL/MOL
REMARK 927      BINDING AFFINITY PREDICTED BY RF-SCORE:    0.00 PKD
ROOT
HETATM    1  C   UNL     1      -8.133   6.456  65.560  1.00  0.00    -0.130 C  
HETATM    2  O   UNL     1      -8.625   5.163  65.912  1.00  0.00    -0.120 OA 
ENDROOT
BRANCH   2   3
HETATM    3  C   UNL     1      -9.863   5.163  66.476  1.00  0.00    -0.192 C  
HETATM    4  O   UNL     1     -10.711   4.290  66.336  1.00  0.00     0.173 OA 
BRANCH   3   5
HETATM    5  C   UNL     1     -10.044   6.366  67.325  1.00  0.00    -0.207 A  
HETATM    6  C   UNL     1     -10.743   6.319  68.549  1.00  0.00    -0.354 A  
HETATM    7  C   UNL     1     -10.932   7.473  69.324  1.00  0.00    -0.057 A  
HETATM    8  C   UNL     1     -10.424   8.680  68.873  1.00  0.00    -0.211 A  
HETATM    9  C   UNL     1      -9.732   8.708  67.657  1.00  0.00    -0.159 A  
HETATM   10  C   UNL     1      -9.515   7.584  66.878  1.00  0.00    -0.219 A  
HETATM   11  N   UNL     1      -9.320   9.999  67.359  1.00  0.00    -0.147 N  
HETATM   12  H   UNL     1      -8.805  10.256  66.517  1.00  0.00     0.000 HD 
HETATM   13  C   UNL     1      -9.695  10.897  68.347  1.00  0.00    -0.176 C  
HETATM   14  O   UNL     1      -9.414  12.081  68.365  1.00  0.00    -0.201 OA 
HETATM   15  C   UNL     1     -10.448  10.073  69.377  1.00  0.00    -0.252 C  
HETATM   16  C   UNL     1     -11.013  10.599  70.492  1.00  0.00     0.020 C  
BRANCH  16  17
HETATM   17  C   UNL     1     -11.681   9.707  71.464  1.00  0.00    -0.472 A  
HETATM   18  C   UNL     1     -12.926   8.132  73.411  1.00  0.00     1.940 A  
HETATM   19  C   UNL     1     -13.074   9.748  71.617  1.00  0.00    -0.516 A  
HETATM   20  C   UNL     1     -10.924   8.852  72.275  1.00  0.00    -0.245 A  
HETATM   21  C   UNL     1     -13.691   8.964  72.593  1.00  0.00    -0.400 A  
HETATM   22  C   UNL     1     -11.544   8.069  73.248  1.00  0.00     0.437 A  
ENDBRANCH  16  17
BRANCH  16  23
HETATM   23  N   UNL     1     -11.057  11.938  70.896  1.00  0.00     1.203 NA 
HETATM   24  H   UNL     1     -11.186  12.165  71.882  1.00  0.00     0.000 HD 
BRANCH  23  25
HETATM   25  C   UNL     1     -10.924  12.988  69.942  1.00  0.00     0.455 A  
HETATM   26  C   UNL     1     -10.391  14.930  67.916  1.00  0.00    -0.237 A  
HETATM   27  C   UNL     1     -11.648  13.007  68.756  1.00  0.00    -0.350 A  
HETATM   28  C   UNL     1     -10.088  14.071  70.200  1.00  0.00     1.352 A  
HETATM   29  C   UNL     1     -11.374  13.947  67.759  1.00  0.00    -0.335 A  
HETATM   30  C   UNL     1      -9.825  15.024  69.201  1.00  0.00    -0.223 A  
BRANCH  26  31
HETATM   31  N   UNL     1      -9.946  15.758  66.809  1.00  0.00    -0.245 N  
HETATM   32  C   UNL     1     -10.826  16.837  66.353  1.00  0.00     0.011 C  
HETATM   33  C   UNL     1      -8.670  15.607  66.215  1.00  0.00    -0.290 C  
HETATM   34  O   UNL     1      -7.861  14.710  66.480  1.00  0.00     0.337 OA 
BRANCH  33  35
HETATM   35  C   UNL     1      -8.265  16.550  65.072  1.00  0.00     4.107 C  
BRANCH  35  36
HETATM   36  N   UNL     1      -9.359  16.921  64.149  1.00  0.00     5.753 NA 
HETATM   37  C   UNL     1     -10.089  15.769  63.571  1.00  0.00     7.116 C  
HETATM   38  C   UNL     1     -11.179  15.104  64.458  1.00  0.00    -0.272 C  
HETATM   39  N   UNL     1     -12.057  16.023  65.212  1.00  0.00     0.807 NA 
HETATM   40  C   UNL     1     -13.101  16.603  64.368  1.00  0.00     4.804 C  
HETATM   41  C   UNL     1     -11.239  17.073  65.840  1.00  0.00     0.550 C  
HETATM   42  C   UNL     1     -10.309  17.808  64.849  1.00  0.00     1.548 C  
ENDBRANCH  35  36
ENDBRANCH  33  35
ENDBRANCH  26  31
ENDBRANCH  23  25
ENDBRANCH  16  23
ENDBRANCH   3   5
ENDBRANCH   2   3
TORSDOF 8
ENDMDL
MODEL      138
REMARK 921   NORMALIZED FREE ENERGY PREDICTED BY IDOCK:   44.11 KCAL/MOL
REMARK 922        TOTAL FREE ENERGY PREDICTED BY IDOCK:   63.20 KCAL/MOL
REMARK 923 INTER-LIGAND FREE ENERGY PREDICTED BY IDOCK:   58.69 KCAL/MOL
REMARK 924 INTRA-LIGAND FREE ENERGY PREDICTED BY IDOCK:    4.51 KCAL/MOL
REMARK 927      BINDING AFFINITY PREDICTED BY RF-SCORE:    0.00 PKD
ROOT
HETATM    1  C   UNL     1     -11.291  17.516  62.442  1.00  0.00    17.199 C  
HETATM    2  O   UNL     1     -11.012  17.105  63.780  1.00  0.00     0.853 OA 
ENDROOT
BRANCH   2   3
HETATM    3  C   UNL     1      -9.736  17.341  64.190  1.00  0.00     7.176 C  
HETATM    4  O   UNL     1      -8.908  18.017  63.592  1.00  0.00    12.465 OA 
BRANCH   3   5
HETATM    5  C   UNL     1      -9.484  16.685  65.497  1.00  0.00     0.259 A  
HETATM    6  C   UNL     1      -8.412  17.067  66.330  1.00  0.00    -0.318 A  
HETATM    7  C   UNL     1      -8.169  16.415  67.548  1.00  0.00    -0.167 A  
HETATM    8  C   UNL     1      -8.998  15.375  67.935  1.00  0.00    -0.173 A  
HETATM    9  C   UNL     1     -10.058  15.010  67.096  1.00  0.00    -0.239 A  
HETATM   10  C   UNL     1     -10.332  15.645  65.897  1.00  0.00    -0.368 A  
HETATM   11  N   UNL     1     -10.759  13.941  67.633  1.00  0.00    -0.248 N  
HETATM   12  H   UNL     1     -11.567  13.504  67.188  1.00  0.00     0.000 HD 
HETATM   13  C   UNL     1     -10.229  13.538  68.850  1.00  0.00    -0.057 C  
HETATM   14  O   UNL     1     -10.684  12.662  69.560  1.00  0.00     0.085 OA 
HETATM   15  C   UNL     1      -9.041  14.453  69.094  1.00  0.00     0.088 C  
HETATM   16  C   UNL     1      -8.228  14.356  70.174  1.00  0.00     1.189 C  
BRANCH  16  17
HETATM   17  C   UNL     1      -7.127  15.327  70.351  1.00  0.00     0.351 A  
HETATM   18  C   UNL     1      -5.146  17.257  70.763  1.00  0.00    -0.261 A  
HETATM   19  C   UNL     1      -6.295  15.252  71.477  1.00  0.00     0.992 A  
HETATM   20  C   UNL     1      -6.939  16.360  69.424  1.00  0.00    -0.210 A  
HETATM   21  C   UNL     1      -5.311  16.220  71.682  1.00  0.00     0.264 A  
HETATM   22  C   UNL     1      -5.955  17.324  69.630  1.00  0.00    -0.244 A  
ENDBRANCH  16  17
BRANCH  16  23
HETATM   23  N   UNL     1      -8.277  13.425  71.219  1.00  0.00     6.629 NA 
HETATM   24  H   UNL     1      -8.324  13.751  72.184  1.00  0.00     0.000 HD 
BRANCH  23  25
HETATM   25  C   UNL     1      -8.263  12.027  70.946  1.00  0.00     7.828 A  
HETATM   26  C   UNL     1      -8.213   9.180  70.727  1.00  0.00    -0.190 A  
HETATM   27  C   UNL     1      -9.430  11.302  70.736  1.00  0.00     4.819 A  
HETATM   28  C   UNL     1      -7.054  11.345  70.828  1.00  0.00     2.242 A  
HETATM   29  C   UNL     1      -9.405   9.907  70.647  1.00  0.00     0.153 A  
HETATM   30  C   UNL     1      -7.032   9.944  70.723  1.00  0.00    -0.009 A  
BRANCH  26  31
HETATM   31  N   UNL     1      -8.202   7.733  70.863  1.00  0.00    -0.105 N  
HETATM   32  C   UNL     1      -9.053   6.946  69.968  1.00  0.00    -0.145 C  
HETATM   33  C   UNL     1      -7.345   7.065  71.771  1.00  0.00    -0.086 C  
HETATM   34  O   UNL     1      -6.619   7.617  72.606  1.00  0.00    -0.058 OA 
BRANCH  33  35
HETATM   35  C   UNL     1      -7.371   5.530  71.825  1.00  0.00    -0.091 C  
BRANCH  35  36
HETATM   36  N   UNL     1      -7.842   4.957  73.104  1.00  0.00    -0.096 NA 
HETATM   37  C   UNL     1      -9.091   5.560  73.622  1.00  0.00    -0.124 C  
HETATM   38  C   UNL     1     -10.428   5.063  73.005  1.00  0.00    -0.202 C  
HETATM   39  N   UNL     1     -10.541   3.605  72.783  1.00  0.00    -0.138 NA 
HETATM   40  C   UNL     1     -10.845   2.883  74.018  1.00  0.00    -0.187 C  
HETATM   41  C   UNL     1      -9.300   3.108  72.168  1.00  0.00    -0.119 C  
HETATM   42  C   UNL     1      -8.024   3.500  72.948  1.00  0.00    -0.070 C  
ENDBRANCH  35  36
ENDBRANCH  33  35
ENDBRANCH  26  31
ENDBRANCH  23  25
ENDBRANCH  16  23
ENDBRANCH   3   5
ENDBRANCH   2   3
TORSDOF 8
ENDMDL
MODEL      139
REMARK 921   NORMALIZED FREE ENERGY PREDICTED BY IDOCK:   44.19 KCAL/MOL
REMARK 922        TOTAL FREE ENERGY PREDICTED BY IDOCK:   63.32 KCAL/MOL
REMARK 923 INTER-LIGAND FREE ENERGY PREDICTED BY IDOCK:   58.53 KCAL/MOL
REMARK 924 INTRA-LIGAND FREE ENERGY PREDICTED BY IDOCK:    4.79 KCAL/MOL
REMARK 927      BINDING AFFINITY PREDICTED BY RF-SCORE:    0.00 PKD
ROOT
HETATM    1  C   UNL     1     -11.291  17.516  62.442  1.00  0.00    17.199 C  
HETATM    2  O   UNL     1     -11.012  17.105  63.780  1.00  0.00     0.853 OA 
ENDROOT
BRANCH   2   3
HETATM    3  C   UNL     1      -9.736  17.341  64.190  1.00  0.00     7.176 C  
HETATM    4  O   UNL     1      -8.908  18.017  63.592  1.00  0.00    12.465 OA 
BRANCH   3   5
HETATM    5  C   UNL     1      -9.484  16.685  65.497  1.00  0.00     0.259 A  
HETATM    6  C   UNL     1      -8.412  17.067  66.330  1.00  0.00    -0.318 A  
HETATM    7  C   UNL     1      -8.169  16.415  67.548  1.00  0.00    -0.167 A  
HETATM    8  C   UNL     1      -8.998  15.375  67.935  1.00  0.00    -0.173 A  
HETATM    9  C   UNL     1     -10.058  15.010  67.096  1.00  0.00    -0.239 A  
HETATM   10  C   UNL     1     -10.332  15.645  65.897  1.00  0.00    -0.368 A  
HETATM   11  N   UNL     1     -10.759  13.941  67.633  1.00  0.00    -0.248 N  
HETATM   12  H   UNL     1     -11.567  13.504  67.188  1.00  0.00     0.000 HD 
HETATM   13  C   UNL     1     -10.229  13.538  68.850  1.00  0.00    -0.057 C  
HETATM   14  O   UNL     1     -10.684  12.662  69.560  1.00  0.00     0.085 OA 
HETATM   15  C   UNL     1      -9.041  14.453  69.094  1.00  0.00     0.088 C  
HETATM   16  C   UNL     1      -8.228  14.356  70.174  1.00  0.00     1.189 C  
BRANCH  16  17
HETATM   17  C   UNL     1      -7.127  15.327  70.351  1.00  0.00     0.351 A  
HETATM   18  C   UNL     1      -5.146  17.257  70.763  1.00  0.00    -0.261 A  
HETATM   19  C   UNL     1      -6.295  15.252  71.477  1.00  0.00     0.992 A  
HETATM   20  C   UNL     1      -6.939  16.360  69.424  1.00  0.00    -0.210 A  
HETATM   21  C   UNL     1      -5.311  16.220  71.682  1.00  0.00     0.264 A  
HETATM   22  C   UNL     1      -5.955  17.324  69.630  1.00  0.00    -0.244 A  
ENDBRANCH  16  17
BRANCH  16  23
HETATM   23  N   UNL     1      -8.277  13.425  71.219  1.00  0.00     6.629 NA 
HETATM   24  H   UNL     1      -8.324  13.751  72.184  1.00  0.00     0.000 HD 
BRANCH  23  25
HETATM   25  C   UNL     1      -8.263  12.027  70.946  1.00  0.00     7.828 A  
HETATM   26  C   UNL     1      -8.213   9.180  70.727  1.00  0.00    -0.190 A  
HETATM   27  C   UNL     1      -9.430  11.302  70.736  1.00  0.00     4.819 A  
HETATM   28  C   UNL     1      -7.054  11.345  70.828  1.00  0.00     2.242 A  
HETATM   29  C   UNL     1      -9.405   9.907  70.647  1.00  0.00     0.153 A  
HETATM   30  C   UNL     1      -7.032   9.944  70.723  1.00  0.00    -0.009 A  
BRANCH  26  31
HETATM   31  N   UNL     1      -8.202   7.733  70.863  1.00  0.00    -0.105 N  
HETATM   32  C   UNL     1      -6.948   7.022  70.605  1.00  0.00    -0.062 C  
HETATM   33  C   UNL     1      -9.332   7.007  71.310  1.00  0.00    -0.160 C  
HETATM   34  O   UNL     1     -10.454   7.485  71.515  1.00  0.00    -0.204 OA 
BRANCH  33  35
HETATM   35  C   UNL     1      -9.223   5.482  71.461  1.00  0.00    -0.146 C  
BRANCH  35  36
HETATM   36  N   UNL     1     -10.087   4.699  70.552  1.00  0.00    -0.219 NA 
HETATM   37  C   UNL     1     -10.037   5.131  69.136  1.00  0.00    -0.204 C  
HETATM   38  C   UNL     1      -8.836   4.631  68.286  1.00  0.00    -0.105 C  
HETATM   39  N   UNL     1      -8.450   3.216  68.471  1.00  0.00    -0.076 NA 
HETATM   40  C   UNL     1      -9.337   2.304  67.749  1.00  0.00    -0.162 C  
HETATM   41  C   UNL     1      -8.422   2.902  69.909  1.00  0.00    -0.054 C  
HETATM   42  C   UNL     1      -9.729   3.271  70.646  1.00  0.00    -0.086 C  
ENDBRANCH  35  36
ENDBRANCH  33  35
ENDBRANCH  26  31
ENDBRANCH  23  25
ENDBRANCH  16  23
ENDBRANCH   3   5
ENDBRANCH   2   3
TORSDOF 8
ENDMDL
MODEL      140
REMARK 921   NORMALIZED FREE ENERGY PREDICTED BY IDOCK:   49.83 KCAL/MOL
REMARK 922        TOTAL FREE ENERGY PREDICTED BY IDOCK:   71.59 KCAL/MOL
REMARK 923 INTER-LIGAND FREE ENERGY PREDICTED BY IDOCK:   58.09 KCAL/MOL
REMARK 924 INTRA-LIGAND FREE ENERGY PREDICTED BY IDOCK:   13.50 KCAL/MOL
REMARK 927      BINDING AFFINITY PREDICTED BY RF-SCORE:    0.00 PKD
ROOT
HETATM    1  C   UNL     1     -13.916  13.387  71.186  1.00  0.00     0.725 C  
HETATM    2  O   UNL     1     -13.387  13.997  72.363  1.00  0.00    -0.433 OA 
ENDROOT
BRANCH   2   3
HETATM    3  C   UNL     1     -12.089  14.392  72.262  1.00  0.00    -0.040 C  
HETATM    4  O   UNL     1     -11.646  15.483  72.599  1.00  0.00    -0.453 OA 
BRANCH   3   5
HETATM    5  C   UNL     1     -11.257  13.295  71.708  1.00  0.00     3.888 A  
HETATM    6  C   UNL     1     -11.737  11.972  71.604  1.00  0.00     2.042 A  
HETATM    7  C   UNL     1     -10.925  10.941  71.109  1.00  0.00     1.414 A  
HETATM    8  C   UNL     1      -9.628  11.230  70.719  1.00  0.00     4.605 A  
HETATM    9  C   UNL     1      -9.169  12.548  70.829  1.00  0.00     8.812 A  
HETATM   10  C   UNL     1      -9.951  13.590  71.298  1.00  0.00     7.247 A  
HETATM   11  N   UNL     1      -7.848  12.641  70.417  1.00  0.00     2.870 N  
HETATM   12  H   UNL     1      -7.306  13.506  70.419  1.00  0.00     0.000 HD 
HETATM   13  C   UNL     1      -7.353  11.414  70.002  1.00  0.00     0.737 C  
HETATM   14  O   UNL     1      -6.243  11.223  69.541  1.00  0.00    -0.074 OA 
HETATM   15  C   UNL     1      -8.495  10.431  70.196  1.00  0.00     0.406 C  
HETATM   16  C   UNL     1      -8.397   9.105  69.935  1.00  0.00    -0.144 C  
BRANCH  16  17
HETATM   17  C   UNL     1      -9.582   8.236  70.105  1.00  0.00    -0.167 A  
HETATM   18  C   UNL     1     -11.747   6.522  70.544  1.00  0.00    -0.438 A  
HETATM   19  C   UNL     1     -10.621   8.622  70.962  1.00  0.00    -0.278 A  
HETATM   20  C   UNL     1      -9.651   6.999  69.452  1.00  0.00    -0.155 A  
HETATM   21  C   UNL     1     -11.698   7.761  71.183  1.00  0.00    -0.304 A  
HETATM   22  C   UNL     1     -10.728   6.142  69.673  1.00  0.00    -0.385 A  
ENDBRANCH  16  17
BRANCH  16  23
HETATM   23  N   UNL     1      -7.281   8.386  69.493  1.00  0.00    -0.060 NA 
HETATM   24  H   UNL     1      -6.395   8.469  69.992  1.00  0.00     0.000 HD 
BRANCH  23  25
HETATM   25  C   UNL     1      -7.369   7.537  68.351  1.00  0.00    -0.099 A  
HETATM   26  C   UNL     1      -7.868   5.922  66.049  1.00  0.00    -0.105 A  
HETATM   27  C   UNL     1      -7.007   7.967  67.080  1.00  0.00    -0.074 A  
HETATM   28  C   UNL     1      -7.781   6.214  68.489  1.00  0.00    -0.100 A  
HETATM   29  C   UNL     1      -7.268   7.182  65.954  1.00  0.00    -0.074 A  
HETATM   30  C   UNL     1      -8.028   5.422  67.354  1.00  0.00    -0.101 A  
BRANCH  26  31
HETATM   31  N   UNL     1      -8.346   5.206  64.879  1.00  0.00    -0.139 N  
HETATM   32  C   UNL     1      -8.143   5.816  63.563  1.00  0.00    -0.106 C  
HETATM   33  C   UNL     1      -8.923   3.917  64.965  1.00  0.00    -0.131 C  
HETATM   34  O   UNL     1      -9.187   3.320  66.015  1.00  0.00    -0.153 OA 
BRANCH  33  35
HETATM   35  C   UNL     1      -9.368   3.214  63.673  1.00  0.00    -0.098 C  
BRANCH  35  36
HETATM   36  N   UNL     1     -10.031   4.088  62.681  1.00  0.00    -0.158 NA 
HETATM   37  C   UNL     1     -11.430   3.714  62.372  1.00  0.00     0.433 C  
HETATM   38  C   UNL     1     -12.523   4.170  63.378  1.00  0.00     5.155 C  
HETATM   39  N   UNL     1     -12.397   5.548  63.898  1.00  0.00     5.265 NA 
HETATM   40  C   UNL     1     -12.868   6.544  62.936  1.00  0.00    12.199 C  
HETATM   41  C   UNL     1     -10.998   5.799  64.279  1.00  0.00     4.751 C  
HETATM   42  C   UNL     1      -9.986   5.486  63.154  1.00  0.00     1.808 C  
ENDBRANCH  35  36
ENDBRANCH  33  35
ENDBRANCH  26  31
ENDBRANCH  23  25
ENDBRANCH  16  23
ENDBRANCH   3   5
ENDBRANCH   2   3
TORSDOF 8
ENDMDL
MODEL      141
REMARK 921   NORMALIZED FREE ENERGY PREDICTED BY IDOCK:   52.33 KCAL/MOL
REMARK 922        TOTAL FREE ENERGY PREDICTED BY IDOCK:   75.26 KCAL/MOL
REMARK 923 INTER-LIGAND FREE ENERGY PREDICTED BY IDOCK:   68.73 KCAL/MOL
REMARK 924 INTRA-LIGAND FREE ENERGY PREDICTED BY IDOCK:    6.53 KCAL/MOL
REMARK 927      BINDING AFFINITY PREDICTED BY RF-SCORE:    0.00 PKD
ROOT
HETATM    1  C   UNL     1     -13.237  12.372  64.145  1.00  0.00     0.178 C  
HETATM    2  O   UNL     1     -11.964  12.953  64.428  1.00  0.00    -0.353 OA 
ENDROOT
BRANCH   2   3
HETATM    3  C   UNL     1     -11.982  13.916  65.389  1.00  0.00    -0.381 C  
HETATM    4  O   UNL     1     -12.203  15.106  65.202  1.00  0.00    -0.082 OA 
BRANCH   3   5
HETATM    5  C   UNL     1     -11.728  13.319  66.724  1.00  0.00    -0.434 A  
HETATM    6  C   UNL     1     -10.635  13.715  67.523  1.00  0.00    -0.243 A  
HETATM    7  C   UNL     1     -10.392  13.117  68.768  1.00  0.00    -0.146 A  
HETATM    8  C   UNL     1     -11.240  12.118  69.216  1.00  0.00    -0.288 A  
HETATM    9  C   UNL     1     -12.320  11.739  68.410  1.00  0.00     0.495 A  
HETATM   10  C   UNL     1     -12.595  12.321  67.184  1.00  0.00     1.530 A  
HETATM   11  N   UNL     1     -13.039  10.715  69.007  1.00  0.00     1.066 N  
HETATM   12  H   UNL     1     -13.863  10.277  68.594  1.00  0.00     0.000 HD 
HETATM   13  C   UNL     1     -12.502  10.359  70.235  1.00  0.00    -0.223 C  
HETATM   14  O   UNL     1     -12.968   9.530  70.993  1.00  0.00    -0.294 OA 
HETATM   15  C   UNL     1     -11.289  11.255  70.420  1.00  0.00    -0.068 C  
HETATM   16  C   UNL     1     -10.464  11.190  71.493  1.00  0.00     5.398 C  
BRANCH  16  17
HETATM   17  C   UNL     1      -9.337  12.141  71.609  1.00  0.00    16.138 A  
HETATM   18  C   UNL     1      -7.288  14.040  71.735  1.00  0.00     4.229 A  
HETATM   19  C   UNL     1      -9.306  13.073  72.656  1.00  0.00    19.585 A  
HETATM   20  C   UNL     1      -8.321  12.155  70.644  1.00  0.00     6.551 A  
HETATM   21  C   UNL     1      -8.284  14.022  72.713  1.00  0.00     9.543 A  
HETATM   22  C   UNL     1      -7.302  13.103  70.705  1.00  0.00     3.003 A  
ENDBRANCH  16  17
BRANCH  16  23
HETATM   23  N   UNL     1     -10.521  10.313  72.582  1.00  0.00     4.713 NA 
HETATM   24  H   UNL     1     -10.989  10.604  73.442  1.00  0.00     0.000 HD 
BRANCH  23  25
HETATM   25  C   UNL     1      -9.933   9.018  72.503  1.00  0.00     0.438 A  
HETATM   26  C   UNL     1      -8.797   6.444  72.014  1.00  0.00    -0.134 A  
HETATM   27  C   UNL     1      -8.557   8.829  72.502  1.00  0.00     0.047 A  
HETATM   28  C   UNL     1     -10.737   7.881  72.475  1.00  0.00    -0.391 A  
HETATM   29  C   UNL     1      -8.003   7.572  72.245  1.00  0.00    -0.115 A  
HETATM   30  C   UNL     1     -10.176   6.616  72.232  1.00  0.00    -0.206 A  
BRANCH  26  31
HETATM   31  N   UNL     1      -8.237   5.195  71.526  1.00  0.00    -0.114 N  
HETATM   32  C   UNL     1      -6.820   5.168  71.157  1.00  0.00    -0.044 C  
HETATM   33  C   UNL     1      -8.991   3.998  71.472  1.00  0.00    -0.114 C  
HETATM   34  O   UNL     1     -10.200   3.904  71.713  1.00  0.00    -0.149 OA 
BRANCH  33  35
HETATM   35  C   UNL     1      -8.310   2.713  70.978  1.00  0.00    -0.057 C  
BRANCH  35  36
HETATM   36  N   UNL     1      -7.822   2.760  69.583  1.00  0.00    -0.043 NA 
HETATM   37  C   UNL     1      -8.828   2.371  68.568  1.00  0.00    -0.108 C  
HETATM   38  C   UNL     1      -9.866   3.451  68.151  1.00  0.00     0.187 C  
HETATM   39  N   UNL     1      -9.340   4.817  67.947  1.00  0.00    -0.126 NA 
HETATM   40  C   UNL     1      -8.672   4.962  66.654  1.00  0.00    -0.108 C  
HETATM   41  C   UNL     1      -8.433   5.161  69.054  1.00  0.00    -0.090 C  
HETATM   42  C   UNL     1      -7.319   4.116  69.287  1.00  0.00    -0.054 C  
ENDBRANCH  35  36
ENDBRANCH  33  35
ENDBRANCH  26  31
ENDBRANCH  23  25
ENDBRANCH  16  23
ENDBRANCH   3   5
ENDBRANCH   2   3
TORSDOF 8
ENDMDL
MODEL      142
REMARK 921   NORMALIZED FREE ENERGY PREDICTED BY IDOCK:   55.06 KCAL/MOL
REMARK 922        TOTAL FREE ENERGY PREDICTED BY IDOCK:   79.27 KCAL/MOL
REMARK 923 INTER-LIGAND FREE ENERGY PREDICTED BY IDOCK:   77.96 KCAL/MOL
REMARK 924 INTRA-LIGAND FREE ENERGY PREDICTED BY IDOCK:    1.31 KCAL/MOL
REMARK 927      BINDING AFFINITY PREDICTED BY RF-SCORE:    0.00 PKD
ROOT
HETATM    1  C   UNL     1     -14.345   8.204  64.614  1.00  0.00    18.525 C  
HETATM    2  O   UNL     1     -12.990   8.574  64.360  1.00  0.00    18.845 OA 
ENDROOT
BRANCH   2   3
HETATM    3  C   UNL     1     -12.098   7.549  64.446  1.00  0.00    19.548 C  
HETATM    4  O   UNL     1     -12.154   6.500  63.817  1.00  0.00    11.551 OA 
BRANCH   3   5
HETATM    5  C   UNL     1     -11.009   7.890  65.394  1.00  0.00     5.717 A  
HETATM    6  C   UNL     1     -11.182   7.811  66.792  1.00  0.00     0.999 A  
HETATM    7  C   UNL     1     -10.152   8.168  67.674  1.00  0.00    -0.267 A  
HETATM    8  C   UNL     1      -8.945   8.610  67.159  1.00  0.00    -0.148 A  
HETATM    9  C   UNL     1      -8.790   8.681  65.770  1.00  0.00    -0.193 A  
HETATM   10  C   UNL     1      -9.782   8.321  64.874  1.00  0.00     1.587 A  
HETATM   11  N   UNL     1      -7.532   9.165  65.443  1.00  0.00    -0.092 N  
HETATM   12  H   UNL     1      -7.203   9.307  64.488  1.00  0.00     0.000 HD 
HETATM   13  C   UNL     1      -6.775   9.431  66.574  1.00  0.00    -0.072 C  
HETATM   14  O   UNL     1      -5.619   9.810  66.574  1.00  0.00    -0.044 OA 
HETATM   15  C   UNL     1      -7.674   9.092  67.750  1.00  0.00    -0.097 C  
HETATM   16  C   UNL     1      -7.309   9.251  69.046  1.00  0.00    -0.072 C  
BRANCH  16  17
HETATM   17  C   UNL     1      -8.235   8.842  70.124  1.00  0.00    -0.126 A  
HETATM   18  C   UNL     1     -10.036   7.951  72.068  1.00  0.00    -0.251 A  
HETATM   19  C   UNL     1      -7.815   7.940  71.110  1.00  0.00    -0.086 A  
HETATM   20  C   UNL     1      -9.555   9.311  70.137  1.00  0.00    -0.254 A  
HETATM   21  C   UNL     1      -8.718   7.493  72.077  1.00  0.00    -0.132 A  
HETATM   22  C   UNL     1     -10.454   8.864  71.103  1.00  0.00    -0.336 A  
ENDBRANCH  16  17
BRANCH  16  23
HETATM   23  N   UNL     1      -6.111   9.767  69.554  1.00  0.00    -0.043 NA 
HETATM   24  H   UNL     1      -5.319   9.143  69.715  1.00  0.00     0.000 HD 
BRANCH  23  25
HETATM   25  C   UNL     1      -5.986  11.155  69.849  1.00  0.00    -0.108 A  
HETATM   26  C   UNL     1      -6.062  13.961  70.376  1.00  0.00    -0.143 A  
HETATM   27  C   UNL     1      -6.021  11.641  71.151  1.00  0.00     0.494 A  
HETATM   28  C   UNL     1      -5.771  12.075  68.826  1.00  0.00    -0.050 A  
HETATM   29  C   UNL     1      -6.075  13.014  71.405  1.00  0.00     0.878 A  
HETATM   30  C   UNL     1      -5.811  13.456  69.087  1.00  0.00    -0.082 A  
BRANCH  26  31
HETATM   31  N   UNL     1      -6.345  15.365  70.618  1.00  0.00     0.120 N  
HETATM   32  C   UNL     1      -7.106  15.723  71.818  1.00  0.00     4.171 C  
HETATM   33  C   UNL     1      -5.848  16.393  69.781  1.00  0.00    -0.191 C  
HETATM   34  O   UNL     1      -5.236  16.217  68.720  1.00  0.00    -0.105 OA 
BRANCH  33  35
HETATM   35  C   UNL     1      -6.164  17.855  70.130  1.00  0.00     0.072 C  
BRANCH  35  36
HETATM   36  N   UNL     1      -5.778  18.842  69.099  1.00  0.00    -0.209 NA 
HETATM   37  C   UNL     1      -5.655  18.285  67.733  1.00  0.00    -0.155 C  
HETATM   38  C   UNL     1      -6.969  18.086  66.927  1.00  0.00    -0.191 C  
HETATM   39  N   UNL     1      -7.960  19.179  67.016  1.00  0.00    -0.251 NA 
HETATM   40  C   UNL     1      -7.609  20.311  66.159  1.00  0.00    -0.204 C  
HETATM   41  C   UNL     1      -8.098  19.599  68.420  1.00  0.00    -0.317 C  
HETATM   42  C   UNL     1      -6.753  19.950  69.095  1.00  0.00    -0.324 C  
ENDBRANCH  35  36
ENDBRANCH  33  35
ENDBRANCH  26  31
ENDBRANCH  23  25
ENDBRANCH  16  23
ENDBRANCH   3   5
ENDBRANCH   2   3
TORSDOF 8
ENDMDL
MODEL      143
REMARK 921   NORMALIZED FREE ENERGY PREDICTED BY IDOCK:   77.11 KCAL/MOL
REMARK 922        TOTAL FREE ENERGY PREDICTED BY IDOCK:  111.64 KCAL/MOL
REMARK 923 INTER-LIGAND FREE ENERGY PREDICTED BY IDOCK:  104.62 KCAL/MOL
REMARK 924 INTRA-LIGAND FREE ENERGY PREDICTED BY IDOCK:    7.02 KCAL/MOL
REMARK 927      BINDING AFFINITY PREDICTED BY RF-SCORE:    0.00 PKD
ROOT
HETATM    1  C   UNL     1      -7.257  17.448  62.744  1.00  0.00    18.514 C  
HETATM    2  O   UNL     1      -7.398  18.726  63.366  1.00  0.00     5.569 OA 
ENDROOT
BRANCH   2   3
HETATM    3  C   UNL     1      -8.466  18.833  64.202  1.00  0.00     8.680 C  
HETATM    4  O   UNL     1      -9.512  19.421  63.953  1.00  0.00     7.180 OA 
BRANCH   3   5
HETATM    5  C   UNL     1      -8.207  18.102  65.467  1.00  0.00     0.806 A  
HETATM    6  C   UNL     1      -8.860  18.437  66.671  1.00  0.00    -0.297 A  
HETATM    7  C   UNL     1      -8.579  17.756  67.865  1.00  0.00    -0.250 A  
HETATM    8  C   UNL     1      -7.640  16.738  67.857  1.00  0.00    -0.177 A  
HETATM    9  C   UNL     1      -7.002  16.419  66.653  1.00  0.00    -0.097 A  
HETATM   10  C   UNL     1      -7.270  17.061  65.456  1.00  0.00     1.244 A  
HETATM   11  N   UNL     1      -6.083  15.398  66.843  1.00  0.00     0.602 N  
HETATM   12  H   UNL     1      -5.497  15.009  66.104  1.00  0.00     0.000 HD 
HETATM   13  C   UNL     1      -6.057  14.970  68.163  1.00  0.00    -0.137 C  
HETATM   14  O   UNL     1      -5.384  14.052  68.591  1.00  0.00    -0.080 OA 
HETATM   15  C   UNL     1      -7.068  15.841  68.889  1.00  0.00    -0.139 C  
HETATM   16  C   UNL     1      -7.314  15.757  70.219  1.00  0.00     0.700 C  
BRANCH  16  17
HETATM   17  C   UNL     1      -8.355  16.612  70.827  1.00  0.00     4.467 A  
HETATM   18  C   UNL     1     -10.213  18.334  72.012  1.00  0.00     4.947 A  
HETATM   19  C   UNL     1      -9.027  17.565  70.049  1.00  0.00     2.012 A  
HETATM   20  C   UNL     1      -8.642  16.514  72.194  1.00  0.00    12.291 A  
HETATM   21  C   UNL     1      -9.950  18.426  70.645  1.00  0.00     2.486 A  
HETATM   22  C   UNL     1      -9.565  17.374  72.786  1.00  0.00    11.600 A  
ENDBRANCH  16  17
BRANCH  16  23
HETATM   23  N   UNL     1      -6.701  14.926  71.165  1.00  0.00     0.280 NA 
HETATM   24  H   UNL     1      -6.045  15.324  71.838  1.00  0.00     0.000 HD 
BRANCH  23  25
HETATM   25  C   UNL     1      -6.986  13.531  71.198  1.00  0.00     2.521 A  
HETATM   26  C   UNL     1      -7.809  10.809  71.467  1.00  0.00     5.387 A  
HETATM   27  C   UNL     1      -7.729  12.903  70.205  1.00  0.00     2.964 A  
HETATM   28  C   UNL     1      -6.475  12.733  72.219  1.00  0.00     4.006 A  
HETATM   29  C   UNL     1      -8.145  11.577  70.347  1.00  0.00     3.316 A  
HETATM   30  C   UNL     1      -6.884  11.394  72.350  1.00  0.00     6.475 A  
BRANCH  26  31
HETATM   31  N   UNL     1      -8.422   9.518  71.727  1.00  0.00     0.825 N  
HETATM   32  C   UNL     1      -8.016   8.788  72.930  1.00  0.00     0.250 C  
HETATM   33  C   UNL     1      -9.444   8.986  70.905  1.00  0.00    -0.267 C  
HETATM   34  O   UNL     1      -9.839   9.484  69.844  1.00  0.00    -0.196 OA 
BRANCH  33  35
HETATM   35  C   UNL     1     -10.064   7.630  71.273  1.00  0.00    -0.186 C  
BRANCH  35  36
HETATM   36  N   UNL     1      -9.414   6.455  70.653  1.00  0.00    -0.165 NA 
HETATM   37  C   UNL     1      -9.200   6.575  69.192  1.00  0.00    -0.135 C  
HETATM   38  C   UNL     1      -7.968   7.398  68.722  1.00  0.00    -0.123 C  
HETATM   39  N   UNL     1      -6.713   7.180  69.472  1.00  0.00    -0.048 NA 
HETATM   40  C   UNL     1      -6.039   5.946  69.071  1.00  0.00    -0.031 C  
HETATM   41  C   UNL     1      -7.002   7.182  70.915  1.00  0.00    -0.057 C  
HETATM   42  C   UNL     1      -8.124   6.201  71.322  1.00  0.00    -0.118 C  
ENDBRANCH  35  36
ENDBRANCH  33  35
ENDBRANCH  26  31
ENDBRANCH  23  25
ENDBRANCH  16  23
ENDBRANCH   3   5
ENDBRANCH   2   3
TORSDOF 8
ENDMDL
MODEL      144
REMARK 921   NORMALIZED FREE ENERGY PREDICTED BY IDOCK:   78.27 KCAL/MOL
REMARK 922        TOTAL FREE ENERGY PREDICTED BY IDOCK:  113.34 KCAL/MOL
REMARK 923 INTER-LIGAND FREE ENERGY PREDICTED BY IDOCK:  107.38 KCAL/MOL
REMARK 924 INTRA-LIGAND FREE ENERGY PREDICTED BY IDOCK:    5.96 KCAL/MOL
REMARK 927      BINDING AFFINITY PREDICTED BY RF-SCORE:    0.00 PKD
ROOT
HETATM    1  C   UNL     1      -7.257  17.448  62.744  1.00  0.00    18.514 C  
HETATM    2  O   UNL     1      -7.398  18.726  63.366  1.00  0.00     5.569 OA 
ENDROOT
BRANCH   2   3
HETATM    3  C   UNL     1      -8.466  18.833  64.202  1.00  0.00     8.680 C  
HETATM    4  O   UNL     1      -9.512  19.421  63.953  1.00  0.00     7.180 OA 
BRANCH   3   5
HETATM    5  C   UNL     1      -8.207  18.102  65.467  1.00  0.00     0.806 A  
HETATM    6  C   UNL     1      -8.860  18.437  66.671  1.00  0.00    -0.297 A  
HETATM    7  C   UNL     1      -8.579  17.756  67.865  1.00  0.00    -0.250 A  
HETATM    8  C   UNL     1      -7.640  16.738  67.857  1.00  0.00    -0.177 A  
HETATM    9  C   UNL     1      -7.002  16.419  66.653  1.00  0.00    -0.097 A  
HETATM   10  C   UNL     1      -7.270  17.061  65.456  1.00  0.00     1.244 A  
HETATM   11  N   UNL     1      -6.083  15.398  66.843  1.00  0.00     0.602 N  
HETATM   12  H   UNL     1      -5.497  15.009  66.104  1.00  0.00     0.000 HD 
HETATM   13  C   UNL     1      -6.057  14.970  68.163  1.00  0.00    -0.137 C  
HETATM   14  O   UNL     1      -5.384  14.052  68.591  1.00  0.00    -0.080 OA 
HETATM   15  C   UNL     1      -7.068  15.841  68.889  1.00  0.00    -0.139 C  
HETATM   16  C   UNL     1      -7.314  15.757  70.219  1.00  0.00     0.700 C  
BRANCH  16  17
HETATM   17  C   UNL     1      -8.355  16.612  70.827  1.00  0.00     4.467 A  
HETATM   18  C   UNL     1     -10.213  18.334  72.012  1.00  0.00     4.947 A  
HETATM   19  C   UNL     1      -9.027  17.565  70.049  1.00  0.00     2.012 A  
HETATM   20  C   UNL     1      -8.642  16.514  72.194  1.00  0.00    12.291 A  
HETATM   21  C   UNL     1      -9.950  18.426  70.645  1.00  0.00     2.486 A  
HETATM   22  C   UNL     1      -9.565  17.374  72.786  1.00  0.00    11.600 A  
ENDBRANCH  16  17
BRANCH  16  23
HETATM   23  N   UNL     1      -6.701  14.926  71.165  1.00  0.00     0.280 NA 
HETATM   24  H   UNL     1      -6.045  15.324  71.838  1.00  0.00     0.000 HD 
BRANCH  23  25
HETATM   25  C   UNL     1      -6.986  13.531  71.198  1.00  0.00     2.521 A  
HETATM   26  C   UNL     1      -7.809  10.809  71.467  1.00  0.00     5.387 A  
HETATM   27  C   UNL     1      -7.729  12.903  70.205  1.00  0.00     2.964 A  
HETATM   28  C   UNL     1      -6.475  12.733  72.219  1.00  0.00     4.006 A  
HETATM   29  C   UNL     1      -8.145  11.577  70.347  1.00  0.00     3.316 A  
HETATM   30  C   UNL     1      -6.884  11.394  72.350  1.00  0.00     6.475 A  
BRANCH  26  31
HETATM   31  N   UNL     1      -8.422   9.518  71.727  1.00  0.00     0.825 N  
HETATM   32  C   UNL     1      -8.016   8.788  72.930  1.00  0.00     0.250 C  
HETATM   33  C   UNL     1      -9.444   8.986  70.905  1.00  0.00    -0.267 C  
HETATM   34  O   UNL     1      -9.839   9.484  69.844  1.00  0.00    -0.196 OA 
BRANCH  33  35
HETATM   35  C   UNL     1     -10.064   7.630  71.273  1.00  0.00    -0.186 C  
BRANCH  35  36
HETATM   36  N   UNL     1     -11.486   7.679  71.676  1.00  0.00    -0.254 NA 
HETATM   37  C   UNL     1     -11.799   8.711  72.691  1.00  0.00    -0.164 C  
HETATM   38  C   UNL     1     -11.980  10.170  72.185  1.00  0.00     0.579 C  
HETATM   39  N   UNL     1     -12.754  10.336  70.937  1.00  0.00    -0.354 NA 
HETATM   40  C   UNL     1     -14.195  10.238  71.165  1.00  0.00     1.169 C  
HETATM   41  C   UNL     1     -12.305   9.341  69.949  1.00  0.00     0.840 C  
HETATM   42  C   UNL     1     -12.325   7.891  70.480  1.00  0.00     0.274 C  
ENDBRANCH  35  36
ENDBRANCH  33  35
ENDBRANCH  26  31
ENDBRANCH  23  25
ENDBRANCH  16  23
ENDBRANCH   3   5
ENDBRANCH   2   3
TORSDOF 8
ENDMDL
