MODEL        1
REMARK 921   NORMALIZED FREE ENERGY PREDICTED BY IDOCK:   -8.14 KCAL/MOL
REMARK 922        TOTAL FREE ENERGY PREDICTED BY IDOCK:  -10.24 KCAL/MOL
REMARK 923 INTER-LIGAND FREE ENERGY PREDICTED BY IDOCK:   -9.57 KCAL/MOL
REMARK 924 INTRA-LIGAND FREE ENERGY PREDICTED BY IDOCK:   -0.67 KCAL/MOL
REMARK 927      BINDING AFFINITY PREDICTED BY RF-SCORE:    0.00 PKD
ROOT
HETATM    1  N   UNL     1     -11.066  11.212  63.419  1.00  0.00    -0.742 N  
HETATM    2  H2  UNL     1     -11.258  10.512  62.701  1.00  0.00     0.000 HD 
HETATM    3  C   UNL     1     -12.046  12.093  63.769  1.00  0.00    -0.525 C  
HETATM    4  H1  UNL     1     -10.146  11.238  63.858  1.00  0.00     0.000 HD 
HETATM    5  O   UNL     1     -13.151  12.062  63.242  1.00  0.00    -0.701 OA 
ENDROOT
BRANCH   3   6
HETATM    6  C   UNL     1     -11.721  13.088  64.806  1.00  0.00    -0.389 A  
HETATM    7  C   UNL     1     -11.565  14.462  64.481  1.00  0.00    -0.393 A  
HETATM    8  C   UNL     1     -11.239  15.467  65.443  1.00  0.00    -0.272 A  
HETATM    9  C   UNL     1     -11.036  15.201  66.810  1.00  0.00    -0.321 A  
HETATM   10  C   UNL     1     -11.210  13.851  67.092  1.00  0.00    -0.328 A  
HETATM   11  C   UNL     1     -11.098  13.295  68.332  1.00  0.00    -0.270 A  
HETATM   12  N   UNL     1     -11.392  11.958  68.172  1.00  0.00    -0.264 NA 
HETATM   13  C   UNL     1     -11.539  12.793  66.176  1.00  0.00    -0.379 A  
HETATM   14  N   UNL     1     -11.616  11.634  66.864  1.00  0.00    -0.542 NA 
BRANCH  12  15
HETATM   15  C   UNL     1     -11.475  10.968  69.194  1.00  0.00    -0.301 A  
HETATM   16  C   UNL     1     -12.162  11.225  70.387  1.00  0.00    -0.453 A  
HETATM   17  C   UNL     1     -12.225  10.252  71.388  1.00  0.00    -0.481 A  
HETATM   18  C   UNL     1     -11.608   9.004  71.224  1.00  0.00    -0.387 A  
HETATM   19  C   UNL     1     -10.935   8.747  70.021  1.00  0.00    -0.216 A  
HETATM   20  C   UNL     1     -10.870   9.717  69.014  1.00  0.00    -0.223 A  
BRANCH  18  21
HETATM   21  C   UNL     1     -11.635   7.962  72.331  1.00  0.00    -0.436 C  
HETATM   22  C   UNL     1     -10.258   7.792  73.000  1.00  0.00    -0.393 C  
HETATM   23  C   UNL     1     -10.280   6.651  74.014  1.00  0.00    -0.395 C  
HETATM   24  C   UNL     1     -10.818   5.366  73.388  1.00  0.00    -0.297 C  
HETATM   25  N   UNL     1     -12.161   5.557  72.837  1.00  0.00    -0.510 NA 
HETATM   26  C   UNL     1     -12.158   6.605  71.807  1.00  0.00    -0.353 C  
HETATM   27  H   UNL     1     -12.844   5.748  73.568  1.00  0.00     0.000 HD 
ENDBRANCH  18  21
ENDBRANCH  12  15
ENDBRANCH   3   6
TORSDOF 3
ENDMDL
MODEL        2
REMARK 921   NORMALIZED FREE ENERGY PREDICTED BY IDOCK:   -7.65 KCAL/MOL
REMARK 922        TOTAL FREE ENERGY PREDICTED BY IDOCK:   -9.65 KCAL/MOL
REMARK 923 INTER-LIGAND FREE ENERGY PREDICTED BY IDOCK:   -8.94 KCAL/MOL
REMARK 924 INTRA-LIGAND FREE ENERGY PREDICTED BY IDOCK:   -0.72 KCAL/MOL
REMARK 927      BINDING AFFINITY PREDICTED BY RF-SCORE:    0.00 PKD
ROOT
HETATM    1  N   UNL     1     -12.913  12.350  64.441  1.00  0.00    -0.707 N  
HETATM    2  H2  UNL     1     -13.454  11.787  63.784  1.00  0.00     0.000 HD 
HETATM    3  C   UNL     1     -12.362  13.523  64.018  1.00  0.00    -0.330 C  
HETATM    4  H1  UNL     1     -12.797  12.023  65.400  1.00  0.00     0.000 HD 
HETATM    5  O   UNL     1     -12.501  13.916  62.865  1.00  0.00    -0.572 OA 
ENDROOT
BRANCH   3   6
HETATM    6  C   UNL     1     -11.586  14.298  65.001  1.00  0.00    -0.367 A  
HETATM    7  C   UNL     1     -11.128  15.610  64.706  1.00  0.00    -0.426 A  
HETATM    8  C   UNL     1     -10.363  16.402  65.617  1.00  0.00    -0.371 A  
HETATM    9  C   UNL     1      -9.982  15.965  66.899  1.00  0.00    -0.253 A  
HETATM   10  C   UNL     1     -10.458  14.685  67.157  1.00  0.00    -0.268 A  
HETATM   11  C   UNL     1     -10.266  14.004  68.323  1.00  0.00    -0.249 A  
HETATM   12  N   UNL     1     -10.937  12.810  68.176  1.00  0.00    -0.235 NA 
HETATM   13  C   UNL     1     -11.232  13.839  66.290  1.00  0.00    -0.306 A  
HETATM   14  N   UNL     1     -11.487  12.679  66.933  1.00  0.00    -0.323 NA 
BRANCH  12  15
HETATM   15  C   UNL     1     -11.088  11.783  69.153  1.00  0.00    -0.238 A  
HETATM   16  C   UNL     1     -10.183  10.716  69.218  1.00  0.00    -0.235 A  
HETATM   17  C   UNL     1     -10.350   9.708  70.172  1.00  0.00    -0.315 A  
HETATM   18  C   UNL     1     -11.416   9.741  71.081  1.00  0.00    -0.472 A  
HETATM   19  C   UNL     1     -12.309  10.820  71.022  1.00  0.00    -0.509 A  
HETATM   20  C   UNL     1     -12.147  11.834  70.069  1.00  0.00    -0.387 A  
BRANCH  18  21
HETATM   21  C   UNL     1     -11.626   8.621  72.088  1.00  0.00    -0.440 C  
HETATM   22  C   UNL     1     -10.299   8.138  72.702  1.00  0.00    -0.398 C  
HETATM   23  C   UNL     1     -10.524   6.929  73.608  1.00  0.00    -0.400 C  
HETATM   24  C   UNL     1     -11.297   5.831  72.880  1.00  0.00    -0.252 C  
HETATM   25  N   UNL     1     -12.585   6.317  72.385  1.00  0.00    -0.533 NA 
HETATM   26  C   UNL     1     -12.398   7.440  71.456  1.00  0.00    -0.353 C  
HETATM   27  H   UNL     1     -13.215   6.561  73.149  1.00  0.00     0.000 HD 
ENDBRANCH  18  21
ENDBRANCH  12  15
ENDBRANCH   3   6
TORSDOF 3
ENDMDL
MODEL        3
REMARK 921   NORMALIZED FREE ENERGY PREDICTED BY IDOCK:   -7.30 KCAL/MOL
REMARK 922        TOTAL FREE ENERGY PREDICTED BY IDOCK:   -9.25 KCAL/MOL
REMARK 923 INTER-LIGAND FREE ENERGY PREDICTED BY IDOCK:   -8.47 KCAL/MOL
REMARK 924 INTRA-LIGAND FREE ENERGY PREDICTED BY IDOCK:   -0.78 KCAL/MOL
REMARK 927      BINDING AFFINITY PREDICTED BY RF-SCORE:    0.00 PKD
ROOT
HETATM    1  N   UNL     1     -12.088  14.523  66.952  1.00  0.00    -0.472 N  
HETATM    2  H2  UNL     1     -12.692  15.262  67.312  1.00  0.00     0.000 HD 
HETATM    3  C   UNL     1     -12.389  13.937  65.758  1.00  0.00    -0.486 C  
HETATM    4  H1  UNL     1     -11.272  14.237  67.494  1.00  0.00     0.000 HD 
HETATM    5  O   UNL     1     -13.369  14.280  65.107  1.00  0.00    -0.626 OA 
ENDROOT
BRANCH   3   6
HETATM    6  C   UNL     1     -11.491  12.871  65.283  1.00  0.00    -0.348 A  
HETATM    7  C   UNL     1     -10.890  12.935  63.997  1.00  0.00    -0.443 A  
HETATM    8  C   UNL     1     -10.022  11.924  63.482  1.00  0.00    -0.422 A  
HETATM    9  C   UNL     1      -9.672  10.760  64.191  1.00  0.00    -0.364 A  
HETATM   10  C   UNL     1     -10.266  10.739  65.448  1.00  0.00    -0.341 A  
HETATM   11  C   UNL     1     -10.098   9.750  66.371  1.00  0.00    -0.243 A  
HETATM   12  N   UNL     1     -10.816  10.143  67.479  1.00  0.00    -0.296 NA 
HETATM   13  C   UNL     1     -11.144  11.720  66.026  1.00  0.00    -0.312 A  
HETATM   14  N   UNL     1     -11.490  11.312  67.266  1.00  0.00    -0.510 NA 
BRANCH  12  15
HETATM   15  C   UNL     1     -10.896   9.472  68.734  1.00  0.00    -0.142 A  
HETATM   16  C   UNL     1     -11.260  10.164  69.896  1.00  0.00    -0.343 A  
HETATM   17  C   UNL     1     -11.322   9.498  71.123  1.00  0.00    -0.440 A  
HETATM   18  C   UNL     1     -11.024   8.131  71.220  1.00  0.00    -0.281 A  
HETATM   19  C   UNL     1     -10.676   7.440  70.051  1.00  0.00    -0.258 A  
HETATM   20  C   UNL     1     -10.614   8.102  68.818  1.00  0.00    -0.149 A  
BRANCH  18  21
HETATM   21  C   UNL     1     -11.044   7.415  72.562  1.00  0.00    -0.350 C  
HETATM   22  C   UNL     1      -9.678   7.475  73.270  1.00  0.00    -0.326 C  
HETATM   23  C   UNL     1      -9.688   6.640  74.548  1.00  0.00    -0.315 C  
HETATM   24  C   UNL     1     -10.174   5.218  74.275  1.00  0.00    -0.266 C  
HETATM   25  N   UNL     1     -11.509   5.212  73.675  1.00  0.00    -0.428 NA 
HETATM   26  C   UNL     1     -11.516   5.952  72.407  1.00  0.00    -0.306 C  
HETATM   27  H   UNL     1     -12.214   5.564  74.322  1.00  0.00     0.000 HD 
ENDBRANCH  18  21
ENDBRANCH  12  15
ENDBRANCH   3   6
TORSDOF 3
ENDMDL
MODEL        4
REMARK 921   NORMALIZED FREE ENERGY PREDICTED BY IDOCK:   -7.30 KCAL/MOL
REMARK 922        TOTAL FREE ENERGY PREDICTED BY IDOCK:   -9.24 KCAL/MOL
REMARK 923 INTER-LIGAND FREE ENERGY PREDICTED BY IDOCK:   -8.46 KCAL/MOL
REMARK 924 INTRA-LIGAND FREE ENERGY PREDICTED BY IDOCK:   -0.78 KCAL/MOL
REMARK 927      BINDING AFFINITY PREDICTED BY RF-SCORE:    0.00 PKD
ROOT
HETATM    1  N   UNL     1      -6.311  17.743  69.223  1.00  0.00    -0.238 N  
HETATM    2  H2  UNL     1      -5.476  17.640  69.799  1.00  0.00     0.000 HD 
HETATM    3  C   UNL     1      -6.943  18.951  69.174  1.00  0.00    -0.281 C  
HETATM    4  H1  UNL     1      -6.657  16.941  68.696  1.00  0.00     0.000 HD 
HETATM    5  O   UNL     1      -6.528  19.915  69.807  1.00  0.00    -0.343 OA 
ENDROOT
BRANCH   3   6
HETATM    6  C   UNL     1      -8.148  19.050  68.333  1.00  0.00    -0.381 A  
HETATM    7  C   UNL     1      -8.353  20.161  67.471  1.00  0.00    -0.383 A  
HETATM    8  C   UNL     1      -9.508  20.313  66.644  1.00  0.00    -0.487 A  
HETATM    9  C   UNL     1     -10.562  19.383  66.597  1.00  0.00    -0.566 A  
HETATM   10  C   UNL     1     -10.321  18.305  67.441  1.00  0.00    -0.409 A  
HETATM   11  C   UNL     1     -11.152  17.236  67.594  1.00  0.00    -0.002 A  
HETATM   12  N   UNL     1     -10.517  16.389  68.477  1.00  0.00    -0.274 NA 
HETATM   13  C   UNL     1      -9.184  18.090  68.295  1.00  0.00    -0.293 A  
HETATM   14  N   UNL     1      -9.346  16.916  68.942  1.00  0.00    -0.252 NA 
BRANCH  12  15
HETATM   15  C   UNL     1     -10.959  15.102  68.902  1.00  0.00    -0.254 A  
HETATM   16  C   UNL     1     -10.619  13.952  68.178  1.00  0.00    -0.258 A  
HETATM   17  C   UNL     1     -11.070  12.697  68.597  1.00  0.00    -0.305 A  
HETATM   18  C   UNL     1     -11.866  12.560  69.743  1.00  0.00    -0.380 A  
HETATM   19  C   UNL     1     -12.189  13.713  70.472  1.00  0.00    -0.438 A  
HETATM   20  C   UNL     1     -11.739  14.972  70.059  1.00  0.00    -0.345 A  
BRANCH  18  21
HETATM   21  C   UNL     1     -12.397  11.201  70.173  1.00  0.00    -0.373 C  
HETATM   22  C   UNL     1     -12.930  11.218  71.618  1.00  0.00    -0.537 C  
HETATM   23  C   UNL     1     -13.334   9.816  72.069  1.00  0.00    -0.547 C  
HETATM   24  C   UNL     1     -12.200   8.817  71.846  1.00  0.00    -0.361 C  
HETATM   25  N   UNL     1     -11.784   8.779  70.443  1.00  0.00    -0.467 NA 
HETATM   26  C   UNL     1     -11.325  10.102  69.999  1.00  0.00    -0.287 C  
HETATM   27  H   UNL     1     -12.521   8.414  69.841  1.00  0.00     0.000 HD 
ENDBRANCH  18  21
ENDBRANCH  12  15
ENDBRANCH   3   6
TORSDOF 3
ENDMDL
MODEL        5
REMARK 921   NORMALIZED FREE ENERGY PREDICTED BY IDOCK:   -7.28 KCAL/MOL
REMARK 922        TOTAL FREE ENERGY PREDICTED BY IDOCK:   -9.23 KCAL/MOL
REMARK 923 INTER-LIGAND FREE ENERGY PREDICTED BY IDOCK:   -8.48 KCAL/MOL
REMARK 924 INTRA-LIGAND FREE ENERGY PREDICTED BY IDOCK:   -0.75 KCAL/MOL
REMARK 927      BINDING AFFINITY PREDICTED BY RF-SCORE:    0.00 PKD
ROOT
HETATM    1  N   UNL     1     -11.154  16.631  69.880  1.00  0.00    -0.420 N  
HETATM    2  H2  UNL     1     -11.154  17.312  70.639  1.00  0.00     0.000 HD 
HETATM    3  C   UNL     1     -10.656  16.989  68.662  1.00  0.00    -0.362 C  
HETATM    4  H1  UNL     1     -11.527  15.696  70.048  1.00  0.00     0.000 HD 
HETATM    5  O   UNL     1     -10.208  18.111  68.460  1.00  0.00    -0.376 OA 
ENDROOT
BRANCH   3   6
HETATM    6  C   UNL     1     -10.682  15.973  67.596  1.00  0.00    -0.320 A  
HETATM    7  C   UNL     1     -10.528  16.336  66.231  1.00  0.00    -0.314 A  
HETATM    8  C   UNL     1     -10.558  15.394  65.157  1.00  0.00    -0.458 A  
HETATM    9  C   UNL     1     -10.744  14.011  65.337  1.00  0.00    -0.344 A  
HETATM   10  C   UNL     1     -10.876  13.692  66.683  1.00  0.00    -0.283 A  
HETATM   11  C   UNL     1     -11.049  12.431  67.170  1.00  0.00    -0.280 A  
HETATM   12  N   UNL     1     -11.087  12.559  68.542  1.00  0.00    -0.246 NA 
HETATM   13  C   UNL     1     -10.855  14.587  67.809  1.00  0.00    -0.264 A  
HETATM   14  N   UNL     1     -11.016  13.864  68.938  1.00  0.00    -0.258 NA 
BRANCH  12  15
HETATM   15  C   UNL     1     -11.184  11.508  69.500  1.00  0.00    -0.236 A  
HETATM   16  C   UNL     1     -10.309  10.415  69.457  1.00  0.00    -0.264 A  
HETATM   17  C   UNL     1     -10.423   9.384  70.394  1.00  0.00    -0.311 A  
HETATM   18  C   UNL     1     -11.406   9.419  71.393  1.00  0.00    -0.451 A  
HETATM   19  C   UNL     1     -12.268  10.524  71.441  1.00  0.00    -0.429 A  
HETATM   20  C   UNL     1     -12.158  11.561  70.506  1.00  0.00    -0.472 A  
BRANCH  18  21
HETATM   21  C   UNL     1     -11.562   8.276  72.384  1.00  0.00    -0.464 C  
HETATM   22  C   UNL     1     -10.225   7.900  73.049  1.00  0.00    -0.394 C  
HETATM   23  C   UNL     1     -10.384   6.668  73.937  1.00  0.00    -0.385 C  
HETATM   24  C   UNL     1     -11.033   5.516  73.171  1.00  0.00    -0.293 C  
HETATM   25  N   UNL     1     -12.336   5.898  72.627  1.00  0.00    -0.506 NA 
HETATM   26  C   UNL     1     -12.206   7.042  71.714  1.00  0.00    -0.351 C  
HETATM   27  H   UNL     1     -13.014   6.081  73.366  1.00  0.00     0.000 HD 
ENDBRANCH  18  21
ENDBRANCH  12  15
ENDBRANCH   3   6
TORSDOF 3
ENDMDL
MODEL        6
REMARK 921   NORMALIZED FREE ENERGY PREDICTED BY IDOCK:   -7.19 KCAL/MOL
REMARK 922        TOTAL FREE ENERGY PREDICTED BY IDOCK:   -9.12 KCAL/MOL
REMARK 923 INTER-LIGAND FREE ENERGY PREDICTED BY IDOCK:   -8.40 KCAL/MOL
REMARK 924 INTRA-LIGAND FREE ENERGY PREDICTED BY IDOCK:   -0.72 KCAL/MOL
REMARK 927      BINDING AFFINITY PREDICTED BY RF-SCORE:    0.00 PKD
ROOT
HETATM    1  N   UNL     1     -11.653  10.490  68.252  1.00  0.00    -0.489 N  
HETATM    2  H2  UNL     1     -11.208   9.742  67.719  1.00  0.00     0.000 HD 
HETATM    3  C   UNL     1     -11.306  10.674  69.558  1.00  0.00    -0.277 C  
HETATM    4  H1  UNL     1     -12.348  11.082  67.798  1.00  0.00     0.000 HD 
HETATM    5  O   UNL     1     -10.471   9.962  70.104  1.00  0.00    -0.251 OA 
ENDROOT
BRANCH   3   6
HETATM    6  C   UNL     1     -11.979  11.762  70.288  1.00  0.00    -0.429 A  
HETATM    7  C   UNL     1     -12.879  11.486  71.352  1.00  0.00    -0.489 A  
HETATM    8  C   UNL     1     -13.567  12.500  72.086  1.00  0.00    -0.458 A  
HETATM    9  C   UNL     1     -13.427  13.877  71.832  1.00  0.00    -0.511 A  
HETATM   10  C   UNL     1     -12.530  14.109  70.796  1.00  0.00    -0.436 A  
HETATM   11  C   UNL     1     -12.175  15.343  70.336  1.00  0.00    -0.391 A  
HETATM   12  N   UNL     1     -11.240  15.122  69.349  1.00  0.00    -0.266 NA 
HETATM   13  C   UNL     1     -11.806  13.139  70.021  1.00  0.00    -0.290 A  
HETATM   14  N   UNL     1     -11.041  13.790  69.119  1.00  0.00    -0.254 NA 
BRANCH  12  15
HETATM   15  C   UNL     1     -10.518  16.106  68.613  1.00  0.00    -0.269 A  
HETATM   16  C   UNL     1      -9.668  15.737  67.563  1.00  0.00    -0.226 A  
HETATM   17  C   UNL     1      -8.955  16.710  66.858  1.00  0.00    -0.244 A  
HETATM   18  C   UNL     1      -9.074  18.070  67.179  1.00  0.00    -0.256 A  
HETATM   19  C   UNL     1      -9.940  18.435  68.220  1.00  0.00    -0.394 A  
HETATM   20  C   UNL     1     -10.658  17.464  68.929  1.00  0.00    -0.243 A  
BRANCH  18  21
HETATM   21  C   UNL     1      -8.263  19.126  66.444  1.00  0.00    -0.323 C  
HETATM   22  C   UNL     1      -6.965  18.549  65.850  1.00  0.00    -0.308 C  
HETATM   23  C   UNL     1      -6.109  19.653  65.233  1.00  0.00    -0.268 C  
HETATM   24  C   UNL     1      -5.875  20.790  66.227  1.00  0.00    -0.219 C  
HETATM   25  N   UNL     1      -7.138  21.357  66.701  1.00  0.00    -0.775 NA 
HETATM   26  C   UNL     1      -7.957  20.331  67.361  1.00  0.00    -0.329 C  
HETATM   27  H   UNL     1      -7.648  21.822  65.951  1.00  0.00     0.000 HD 
ENDBRANCH  18  21
ENDBRANCH  12  15
ENDBRANCH   3   6
TORSDOF 3
ENDMDL
MODEL        7
REMARK 921   NORMALIZED FREE ENERGY PREDICTED BY IDOCK:   -7.16 KCAL/MOL
REMARK 922        TOTAL FREE ENERGY PREDICTED BY IDOCK:   -9.08 KCAL/MOL
REMARK 923 INTER-LIGAND FREE ENERGY PREDICTED BY IDOCK:   -8.29 KCAL/MOL
REMARK 924 INTRA-LIGAND FREE ENERGY PREDICTED BY IDOCK:   -0.79 KCAL/MOL
REMARK 927      BINDING AFFINITY PREDICTED BY RF-SCORE:    0.00 PKD
ROOT
HETATM    1  N   UNL     1     -12.438  15.832  69.003  1.00  0.00    -0.459 N  
HETATM    2  H2  UNL     1     -12.657  16.563  69.679  1.00  0.00     0.000 HD 
HETATM    3  C   UNL     1     -11.457  16.049  68.080  1.00  0.00    -0.250 C  
HETATM    4  H1  UNL     1     -12.957  14.954  69.031  1.00  0.00     0.000 HD 
HETATM    5  O   UNL     1     -10.834  17.104  68.047  1.00  0.00    -0.378 OA 
ENDROOT
BRANCH   3   6
HETATM    6  C   UNL     1     -11.180  14.967  67.121  1.00  0.00    -0.345 A  
HETATM    7  C   UNL     1     -10.882  15.248  65.761  1.00  0.00    -0.363 A  
HETATM    8  C   UNL     1     -10.616  14.238  64.786  1.00  0.00    -0.434 A  
HETATM    9  C   UNL     1     -10.625  12.860  65.070  1.00  0.00    -0.333 A  
HETATM   10  C   UNL     1     -10.906  12.623  66.410  1.00  0.00    -0.295 A  
HETATM   11  C   UNL     1     -10.963  11.389  66.987  1.00  0.00    -0.292 A  
HETATM   12  N   UNL     1     -11.220  11.609  68.323  1.00  0.00    -0.238 NA 
HETATM   13  C   UNL     1     -11.179  13.590  67.440  1.00  0.00    -0.295 A  
HETATM   14  N   UNL     1     -11.397  12.935  68.600  1.00  0.00    -0.267 NA 
BRANCH  12  15
HETATM   15  C   UNL     1     -11.303  10.629  69.355  1.00  0.00    -0.284 A  
HETATM   16  C   UNL     1     -12.116  10.836  70.476  1.00  0.00    -0.459 A  
HETATM   17  C   UNL     1     -12.178   9.874  71.488  1.00  0.00    -0.505 A  
HETATM   18  C   UNL     1     -11.436   8.688  71.406  1.00  0.00    -0.352 A  
HETATM   19  C   UNL     1     -10.637   8.479  70.273  1.00  0.00    -0.238 A  
HETATM   20  C   UNL     1     -10.571   9.439  69.255  1.00  0.00    -0.239 A  
BRANCH  18  21
HETATM   21  C   UNL     1     -11.466   7.662  72.528  1.00  0.00    -0.405 C  
HETATM   22  C   UNL     1     -10.125   7.590  73.282  1.00  0.00    -0.386 C  
HETATM   23  C   UNL     1     -10.139   6.464  74.314  1.00  0.00    -0.365 C  
HETATM   24  C   UNL     1     -10.556   5.139  73.679  1.00  0.00    -0.275 C  
HETATM   25  N   UNL     1     -11.871   5.236  73.045  1.00  0.00    -0.515 NA 
HETATM   26  C   UNL     1     -11.871   6.268  71.999  1.00  0.00    -0.318 C  
HETATM   27  H   UNL     1     -12.609   5.395  73.730  1.00  0.00     0.000 HD 
ENDBRANCH  18  21
ENDBRANCH  12  15
ENDBRANCH   3   6
TORSDOF 3
ENDMDL
MODEL        8
REMARK 921   NORMALIZED FREE ENERGY PREDICTED BY IDOCK:   -7.15 KCAL/MOL
REMARK 922        TOTAL FREE ENERGY PREDICTED BY IDOCK:   -9.07 KCAL/MOL
REMARK 923 INTER-LIGAND FREE ENERGY PREDICTED BY IDOCK:   -8.26 KCAL/MOL
REMARK 924 INTRA-LIGAND FREE ENERGY PREDICTED BY IDOCK:   -0.81 KCAL/MOL
REMARK 927      BINDING AFFINITY PREDICTED BY RF-SCORE:    0.00 PKD
ROOT
HETATM    1  N   UNL     1     -11.084   5.773  66.452  1.00  0.00    -0.767 N  
HETATM    2  H2  UNL     1     -11.107   5.872  65.437  1.00  0.00     0.000 HD 
HETATM    3  C   UNL     1      -9.954   5.299  67.051  1.00  0.00    -0.189 C  
HETATM    4  H1  UNL     1     -11.907   6.029  66.997  1.00  0.00     0.000 HD 
HETATM    5  O   UNL     1      -8.965   4.991  66.396  1.00  0.00    -0.119 OA 
ENDROOT
BRANCH   3   6
HETATM    6  C   UNL     1      -9.971   5.169  68.518  1.00  0.00    -0.221 A  
HETATM    7  C   UNL     1      -9.500   3.990  69.155  1.00  0.00    -0.249 A  
HETATM    8  C   UNL     1      -9.504   3.805  70.572  1.00  0.00    -0.254 A  
HETATM    9  C   UNL     1      -9.975   4.768  71.483  1.00  0.00    -0.263 A  
HETATM   10  C   UNL     1     -10.414   5.911  70.825  1.00  0.00    -0.311 A  
HETATM   11  C   UNL     1     -10.907   7.023  71.442  1.00  0.00    -0.229 A  
HETATM   12  N   UNL     1     -11.175   7.924  70.434  1.00  0.00    -0.261 NA 
HETATM   13  C   UNL     1     -10.436   6.162  69.409  1.00  0.00    -0.256 A  
HETATM   14  N   UNL     1     -10.936   7.397  69.197  1.00  0.00    -0.101 NA 
BRANCH  12  15
HETATM   15  C   UNL     1     -11.644   9.262  70.581  1.00  0.00    -0.252 A  
HETATM   16  C   UNL     1     -11.206  10.274  69.718  1.00  0.00    -0.339 A  
HETATM   17  C   UNL     1     -11.662  11.585  69.880  1.00  0.00    -0.420 A  
HETATM   18  C   UNL     1     -12.562  11.917  70.902  1.00  0.00    -0.361 A  
HETATM   19  C   UNL     1     -13.010  10.896  71.753  1.00  0.00    -0.557 A  
HETATM   20  C   UNL     1     -12.558   9.580  71.594  1.00  0.00    -0.476 A  
BRANCH  18  21
HETATM   21  C   UNL     1     -13.022  13.351  71.110  1.00  0.00    -0.314 C  
HETATM   22  C   UNL     1     -11.896  14.366  70.839  1.00  0.00    -0.346 C  
HETATM   23  C   UNL     1     -12.344  15.785  71.181  1.00  0.00    -0.480 C  
HETATM   24  C   UNL     1     -12.906  15.859  72.600  1.00  0.00    -0.459 C  
HETATM   25  N   UNL     1     -14.025  14.934  72.784  1.00  0.00    -0.466 NA 
HETATM   26  C   UNL     1     -13.607  13.550  72.526  1.00  0.00    -0.569 C  
HETATM   27  H   UNL     1     -14.829  15.198  72.215  1.00  0.00     0.000 HD 
ENDBRANCH  18  21
ENDBRANCH  12  15
ENDBRANCH   3   6
TORSDOF 3
ENDMDL
MODEL        9
REMARK 921   NORMALIZED FREE ENERGY PREDICTED BY IDOCK:   -7.08 KCAL/MOL
REMARK 922        TOTAL FREE ENERGY PREDICTED BY IDOCK:   -8.99 KCAL/MOL
REMARK 923 INTER-LIGAND FREE ENERGY PREDICTED BY IDOCK:   -8.19 KCAL/MOL
REMARK 924 INTRA-LIGAND FREE ENERGY PREDICTED BY IDOCK:   -0.80 KCAL/MOL
REMARK 927      BINDING AFFINITY PREDICTED BY RF-SCORE:    0.00 PKD
ROOT
HETATM    1  N   UNL     1     -10.123  14.079  68.953  1.00  0.00    -0.383 N  
HETATM    2  H2  UNL     1      -9.440  14.290  68.225  1.00  0.00     0.000 HD 
HETATM    3  C   UNL     1     -11.245  14.847  69.056  1.00  0.00    -0.264 C  
HETATM    4  H1  UNL     1      -9.952  13.299  69.587  1.00  0.00     0.000 HD 
HETATM    5  O   UNL     1     -11.450  15.784  68.294  1.00  0.00    -0.361 OA 
ENDROOT
BRANCH   3   6
HETATM    6  C   UNL     1     -12.200  14.508  70.125  1.00  0.00    -0.399 A  
HETATM    7  C   UNL     1     -13.029  15.501  70.711  1.00  0.00    -0.490 A  
HETATM    8  C   UNL     1     -13.964  15.230  71.758  1.00  0.00    -0.638 A  
HETATM    9  C   UNL     1     -14.159  13.954  72.318  1.00  0.00    -0.632 A  
HETATM   10  C   UNL     1     -13.343  13.007  71.711  1.00  0.00    -0.468 A  
HETATM   11  C   UNL     1     -13.322  11.681  72.026  1.00  0.00    -0.300 A  
HETATM   12  N   UNL     1     -12.417  11.103  71.163  1.00  0.00    -0.396 NA 
HETATM   13  C   UNL     1     -12.387  13.212  70.656  1.00  0.00    -0.326 A  
HETATM   14  N   UNL     1     -11.811  12.027  70.359  1.00  0.00    -0.286 NA 
BRANCH  12  15
HETATM   15  C   UNL     1     -12.096   9.718  71.055  1.00  0.00    -0.346 A  
HETATM   16  C   UNL     1     -12.807   8.758  71.785  1.00  0.00    -0.406 A  
HETATM   17  C   UNL     1     -12.474   7.405  71.682  1.00  0.00    -0.381 A  
HETATM   18  C   UNL     1     -11.430   6.978  70.850  1.00  0.00    -0.349 A  
HETATM   19  C   UNL     1     -10.732   7.942  70.108  1.00  0.00    -0.244 A  
HETATM   20  C   UNL     1     -11.062   9.300  70.207  1.00  0.00    -0.289 A  
BRANCH  18  21
HETATM   21  C   UNL     1     -11.035   5.511  70.772  1.00  0.00    -0.193 C  
HETATM   22  C   UNL     1     -10.391   5.015  72.080  1.00  0.00    -0.276 C  
HETATM   23  C   UNL     1      -9.886   3.582  71.931  1.00  0.00    -0.237 C  
HETATM   24  C   UNL     1      -8.979   3.441  70.710  1.00  0.00    -0.095 C  
HETATM   25  N   UNL     1      -9.663   3.849  69.482  1.00  0.00    -0.179 NA 
HETATM   26  C   UNL     1     -10.103   5.248  69.569  1.00  0.00    -0.252 C  
HETATM   27  H   UNL     1     -10.436   3.224  69.256  1.00  0.00     0.000 HD 
ENDBRANCH  18  21
ENDBRANCH  12  15
ENDBRANCH   3   6
TORSDOF 3
ENDMDL
MODEL       10
REMARK 921   NORMALIZED FREE ENERGY PREDICTED BY IDOCK:   -7.02 KCAL/MOL
REMARK 922        TOTAL FREE ENERGY PREDICTED BY IDOCK:   -8.92 KCAL/MOL
REMARK 923 INTER-LIGAND FREE ENERGY PREDICTED BY IDOCK:   -8.13 KCAL/MOL
REMARK 924 INTRA-LIGAND FREE ENERGY PREDICTED BY IDOCK:   -0.79 KCAL/MOL
REMARK 927      BINDING AFFINITY PREDICTED BY RF-SCORE:    0.00 PKD
ROOT
HETATM    1  N   UNL     1     -10.823   9.307  67.895  1.00  0.00    -0.473 N  
HETATM    2  H2  UNL     1     -10.263   8.732  67.265  1.00  0.00     0.000 HD 
HETATM    3  C   UNL     1     -10.696   9.139  69.242  1.00  0.00    -0.183 C  
HETATM    4  H1  UNL     1     -11.467   9.994  67.503  1.00  0.00     0.000 HD 
HETATM    5  O   UNL     1      -9.922   8.313  69.712  1.00  0.00    -0.185 OA 
ENDROOT
BRANCH   3   6
HETATM    6  C   UNL     1     -11.529   9.988  70.110  1.00  0.00    -0.344 A  
HETATM    7  C   UNL     1     -12.274   9.432  71.184  1.00  0.00    -0.402 A  
HETATM    8  C   UNL     1     -13.107  10.206  72.050  1.00  0.00    -0.538 A  
HETATM    9  C   UNL     1     -13.278  11.597  71.928  1.00  0.00    -0.475 A  
HETATM   10  C   UNL     1     -12.525  12.107  70.877  1.00  0.00    -0.374 A  
HETATM   11  C   UNL     1     -12.471  13.424  70.525  1.00  0.00    -0.279 A  
HETATM   12  N   UNL     1     -11.581  13.496  69.476  1.00  0.00    -0.293 NA 
HETATM   13  C   UNL     1     -11.669  11.387  69.973  1.00  0.00    -0.334 A  
HETATM   14  N   UNL     1     -11.124  12.265  69.104  1.00  0.00    -0.228 NA 
BRANCH  12  15
HETATM   15  C   UNL     1     -11.137  14.674  68.807  1.00  0.00    -0.260 A  
HETATM   16  C   UNL     1     -10.928  14.676  67.422  1.00  0.00    -0.309 A  
HETATM   17  C   UNL     1     -10.479  15.833  66.779  1.00  0.00    -0.305 A  
HETATM   18  C   UNL     1     -10.230  17.011  67.498  1.00  0.00    -0.323 A  
HETATM   19  C   UNL     1     -10.457  17.007  68.881  1.00  0.00    -0.347 A  
HETATM   20  C   UNL     1     -10.908  15.851  69.531  1.00  0.00    -0.305 A  
BRANCH  18  21
HETATM   21  C   UNL     1      -9.696  18.256  66.807  1.00  0.00    -0.322 C  
HETATM   22  C   UNL     1      -8.170  18.198  66.609  1.00  0.00    -0.283 C  
HETATM   23  C   UNL     1      -7.644  19.512  66.035  1.00  0.00    -0.326 C  
HETATM   24  C   UNL     1      -8.108  20.704  66.870  1.00  0.00    -0.157 C  
HETATM   25  N   UNL     1      -9.568  20.761  66.962  1.00  0.00    -0.681 NA 
HETATM   26  C   UNL     1     -10.100  19.535  67.574  1.00  0.00    -0.406 C  
HETATM   27  H   UNL     1      -9.996  20.946  66.056  1.00  0.00     0.000 HD 
ENDBRANCH  18  21
ENDBRANCH  12  15
ENDBRANCH   3   6
TORSDOF 3
ENDMDL
MODEL       11
REMARK 921   NORMALIZED FREE ENERGY PREDICTED BY IDOCK:   -6.98 KCAL/MOL
REMARK 922        TOTAL FREE ENERGY PREDICTED BY IDOCK:   -8.87 KCAL/MOL
REMARK 923 INTER-LIGAND FREE ENERGY PREDICTED BY IDOCK:   -8.32 KCAL/MOL
REMARK 924 INTRA-LIGAND FREE ENERGY PREDICTED BY IDOCK:   -0.55 KCAL/MOL
REMARK 927      BINDING AFFINITY PREDICTED BY RF-SCORE:    0.00 PKD
ROOT
HETATM    1  N   UNL     1     -10.044  18.155  68.667  1.00  0.00    -0.387 N  
HETATM    2  H2  UNL     1      -9.623  18.760  69.372  1.00  0.00     0.000 HD 
HETATM    3  C   UNL     1      -9.550  16.896  68.488  1.00  0.00    -0.262 C  
HETATM    4  H1  UNL     1     -10.825  18.504  68.111  1.00  0.00     0.000 HD 
HETATM    5  O   UNL     1      -8.612  16.477  69.156  1.00  0.00    -0.230 OA 
ENDROOT
BRANCH   3   6
HETATM    6  C   UNL     1     -10.187  16.062  67.455  1.00  0.00    -0.273 A  
HETATM    7  C   UNL     1     -10.317  16.521  66.117  1.00  0.00    -0.344 A  
HETATM    8  C   UNL     1     -10.936  15.759  65.078  1.00  0.00    -0.431 A  
HETATM    9  C   UNL     1     -11.482  14.476  65.272  1.00  0.00    -0.355 A  
HETATM   10  C   UNL     1     -11.324  14.055  66.587  1.00  0.00    -0.345 A  
HETATM   11  C   UNL     1     -11.734  12.848  67.072  1.00  0.00    -0.385 A  
HETATM   12  N   UNL     1     -11.344  12.822  68.393  1.00  0.00    -0.272 NA 
HETATM   13  C   UNL     1     -10.712  14.768  67.675  1.00  0.00    -0.270 A  
HETATM   14  N   UNL     1     -10.765  13.996  68.782  1.00  0.00    -0.256 NA 
BRANCH  12  15
HETATM   15  C   UNL     1     -11.488  11.739  69.310  1.00  0.00    -0.306 A  
HETATM   16  C   UNL     1     -12.526  11.729  70.250  1.00  0.00    -0.237 A  
HETATM   17  C   UNL     1     -12.648  10.669  71.153  1.00  0.00    -0.526 A  
HETATM   18  C   UNL     1     -11.744   9.598  71.138  1.00  0.00    -0.450 A  
HETATM   19  C   UNL     1     -10.717   9.606  70.184  1.00  0.00    -0.321 A  
HETATM   20  C   UNL     1     -10.590  10.665  69.276  1.00  0.00    -0.263 A  
BRANCH  18  21
HETATM   21  C   UNL     1     -11.847   8.468  72.151  1.00  0.00    -0.448 C  
HETATM   22  C   UNL     1     -10.472   8.078  72.725  1.00  0.00    -0.415 C  
HETATM   23  C   UNL     1     -10.588   6.858  73.636  1.00  0.00    -0.371 C  
HETATM   24  C   UNL     1     -11.305   5.708  72.931  1.00  0.00    -0.273 C  
HETATM   25  N   UNL     1     -12.638   6.105  72.475  1.00  0.00    -0.514 NA 
HETATM   26  C   UNL     1     -12.555   7.237  71.542  1.00  0.00    -0.379 C  
HETATM   27  H   UNL     1     -13.260   6.306  73.257  1.00  0.00     0.000 HD 
ENDBRANCH  18  21
ENDBRANCH  12  15
ENDBRANCH   3   6
TORSDOF 3
ENDMDL
MODEL       12
REMARK 921   NORMALIZED FREE ENERGY PREDICTED BY IDOCK:   -6.98 KCAL/MOL
REMARK 922        TOTAL FREE ENERGY PREDICTED BY IDOCK:   -8.87 KCAL/MOL
REMARK 923 INTER-LIGAND FREE ENERGY PREDICTED BY IDOCK:   -8.07 KCAL/MOL
REMARK 924 INTRA-LIGAND FREE ENERGY PREDICTED BY IDOCK:   -0.80 KCAL/MOL
REMARK 927      BINDING AFFINITY PREDICTED BY RF-SCORE:    0.00 PKD
ROOT
HETATM    1  N   UNL     1     -11.993   8.148  72.678  1.00  0.00    -0.558 N  
HETATM    2  H2  UNL     1     -12.286   8.738  73.457  1.00  0.00     0.000 HD 
HETATM    3  C   UNL     1     -11.013   7.220  72.877  1.00  0.00    -0.337 C  
HETATM    4  H1  UNL     1     -12.439   8.264  71.768  1.00  0.00     0.000 HD 
HETATM    5  O   UNL     1     -10.478   7.081  73.970  1.00  0.00    -0.366 OA 
ENDROOT
BRANCH   3   6
HETATM    6  C   UNL     1     -10.620   6.395  71.722  1.00  0.00    -0.256 A  
HETATM    7  C   UNL     1     -10.378   5.002  71.863  1.00  0.00    -0.270 A  
HETATM    8  C   UNL     1      -9.983   4.157  70.781  1.00  0.00    -0.192 A  
HETATM    9  C   UNL     1      -9.792   4.615  69.464  1.00  0.00    -0.286 A  
HETATM   10  C   UNL     1     -10.051   5.977  69.361  1.00  0.00    -0.243 A  
HETATM   11  C   UNL     1      -9.970   6.699  68.208  1.00  0.00    -0.144 A  
HETATM   12  N   UNL     1     -10.349   7.982  68.540  1.00  0.00    -0.207 NA 
HETATM   13  C   UNL     1     -10.452   6.881  70.406  1.00  0.00    -0.206 A  
HETATM   14  N   UNL     1     -10.600   8.114  69.876  1.00  0.00    -0.238 NA 
BRANCH  12  15
HETATM   15  C   UNL     1     -10.491   9.092  67.657  1.00  0.00    -0.260 A  
HETATM   16  C   UNL     1     -10.018   9.026  66.341  1.00  0.00    -0.370 A  
HETATM   17  C   UNL     1     -10.150  10.125  65.488  1.00  0.00    -0.338 A  
HETATM   18  C   UNL     1     -10.757  11.311  65.926  1.00  0.00    -0.291 A  
HETATM   19  C   UNL     1     -11.244  11.365  67.239  1.00  0.00    -0.370 A  
HETATM   20  C   UNL     1     -11.115  10.266  68.098  1.00  0.00    -0.324 A  
BRANCH  18  21
HETATM   21  C   UNL     1     -10.859  12.525  65.015  1.00  0.00    -0.324 C  
HETATM   22  C   UNL     1     -10.523  13.833  65.754  1.00  0.00    -0.303 C  
HETATM   23  C   UNL     1     -10.761  15.045  64.855  1.00  0.00    -0.420 C  
HETATM   24  C   UNL     1     -12.167  15.022  64.258  1.00  0.00    -0.293 C  
HETATM   25  N   UNL     1     -12.410  13.795  63.499  1.00  0.00    -1.032 NA 
HETATM   26  C   UNL     1     -12.254  12.611  64.356  1.00  0.00    -0.443 C  
HETATM   27  H   UNL     1     -11.818  13.741  62.671  1.00  0.00     0.000 HD 
ENDBRANCH  18  21
ENDBRANCH  12  15
ENDBRANCH   3   6
TORSDOF 3
ENDMDL
MODEL       13
REMARK 921   NORMALIZED FREE ENERGY PREDICTED BY IDOCK:   -6.73 KCAL/MOL
REMARK 922        TOTAL FREE ENERGY PREDICTED BY IDOCK:   -8.57 KCAL/MOL
REMARK 923 INTER-LIGAND FREE ENERGY PREDICTED BY IDOCK:   -7.77 KCAL/MOL
REMARK 924 INTRA-LIGAND FREE ENERGY PREDICTED BY IDOCK:   -0.80 KCAL/MOL
REMARK 927      BINDING AFFINITY PREDICTED BY RF-SCORE:    0.00 PKD
ROOT
HETATM    1  N   UNL     1     -10.573   8.668  67.975  1.00  0.00    -0.399 N  
HETATM    2  H2  UNL     1      -9.945   8.261  67.282  1.00  0.00     0.000 HD 
HETATM    3  C   UNL     1     -10.486   8.259  69.273  1.00  0.00    -0.210 C  
HETATM    4  H1  UNL     1     -11.251   9.371  67.683  1.00  0.00     0.000 HD 
HETATM    5  O   UNL     1      -9.671   7.414  69.624  1.00  0.00    -0.163 OA 
ENDROOT
BRANCH   3   6
HETATM    6  C   UNL     1     -11.417   8.870  70.238  1.00  0.00    -0.123 A  
HETATM    7  C   UNL     1     -12.073   8.086  71.224  1.00  0.00    -0.314 A  
HETATM    8  C   UNL     1     -12.993   8.624  72.175  1.00  0.00    -0.432 A  
HETATM    9  C   UNL     1     -13.347   9.985  72.234  1.00  0.00    -0.387 A  
HETATM   10  C   UNL     1     -12.677  10.722  71.265  1.00  0.00    -0.546 A  
HETATM   11  C   UNL     1     -12.800  12.068  71.088  1.00  0.00    -0.235 A  
HETATM   12  N   UNL     1     -11.937  12.394  70.065  1.00  0.00    -0.331 NA 
HETATM   13  C   UNL     1     -11.741  10.245  70.283  1.00  0.00    -0.306 A  
HETATM   14  N   UNL     1     -11.324  11.292  69.539  1.00  0.00    -0.273 NA 
BRANCH  12  15
HETATM   15  C   UNL     1     -11.657  13.697  69.558  1.00  0.00    -0.301 A  
HETATM   16  C   UNL     1     -11.619  14.806  70.413  1.00  0.00    -0.333 A  
HETATM   17  C   UNL     1     -11.357  16.080  69.903  1.00  0.00    -0.340 A  
HETATM   18  C   UNL     1     -11.128  16.278  68.534  1.00  0.00    -0.368 A  
HETATM   19  C   UNL     1     -11.151  15.162  67.686  1.00  0.00    -0.318 A  
HETATM   20  C   UNL     1     -11.411  13.883  68.192  1.00  0.00    -0.346 A  
BRANCH  18  21
HETATM   21  C   UNL     1     -10.891  17.671  67.970  1.00  0.00    -0.240 C  
HETATM   22  C   UNL     1     -10.529  17.636  66.473  1.00  0.00    -0.283 C  
HETATM   23  C   UNL     1     -10.168  19.030  65.965  1.00  0.00    -0.462 C  
HETATM   24  C   UNL     1      -9.095  19.675  66.839  1.00  0.00    -0.342 C  
HETATM   25  N   UNL     1      -9.517  19.758  68.238  1.00  0.00    -0.354 NA 
HETATM   26  C   UNL     1      -9.808  18.422  68.776  1.00  0.00    -0.361 C  
HETATM   27  H   UNL     1     -10.307  20.392  68.356  1.00  0.00     0.000 HD 
ENDBRANCH  18  21
ENDBRANCH  12  15
ENDBRANCH   3   6
TORSDOF 3
ENDMDL
MODEL       14
REMARK 921   NORMALIZED FREE ENERGY PREDICTED BY IDOCK:   -6.72 KCAL/MOL
REMARK 922        TOTAL FREE ENERGY PREDICTED BY IDOCK:   -8.57 KCAL/MOL
REMARK 923 INTER-LIGAND FREE ENERGY PREDICTED BY IDOCK:   -7.96 KCAL/MOL
REMARK 924 INTRA-LIGAND FREE ENERGY PREDICTED BY IDOCK:   -0.61 KCAL/MOL
REMARK 927      BINDING AFFINITY PREDICTED BY RF-SCORE:    0.00 PKD
ROOT
HETATM    1  N   UNL     1     -14.235  15.578  70.873  1.00  0.00    -0.829 N  
HETATM    2  H2  UNL     1     -14.772  15.979  71.642  1.00  0.00     0.000 HD 
HETATM    3  C   UNL     1     -12.873  15.578  70.941  1.00  0.00    -0.477 C  
HETATM    4  H1  UNL     1     -14.728  15.186  70.071  1.00  0.00     0.000 HD 
HETATM    5  O   UNL     1     -12.281  16.049  71.905  1.00  0.00    -0.449 OA 
ENDROOT
BRANCH   3   6
HETATM    6  C   UNL     1     -12.140  14.993  69.805  1.00  0.00    -0.354 A  
HETATM    7  C   UNL     1     -11.747  15.789  68.696  1.00  0.00    -0.353 A  
HETATM    8  C   UNL     1     -11.046  15.272  67.564  1.00  0.00    -0.324 A  
HETATM    9  C   UNL     1     -10.674  13.922  67.427  1.00  0.00    -0.275 A  
HETATM   10  C   UNL     1     -11.062  13.178  68.535  1.00  0.00    -0.296 A  
HETATM   11  C   UNL     1     -10.823  11.846  68.699  1.00  0.00    -0.235 A  
HETATM   12  N   UNL     1     -11.328  11.524  69.940  1.00  0.00    -0.231 NA 
HETATM   13  C   UNL     1     -11.765  13.635  69.703  1.00  0.00    -0.320 A  
HETATM   14  N   UNL     1     -11.940  12.588  70.538  1.00  0.00    -0.279 NA 
BRANCH  12  15
HETATM   15  C   UNL     1     -11.257  10.259  70.595  1.00  0.00    -0.325 A  
HETATM   16  C   UNL     1     -10.106   9.467  70.503  1.00  0.00    -0.347 A  
HETATM   17  C   UNL     1     -10.054   8.223  71.138  1.00  0.00    -0.237 A  
HETATM   18  C   UNL     1     -11.144   7.742  71.877  1.00  0.00    -0.302 A  
HETATM   19  C   UNL     1     -12.287   8.546  71.979  1.00  0.00    -0.423 A  
HETATM   20  C   UNL     1     -12.345   9.795  71.347  1.00  0.00    -0.480 A  
BRANCH  18  21
HETATM   21  C   UNL     1     -11.107   6.368  72.528  1.00  0.00    -0.298 C  
HETATM   22  C   UNL     1     -10.497   6.413  73.941  1.00  0.00    -0.307 C  
HETATM   23  C   UNL     1     -10.351   5.007  74.518  1.00  0.00    -0.315 C  
HETATM   24  C   UNL     1      -9.598   4.090  73.556  1.00  0.00    -0.109 C  
HETATM   25  N   UNL     1     -10.261   4.018  72.252  1.00  0.00    -0.177 NA 
HETATM   26  C   UNL     1     -10.356   5.350  71.640  1.00  0.00    -0.218 C  
HETATM   27  H   UNL     1     -11.173   3.567  72.318  1.00  0.00     0.000 HD 
ENDBRANCH  18  21
ENDBRANCH  12  15
ENDBRANCH   3   6
TORSDOF 3
ENDMDL
MODEL       15
REMARK 921   NORMALIZED FREE ENERGY PREDICTED BY IDOCK:   -6.66 KCAL/MOL
REMARK 922        TOTAL FREE ENERGY PREDICTED BY IDOCK:   -8.49 KCAL/MOL
REMARK 923 INTER-LIGAND FREE ENERGY PREDICTED BY IDOCK:   -7.88 KCAL/MOL
REMARK 924 INTRA-LIGAND FREE ENERGY PREDICTED BY IDOCK:   -0.62 KCAL/MOL
REMARK 927      BINDING AFFINITY PREDICTED BY RF-SCORE:    0.00 PKD
ROOT
HETATM    1  N   UNL     1      -9.886  20.966  67.141  1.00  0.00    -0.575 N  
HETATM    2  H2  UNL     1     -10.698  21.581  67.195  1.00  0.00     0.000 HD 
HETATM    3  C   UNL     1      -9.923  19.886  66.310  1.00  0.00    -0.486 C  
HETATM    4  H1  UNL     1      -9.064  21.173  67.708  1.00  0.00     0.000 HD 
HETATM    5  O   UNL     1     -10.910  19.637  65.627  1.00  0.00    -0.473 OA 
ENDROOT
BRANCH   3   6
HETATM    6  C   UNL     1      -8.728  19.025  66.268  1.00  0.00    -0.281 A  
HETATM    7  C   UNL     1      -7.478  19.524  65.816  1.00  0.00    -0.276 A  
HETATM    8  C   UNL     1      -6.292  18.731  65.744  1.00  0.00    -0.276 A  
HETATM    9  C   UNL     1      -6.238  17.373  66.110  1.00  0.00    -0.204 A  
HETATM   10  C   UNL     1      -7.474  16.924  66.560  1.00  0.00    -0.328 A  
HETATM   11  C   UNL     1      -7.728  15.659  67.001  1.00  0.00    -0.222 A  
HETATM   12  N   UNL     1      -9.050  15.655  67.391  1.00  0.00    -0.191 NA 
HETATM   13  C   UNL     1      -8.701  17.667  66.659  1.00  0.00    -0.264 A  
HETATM   14  N   UNL     1      -9.661  16.852  67.147  1.00  0.00    -0.239 NA 
BRANCH  12  15
HETATM   15  C   UNL     1      -9.766  14.577  67.988  1.00  0.00    -0.218 A  
HETATM   16  C   UNL     1      -9.317  13.257  67.856  1.00  0.00    -0.214 A  
HETATM   17  C   UNL     1     -10.036  12.207  68.434  1.00  0.00    -0.206 A  
HETATM   18  C   UNL     1     -11.214  12.447  69.155  1.00  0.00    -0.295 A  
HETATM   19  C   UNL     1     -11.649  13.772  69.298  1.00  0.00    -0.362 A  
HETATM   20  C   UNL     1     -10.933  14.829  68.723  1.00  0.00    -0.267 A  
BRANCH  18  21
HETATM   21  C   UNL     1     -12.023  11.302  69.744  1.00  0.00    -0.431 C  
HETATM   22  C   UNL     1     -12.538  11.624  71.159  1.00  0.00    -0.439 C  
HETATM   23  C   UNL     1     -13.232  10.412  71.777  1.00  0.00    -0.529 C  
HETATM   24  C   UNL     1     -12.338   9.175  71.718  1.00  0.00    -0.372 C  
HETATM   25  N   UNL     1     -11.940   8.863  70.345  1.00  0.00    -0.472 NA 
HETATM   26  C   UNL     1     -11.210   9.988  69.744  1.00  0.00    -0.258 C  
HETATM   27  H   UNL     1     -12.739   8.585  69.775  1.00  0.00     0.000 HD 
ENDBRANCH  18  21
ENDBRANCH  12  15
ENDBRANCH   3   6
TORSDOF 3
ENDMDL
MODEL       16
REMARK 921   NORMALIZED FREE ENERGY PREDICTED BY IDOCK:   -6.66 KCAL/MOL
REMARK 922        TOTAL FREE ENERGY PREDICTED BY IDOCK:   -8.49 KCAL/MOL
REMARK 923 INTER-LIGAND FREE ENERGY PREDICTED BY IDOCK:   -7.74 KCAL/MOL
REMARK 924 INTRA-LIGAND FREE ENERGY PREDICTED BY IDOCK:   -0.75 KCAL/MOL
REMARK 927      BINDING AFFINITY PREDICTED BY RF-SCORE:    0.00 PKD
ROOT
HETATM    1  N   UNL     1     -13.627  11.128  72.261  1.00  0.00    -0.453 N  
HETATM    2  H2  UNL     1     -14.360  11.339  72.937  1.00  0.00     0.000 HD 
HETATM    3  C   UNL     1     -13.350   9.826  71.962  1.00  0.00    -0.451 C  
HETATM    4  H1  UNL     1     -13.116  11.894  71.822  1.00  0.00     0.000 HD 
HETATM    5  O   UNL     1     -13.964   8.905  72.489  1.00  0.00    -0.462 OA 
ENDROOT
BRANCH   3   6
HETATM    6  C   UNL     1     -12.280   9.570  70.984  1.00  0.00    -0.385 A  
HETATM    7  C   UNL     1     -11.792   8.256  70.756  1.00  0.00    -0.172 A  
HETATM    8  C   UNL     1     -10.748   7.952  69.829  1.00  0.00    -0.233 A  
HETATM    9  C   UNL     1     -10.094   8.921  69.046  1.00  0.00    -0.205 A  
HETATM   10  C   UNL     1     -10.606  10.191  69.285  1.00  0.00    -0.254 A  
HETATM   11  C   UNL     1     -10.187  11.329  68.662  1.00  0.00    -0.203 A  
HETATM   12  N   UNL     1     -10.981  12.341  69.154  1.00  0.00    -0.203 NA 
HETATM   13  C   UNL     1     -11.652  10.563  70.199  1.00  0.00    -0.326 A  
HETATM   14  N   UNL     1     -11.841  11.898  70.118  1.00  0.00    -0.330 NA 
BRANCH  12  15
HETATM   15  C   UNL     1     -10.973  13.710  68.756  1.00  0.00    -0.264 A  
HETATM   16  C   UNL     1     -10.256  14.124  67.626  1.00  0.00    -0.241 A  
HETATM   17  C   UNL     1     -10.244  15.471  67.254  1.00  0.00    -0.260 A  
HETATM   18  C   UNL     1     -10.944  16.433  67.996  1.00  0.00    -0.327 A  
HETATM   19  C   UNL     1     -11.673  16.010  69.116  1.00  0.00    -0.310 A  
HETATM   20  C   UNL     1     -11.690  14.662  69.493  1.00  0.00    -0.366 A  
BRANCH  18  21
HETATM   21  C   UNL     1     -10.893  17.906  67.620  1.00  0.00    -0.243 C  
HETATM   22  C   UNL     1     -10.465  18.116  66.156  1.00  0.00    -0.377 C  
HETATM   23  C   UNL     1     -10.294  19.601  65.844  1.00  0.00    -0.584 C  
HETATM   24  C   UNL     1      -9.368  20.274  66.854  1.00  0.00    -0.373 C  
HETATM   25  N   UNL     1      -9.859  20.116  68.224  1.00  0.00    -0.330 NA 
HETATM   26  C   UNL     1      -9.970  18.694  68.577  1.00  0.00    -0.388 C  
HETATM   27  H   UNL     1     -10.739  20.610  68.368  1.00  0.00     0.000 HD 
ENDBRANCH  18  21
ENDBRANCH  12  15
ENDBRANCH   3   6
TORSDOF 3
ENDMDL
MODEL       17
REMARK 921   NORMALIZED FREE ENERGY PREDICTED BY IDOCK:   -6.61 KCAL/MOL
REMARK 922        TOTAL FREE ENERGY PREDICTED BY IDOCK:   -8.43 KCAL/MOL
REMARK 923 INTER-LIGAND FREE ENERGY PREDICTED BY IDOCK:   -7.67 KCAL/MOL
REMARK 924 INTRA-LIGAND FREE ENERGY PREDICTED BY IDOCK:   -0.76 KCAL/MOL
REMARK 927      BINDING AFFINITY PREDICTED BY RF-SCORE:    0.00 PKD
ROOT
HETATM    1  N   UNL     1     -13.399  10.823  72.141  1.00  0.00    -0.579 N  
HETATM    2  H2  UNL     1     -14.057  11.358  72.709  1.00  0.00     0.000 HD 
HETATM    3  C   UNL     1     -13.494   9.463  72.115  1.00  0.00    -0.471 C  
HETATM    4  H1  UNL     1     -12.685  11.317  71.606  1.00  0.00     0.000 HD 
HETATM    5  O   UNL     1     -14.352   8.870  72.758  1.00  0.00    -0.600 OA 
ENDROOT
BRANCH   3   6
HETATM    6  C   UNL     1     -12.519   8.733  71.286  1.00  0.00    -0.301 A  
HETATM    7  C   UNL     1     -12.380   7.323  71.386  1.00  0.00    -0.403 A  
HETATM    8  C   UNL     1     -11.444   6.567  70.615  1.00  0.00    -0.433 A  
HETATM    9  C   UNL     1     -10.562   7.139  69.680  1.00  0.00    -0.249 A  
HETATM   10  C   UNL     1     -10.736   8.516  69.600  1.00  0.00    -0.200 A  
HETATM   11  C   UNL     1     -10.039   9.341  68.768  1.00  0.00    -0.195 A  
HETATM   12  N   UNL     1     -10.553  10.603  68.973  1.00  0.00    -0.205 NA 
HETATM   13  C   UNL     1     -11.657   9.334  70.342  1.00  0.00    -0.173 A  
HETATM   14  N   UNL     1     -11.501  10.618  69.955  1.00  0.00    -0.299 NA 
BRANCH  12  15
HETATM   15  C   UNL     1     -10.195  11.798  68.283  1.00  0.00    -0.205 A  
HETATM   16  C   UNL     1      -8.853  12.180  68.158  1.00  0.00    -0.187 A  
HETATM   17  C   UNL     1      -8.516  13.361  67.492  1.00  0.00    -0.192 A  
HETATM   18  C   UNL     1      -9.504  14.186  66.936  1.00  0.00    -0.275 A  
HETATM   19  C   UNL     1     -10.844  13.790  67.050  1.00  0.00    -0.288 A  
HETATM   20  C   UNL     1     -11.188  12.607  67.715  1.00  0.00    -0.319 A  
BRANCH  18  21
HETATM   21  C   UNL     1      -9.143  15.496  66.252  1.00  0.00    -0.369 C  
HETATM   22  C   UNL     1      -7.865  16.123  66.842  1.00  0.00    -0.283 C  
HETATM   23  C   UNL     1      -7.599  17.497  66.231  1.00  0.00    -0.343 C  
HETATM   24  C   UNL     1      -8.829  18.396  66.338  1.00  0.00    -0.248 C  
HETATM   25  N   UNL     1      -9.996  17.792  65.694  1.00  0.00    -0.528 NA 
HETATM   26  C   UNL     1     -10.319  16.496  66.307  1.00  0.00    -0.320 C  
HETATM   27  H   UNL     1      -9.870  17.711  64.685  1.00  0.00     0.000 HD 
ENDBRANCH  18  21
ENDBRANCH  12  15
ENDBRANCH   3   6
TORSDOF 3
ENDMDL
MODEL       18
REMARK 921   NORMALIZED FREE ENERGY PREDICTED BY IDOCK:   -6.50 KCAL/MOL
REMARK 922        TOTAL FREE ENERGY PREDICTED BY IDOCK:   -8.31 KCAL/MOL
REMARK 923 INTER-LIGAND FREE ENERGY PREDICTED BY IDOCK:   -7.59 KCAL/MOL
REMARK 924 INTRA-LIGAND FREE ENERGY PREDICTED BY IDOCK:   -0.71 KCAL/MOL
REMARK 927      BINDING AFFINITY PREDICTED BY RF-SCORE:    0.00 PKD
ROOT
HETATM    1  N   UNL     1     -12.972   8.557  72.568  1.00  0.00    -0.596 N  
HETATM    2  H2  UNL     1     -13.260   8.726  73.532  1.00  0.00     0.000 HD 
HETATM    3  C   UNL     1     -11.748   8.007  72.324  1.00  0.00    -0.371 C  
HETATM    4  H1  UNL     1     -13.605   8.805  71.807  1.00  0.00     0.000 HD 
HETATM    5  O   UNL     1     -10.988   7.710  73.239  1.00  0.00    -0.400 OA 
ENDROOT
BRANCH   3   6
HETATM    6  C   UNL     1     -11.374   7.787  70.917  1.00  0.00    -0.288 A  
HETATM    7  C   UNL     1     -11.235   6.476  70.390  1.00  0.00    -0.414 A  
HETATM    8  C   UNL     1     -10.863   6.205  69.037  1.00  0.00    -0.416 A  
HETATM    9  C   UNL     1     -10.594   7.207  68.087  1.00  0.00    -0.241 A  
HETATM   10  C   UNL     1     -10.752   8.475  68.634  1.00  0.00    -0.082 A  
HETATM   11  C   UNL     1     -10.580   9.643  67.952  1.00  0.00    -0.255 A  
HETATM   12  N   UNL     1     -10.879  10.648  68.846  1.00  0.00    -0.214 NA 
HETATM   13  C   UNL     1     -11.125   8.816  69.980  1.00  0.00    -0.162 A  
HETATM   14  N   UNL     1     -11.167  10.161  70.089  1.00  0.00    -0.288 NA 
BRANCH  12  15
HETATM   15  C   UNL     1     -10.912  12.049  68.585  1.00  0.00    -0.240 A  
HETATM   16  C   UNL     1     -10.084  12.615  67.607  1.00  0.00    -0.218 A  
HETATM   17  C   UNL     1     -10.115  13.992  67.370  1.00  0.00    -0.244 A  
HETATM   18  C   UNL     1     -10.968  14.834  68.097  1.00  0.00    -0.274 A  
HETATM   19  C   UNL     1     -11.806  14.259  69.064  1.00  0.00    -0.370 A  
HETATM   20  C   UNL     1     -11.781  12.879  69.305  1.00  0.00    -0.378 A  
BRANCH  18  21
HETATM   21  C   UNL     1     -10.968  16.338  67.874  1.00  0.00    -0.310 C  
HETATM   22  C   UNL     1     -10.266  16.728  66.560  1.00  0.00    -0.319 C  
HETATM   23  C   UNL     1     -10.163  18.245  66.425  1.00  0.00    -0.417 C  
HETATM   24  C   UNL     1      -9.529  18.869  67.666  1.00  0.00    -0.301 C  
HETATM   25  N   UNL     1     -10.278  18.535  68.879  1.00  0.00    -0.466 NA 
HETATM   26  C   UNL     1     -10.337  17.080  69.073  1.00  0.00    -0.330 C  
HETATM   27  H   UNL     1     -11.208  18.952  68.873  1.00  0.00     0.000 HD 
ENDBRANCH  18  21
ENDBRANCH  12  15
ENDBRANCH   3   6
TORSDOF 3
ENDMDL
MODEL       19
REMARK 921   NORMALIZED FREE ENERGY PREDICTED BY IDOCK:   -6.47 KCAL/MOL
REMARK 922        TOTAL FREE ENERGY PREDICTED BY IDOCK:   -8.28 KCAL/MOL
REMARK 923 INTER-LIGAND FREE ENERGY PREDICTED BY IDOCK:   -7.54 KCAL/MOL
REMARK 924 INTRA-LIGAND FREE ENERGY PREDICTED BY IDOCK:   -0.73 KCAL/MOL
REMARK 927      BINDING AFFINITY PREDICTED BY RF-SCORE:    0.00 PKD
ROOT
HETATM    1  N   UNL     1     -13.410  10.900  72.187  1.00  0.00    -0.580 N  
HETATM    2  H2  UNL     1     -14.110  11.076  72.907  1.00  0.00     0.000 HD 
HETATM    3  C   UNL     1     -13.010   9.618  71.947  1.00  0.00    -0.435 C  
HETATM    4  H1  UNL     1     -13.023  11.685  71.663  1.00  0.00     0.000 HD 
HETATM    5  O   UNL     1     -13.474   8.675  72.576  1.00  0.00    -0.351 OA 
ENDROOT
BRANCH   3   6
HETATM    6  C   UNL     1     -11.992   9.413  70.902  1.00  0.00    -0.351 A  
HETATM    7  C   UNL     1     -11.522   8.112  70.580  1.00  0.00    -0.237 A  
HETATM    8  C   UNL     1     -10.529   7.856  69.585  1.00  0.00    -0.226 A  
HETATM    9  C   UNL     1      -9.912   8.864  68.822  1.00  0.00    -0.195 A  
HETATM   10  C   UNL     1     -10.406  10.120  69.153  1.00  0.00    -0.237 A  
HETATM   11  C   UNL     1     -10.015  11.289  68.570  1.00  0.00    -0.202 A  
HETATM   12  N   UNL     1     -10.779  12.275  69.155  1.00  0.00    -0.111 NA 
HETATM   13  C   UNL     1     -11.402  10.446  70.139  1.00  0.00    -0.323 A  
HETATM   14  N   UNL     1     -11.590  11.782  70.137  1.00  0.00    -0.251 NA 
BRANCH  12  15
HETATM   15  C   UNL     1     -10.785  13.663  68.830  1.00  0.00    -0.244 A  
HETATM   16  C   UNL     1     -11.857  14.483  69.206  1.00  0.00    -0.361 A  
HETATM   17  C   UNL     1     -11.858  15.839  68.869  1.00  0.00    -0.354 A  
HETATM   18  C   UNL     1     -10.795  16.409  68.154  1.00  0.00    -0.346 A  
HETATM   19  C   UNL     1      -9.718  15.587  67.796  1.00  0.00    -0.211 A  
HETATM   20  C   UNL     1      -9.710  14.227  68.131  1.00  0.00    -0.226 A  
BRANCH  18  21
HETATM   21  C   UNL     1     -10.817  17.873  67.746  1.00  0.00    -0.237 C  
HETATM   22  C   UNL     1     -10.402  18.071  66.276  1.00  0.00    -0.384 C  
HETATM   23  C   UNL     1     -10.305  19.555  65.930  1.00  0.00    -0.562 C  
HETATM   24  C   UNL     1      -9.412  20.296  66.924  1.00  0.00    -0.397 C  
HETATM   25  N   UNL     1      -9.893  20.144  68.297  1.00  0.00    -0.330 NA 
HETATM   26  C   UNL     1      -9.934  18.727  68.683  1.00  0.00    -0.394 C  
HETATM   27  H   UNL     1     -10.796  20.598  68.433  1.00  0.00     0.000 HD 
ENDBRANCH  18  21
ENDBRANCH  12  15
ENDBRANCH   3   6
TORSDOF 3
ENDMDL
MODEL       20
REMARK 921   NORMALIZED FREE ENERGY PREDICTED BY IDOCK:   -6.44 KCAL/MOL
REMARK 922        TOTAL FREE ENERGY PREDICTED BY IDOCK:   -8.23 KCAL/MOL
REMARK 923 INTER-LIGAND FREE ENERGY PREDICTED BY IDOCK:   -7.48 KCAL/MOL
REMARK 924 INTRA-LIGAND FREE ENERGY PREDICTED BY IDOCK:   -0.75 KCAL/MOL
REMARK 927      BINDING AFFINITY PREDICTED BY RF-SCORE:    0.00 PKD
ROOT
HETATM    1  N   UNL     1     -11.295   6.687  67.034  1.00  0.00    -0.795 N  
HETATM    2  H2  UNL     1     -11.032   6.371  66.101  1.00  0.00     0.000 HD 
HETATM    3  C   UNL     1     -10.439   6.477  68.075  1.00  0.00    -0.216 C  
HETATM    4  H1  UNL     1     -12.193   7.152  67.170  1.00  0.00     0.000 HD 
HETATM    5  O   UNL     1      -9.361   5.919  67.913  1.00  0.00    -0.109 OA 
ENDROOT
BRANCH   3   6
HETATM    6  C   UNL     1     -10.865   6.946  69.405  1.00  0.00    -0.283 A  
HETATM    7  C   UNL     1     -11.046   6.036  70.481  1.00  0.00    -0.385 A  
HETATM    8  C   UNL     1     -11.469   6.434  71.787  1.00  0.00    -0.349 A  
HETATM    9  C   UNL     1     -11.751   7.765  72.143  1.00  0.00    -0.368 A  
HETATM   10  C   UNL     1     -11.550   8.627  71.071  1.00  0.00    -0.325 A  
HETATM   11  C   UNL     1     -11.724   9.979  71.116  1.00  0.00    -0.387 A  
HETATM   12  N   UNL     1     -11.375  10.445  69.867  1.00  0.00    -0.281 NA 
HETATM   13  C   UNL     1     -11.126   8.294  69.738  1.00  0.00    -0.052 A  
HETATM   14  N   UNL     1     -11.055   9.430  69.011  1.00  0.00    -0.061 NA 
BRANCH  12  15
HETATM   15  C   UNL     1     -11.325  11.804  69.441  1.00  0.00    -0.272 A  
HETATM   16  C   UNL     1     -10.609  12.170  68.294  1.00  0.00    -0.236 A  
HETATM   17  C   UNL     1     -10.557  13.508  67.894  1.00  0.00    -0.255 A  
HETATM   18  C   UNL     1     -11.215  14.508  68.623  1.00  0.00    -0.281 A  
HETATM   19  C   UNL     1     -11.943  14.133  69.760  1.00  0.00    -0.396 A  
HETATM   20  C   UNL     1     -12.001  12.794  70.166  1.00  0.00    -0.371 A  
BRANCH  18  21
HETATM   21  C   UNL     1     -11.119  15.970  68.215  1.00  0.00    -0.351 C  
HETATM   22  C   UNL     1     -10.381  16.151  66.875  1.00  0.00    -0.297 C  
HETATM   23  C   UNL     1     -10.183  17.631  66.556  1.00  0.00    -0.355 C  
HETATM   24  C   UNL     1      -9.523  18.364  67.722  1.00  0.00    -0.280 C  
HETATM   25  N   UNL     1     -10.302  18.229  68.954  1.00  0.00    -0.447 NA 
HETATM   26  C   UNL     1     -10.453  16.815  69.324  1.00  0.00    -0.331 C  
HETATM   27  H   UNL     1     -11.204  18.698  68.882  1.00  0.00     0.000 HD 
ENDBRANCH  18  21
ENDBRANCH  12  15
ENDBRANCH   3   6
TORSDOF 3
ENDMDL
MODEL       21
REMARK 921   NORMALIZED FREE ENERGY PREDICTED BY IDOCK:   -6.41 KCAL/MOL
REMARK 922        TOTAL FREE ENERGY PREDICTED BY IDOCK:   -8.20 KCAL/MOL
REMARK 923 INTER-LIGAND FREE ENERGY PREDICTED BY IDOCK:   -7.64 KCAL/MOL
REMARK 924 INTRA-LIGAND FREE ENERGY PREDICTED BY IDOCK:   -0.56 KCAL/MOL
REMARK 927      BINDING AFFINITY PREDICTED BY RF-SCORE:    0.00 PKD
ROOT
HETATM    1  N   UNL     1     -11.119  16.830  69.907  1.00  0.00    -0.401 N  
HETATM    2  H2  UNL     1     -10.664  17.484  69.271  1.00  0.00     0.000 HD 
HETATM    3  C   UNL     1     -11.806  15.770  69.394  1.00  0.00    -0.349 C  
HETATM    4  H1  UNL     1     -11.052  16.983  70.914  1.00  0.00     0.000 HD 
HETATM    5  O   UNL     1     -11.888  15.587  68.185  1.00  0.00    -0.301 OA 
ENDROOT
BRANCH   3   6
HETATM    6  C   UNL     1     -12.452  14.855  70.351  1.00  0.00    -0.403 A  
HETATM    7  C   UNL     1     -13.318  15.345  71.364  1.00  0.00    -0.601 A  
HETATM    8  C   UNL     1     -13.961  14.505  72.325  1.00  0.00    -0.600 A  
HETATM    9  C   UNL     1     -13.802  13.107  72.370  1.00  0.00    -0.583 A  
HETATM   10  C   UNL     1     -12.960  12.664  71.357  1.00  0.00    -0.353 A  
HETATM   11  C   UNL     1     -12.631  11.360  71.133  1.00  0.00    -0.386 A  
HETATM   12  N   UNL     1     -11.823  11.361  70.017  1.00  0.00    -0.333 NA 
HETATM   13  C   UNL     1     -12.285  13.452  70.360  1.00  0.00    -0.345 A  
HETATM   14  N   UNL     1     -11.570  12.626  69.568  1.00  0.00    -0.293 NA 
BRANCH  12  15
HETATM   15  C   UNL     1     -11.278  10.225  69.350  1.00  0.00    -0.239 A  
HETATM   16  C   UNL     1     -11.030  10.255  67.972  1.00  0.00    -0.345 A  
HETATM   17  C   UNL     1     -10.508   9.130  67.326  1.00  0.00    -0.335 A  
HETATM   18  C   UNL     1     -10.222   7.956  68.036  1.00  0.00    -0.256 A  
HETATM   19  C   UNL     1     -10.457   7.938  69.418  1.00  0.00    -0.222 A  
HETATM   20  C   UNL     1     -10.978   9.062  70.071  1.00  0.00    -0.230 A  
BRANCH  18  21
HETATM   21  C   UNL     1      -9.700   6.716  67.327  1.00  0.00    -0.166 C  
HETATM   22  C   UNL     1     -10.828   5.723  66.988  1.00  0.00    -0.328 C  
HETATM   23  C   UNL     1     -10.263   4.434  66.398  1.00  0.00    -0.184 C  
HETATM   24  C   UNL     1      -9.178   3.844  67.298  1.00  0.00    -0.176 C  
HETATM   25  N   UNL     1      -8.090   4.796  67.524  1.00  0.00    -0.101 NA 
HETATM   26  C   UNL     1      -8.593   6.024  68.155  1.00  0.00    -0.114 C  
HETATM   27  H   UNL     1      -7.579   4.996  66.665  1.00  0.00     0.000 HD 
ENDBRANCH  18  21
ENDBRANCH  12  15
ENDBRANCH   3   6
TORSDOF 3
ENDMDL
MODEL       22
REMARK 921   NORMALIZED FREE ENERGY PREDICTED BY IDOCK:   -6.38 KCAL/MOL
REMARK 922        TOTAL FREE ENERGY PREDICTED BY IDOCK:   -8.16 KCAL/MOL
REMARK 923 INTER-LIGAND FREE ENERGY PREDICTED BY IDOCK:   -7.38 KCAL/MOL
REMARK 924 INTRA-LIGAND FREE ENERGY PREDICTED BY IDOCK:   -0.78 KCAL/MOL
REMARK 927      BINDING AFFINITY PREDICTED BY RF-SCORE:    0.00 PKD
ROOT
HETATM    1  N   UNL     1      -6.330  17.722  69.145  1.00  0.00    -0.223 N  
HETATM    2  H2  UNL     1      -5.515  17.647  69.753  1.00  0.00     0.000 HD 
HETATM    3  C   UNL     1      -6.969  18.922  69.031  1.00  0.00    -0.311 C  
HETATM    4  H1  UNL     1      -6.651  16.899  68.636  1.00  0.00     0.000 HD 
HETATM    5  O   UNL     1      -6.583  19.911  69.643  1.00  0.00    -0.345 OA 
ENDROOT
BRANCH   3   6
HETATM    6  C   UNL     1      -8.144  18.980  68.145  1.00  0.00    -0.347 A  
HETATM    7  C   UNL     1      -8.431  20.143  67.381  1.00  0.00    -0.398 A  
HETATM    8  C   UNL     1      -9.562  20.258  66.516  1.00  0.00    -0.491 A  
HETATM    9  C   UNL     1     -10.510  19.235  66.332  1.00  0.00    -0.563 A  
HETATM   10  C   UNL     1     -10.190  18.111  67.083  1.00  0.00    -0.376 A  
HETATM   11  C   UNL     1     -10.911  16.953  67.097  1.00  0.00    -0.088 A  
HETATM   12  N   UNL     1     -10.225  16.093  67.927  1.00  0.00    -0.255 NA 
HETATM   13  C   UNL     1      -9.071  17.929  67.968  1.00  0.00    -0.267 A  
HETATM   14  N   UNL     1      -9.135  16.688  68.495  1.00  0.00    -0.226 NA 
BRANCH  12  15
HETATM   15  C   UNL     1     -10.546  14.733  68.209  1.00  0.00    -0.241 A  
HETATM   16  C   UNL     1     -11.831  14.373  68.635  1.00  0.00    -0.366 A  
HETATM   17  C   UNL     1     -12.129  13.038  68.922  1.00  0.00    -0.207 A  
HETATM   18  C   UNL     1     -11.159  12.035  68.789  1.00  0.00    -0.298 A  
HETATM   19  C   UNL     1      -9.880  12.399  68.346  1.00  0.00    -0.198 A  
HETATM   20  C   UNL     1      -9.575  13.735  68.056  1.00  0.00    -0.214 A  
BRANCH  18  21
HETATM   21  C   UNL     1     -11.469  10.589  69.147  1.00  0.00    -0.314 C  
HETATM   22  C   UNL     1     -11.421  10.345  70.667  1.00  0.00    -0.438 C  
HETATM   23  C   UNL     1     -11.605   8.864  70.988  1.00  0.00    -0.347 C  
HETATM   24  C   UNL     1     -10.622   8.002  70.198  1.00  0.00    -0.237 C  
HETATM   25  N   UNL     1     -10.762   8.210  68.756  1.00  0.00    -0.403 NA 
HETATM   26  C   UNL     1     -10.524   9.617  68.406  1.00  0.00    -0.223 C  
HETATM   27  H   UNL     1     -11.665   7.884  68.414  1.00  0.00     0.000 HD 
ENDBRANCH  18  21
ENDBRANCH  12  15
ENDBRANCH   3   6
TORSDOF 3
ENDMDL
MODEL       23
REMARK 921   NORMALIZED FREE ENERGY PREDICTED BY IDOCK:   -6.38 KCAL/MOL
REMARK 922        TOTAL FREE ENERGY PREDICTED BY IDOCK:   -8.16 KCAL/MOL
REMARK 923 INTER-LIGAND FREE ENERGY PREDICTED BY IDOCK:   -7.38 KCAL/MOL
REMARK 924 INTRA-LIGAND FREE ENERGY PREDICTED BY IDOCK:   -0.78 KCAL/MOL
REMARK 927      BINDING AFFINITY PREDICTED BY RF-SCORE:    0.00 PKD
ROOT
HETATM    1  N   UNL     1     -12.222  13.467  63.485  1.00  0.00    -0.897 N  
HETATM    2  H2  UNL     1     -12.953  13.389  62.777  1.00  0.00     0.000 HD 
HETATM    3  C   UNL     1     -12.038  14.658  64.123  1.00  0.00    -0.320 C  
HETATM    4  H1  UNL     1     -11.644  12.654  63.699  1.00  0.00     0.000 HD 
HETATM    5  O   UNL     1     -12.732  15.635  63.866  1.00  0.00    -0.697 OA 
ENDROOT
BRANCH   3   6
HETATM    6  C   UNL     1     -10.968  14.725  65.133  1.00  0.00    -0.403 A  
HETATM    7  C   UNL     1     -10.346  15.958  65.465  1.00  0.00    -0.425 A  
HETATM    8  C   UNL     1      -9.297  16.079  66.426  1.00  0.00    -0.329 A  
HETATM    9  C   UNL     1      -8.768  14.990  67.144  1.00  0.00    -0.242 A  
HETATM   10  C   UNL     1      -9.408  13.804  66.804  1.00  0.00    -0.276 A  
HETATM   11  C   UNL     1      -9.126  12.586  67.346  1.00  0.00    -0.185 A  
HETATM   12  N   UNL     1     -10.014  11.704  66.770  1.00  0.00    -0.202 NA 
HETATM   13  C   UNL     1     -10.467  13.615  65.850  1.00  0.00    -0.296 A  
HETATM   14  N   UNL     1     -10.800  12.306  65.830  1.00  0.00    -0.269 NA 
BRANCH  12  15
HETATM   15  C   UNL     1     -10.161  10.316  67.065  1.00  0.00    -0.228 A  
HETATM   16  C   UNL     1     -10.564   9.893  68.338  1.00  0.00    -0.258 A  
HETATM   17  C   UNL     1     -10.691   8.530  68.619  1.00  0.00    -0.082 A  
HETATM   18  C   UNL     1     -10.422   7.561  67.642  1.00  0.00    -0.319 A  
HETATM   19  C   UNL     1     -10.035   7.992  66.365  1.00  0.00    -0.215 A  
HETATM   20  C   UNL     1      -9.907   9.356  66.077  1.00  0.00    -0.366 A  
BRANCH  18  21
HETATM   21  C   UNL     1     -10.513   6.076  67.960  1.00  0.00    -0.291 C  
HETATM   22  C   UNL     1      -9.891   5.738  69.327  1.00  0.00    -0.220 C  
HETATM   23  C   UNL     1      -9.877   4.229  69.563  1.00  0.00    -0.224 C  
HETATM   24  C   UNL     1      -9.224   3.494  68.394  1.00  0.00    -0.168 C  
HETATM   25  N   UNL     1      -9.900   3.786  67.129  1.00  0.00    -0.298 NA 
HETATM   26  C   UNL     1      -9.871   5.226  66.841  1.00  0.00    -0.171 C  
HETATM   27  H   UNL     1     -10.851   3.418  67.117  1.00  0.00     0.000 HD 
ENDBRANCH  18  21
ENDBRANCH  12  15
ENDBRANCH   3   6
TORSDOF 3
ENDMDL
MODEL       24
REMARK 921   NORMALIZED FREE ENERGY PREDICTED BY IDOCK:   -6.37 KCAL/MOL
REMARK 922        TOTAL FREE ENERGY PREDICTED BY IDOCK:   -8.15 KCAL/MOL
REMARK 923 INTER-LIGAND FREE ENERGY PREDICTED BY IDOCK:   -7.40 KCAL/MOL
REMARK 924 INTRA-LIGAND FREE ENERGY PREDICTED BY IDOCK:   -0.74 KCAL/MOL
REMARK 927      BINDING AFFINITY PREDICTED BY RF-SCORE:    0.00 PKD
ROOT
HETATM    1  N   UNL     1      -6.747  17.396  69.065  1.00  0.00    -0.233 N  
HETATM    2  H2  UNL     1      -5.988  17.232  69.727  1.00  0.00     0.000 HD 
HETATM    3  C   UNL     1      -7.200  18.668  68.873  1.00  0.00    -0.285 C  
HETATM    4  H1  UNL     1      -7.150  16.606  68.562  1.00  0.00     0.000 HD 
HETATM    5  O   UNL     1      -6.715  19.617  69.477  1.00  0.00    -0.340 OA 
ENDROOT
BRANCH   3   6
HETATM    6  C   UNL     1      -8.300  18.855  67.912  1.00  0.00    -0.310 A  
HETATM    7  C   UNL     1      -8.713  20.154  67.511  1.00  0.00    -0.415 A  
HETATM    8  C   UNL     1      -9.781  20.394  66.592  1.00  0.00    -0.498 A  
HETATM    9  C   UNL     1     -10.535  19.370  65.990  1.00  0.00    -0.596 A  
HETATM   10  C   UNL     1     -10.095  18.115  66.394  1.00  0.00    -0.392 A  
HETATM   11  C   UNL     1     -10.619  16.932  65.965  1.00  0.00    -0.218 A  
HETATM   12  N   UNL     1      -9.868  15.947  66.569  1.00  0.00    -0.246 NA 
HETATM   13  C   UNL     1      -9.030  17.805  67.310  1.00  0.00    -0.246 A  
HETATM   14  N   UNL     1      -8.933  16.463  67.420  1.00  0.00    -0.190 NA 
BRANCH  12  15
HETATM   15  C   UNL     1      -9.986  14.539  66.380  1.00  0.00    -0.292 A  
HETATM   16  C   UNL     1      -9.876  13.658  67.463  1.00  0.00    -0.227 A  
HETATM   17  C   UNL     1      -9.980  12.279  67.263  1.00  0.00    -0.210 A  
HETATM   18  C   UNL     1     -10.196  11.747  65.984  1.00  0.00    -0.265 A  
HETATM   19  C   UNL     1     -10.321  12.635  64.906  1.00  0.00    -0.330 A  
HETATM   20  C   UNL     1     -10.220  14.018  65.100  1.00  0.00    -0.396 A  
BRANCH  18  21
HETATM   21  C   UNL     1     -10.261  10.245  65.758  1.00  0.00    -0.289 C  
HETATM   22  C   UNL     1     -10.533   9.474  67.063  1.00  0.00    -0.302 C  
HETATM   23  C   UNL     1     -10.463   7.966  66.832  1.00  0.00    -0.388 C  
HETATM   24  C   UNL     1      -9.154   7.573  66.149  1.00  0.00    -0.137 C  
HETATM   25  N   UNL     1      -8.980   8.272  64.875  1.00  0.00    -0.393 NA 
HETATM   26  C   UNL     1      -8.976   9.727  65.074  1.00  0.00    -0.207 C  
HETATM   27  H   UNL     1      -9.679   7.987  64.191  1.00  0.00     0.000 HD 
ENDBRANCH  18  21
ENDBRANCH  12  15
ENDBRANCH   3   6
TORSDOF 3
ENDMDL
MODEL       25
REMARK 921   NORMALIZED FREE ENERGY PREDICTED BY IDOCK:   -6.34 KCAL/MOL
REMARK 922        TOTAL FREE ENERGY PREDICTED BY IDOCK:   -8.12 KCAL/MOL
REMARK 923 INTER-LIGAND FREE ENERGY PREDICTED BY IDOCK:   -7.42 KCAL/MOL
REMARK 924 INTRA-LIGAND FREE ENERGY PREDICTED BY IDOCK:   -0.70 KCAL/MOL
REMARK 927      BINDING AFFINITY PREDICTED BY RF-SCORE:    0.00 PKD
ROOT
HETATM    1  N   UNL     1     -12.914   8.665  72.465  1.00  0.00    -0.577 N  
HETATM    2  H2  UNL     1     -13.237   8.878  73.409  1.00  0.00     0.000 HD 
HETATM    3  C   UNL     1     -11.771   7.941  72.299  1.00  0.00    -0.355 C  
HETATM    4  H1  UNL     1     -13.453   8.999  71.665  1.00  0.00     0.000 HD 
HETATM    5  O   UNL     1     -11.124   7.540  73.259  1.00  0.00    -0.378 OA 
ENDROOT
BRANCH   3   6
HETATM    6  C   UNL     1     -11.341   7.664  70.918  1.00  0.00    -0.291 A  
HETATM    7  C   UNL     1     -11.365   6.344  70.392  1.00  0.00    -0.453 A  
HETATM    8  C   UNL     1     -10.949   6.017  69.065  1.00  0.00    -0.409 A  
HETATM    9  C   UNL     1     -10.470   6.965  68.141  1.00  0.00    -0.243 A  
HETATM   10  C   UNL     1     -10.474   8.244  68.685  1.00  0.00    -0.199 A  
HETATM   11  C   UNL     1     -10.085   9.371  68.025  1.00  0.00    -0.191 A  
HETATM   12  N   UNL     1     -10.290  10.412  68.904  1.00  0.00    -0.196 NA 
HETATM   13  C   UNL     1     -10.880   8.641  70.006  1.00  0.00    -0.221 A  
HETATM   14  N   UNL     1     -10.728   9.977  70.122  1.00  0.00    -0.288 NA 
BRANCH  12  15
HETATM   15  C   UNL     1     -10.095  11.802  68.650  1.00  0.00    -0.189 A  
HETATM   16  C   UNL     1     -11.121  12.725  68.892  1.00  0.00    -0.310 A  
HETATM   17  C   UNL     1     -10.922  14.083  68.626  1.00  0.00    -0.281 A  
HETATM   18  C   UNL     1      -9.703  14.551  68.118  1.00  0.00    -0.219 A  
HETATM   19  C   UNL     1      -8.675  13.624  67.894  1.00  0.00    -0.184 A  
HETATM   20  C   UNL     1      -8.866  12.262  68.159  1.00  0.00    -0.187 A  
BRANCH  18  21
HETATM   21  C   UNL     1      -9.502  16.021  67.784  1.00  0.00    -0.217 C  
HETATM   22  C   UNL     1     -10.643  16.900  68.329  1.00  0.00    -0.363 C  
HETATM   23  C   UNL     1     -10.485  18.347  67.868  1.00  0.00    -0.416 C  
HETATM   24  C   UNL     1     -10.321  18.429  66.352  1.00  0.00    -0.405 C  
HETATM   25  N   UNL     1      -9.176  17.641  65.891  1.00  0.00    -0.518 NA 
HETATM   26  C   UNL     1      -9.331  16.228  66.262  1.00  0.00    -0.326 C  
HETATM   27  H   UNL     1      -8.295  18.026  66.229  1.00  0.00     0.000 HD 
ENDBRANCH  18  21
ENDBRANCH  12  15
ENDBRANCH   3   6
TORSDOF 3
ENDMDL
MODEL       26
REMARK 921   NORMALIZED FREE ENERGY PREDICTED BY IDOCK:   -6.31 KCAL/MOL
REMARK 922        TOTAL FREE ENERGY PREDICTED BY IDOCK:   -8.08 KCAL/MOL
REMARK 923 INTER-LIGAND FREE ENERGY PREDICTED BY IDOCK:   -7.65 KCAL/MOL
REMARK 924 INTRA-LIGAND FREE ENERGY PREDICTED BY IDOCK:   -0.43 KCAL/MOL
REMARK 927      BINDING AFFINITY PREDICTED BY RF-SCORE:    0.00 PKD
ROOT
HETATM    1  N   UNL     1     -13.490  15.651  73.007  1.00  0.00    -0.551 N  
HETATM    2  H2  UNL     1     -13.970  15.799  73.895  1.00  0.00     0.000 HD 
HETATM    3  C   UNL     1     -13.544  14.423  72.416  1.00  0.00    -0.480 C  
HETATM    4  H1  UNL     1     -12.981  16.425  72.579  1.00  0.00     0.000 HD 
HETATM    5  O   UNL     1     -14.157  13.494  72.930  1.00  0.00    -0.585 OA 
ENDROOT
BRANCH   3   6
HETATM    6  C   UNL     1     -12.833  14.256  71.138  1.00  0.00    -0.429 A  
HETATM    7  C   UNL     1     -12.573  15.366  70.291  1.00  0.00    -0.377 A  
HETATM    8  C   UNL     1     -11.898  15.260  69.036  1.00  0.00    -0.342 A  
HETATM    9  C   UNL     1     -11.423  14.046  68.507  1.00  0.00    -0.336 A  
HETATM   10  C   UNL     1     -11.682  12.986  69.367  1.00  0.00    -0.386 A  
HETATM   11  C   UNL     1     -11.323  11.691  69.136  1.00  0.00    -0.283 A  
HETATM   12  N   UNL     1     -11.725  10.985  70.249  1.00  0.00    -0.335 NA 
HETATM   13  C   UNL     1     -12.352  13.024  70.639  1.00  0.00    -0.310 A  
HETATM   14  N   UNL     1     -12.389  11.773  71.145  1.00  0.00    -0.286 NA 
BRANCH  12  15
HETATM   15  C   UNL     1     -11.511   9.600  70.511  1.00  0.00    -0.285 A  
HETATM   16  C   UNL     1     -12.080   8.987  71.635  1.00  0.00    -0.422 A  
HETATM   17  C   UNL     1     -11.851   7.632  71.889  1.00  0.00    -0.332 A  
HETATM   18  C   UNL     1     -11.055   6.859  71.032  1.00  0.00    -0.305 A  
HETATM   19  C   UNL     1     -10.503   7.474  69.900  1.00  0.00    -0.232 A  
HETATM   20  C   UNL     1     -10.729   8.831  69.639  1.00  0.00    -0.212 A  
BRANCH  18  21
HETATM   21  C   UNL     1     -10.767   5.396  71.333  1.00  0.00    -0.258 C  
HETATM   22  C   UNL     1     -10.201   5.197  72.752  1.00  0.00    -0.222 C  
HETATM   23  C   UNL     1      -9.798   3.743  72.980  1.00  0.00    -0.186 C  
HETATM   24  C   UNL     1      -8.866   3.248  71.875  1.00  0.00    -0.090 C  
HETATM   25  N   UNL     1      -9.480   3.384  70.553  1.00  0.00    -0.169 NA 
HETATM   26  C   UNL     1      -9.819   4.786  70.276  1.00  0.00    -0.242 C  
HETATM   27  H   UNL     1     -10.290   2.772  70.449  1.00  0.00     0.000 HD 
ENDBRANCH  18  21
ENDBRANCH  12  15
ENDBRANCH   3   6
TORSDOF 3
ENDMDL
MODEL       27
REMARK 921   NORMALIZED FREE ENERGY PREDICTED BY IDOCK:   -6.26 KCAL/MOL
REMARK 922        TOTAL FREE ENERGY PREDICTED BY IDOCK:   -8.03 KCAL/MOL
REMARK 923 INTER-LIGAND FREE ENERGY PREDICTED BY IDOCK:   -7.25 KCAL/MOL
REMARK 924 INTRA-LIGAND FREE ENERGY PREDICTED BY IDOCK:   -0.78 KCAL/MOL
REMARK 927      BINDING AFFINITY PREDICTED BY RF-SCORE:    0.00 PKD
ROOT
HETATM    1  N   UNL     1     -11.863   9.711  71.511  1.00  0.00    -0.390 N  
HETATM    2  H2  UNL     1     -12.097   9.738  72.504  1.00  0.00     0.000 HD 
HETATM    3  C   UNL     1     -11.082   8.697  71.039  1.00  0.00    -0.264 C  
HETATM    4  H1  UNL     1     -12.217  10.441  70.894  1.00  0.00     0.000 HD 
HETATM    5  O   UNL     1     -10.657   7.820  71.781  1.00  0.00    -0.210 OA 
ENDROOT
BRANCH   3   6
HETATM    6  C   UNL     1     -10.766   8.702  69.600  1.00  0.00    -0.204 A  
HETATM    7  C   UNL     1     -10.619   7.489  68.876  1.00  0.00    -0.184 A  
HETATM    8  C   UNL     1     -10.302   7.435  67.484  1.00  0.00    -0.320 A  
HETATM    9  C   UNL     1     -10.100   8.576  66.686  1.00  0.00    -0.364 A  
HETATM   10  C   UNL     1     -10.265   9.743  67.424  1.00  0.00    -0.284 A  
HETATM   11  C   UNL     1     -10.152  11.005  66.919  1.00  0.00    -0.210 A  
HETATM   12  N   UNL     1     -10.436  11.854  67.966  1.00  0.00    -0.202 NA 
HETATM   13  C   UNL     1     -10.585   9.867  68.820  1.00  0.00    -0.222 A  
HETATM   14  N   UNL     1     -10.655  11.178  69.132  1.00  0.00    -0.217 NA 
BRANCH  12  15
HETATM   15  C   UNL     1     -10.515  13.277  67.920  1.00  0.00    -0.240 A  
HETATM   16  C   UNL     1     -11.634  13.950  68.426  1.00  0.00    -0.368 A  
HETATM   17  C   UNL     1     -11.706  15.345  68.363  1.00  0.00    -0.332 A  
HETATM   18  C   UNL     1     -10.667  16.098  67.798  1.00  0.00    -0.325 A  
HETATM   19  C   UNL     1      -9.542  15.419  67.309  1.00  0.00    -0.213 A  
HETATM   20  C   UNL     1      -9.464  14.023  67.370  1.00  0.00    -0.225 A  
BRANCH  18  21
HETATM   21  C   UNL     1     -10.764  17.611  67.686  1.00  0.00    -0.318 C  
HETATM   22  C   UNL     1     -10.428  18.109  66.268  1.00  0.00    -0.374 C  
HETATM   23  C   UNL     1     -10.404  19.635  66.216  1.00  0.00    -0.619 C  
HETATM   24  C   UNL     1      -9.494  20.210  67.299  1.00  0.00    -0.401 C  
HETATM   25  N   UNL     1      -9.903  19.773  68.634  1.00  0.00    -0.406 NA 
HETATM   26  C   UNL     1      -9.871  18.307  68.736  1.00  0.00    -0.357 C  
HETATM   27  H   UNL     1     -10.815  20.149  68.891  1.00  0.00     0.000 HD 
ENDBRANCH  18  21
ENDBRANCH  12  15
ENDBRANCH   3   6
TORSDOF 3
ENDMDL
MODEL       28
REMARK 921   NORMALIZED FREE ENERGY PREDICTED BY IDOCK:   -6.24 KCAL/MOL
REMARK 922        TOTAL FREE ENERGY PREDICTED BY IDOCK:   -8.00 KCAL/MOL
REMARK 923 INTER-LIGAND FREE ENERGY PREDICTED BY IDOCK:   -7.42 KCAL/MOL
REMARK 924 INTRA-LIGAND FREE ENERGY PREDICTED BY IDOCK:   -0.58 KCAL/MOL
REMARK 927      BINDING AFFINITY PREDICTED BY RF-SCORE:    0.00 PKD
ROOT
HETATM    1  N   UNL     1     -10.754  16.638  69.471  1.00  0.00    -0.327 N  
HETATM    2  H2  UNL     1     -10.233  17.167  68.771  1.00  0.00     0.000 HD 
HETATM    3  C   UNL     1     -11.568  15.621  69.068  1.00  0.00    -0.386 C  
HETATM    4  H1  UNL     1     -10.654  16.882  70.456  1.00  0.00     0.000 HD 
HETATM    5  O   UNL     1     -11.687  15.329  67.884  1.00  0.00    -0.328 OA 
ENDROOT
BRANCH   3   6
HETATM    6  C   UNL     1     -12.303  14.890  70.114  1.00  0.00    -0.376 A  
HETATM    7  C   UNL     1     -13.156  15.569  71.024  1.00  0.00    -0.551 A  
HETATM    8  C   UNL     1     -13.883  14.912  72.064  1.00  0.00    -0.563 A  
HETATM    9  C   UNL     1     -13.828  13.525  72.298  1.00  0.00    -0.680 A  
HETATM   10  C   UNL     1     -12.995  12.893  71.382  1.00  0.00    -0.362 A  
HETATM   11  C   UNL     1     -12.757  11.551  71.344  1.00  0.00    -0.364 A  
HETATM   12  N   UNL     1     -11.923  11.347  70.266  1.00  0.00    -0.352 NA 
HETATM   13  C   UNL     1     -12.240  13.492  70.315  1.00  0.00    -0.347 A  
HETATM   14  N   UNL     1     -11.567  12.520  69.663  1.00  0.00    -0.277 NA 
BRANCH  12  15
HETATM   15  C   UNL     1     -11.446  10.097  69.773  1.00  0.00    -0.228 A  
HETATM   16  C   UNL     1     -11.391   8.972  70.606  1.00  0.00    -0.311 A  
HETATM   17  C   UNL     1     -10.908   7.756  70.115  1.00  0.00    -0.248 A  
HETATM   18  C   UNL     1     -10.473   7.633  68.788  1.00  0.00    -0.208 A  
HETATM   19  C   UNL     1     -10.547   8.758  67.955  1.00  0.00    -0.236 A  
HETATM   20  C   UNL     1     -11.031   9.979  68.441  1.00  0.00    -0.266 A  
BRANCH  18  21
HETATM   21  C   UNL     1      -9.904   6.323  68.265  1.00  0.00    -0.134 C  
HETATM   22  C   UNL     1      -8.380   6.398  68.051  1.00  0.00    -0.115 C  
HETATM   23  C   UNL     1      -7.856   5.119  67.404  1.00  0.00    -0.096 C  
HETATM   24  C   UNL     1      -8.636   4.781  66.135  1.00  0.00    -0.115 C  
HETATM   25  N   UNL     1     -10.068   4.641  66.406  1.00  0.00    -0.243 NA 
HETATM   26  C   UNL     1     -10.617   5.882  66.968  1.00  0.00    -0.305 C  
HETATM   27  H   UNL     1     -10.262   3.838  67.003  1.00  0.00     0.000 HD 
ENDBRANCH  18  21
ENDBRANCH  12  15
ENDBRANCH   3   6
TORSDOF 3
ENDMDL
MODEL       29
REMARK 921   NORMALIZED FREE ENERGY PREDICTED BY IDOCK:   -6.23 KCAL/MOL
REMARK 922        TOTAL FREE ENERGY PREDICTED BY IDOCK:   -7.98 KCAL/MOL
REMARK 923 INTER-LIGAND FREE ENERGY PREDICTED BY IDOCK:   -7.21 KCAL/MOL
REMARK 924 INTRA-LIGAND FREE ENERGY PREDICTED BY IDOCK:   -0.77 KCAL/MOL
REMARK 927      BINDING AFFINITY PREDICTED BY RF-SCORE:    0.00 PKD
ROOT
HETATM    1  N   UNL     1      -9.471   9.691  63.079  1.00  0.00    -0.540 N  
HETATM    2  H2  UNL     1      -9.095   9.763  62.133  1.00  0.00     0.000 HD 
HETATM    3  C   UNL     1      -8.687   9.177  64.069  1.00  0.00    -0.137 C  
HETATM    4  H1  UNL     1     -10.424  10.004  63.263  1.00  0.00     0.000 HD 
HETATM    5  O   UNL     1      -7.542   8.800  63.848  1.00  0.00    -0.113 OA 
ENDROOT
BRANCH   3   6
HETATM    6  C   UNL     1      -9.274   9.088  65.417  1.00  0.00    -0.241 A  
HETATM    7  C   UNL     1      -9.386   7.841  66.089  1.00  0.00    -0.162 A  
HETATM    8  C   UNL     1      -9.957   7.695  67.391  1.00  0.00    -0.252 A  
HETATM    9  C   UNL     1     -10.468   8.769  68.142  1.00  0.00    -0.243 A  
HETATM   10  C   UNL     1     -10.329   9.973  67.461  1.00  0.00    -0.282 A  
HETATM   11  C   UNL     1     -10.714  11.189  67.942  1.00  0.00    -0.216 A  
HETATM   12  N   UNL     1     -10.355  12.106  66.979  1.00  0.00    -0.210 NA 
HETATM   13  C   UNL     1      -9.765  10.188  66.156  1.00  0.00    -0.218 A  
HETATM   14  N   UNL     1      -9.821  11.507  65.874  1.00  0.00    -0.223 NA 
BRANCH  12  15
HETATM   15  C   UNL     1     -10.488  13.523  67.050  1.00  0.00    -0.265 A  
HETATM   16  C   UNL     1     -10.007  14.341  66.020  1.00  0.00    -0.337 A  
HETATM   17  C   UNL     1     -10.131  15.731  66.107  1.00  0.00    -0.337 A  
HETATM   18  C   UNL     1     -10.736  16.335  67.219  1.00  0.00    -0.265 A  
HETATM   19  C   UNL     1     -11.230  15.510  68.239  1.00  0.00    -0.343 A  
HETATM   20  C   UNL     1     -11.110  14.117  68.156  1.00  0.00    -0.276 A  
BRANCH  18  21
HETATM   21  C   UNL     1     -10.829  17.848  67.338  1.00  0.00    -0.218 C  
HETATM   22  C   UNL     1     -10.263  18.562  66.096  1.00  0.00    -0.424 C  
HETATM   23  C   UNL     1     -10.247  20.076  66.296  1.00  0.00    -0.595 C  
HETATM   24  C   UNL     1      -9.538  20.453  67.596  1.00  0.00    -0.378 C  
HETATM   25  N   UNL     1     -10.162  19.813  68.755  1.00  0.00    -0.561 NA 
HETATM   26  C   UNL     1     -10.132  18.350  68.622  1.00  0.00    -0.377 C  
HETATM   27  H   UNL     1     -11.108  20.158  68.912  1.00  0.00     0.000 HD 
ENDBRANCH  18  21
ENDBRANCH  12  15
ENDBRANCH   3   6
TORSDOF 3
ENDMDL
MODEL       30
REMARK 921   NORMALIZED FREE ENERGY PREDICTED BY IDOCK:   -6.19 KCAL/MOL
REMARK 922        TOTAL FREE ENERGY PREDICTED BY IDOCK:   -7.94 KCAL/MOL
REMARK 923 INTER-LIGAND FREE ENERGY PREDICTED BY IDOCK:   -7.45 KCAL/MOL
REMARK 924 INTRA-LIGAND FREE ENERGY PREDICTED BY IDOCK:   -0.49 KCAL/MOL
REMARK 927      BINDING AFFINITY PREDICTED BY RF-SCORE:    0.00 PKD
ROOT
HETATM    1  N   UNL     1     -13.239  15.190  72.623  1.00  0.00    -0.394 N  
HETATM    2  H2  UNL     1     -13.705  15.453  73.492  1.00  0.00     0.000 HD 
HETATM    3  C   UNL     1     -13.444  13.945  72.107  1.00  0.00    -0.485 C  
HETATM    4  H1  UNL     1     -12.629  15.864  72.159  1.00  0.00     0.000 HD 
HETATM    5  O   UNL     1     -14.177  13.135  72.664  1.00  0.00    -0.677 OA 
ENDROOT
BRANCH   3   6
HETATM    6  C   UNL     1     -12.747  13.609  70.854  1.00  0.00    -0.382 A  
HETATM    7  C   UNL     1     -12.568  14.577  69.831  1.00  0.00    -0.226 A  
HETATM    8  C   UNL     1     -11.910  14.303  68.592  1.00  0.00    -0.379 A  
HETATM    9  C   UNL     1     -11.373  13.046  68.256  1.00  0.00    -0.323 A  
HETATM   10  C   UNL     1     -11.554  12.130  69.285  1.00  0.00    -0.377 A  
HETATM   11  C   UNL     1     -11.124  10.836  69.259  1.00  0.00    -0.256 A  
HETATM   12  N   UNL     1     -11.464  10.302  70.483  1.00  0.00    -0.321 NA 
HETATM   13  C   UNL     1     -12.202  12.340  70.551  1.00  0.00    -0.300 A  
HETATM   14  N   UNL     1     -12.157  11.189  71.256  1.00  0.00    -0.194 NA 
BRANCH  12  15
HETATM   15  C   UNL     1     -11.164   8.994  70.963  1.00  0.00    -0.295 A  
HETATM   16  C   UNL     1     -11.398   8.649  72.300  1.00  0.00    -0.411 A  
HETATM   17  C   UNL     1     -11.086   7.367  72.762  1.00  0.00    -0.394 A  
HETATM   18  C   UNL     1     -10.538   6.402  71.905  1.00  0.00    -0.247 A  
HETATM   19  C   UNL     1     -10.322   6.748  70.564  1.00  0.00    -0.226 A  
HETATM   20  C   UNL     1     -10.633   8.031  70.095  1.00  0.00    -0.237 A  
BRANCH  18  21
HETATM   21  C   UNL     1     -10.154   5.023  72.417  1.00  0.00    -0.238 C  
HETATM   22  C   UNL     1      -9.887   4.032  71.269  1.00  0.00    -0.242 C  
HETATM   23  C   UNL     1      -9.634   2.626  71.808  1.00  0.00    -0.217 C  
HETATM   24  C   UNL     1     -10.754   2.185  72.748  1.00  0.00    -0.102 C  
HETATM   25  N   UNL     1     -10.916   3.116  73.866  1.00  0.00    -0.209 NA 
HETATM   26  C   UNL     1     -11.227   4.467  73.380  1.00  0.00    -0.315 C  
HETATM   27  H   UNL     1     -10.101   3.114  74.478  1.00  0.00     0.000 HD 
ENDBRANCH  18  21
ENDBRANCH  12  15
ENDBRANCH   3   6
TORSDOF 3
ENDMDL
MODEL       31
REMARK 921   NORMALIZED FREE ENERGY PREDICTED BY IDOCK:   -6.19 KCAL/MOL
REMARK 922        TOTAL FREE ENERGY PREDICTED BY IDOCK:   -7.94 KCAL/MOL
REMARK 923 INTER-LIGAND FREE ENERGY PREDICTED BY IDOCK:   -7.19 KCAL/MOL
REMARK 924 INTRA-LIGAND FREE ENERGY PREDICTED BY IDOCK:   -0.74 KCAL/MOL
REMARK 927      BINDING AFFINITY PREDICTED BY RF-SCORE:    0.00 PKD
ROOT
HETATM    1  N   UNL     1      -6.087   8.452  72.557  1.00  0.00    -0.067 N  
HETATM    2  H2  UNL     1      -5.129   8.778  72.684  1.00  0.00     0.000 HD 
HETATM    3  C   UNL     1      -7.008   8.689  73.534  1.00  0.00     0.052 C  
HETATM    4  H1  UNL     1      -6.336   7.955  71.701  1.00  0.00     0.000 HD 
HETATM    5  O   UNL     1      -6.709   9.286  74.562  1.00  0.00    -0.376 OA 
ENDROOT
BRANCH   3   6
HETATM    6  C   UNL     1      -8.377   8.195  73.308  1.00  0.00    -0.277 A  
HETATM    7  C   UNL     1      -8.983   7.274  74.204  1.00  0.00    -0.267 A  
HETATM    8  C   UNL     1     -10.302   6.753  74.026  1.00  0.00    -0.377 A  
HETATM    9  C   UNL     1     -11.136   7.095  72.946  1.00  0.00    -0.338 A  
HETATM   10  C   UNL     1     -10.516   8.006  72.099  1.00  0.00    -0.329 A  
HETATM   11  C   UNL     1     -11.083   8.537  70.979  1.00  0.00    -0.260 A  
HETATM   12  N   UNL     1     -10.154   9.419  70.469  1.00  0.00    -0.255 NA 
HETATM   13  C   UNL     1      -9.198   8.569  72.221  1.00  0.00    -0.272 A  
HETATM   14  N   UNL     1      -8.993   9.413  71.187  1.00  0.00    -0.270 NA 
BRANCH  12  15
HETATM   15  C   UNL     1     -10.310  10.272  69.338  1.00  0.00    -0.235 A  
HETATM   16  C   UNL     1     -11.482  11.019  69.158  1.00  0.00    -0.370 A  
HETATM   17  C   UNL     1     -11.629  11.841  68.038  1.00  0.00    -0.386 A  
HETATM   18  C   UNL     1     -10.615  11.939  67.075  1.00  0.00    -0.260 A  
HETATM   19  C   UNL     1      -9.438  11.203  67.268  1.00  0.00    -0.178 A  
HETATM   20  C   UNL     1      -9.284  10.378  68.390  1.00  0.00    -0.147 A  
BRANCH  18  21
HETATM   21  C   UNL     1     -10.792  12.797  65.831  1.00  0.00    -0.295 C  
HETATM   22  C   UNL     1     -10.379  14.260  66.073  1.00  0.00    -0.318 C  
HETATM   23  C   UNL     1     -10.691  15.124  64.853  1.00  0.00    -0.421 C  
HETATM   24  C   UNL     1     -12.146  14.963  64.418  1.00  0.00    -0.401 C  
HETATM   25  N   UNL     1     -12.467  13.565  64.123  1.00  0.00    -0.665 NA 
HETATM   26  C   UNL     1     -12.242  12.717  65.301  1.00  0.00    -0.483 C  
HETATM   27  H   UNL     1     -11.956  13.225  63.310  1.00  0.00     0.000 HD 
ENDBRANCH  18  21
ENDBRANCH  12  15
ENDBRANCH   3   6
TORSDOF 3
ENDMDL
MODEL       32
REMARK 921   NORMALIZED FREE ENERGY PREDICTED BY IDOCK:   -6.14 KCAL/MOL
REMARK 922        TOTAL FREE ENERGY PREDICTED BY IDOCK:   -7.89 KCAL/MOL
REMARK 923 INTER-LIGAND FREE ENERGY PREDICTED BY IDOCK:   -7.11 KCAL/MOL
REMARK 924 INTRA-LIGAND FREE ENERGY PREDICTED BY IDOCK:   -0.78 KCAL/MOL
REMARK 927      BINDING AFFINITY PREDICTED BY RF-SCORE:    0.00 PKD
ROOT
HETATM    1  N   UNL     1     -11.387  16.408  69.833  1.00  0.00    -0.376 N  
HETATM    2  H2  UNL     1     -11.426  16.978  70.678  1.00  0.00     0.000 HD 
HETATM    3  C   UNL     1     -10.712  16.875  68.745  1.00  0.00    -0.333 C  
HETATM    4  H1  UNL     1     -11.855  15.501  69.820  1.00  0.00     0.000 HD 
HETATM    5  O   UNL     1     -10.151  17.965  68.760  1.00  0.00    -0.367 OA 
ENDROOT
BRANCH   3   6
HETATM    6  C   UNL     1     -10.688  16.020  67.546  1.00  0.00    -0.314 A  
HETATM    7  C   UNL     1     -10.661  16.583  66.242  1.00  0.00    -0.146 A  
HETATM    8  C   UNL     1     -10.649  15.802  65.046  1.00  0.00    -0.397 A  
HETATM    9  C   UNL     1     -10.664  14.395  65.033  1.00  0.00    -0.440 A  
HETATM   10  C   UNL     1     -10.675  13.880  66.324  1.00  0.00    -0.285 A  
HETATM   11  C   UNL     1     -10.672  12.552  66.632  1.00  0.00    -0.236 A  
HETATM   12  N   UNL     1     -10.639  12.485  68.008  1.00  0.00    -0.217 NA 
HETATM   13  C   UNL     1     -10.686  14.607  67.565  1.00  0.00    -0.268 A  
HETATM   14  N   UNL     1     -10.693  13.722  68.584  1.00  0.00    -0.253 NA 
BRANCH  12  15
HETATM   15  C   UNL     1     -10.555  11.308  68.809  1.00  0.00    -0.203 A  
HETATM   16  C   UNL     1     -11.478  11.073  69.835  1.00  0.00    -0.400 A  
HETATM   17  C   UNL     1     -11.377   9.922  70.623  1.00  0.00    -0.413 A  
HETATM   18  C   UNL     1     -10.359   8.983  70.405  1.00  0.00    -0.253 A  
HETATM   19  C   UNL     1      -9.449   9.216  69.365  1.00  0.00    -0.161 A  
HETATM   20  C   UNL     1      -9.545  10.366  68.572  1.00  0.00    -0.161 A  
BRANCH  18  21
HETATM   21  C   UNL     1     -10.220   7.755  71.292  1.00  0.00    -0.218 C  
HETATM   22  C   UNL     1     -10.466   6.449  70.514  1.00  0.00    -0.270 C  
HETATM   23  C   UNL     1     -10.450   5.244  71.452  1.00  0.00    -0.273 C  
HETATM   24  C   UNL     1     -11.405   5.446  72.627  1.00  0.00    -0.266 C  
HETATM   25  N   UNL     1     -11.080   6.657  73.381  1.00  0.00    -0.495 NA 
HETATM   26  C   UNL     1     -11.153   7.845  72.520  1.00  0.00    -0.362 C  
HETATM   27  H   UNL     1     -10.175   6.582  73.844  1.00  0.00     0.000 HD 
ENDBRANCH  18  21
ENDBRANCH  12  15
ENDBRANCH   3   6
TORSDOF 3
ENDMDL
MODEL       33
REMARK 921   NORMALIZED FREE ENERGY PREDICTED BY IDOCK:   -6.13 KCAL/MOL
REMARK 922        TOTAL FREE ENERGY PREDICTED BY IDOCK:   -7.87 KCAL/MOL
REMARK 923 INTER-LIGAND FREE ENERGY PREDICTED BY IDOCK:   -7.09 KCAL/MOL
REMARK 924 INTRA-LIGAND FREE ENERGY PREDICTED BY IDOCK:   -0.78 KCAL/MOL
REMARK 927      BINDING AFFINITY PREDICTED BY RF-SCORE:    0.00 PKD
ROOT
HETATM    1  N   UNL     1     -12.084  15.677  69.287  1.00  0.00    -0.539 N  
HETATM    2  H2  UNL     1     -12.301  16.325  70.044  1.00  0.00     0.000 HD 
HETATM    3  C   UNL     1     -11.158  16.031  68.351  1.00  0.00    -0.351 C  
HETATM    4  H1  UNL     1     -12.566  14.779  69.245  1.00  0.00     0.000 HD 
HETATM    5  O   UNL     1     -10.579  17.110  68.401  1.00  0.00    -0.348 OA 
ENDROOT
BRANCH   3   6
HETATM    6  C   UNL     1     -10.882  15.065  67.274  1.00  0.00    -0.310 A  
HETATM    7  C   UNL     1     -10.784  15.484  65.920  1.00  0.00    -0.346 A  
HETATM    8  C   UNL     1     -10.530  14.589  64.835  1.00  0.00    -0.435 A  
HETATM    9  C   UNL     1     -10.354  13.202  64.993  1.00  0.00    -0.346 A  
HETATM   10  C   UNL     1     -10.443  12.832  66.330  1.00  0.00    -0.273 A  
HETATM   11  C   UNL     1     -10.295  11.559  66.796  1.00  0.00    -0.226 A  
HETATM   12  N   UNL     1     -10.410  11.645  68.167  1.00  0.00    -0.187 NA 
HETATM   13  C   UNL     1     -10.693  13.678  67.466  1.00  0.00    -0.259 A  
HETATM   14  N   UNL     1     -10.696  12.915  68.580  1.00  0.00    -0.249 NA 
BRANCH  12  15
HETATM   15  C   UNL     1     -10.261  10.586  69.109  1.00  0.00    -0.224 A  
HETATM   16  C   UNL     1      -9.010   9.995  69.331  1.00  0.00    -0.205 A  
HETATM   17  C   UNL     1      -8.879   8.949  70.248  1.00  0.00    -0.191 A  
HETATM   18  C   UNL     1      -9.985   8.470  70.963  1.00  0.00    -0.255 A  
HETATM   19  C   UNL     1     -11.231   9.077  70.749  1.00  0.00    -0.329 A  
HETATM   20  C   UNL     1     -11.369  10.127  69.833  1.00  0.00    -0.335 A  
BRANCH  18  21
HETATM   21  C   UNL     1      -9.853   7.300  71.926  1.00  0.00    -0.180 C  
HETATM   22  C   UNL     1      -9.841   5.945  71.193  1.00  0.00    -0.222 C  
HETATM   23  C   UNL     1      -9.840   4.786  72.186  1.00  0.00    -0.228 C  
HETATM   24  C   UNL     1     -10.977   4.925  73.197  1.00  0.00    -0.306 C  
HETATM   25  N   UNL     1     -10.899   6.193  73.924  1.00  0.00    -0.405 NA 
HETATM   26  C   UNL     1     -10.965   7.331  72.998  1.00  0.00    -0.344 C  
HETATM   27  H   UNL     1     -10.071   6.236  74.517  1.00  0.00     0.000 HD 
ENDBRANCH  18  21
ENDBRANCH  12  15
ENDBRANCH   3   6
TORSDOF 3
ENDMDL
MODEL       34
REMARK 921   NORMALIZED FREE ENERGY PREDICTED BY IDOCK:   -6.13 KCAL/MOL
REMARK 922        TOTAL FREE ENERGY PREDICTED BY IDOCK:   -7.87 KCAL/MOL
REMARK 923 INTER-LIGAND FREE ENERGY PREDICTED BY IDOCK:   -7.11 KCAL/MOL
REMARK 924 INTRA-LIGAND FREE ENERGY PREDICTED BY IDOCK:   -0.77 KCAL/MOL
REMARK 927      BINDING AFFINITY PREDICTED BY RF-SCORE:    0.00 PKD
ROOT
HETATM    1  N   UNL     1     -12.641  12.402  64.341  1.00  0.00    -0.607 N  
HETATM    2  H2  UNL     1     -13.506  12.248  63.822  1.00  0.00     0.000 HD 
HETATM    3  C   UNL     1     -12.520  13.514  65.120  1.00  0.00    -0.451 C  
HETATM    4  H1  UNL     1     -11.886  11.721  64.265  1.00  0.00     0.000 HD 
HETATM    5  O   UNL     1     -13.428  14.333  65.211  1.00  0.00    -0.564 OA 
ENDROOT
BRANCH   3   6
HETATM    6  C   UNL     1     -11.251  13.696  65.846  1.00  0.00    -0.311 A  
HETATM    7  C   UNL     1     -10.486  14.884  65.701  1.00  0.00    -0.366 A  
HETATM    8  C   UNL     1      -9.244  15.108  66.371  1.00  0.00    -0.334 A  
HETATM    9  C   UNL     1      -8.649  14.177  67.241  1.00  0.00    -0.231 A  
HETATM   10  C   UNL     1      -9.431  13.035  67.369  1.00  0.00    -0.210 A  
HETATM   11  C   UNL     1      -9.125  11.966  68.159  1.00  0.00    -0.190 A  
HETATM   12  N   UNL     1     -10.179  11.088  68.028  1.00  0.00    -0.174 NA 
HETATM   13  C   UNL     1     -10.686  12.748  66.728  1.00  0.00    -0.260 A  
HETATM   14  N   UNL     1     -11.108  11.530  67.130  1.00  0.00    -0.282 NA 
BRANCH  12  15
HETATM   15  C   UNL     1     -10.355   9.851  68.714  1.00  0.00    -0.203 A  
HETATM   16  C   UNL     1     -10.256   8.632  68.030  1.00  0.00    -0.261 A  
HETATM   17  C   UNL     1     -10.445   7.426  68.710  1.00  0.00    -0.215 A  
HETATM   18  C   UNL     1     -10.735   7.406  70.082  1.00  0.00    -0.254 A  
HETATM   19  C   UNL     1     -10.817   8.628  70.764  1.00  0.00    -0.272 A  
HETATM   20  C   UNL     1     -10.627   9.840  70.088  1.00  0.00    -0.337 A  
BRANCH  18  21
HETATM   21  C   UNL     1     -10.988   6.096  70.813  1.00  0.00    -0.365 C  
HETATM   22  C   UNL     1     -11.411   6.323  72.276  1.00  0.00    -0.351 C  
HETATM   23  C   UNL     1     -11.530   4.996  73.022  1.00  0.00    -0.344 C  
HETATM   24  C   UNL     1     -10.258   4.163  72.874  1.00  0.00    -0.165 C  
HETATM   25  N   UNL     1      -9.943   3.907  71.468  1.00  0.00    -0.171 NA 
HETATM   26  C   UNL     1      -9.755   5.168  70.737  1.00  0.00    -0.190 C  
HETATM   27  H   UNL     1     -10.645   3.316  71.026  1.00  0.00     0.000 HD 
ENDBRANCH  18  21
ENDBRANCH  12  15
ENDBRANCH   3   6
TORSDOF 3
ENDMDL
MODEL       35
REMARK 921   NORMALIZED FREE ENERGY PREDICTED BY IDOCK:   -6.12 KCAL/MOL
REMARK 922        TOTAL FREE ENERGY PREDICTED BY IDOCK:   -7.86 KCAL/MOL
REMARK 923 INTER-LIGAND FREE ENERGY PREDICTED BY IDOCK:   -7.25 KCAL/MOL
REMARK 924 INTRA-LIGAND FREE ENERGY PREDICTED BY IDOCK:   -0.61 KCAL/MOL
REMARK 927      BINDING AFFINITY PREDICTED BY RF-SCORE:    0.00 PKD
ROOT
HETATM    1  N   UNL     1     -10.775  16.459  69.569  1.00  0.00    -0.309 N  
HETATM    2  H2  UNL     1     -10.220  16.936  68.859  1.00  0.00     0.000 HD 
HETATM    3  C   UNL     1     -11.669  15.503  69.185  1.00  0.00    -0.365 C  
HETATM    4  H1  UNL     1     -10.651  16.707  70.551  1.00  0.00     0.000 HD 
HETATM    5  O   UNL     1     -11.819  15.205  68.006  1.00  0.00    -0.331 OA 
ENDROOT
BRANCH   3   6
HETATM    6  C   UNL     1     -12.451  14.844  70.246  1.00  0.00    -0.386 A  
HETATM    7  C   UNL     1     -13.403  15.567  71.013  1.00  0.00    -0.495 A  
HETATM    8  C   UNL     1     -14.180  14.983  72.060  1.00  0.00    -0.649 A  
HETATM    9  C   UNL     1     -14.082  13.632  72.442  1.00  0.00    -0.586 A  
HETATM   10  C   UNL     1     -13.153  12.954  71.662  1.00  0.00    -0.430 A  
HETATM   11  C   UNL     1     -12.855  11.629  71.783  1.00  0.00    -0.313 A  
HETATM   12  N   UNL     1     -11.930  11.360  70.797  1.00  0.00    -0.320 NA 
HETATM   13  C   UNL     1     -12.343  13.479  70.596  1.00  0.00    -0.358 A  
HETATM   14  N   UNL     1     -11.579  12.482  70.102  1.00  0.00    -0.155 NA 
BRANCH  12  15
HETATM   15  C   UNL     1     -11.361  10.093  70.475  1.00  0.00    -0.338 A  
HETATM   16  C   UNL     1     -10.950   9.803  69.168  1.00  0.00    -0.205 A  
HETATM   17  C   UNL     1     -10.407   8.552  68.862  1.00  0.00    -0.226 A  
HETATM   18  C   UNL     1     -10.260   7.566  69.847  1.00  0.00    -0.210 A  
HETATM   19  C   UNL     1     -10.659   7.868  71.157  1.00  0.00    -0.238 A  
HETATM   20  C   UNL     1     -11.202   9.120  71.471  1.00  0.00    -0.430 A  
BRANCH  18  21
HETATM   21  C   UNL     1      -9.714   6.188  69.506  1.00  0.00    -0.175 C  
HETATM   22  C   UNL     1     -10.330   5.086  70.388  1.00  0.00    -0.297 C  
HETATM   23  C   UNL     1      -9.670   3.736  70.116  1.00  0.00    -0.217 C  
HETATM   24  C   UNL     1      -8.150   3.832  70.228  1.00  0.00    -0.049 C  
HETATM   25  N   UNL     1      -7.605   4.836  69.314  1.00  0.00    -0.056 NA 
HETATM   26  C   UNL     1      -8.172   6.162  69.595  1.00  0.00    -0.116 C  
HETATM   27  H   UNL     1      -7.737   4.569  68.339  1.00  0.00     0.000 HD 
ENDBRANCH  18  21
ENDBRANCH  12  15
ENDBRANCH   3   6
TORSDOF 3
ENDMDL
MODEL       36
REMARK 921   NORMALIZED FREE ENERGY PREDICTED BY IDOCK:   -6.06 KCAL/MOL
REMARK 922        TOTAL FREE ENERGY PREDICTED BY IDOCK:   -7.79 KCAL/MOL
REMARK 923 INTER-LIGAND FREE ENERGY PREDICTED BY IDOCK:   -7.01 KCAL/MOL
REMARK 924 INTRA-LIGAND FREE ENERGY PREDICTED BY IDOCK:   -0.78 KCAL/MOL
REMARK 927      BINDING AFFINITY PREDICTED BY RF-SCORE:    0.00 PKD
ROOT
HETATM    1  N   UNL     1     -11.160  17.414  65.019  1.00  0.00     0.094 N  
HETATM    2  H2  UNL     1     -11.849  17.549  64.279  1.00  0.00     0.000 HD 
HETATM    3  C   UNL     1     -10.661  18.502  65.671  1.00  0.00    -0.111 C  
HETATM    4  H1  UNL     1     -10.858  16.468  65.254  1.00  0.00     0.000 HD 
HETATM    5  O   UNL     1     -11.023  19.638  65.388  1.00  0.00    -0.438 OA 
ENDROOT
BRANCH   3   6
HETATM    6  C   UNL     1      -9.664  18.259  66.728  1.00  0.00    -0.322 A  
HETATM    7  C   UNL     1      -8.635  19.200  66.997  1.00  0.00    -0.309 A  
HETATM    8  C   UNL     1      -7.636  19.009  68.001  1.00  0.00    -0.300 A  
HETATM    9  C   UNL     1      -7.566  17.871  68.825  1.00  0.00    -0.271 A  
HETATM   10  C   UNL     1      -8.595  16.980  68.542  1.00  0.00    -0.257 A  
HETATM   11  C   UNL     1      -8.799  15.797  69.189  1.00  0.00    -0.250 A  
HETATM   12  N   UNL     1      -9.940  15.258  68.635  1.00  0.00    -0.210 NA 
HETATM   13  C   UNL     1      -9.629  17.111  67.552  1.00  0.00    -0.254 A  
HETATM   14  N   UNL     1     -10.425  16.023  67.612  1.00  0.00    -0.286 NA 
BRANCH  12  15
HETATM   15  C   UNL     1     -10.599  14.056  69.025  1.00  0.00    -0.187 A  
HETATM   16  C   UNL     1     -11.562  14.064  70.042  1.00  0.00    -0.302 A  
HETATM   17  C   UNL     1     -12.192  12.877  70.426  1.00  0.00    -0.381 A  
HETATM   18  C   UNL     1     -11.879  11.659  69.806  1.00  0.00    -0.428 A  
HETATM   19  C   UNL     1     -10.926  11.660  68.777  1.00  0.00    -0.274 A  
HETATM   20  C   UNL     1     -10.293  12.847  68.387  1.00  0.00    -0.249 A  
BRANCH  18  21
HETATM   21  C   UNL     1     -12.528  10.359  70.254  1.00  0.00    -0.296 C  
HETATM   22  C   UNL     1     -13.182  10.486  71.643  1.00  0.00    -0.493 C  
HETATM   23  C   UNL     1     -13.709   9.137  72.125  1.00  0.00    -0.531 C  
HETATM   24  C   UNL     1     -12.624   8.064  72.056  1.00  0.00    -0.312 C  
HETATM   25  N   UNL     1     -12.091   7.925  70.700  1.00  0.00    -0.492 NA 
HETATM   26  C   UNL     1     -11.514   9.193  70.232  1.00  0.00    -0.146 C  
HETATM   27  H   UNL     1     -12.794   7.569  70.053  1.00  0.00     0.000 HD 
ENDBRANCH  18  21
ENDBRANCH  12  15
ENDBRANCH   3   6
TORSDOF 3
ENDMDL
MODEL       37
REMARK 921   NORMALIZED FREE ENERGY PREDICTED BY IDOCK:   -6.06 KCAL/MOL
REMARK 922        TOTAL FREE ENERGY PREDICTED BY IDOCK:   -7.79 KCAL/MOL
REMARK 923 INTER-LIGAND FREE ENERGY PREDICTED BY IDOCK:   -7.16 KCAL/MOL
REMARK 924 INTRA-LIGAND FREE ENERGY PREDICTED BY IDOCK:   -0.63 KCAL/MOL
REMARK 927      BINDING AFFINITY PREDICTED BY RF-SCORE:    0.00 PKD
ROOT
HETATM    1  N   UNL     1     -11.385   4.949  65.397  1.00  0.00    -0.927 N  
HETATM    2  H2  UNL     1     -11.326   4.524  64.472  1.00  0.00     0.000 HD 
HETATM    3  C   UNL     1     -10.240   5.166  66.105  1.00  0.00    -0.222 C  
HETATM    4  H1  UNL     1     -12.299   5.202  65.773  1.00  0.00     0.000 HD 
HETATM    5  O   UNL     1      -9.143   4.861  65.653  1.00  0.00    -0.142 OA 
ENDROOT
BRANCH   3   6
HETATM    6  C   UNL     1     -10.376   5.777  67.438  1.00  0.00    -0.279 A  
HETATM    7  C   UNL     1     -10.465   4.976  68.608  1.00  0.00    -0.027 A  
HETATM    8  C   UNL     1     -10.609   5.515  69.923  1.00  0.00    -0.387 A  
HETATM    9  C   UNL     1     -10.680   6.894  70.197  1.00  0.00    -0.270 A  
HETATM   10  C   UNL     1     -10.576   7.645  69.033  1.00  0.00    -0.186 A  
HETATM   11  C   UNL     1     -10.592   9.007  68.982  1.00  0.00    -0.190 A  
HETATM   12  N   UNL     1     -10.417   9.336  67.655  1.00  0.00    -0.253 NA 
HETATM   13  C   UNL     1     -10.428   7.168  67.684  1.00  0.00    -0.239 A  
HETATM   14  N   UNL     1     -10.362   8.231  66.855  1.00  0.00    -0.321 NA 
BRANCH  12  15
HETATM   15  C   UNL     1     -10.296  10.645  67.103  1.00  0.00    -0.228 A  
HETATM   16  C   UNL     1      -9.653  11.666  67.814  1.00  0.00    -0.178 A  
HETATM   17  C   UNL     1      -9.553  12.949  67.268  1.00  0.00    -0.220 A  
HETATM   18  C   UNL     1     -10.087  13.242  66.006  1.00  0.00    -0.301 A  
HETATM   19  C   UNL     1     -10.714  12.212  65.292  1.00  0.00    -0.328 A  
HETATM   20  C   UNL     1     -10.817  10.924  65.833  1.00  0.00    -0.132 A  
BRANCH  18  21
HETATM   21  C   UNL     1     -10.020  14.649  65.431  1.00  0.00    -0.365 C  
HETATM   22  C   UNL     1      -9.401  15.651  66.423  1.00  0.00    -0.332 C  
HETATM   23  C   UNL     1      -9.467  17.074  65.874  1.00  0.00    -0.116 C  
HETATM   24  C   UNL     1     -10.888  17.435  65.445  1.00  0.00     0.020 C  
HETATM   25  N   UNL     1     -11.402  16.500  64.443  1.00  0.00    -1.197 NA 
HETATM   26  C   UNL     1     -11.414  15.128  64.967  1.00  0.00    -0.339 C  
HETATM   27  H   UNL     1     -10.884  16.565  63.567  1.00  0.00     0.000 HD 
ENDBRANCH  18  21
ENDBRANCH  12  15
ENDBRANCH   3   6
TORSDOF 3
ENDMDL
MODEL       38
REMARK 921   NORMALIZED FREE ENERGY PREDICTED BY IDOCK:   -5.99 KCAL/MOL
REMARK 922        TOTAL FREE ENERGY PREDICTED BY IDOCK:   -7.71 KCAL/MOL
REMARK 923 INTER-LIGAND FREE ENERGY PREDICTED BY IDOCK:   -7.34 KCAL/MOL
REMARK 924 INTRA-LIGAND FREE ENERGY PREDICTED BY IDOCK:   -0.36 KCAL/MOL
REMARK 927      BINDING AFFINITY PREDICTED BY RF-SCORE:    0.00 PKD
ROOT
HETATM    1  N   UNL     1      -9.663   7.230  66.161  1.00  0.00    -0.425 N  
HETATM    2  H2  UNL     1      -9.358   6.978  65.221  1.00  0.00     0.000 HD 
HETATM    3  C   UNL     1     -10.025   8.518  66.422  1.00  0.00    -0.244 C  
HETATM    4  H1  UNL     1      -9.690   6.512  66.886  1.00  0.00     0.000 HD 
HETATM    5  O   UNL     1      -9.992   9.380  65.552  1.00  0.00    -0.281 OA 
ENDROOT
BRANCH   3   6
HETATM    6  C   UNL     1     -10.453   8.835  67.795  1.00  0.00    -0.292 A  
HETATM    7  C   UNL     1     -10.606   7.814  68.771  1.00  0.00    -0.161 A  
HETATM    8  C   UNL     1     -11.029   8.062  70.113  1.00  0.00    -0.226 A  
HETATM    9  C   UNL     1     -11.341   9.342  70.608  1.00  0.00    -0.352 A  
HETATM   10  C   UNL     1     -11.167  10.316  69.631  1.00  0.00    -0.322 A  
HETATM   11  C   UNL     1     -11.372  11.651  69.818  1.00  0.00    -0.200 A  
HETATM   12  N   UNL     1     -11.042  12.253  68.623  1.00  0.00    -0.233 NA 
HETATM   13  C   UNL     1     -10.743  10.134  68.269  1.00  0.00    -0.238 A  
HETATM   14  N   UNL     1     -10.704  11.341  67.664  1.00  0.00    -0.212 NA 
BRANCH  12  15
HETATM   15  C   UNL     1     -11.027  13.650  68.341  1.00  0.00    -0.262 A  
HETATM   16  C   UNL     1     -10.705  14.120  67.061  1.00  0.00    -0.285 A  
HETATM   17  C   UNL     1     -10.680  15.493  66.800  1.00  0.00    -0.305 A  
HETATM   18  C   UNL     1     -10.976  16.426  67.804  1.00  0.00    -0.261 A  
HETATM   19  C   UNL     1     -11.315  15.949  69.078  1.00  0.00    -0.371 A  
HETATM   20  C   UNL     1     -11.343  14.575  69.346  1.00  0.00    -0.314 A  
BRANCH  18  21
HETATM   21  C   UNL     1     -10.903  17.921  67.534  1.00  0.00    -0.239 C  
HETATM   22  C   UNL     1     -10.350  18.230  66.130  1.00  0.00    -0.414 C  
HETATM   23  C   UNL     1     -10.164  19.732  65.935  1.00  0.00    -0.556 C  
HETATM   24  C   UNL     1      -9.334  20.337  67.066  1.00  0.00    -0.395 C  
HETATM   25  N   UNL     1      -9.943  20.086  68.373  1.00  0.00    -0.389 NA 
HETATM   26  C   UNL     1     -10.074  18.643  68.620  1.00  0.00    -0.368 C  
HETATM   27  H   UNL     1     -10.835  20.568  68.473  1.00  0.00     0.000 HD 
ENDBRANCH  18  21
ENDBRANCH  12  15
ENDBRANCH   3   6
TORSDOF 3
ENDMDL
MODEL       39
REMARK 921   NORMALIZED FREE ENERGY PREDICTED BY IDOCK:   -5.97 KCAL/MOL
REMARK 922        TOTAL FREE ENERGY PREDICTED BY IDOCK:   -7.68 KCAL/MOL
REMARK 923 INTER-LIGAND FREE ENERGY PREDICTED BY IDOCK:   -7.32 KCAL/MOL
REMARK 924 INTRA-LIGAND FREE ENERGY PREDICTED BY IDOCK:   -0.36 KCAL/MOL
REMARK 927      BINDING AFFINITY PREDICTED BY RF-SCORE:    0.00 PKD
ROOT
HETATM    1  N   UNL     1      -9.392   2.669  69.491  1.00  0.00    -0.134 N  
HETATM    2  H2  UNL     1      -9.151   2.361  68.549  1.00  0.00     0.000 HD 
HETATM    3  C   UNL     1      -9.627   3.993  69.719  1.00  0.00    -0.210 C  
HETATM    4  H1  UNL     1      -9.452   1.981  70.242  1.00  0.00     0.000 HD 
HETATM    5  O   UNL     1      -9.555   4.820  68.817  1.00  0.00    -0.141 OA 
ENDROOT
BRANCH   3   6
HETATM    6  C   UNL     1      -9.967   4.391  71.096  1.00  0.00    -0.243 A  
HETATM    7  C   UNL     1      -9.808   3.490  72.182  1.00  0.00    -0.238 A  
HETATM    8  C   UNL     1     -10.132   3.819  73.534  1.00  0.00    -0.195 A  
HETATM    9  C   UNL     1     -10.645   5.068  73.931  1.00  0.00    -0.340 A  
HETATM   10  C   UNL     1     -10.774   5.927  72.846  1.00  0.00    -0.281 A  
HETATM   11  C   UNL     1     -11.225   7.212  72.920  1.00  0.00    -0.262 A  
HETATM   12  N   UNL     1     -11.150   7.711  71.638  1.00  0.00    -0.236 NA 
HETATM   13  C   UNL     1     -10.465   5.661  71.467  1.00  0.00    -0.239 A  
HETATM   14  N   UNL     1     -10.734   6.768  70.743  1.00  0.00    -0.226 NA 
BRANCH  12  15
HETATM   15  C   UNL     1     -11.448   9.040  71.215  1.00  0.00    -0.320 A  
HETATM   16  C   UNL     1     -12.512   9.751  71.783  1.00  0.00    -0.485 A  
HETATM   17  C   UNL     1     -12.804  11.048  71.350  1.00  0.00    -0.548 A  
HETATM   18  C   UNL     1     -12.043  11.664  70.346  1.00  0.00    -0.462 A  
HETATM   19  C   UNL     1     -10.969  10.953  69.793  1.00  0.00    -0.290 A  
HETATM   20  C   UNL     1     -10.671   9.654  70.224  1.00  0.00    -0.335 A  
BRANCH  18  21
HETATM   21  C   UNL     1     -12.388  13.056  69.840  1.00  0.00    -0.177 C  
HETATM   22  C   UNL     1     -11.225  13.692  69.056  1.00  0.00    -0.316 C  
HETATM   23  C   UNL     1     -11.548  15.135  68.675  1.00  0.00    -0.358 C  
HETATM   24  C   UNL     1     -11.979  15.945  69.896  1.00  0.00    -0.269 C  
HETATM   25  N   UNL     1     -13.137  15.344  70.559  1.00  0.00    -0.677 NA 
HETATM   26  C   UNL     1     -12.834  13.975  70.999  1.00  0.00    -0.340 C  
HETATM   27  H   UNL     1     -13.968  15.376  69.969  1.00  0.00     0.000 HD 
ENDBRANCH  18  21
ENDBRANCH  12  15
ENDBRANCH   3   6
TORSDOF 3
ENDMDL
MODEL       40
REMARK 921   NORMALIZED FREE ENERGY PREDICTED BY IDOCK:   -5.90 KCAL/MOL
REMARK 922        TOTAL FREE ENERGY PREDICTED BY IDOCK:   -7.60 KCAL/MOL
REMARK 923 INTER-LIGAND FREE ENERGY PREDICTED BY IDOCK:   -6.81 KCAL/MOL
REMARK 924 INTRA-LIGAND FREE ENERGY PREDICTED BY IDOCK:   -0.79 KCAL/MOL
REMARK 927      BINDING AFFINITY PREDICTED BY RF-SCORE:    0.00 PKD
ROOT
HETATM    1  N   UNL     1     -11.245  12.365  63.359  1.00  0.00    -0.623 N  
HETATM    2  H2  UNL     1     -11.730  11.894  62.595  1.00  0.00     0.000 HD 
HETATM    3  C   UNL     1     -11.736  13.546  63.832  1.00  0.00    -0.368 C  
HETATM    4  H1  UNL     1     -10.403  11.943  63.752  1.00  0.00     0.000 HD 
HETATM    5  O   UNL     1     -12.747  14.053  63.359  1.00  0.00    -0.796 OA 
ENDROOT
BRANCH   3   6
HETATM    6  C   UNL     1     -10.999  14.192  64.931  1.00  0.00    -0.405 A  
HETATM    7  C   UNL     1     -10.668  15.572  64.882  1.00  0.00    -0.415 A  
HETATM    8  C   UNL     1      -9.945  16.247  65.914  1.00  0.00    -0.366 A  
HETATM    9  C   UNL     1      -9.484  15.615  67.084  1.00  0.00    -0.226 A  
HETATM   10  C   UNL     1      -9.837  14.271  67.103  1.00  0.00    -0.252 A  
HETATM   11  C   UNL     1      -9.547  13.405  68.115  1.00  0.00    -0.222 A  
HETATM   12  N   UNL     1     -10.115  12.202  67.755  1.00  0.00    -0.195 NA 
HETATM   13  C   UNL     1     -10.562  13.534  66.103  1.00  0.00    -0.290 A  
HETATM   14  N   UNL     1     -10.693  12.256  66.519  1.00  0.00    -0.240 NA 
BRANCH  12  15
HETATM   15  C   UNL     1     -10.142  11.001  68.523  1.00  0.00    -0.190 A  
HETATM   16  C   UNL     1     -11.324  10.570  69.139  1.00  0.00    -0.319 A  
HETATM   17  C   UNL     1     -11.335   9.398  69.901  1.00  0.00    -0.121 A  
HETATM   18  C   UNL     1     -10.173   8.630  70.063  1.00  0.00    -0.201 A  
HETATM   19  C   UNL     1      -8.998   9.057  69.430  1.00  0.00    -0.145 A  
HETATM   20  C   UNL     1      -8.981  10.230  68.665  1.00  0.00    -0.144 A  
BRANCH  18  21
HETATM   21  C   UNL     1     -10.172   7.381  70.931  1.00  0.00    -0.195 C  
HETATM   22  C   UNL     1     -11.484   7.223  71.721  1.00  0.00    -0.300 C  
HETATM   23  C   UNL     1     -11.405   6.037  72.680  1.00  0.00    -0.320 C  
HETATM   24  C   UNL     1     -10.164   6.125  73.566  1.00  0.00    -0.227 C  
HETATM   25  N   UNL     1      -8.938   6.193  72.769  1.00  0.00    -0.127 NA 
HETATM   26  C   UNL     1      -8.955   7.364  71.882  1.00  0.00    -0.125 C  
HETATM   27  H   UNL     1      -8.778   5.330  72.250  1.00  0.00     0.000 HD 
ENDBRANCH  18  21
ENDBRANCH  12  15
ENDBRANCH   3   6
TORSDOF 3
ENDMDL
MODEL       41
REMARK 921   NORMALIZED FREE ENERGY PREDICTED BY IDOCK:   -5.81 KCAL/MOL
REMARK 922        TOTAL FREE ENERGY PREDICTED BY IDOCK:   -7.49 KCAL/MOL
REMARK 923 INTER-LIGAND FREE ENERGY PREDICTED BY IDOCK:   -7.13 KCAL/MOL
REMARK 924 INTRA-LIGAND FREE ENERGY PREDICTED BY IDOCK:   -0.36 KCAL/MOL
REMARK 927      BINDING AFFINITY PREDICTED BY RF-SCORE:    0.00 PKD
ROOT
HETATM    1  N   UNL     1      -9.867   3.837  69.584  1.00  0.00    -0.097 N  
HETATM    2  H2  UNL     1      -9.666   3.258  68.769  1.00  0.00     0.000 HD 
HETATM    3  C   UNL     1     -10.253   5.132  69.402  1.00  0.00    -0.223 C  
HETATM    4  H1  UNL     1      -9.774   3.436  70.518  1.00  0.00     0.000 HD 
HETATM    5  O   UNL     1     -10.364   5.615  68.281  1.00  0.00    -0.178 OA 
ENDROOT
BRANCH   3   6
HETATM    6  C   UNL     1     -10.528   5.931  70.609  1.00  0.00    -0.316 A  
HETATM    7  C   UNL     1     -10.493   5.345  71.902  1.00  0.00    -0.283 A  
HETATM    8  C   UNL     1     -10.762   6.069  73.104  1.00  0.00    -0.285 A  
HETATM    9  C   UNL     1     -11.093   7.437  73.132  1.00  0.00    -0.357 A  
HETATM   10  C   UNL     1     -11.104   7.979  71.853  1.00  0.00    -0.333 A  
HETATM   11  C   UNL     1     -11.370   9.285  71.563  1.00  0.00    -0.385 A  
HETATM   12  N   UNL     1     -11.230   9.403  70.198  1.00  0.00    -0.239 NA 
HETATM   13  C   UNL     1     -10.841   7.309  70.607  1.00  0.00    -0.242 A  
HETATM   14  N   UNL     1     -10.955   8.205  69.604  1.00  0.00    -0.153 NA 
BRANCH  12  15
HETATM   15  C   UNL     1     -11.341  10.595  69.423  1.00  0.00    -0.284 A  
HETATM   16  C   UNL     1     -11.786  11.789  70.004  1.00  0.00    -0.422 A  
HETATM   17  C   UNL     1     -11.903  12.947  69.231  1.00  0.00    -0.363 A  
HETATM   18  C   UNL     1     -11.580  12.943  67.867  1.00  0.00    -0.391 A  
HETATM   19  C   UNL     1     -11.119  11.749  67.295  1.00  0.00    -0.342 A  
HETATM   20  C   UNL     1     -10.998  10.585  68.065  1.00  0.00    -0.345 A  
BRANCH  18  21
HETATM   21  C   UNL     1     -11.752  14.191  67.014  1.00  0.00    -0.430 C  
HETATM   22  C   UNL     1     -11.567  13.896  65.514  1.00  0.00    -0.332 C  
HETATM   23  C   UNL     1     -11.614  15.184  64.694  1.00  0.00    -0.357 C  
HETATM   24  C   UNL     1     -10.635  16.222  65.240  1.00  0.00    -0.336 C  
HETATM   25  N   UNL     1     -10.903  16.527  66.647  1.00  0.00    -0.137 NA 
HETATM   26  C   UNL     1     -10.798  15.316  67.473  1.00  0.00    -0.304 C  
HETATM   27  H   UNL     1     -11.803  16.989  66.767  1.00  0.00     0.000 HD 
ENDBRANCH  18  21
ENDBRANCH  12  15
ENDBRANCH   3   6
TORSDOF 3
ENDMDL
MODEL       42
REMARK 921   NORMALIZED FREE ENERGY PREDICTED BY IDOCK:   -5.78 KCAL/MOL
REMARK 922        TOTAL FREE ENERGY PREDICTED BY IDOCK:   -7.46 KCAL/MOL
REMARK 923 INTER-LIGAND FREE ENERGY PREDICTED BY IDOCK:   -6.72 KCAL/MOL
REMARK 924 INTRA-LIGAND FREE ENERGY PREDICTED BY IDOCK:   -0.74 KCAL/MOL
REMARK 927      BINDING AFFINITY PREDICTED BY RF-SCORE:    0.00 PKD
ROOT
HETATM    1  N   UNL     1      -6.622  17.935  69.141  1.00  0.00    -0.239 N  
HETATM    2  H2  UNL     1      -5.830  17.984  69.782  1.00  0.00     0.000 HD 
HETATM    3  C   UNL     1      -7.252  19.086  68.771  1.00  0.00    -0.323 C  
HETATM    4  H1  UNL     1      -6.924  17.027  68.790  1.00  0.00     0.000 HD 
HETATM    5  O   UNL     1      -6.889  20.178  69.193  1.00  0.00    -0.281 OA 
ENDROOT
BRANCH   3   6
HETATM    6  C   UNL     1      -8.393  18.965  67.848  1.00  0.00    -0.310 A  
HETATM    7  C   UNL     1      -8.966  20.111  67.233  1.00  0.00    -0.458 A  
HETATM    8  C   UNL     1     -10.080  20.052  66.340  1.00  0.00    -0.609 A  
HETATM    9  C   UNL     1     -10.726  18.856  65.977  1.00  0.00    -0.373 A  
HETATM   10  C   UNL     1     -10.131  17.757  66.585  1.00  0.00    -0.350 A  
HETATM   11  C   UNL     1     -10.524  16.464  66.410  1.00  0.00    -0.286 A  
HETATM   12  N   UNL     1      -9.646  15.701  67.148  1.00  0.00    -0.216 NA 
HETATM   13  C   UNL     1      -9.012  17.746  67.488  1.00  0.00    -0.244 A  
HETATM   14  N   UNL     1      -8.755  16.469  67.841  1.00  0.00    -0.186 NA 
BRANCH  12  15
HETATM   15  C   UNL     1      -9.603  14.278  67.230  1.00  0.00    -0.232 A  
HETATM   16  C   UNL     1     -10.439  13.488  66.431  1.00  0.00    -0.287 A  
HETATM   17  C   UNL     1     -10.398  12.095  66.530  1.00  0.00    -0.239 A  
HETATM   18  C   UNL     1      -9.525  11.458  67.424  1.00  0.00    -0.174 A  
HETATM   19  C   UNL     1      -8.680  12.254  68.210  1.00  0.00    -0.178 A  
HETATM   20  C   UNL     1      -8.715  13.651  68.114  1.00  0.00    -0.177 A  
BRANCH  18  21
HETATM   21  C   UNL     1      -9.513   9.944  67.568  1.00  0.00    -0.173 C  
HETATM   22  C   UNL     1      -9.311   9.236  66.216  1.00  0.00    -0.257 C  
HETATM   23  C   UNL     1      -9.435   7.721  66.369  1.00  0.00    -0.245 C  
HETATM   24  C   UNL     1     -10.737   7.342  67.070  1.00  0.00    -0.336 C  
HETATM   25  N   UNL     1     -10.846   7.977  68.384  1.00  0.00    -0.432 NA 
HETATM   26  C   UNL     1     -10.798   9.440  68.263  1.00  0.00    -0.112 C  
HETATM   27  H   UNL     1     -10.139   7.628  69.031  1.00  0.00     0.000 HD 
ENDBRANCH  18  21
ENDBRANCH  12  15
ENDBRANCH   3   6
TORSDOF 3
ENDMDL
MODEL       43
REMARK 921   NORMALIZED FREE ENERGY PREDICTED BY IDOCK:   -5.73 KCAL/MOL
REMARK 922        TOTAL FREE ENERGY PREDICTED BY IDOCK:   -7.40 KCAL/MOL
REMARK 923 INTER-LIGAND FREE ENERGY PREDICTED BY IDOCK:   -6.62 KCAL/MOL
REMARK 924 INTRA-LIGAND FREE ENERGY PREDICTED BY IDOCK:   -0.78 KCAL/MOL
REMARK 927      BINDING AFFINITY PREDICTED BY RF-SCORE:    0.00 PKD
ROOT
HETATM    1  N   UNL     1     -12.733   6.764  72.067  1.00  0.00    -0.541 N  
HETATM    2  H2  UNL     1     -13.664   6.357  71.976  1.00  0.00     0.000 HD 
HETATM    3  C   UNL     1     -11.738   6.030  72.642  1.00  0.00    -0.175 C  
HETATM    4  H1  UNL     1     -12.566   7.711  71.726  1.00  0.00     0.000 HD 
HETATM    5  O   UNL     1     -11.938   4.892  73.051  1.00  0.00    -0.209 OA 
ENDROOT
BRANCH   3   6
HETATM    6  C   UNL     1     -10.412   6.661  72.756  1.00  0.00    -0.243 A  
HETATM    7  C   UNL     1      -9.495   6.266  73.767  1.00  0.00    -0.164 A  
HETATM    8  C   UNL     1      -8.202   6.852  73.931  1.00  0.00    -0.146 A  
HETATM    9  C   UNL     1      -7.703   7.882  73.111  1.00  0.00    -0.174 A  
HETATM   10  C   UNL     1      -8.620   8.232  72.127  1.00  0.00    -0.249 A  
HETATM   11  C   UNL     1      -8.413   9.184  71.174  1.00  0.00    -0.113 A  
HETATM   12  N   UNL     1      -9.542   9.177  70.383  1.00  0.00    -0.206 NA 
HETATM   13  C   UNL     1      -9.931   7.683  71.907  1.00  0.00    -0.176 A  
HETATM   14  N   UNL     1     -10.486   8.304  70.844  1.00  0.00    -0.194 NA 
BRANCH  12  15
HETATM   15  C   UNL     1      -9.773   9.952  69.209  1.00  0.00    -0.208 A  
HETATM   16  C   UNL     1      -8.736  10.683  68.617  1.00  0.00    -0.148 A  
HETATM   17  C   UNL     1      -8.979  11.450  67.474  1.00  0.00    -0.150 A  
HETATM   18  C   UNL     1     -10.255  11.505  66.896  1.00  0.00    -0.249 A  
HETATM   19  C   UNL     1     -11.285  10.757  67.485  1.00  0.00    -0.346 A  
HETATM   20  C   UNL     1     -11.048   9.986  68.629  1.00  0.00    -0.223 A  
BRANCH  18  21
HETATM   21  C   UNL     1     -10.532  12.376  65.681  1.00  0.00    -0.290 C  
HETATM   22  C   UNL     1     -11.827  13.196  65.839  1.00  0.00    -0.453 C  
HETATM   23  C   UNL     1     -12.150  13.959  64.557  1.00  0.00    -0.473 C  
HETATM   24  C   UNL     1     -12.159  13.026  63.347  1.00  0.00    -0.515 C  
HETATM   25  N   UNL     1     -10.880  12.331  63.193  1.00  0.00    -0.643 NA 
HETATM   26  C   UNL     1     -10.573  11.533  64.388  1.00  0.00    -0.334 C  
HETATM   27  H   UNL     1     -10.125  12.978  62.967  1.00  0.00     0.000 HD 
ENDBRANCH  18  21
ENDBRANCH  12  15
ENDBRANCH   3   6
TORSDOF 3
ENDMDL
MODEL       44
REMARK 921   NORMALIZED FREE ENERGY PREDICTED BY IDOCK:   -5.73 KCAL/MOL
REMARK 922        TOTAL FREE ENERGY PREDICTED BY IDOCK:   -7.40 KCAL/MOL
REMARK 923 INTER-LIGAND FREE ENERGY PREDICTED BY IDOCK:   -6.79 KCAL/MOL
REMARK 924 INTRA-LIGAND FREE ENERGY PREDICTED BY IDOCK:   -0.61 KCAL/MOL
REMARK 927      BINDING AFFINITY PREDICTED BY RF-SCORE:    0.00 PKD
ROOT
HETATM    1  N   UNL     1     -12.789  14.834  73.435  1.00  0.00    -0.520 N  
HETATM    2  H2  UNL     1     -13.177  14.760  74.375  1.00  0.00     0.000 HD 
HETATM    3  C   UNL     1     -13.328  14.084  72.431  1.00  0.00    -0.518 C  
HETATM    4  H1  UNL     1     -12.007  15.466  73.266  1.00  0.00     0.000 HD 
HETATM    5  O   UNL     1     -14.268  13.325  72.634  1.00  0.00    -0.724 OA 
ENDROOT
BRANCH   3   6
HETATM    6  C   UNL     1     -12.731  14.221  71.091  1.00  0.00    -0.430 A  
HETATM    7  C   UNL     1     -12.754  15.461  70.399  1.00  0.00    -0.407 A  
HETATM    8  C   UNL     1     -12.201  15.647  69.095  1.00  0.00    -0.149 A  
HETATM    9  C   UNL     1     -11.578  14.622  68.359  1.00  0.00    -0.351 A  
HETATM   10  C   UNL     1     -11.562  13.429  69.071  1.00  0.00    -0.358 A  
HETATM   11  C   UNL     1     -11.010  12.264  68.626  1.00  0.00    -0.239 A  
HETATM   12  N   UNL     1     -11.170  11.356  69.650  1.00  0.00    -0.252 NA 
HETATM   13  C   UNL     1     -12.097  13.175  70.382  1.00  0.00    -0.317 A  
HETATM   14  N   UNL     1     -11.866  11.884  70.700  1.00  0.00    -0.188 NA 
BRANCH  12  15
HETATM   15  C   UNL     1     -10.694  10.013  69.690  1.00  0.00    -0.255 A  
HETATM   16  C   UNL     1     -10.478   9.364  70.912  1.00  0.00    -0.381 A  
HETATM   17  C   UNL     1      -9.999   8.052  70.938  1.00  0.00    -0.207 A  
HETATM   18  C   UNL     1      -9.725   7.358  69.751  1.00  0.00    -0.170 A  
HETATM   19  C   UNL     1      -9.959   8.007  68.530  1.00  0.00    -0.206 A  
HETATM   20  C   UNL     1     -10.441   9.321  68.498  1.00  0.00    -0.240 A  
BRANCH  18  21
HETATM   21  C   UNL     1      -9.158   5.947  69.778  1.00  0.00    -0.147 C  
HETATM   22  C   UNL     1      -8.457   5.579  68.456  1.00  0.00    -0.100 C  
HETATM   23  C   UNL     1      -8.015   4.118  68.461  1.00  0.00    -0.073 C  
HETATM   24  C   UNL     1      -9.175   3.190  68.818  1.00  0.00    -0.164 C  
HETATM   25  N   UNL     1      -9.755   3.530  70.118  1.00  0.00    -0.151 NA 
HETATM   26  C   UNL     1     -10.253   4.912  70.123  1.00  0.00    -0.240 C  
HETATM   27  H   UNL     1      -9.098   3.363  70.879  1.00  0.00     0.000 HD 
ENDBRANCH  18  21
ENDBRANCH  12  15
ENDBRANCH   3   6
TORSDOF 3
ENDMDL
MODEL       45
REMARK 921   NORMALIZED FREE ENERGY PREDICTED BY IDOCK:   -5.66 KCAL/MOL
REMARK 922        TOTAL FREE ENERGY PREDICTED BY IDOCK:   -7.32 KCAL/MOL
REMARK 923 INTER-LIGAND FREE ENERGY PREDICTED BY IDOCK:   -6.78 KCAL/MOL
REMARK 924 INTRA-LIGAND FREE ENERGY PREDICTED BY IDOCK:   -0.54 KCAL/MOL
REMARK 927      BINDING AFFINITY PREDICTED BY RF-SCORE:    0.00 PKD
ROOT
HETATM    1  N   UNL     1     -11.006   5.546  66.395  1.00  0.00    -0.720 N  
HETATM    2  H2  UNL     1     -10.743   5.157  65.489  1.00  0.00     0.000 HD 
HETATM    3  C   UNL     1     -10.162   6.417  67.017  1.00  0.00    -0.205 C  
HETATM    4  H1  UNL     1     -11.895   5.275  66.815  1.00  0.00     0.000 HD 
HETATM    5  O   UNL     1      -9.094   6.743  66.512  1.00  0.00    -0.142 OA 
ENDROOT
BRANCH   3   6
HETATM    6  C   UNL     1     -10.583   6.949  68.325  1.00  0.00    -0.258 A  
HETATM    7  C   UNL     1     -10.991   6.081  69.373  1.00  0.00    -0.455 A  
HETATM    8  C   UNL     1     -11.420   6.542  70.656  1.00  0.00    -0.433 A  
HETATM    9  C   UNL     1     -11.484   7.901  71.014  1.00  0.00    -0.298 A  
HETATM   10  C   UNL     1     -11.065   8.718  69.971  1.00  0.00    -0.169 A  
HETATM   11  C   UNL     1     -10.998  10.079  70.026  1.00  0.00    -0.300 A  
HETATM   12  N   UNL     1     -10.493  10.480  68.809  1.00  0.00    -0.184 NA 
HETATM   13  C   UNL     1     -10.621   8.321  68.662  1.00  0.00    -0.108 A  
HETATM   14  N   UNL     1     -10.303   9.428  67.959  1.00  0.00    -0.208 NA 
BRANCH  12  15
HETATM   15  C   UNL     1     -10.175  11.811  68.407  1.00  0.00    -0.206 A  
HETATM   16  C   UNL     1     -11.144  12.822  68.446  1.00  0.00    -0.293 A  
HETATM   17  C   UNL     1     -10.824  14.120  68.037  1.00  0.00    -0.256 A  
HETATM   18  C   UNL     1      -9.537  14.439  67.582  1.00  0.00    -0.214 A  
HETATM   19  C   UNL     1      -8.567  13.426  67.561  1.00  0.00    -0.200 A  
HETATM   20  C   UNL     1      -8.881  12.125  67.972  1.00  0.00    -0.181 A  
BRANCH  18  21
HETATM   21  C   UNL     1      -9.200  15.839  67.091  1.00  0.00    -0.224 C  
HETATM   22  C   UNL     1      -8.839  16.787  68.250  1.00  0.00    -0.228 C  
HETATM   23  C   UNL     1      -8.635  18.213  67.744  1.00  0.00    -0.258 C  
HETATM   24  C   UNL     1      -9.832  18.683  66.919  1.00  0.00    -0.333 C  
HETATM   25  N   UNL     1     -10.086  17.794  65.785  1.00  0.00    -0.581 NA 
HETATM   26  C   UNL     1     -10.353  16.424  66.244  1.00  0.00    -0.329 C  
HETATM   27  H   UNL     1      -9.326  17.823  65.106  1.00  0.00     0.000 HD 
ENDBRANCH  18  21
ENDBRANCH  12  15
ENDBRANCH   3   6
TORSDOF 3
ENDMDL
MODEL       46
REMARK 921   NORMALIZED FREE ENERGY PREDICTED BY IDOCK:   -5.66 KCAL/MOL
REMARK 922        TOTAL FREE ENERGY PREDICTED BY IDOCK:   -7.32 KCAL/MOL
REMARK 923 INTER-LIGAND FREE ENERGY PREDICTED BY IDOCK:   -6.53 KCAL/MOL
REMARK 924 INTRA-LIGAND FREE ENERGY PREDICTED BY IDOCK:   -0.79 KCAL/MOL
REMARK 927      BINDING AFFINITY PREDICTED BY RF-SCORE:    0.00 PKD
ROOT
HETATM    1  N   UNL     1     -11.883  14.020  71.058  1.00  0.00    -0.499 N  
HETATM    2  H2  UNL     1     -12.364  13.812  71.933  1.00  0.00     0.000 HD 
HETATM    3  C   UNL     1     -12.310  15.066  70.295  1.00  0.00    -0.342 C  
HETATM    4  H1  UNL     1     -11.093  13.440  70.773  1.00  0.00     0.000 HD 
HETATM    5  O   UNL     1     -13.259  15.762  70.638  1.00  0.00    -0.501 OA 
ENDROOT
BRANCH   3   6
HETATM    6  C   UNL     1     -11.588  15.323  69.037  1.00  0.00    -0.360 A  
HETATM    7  C   UNL     1     -11.325  16.649  68.600  1.00  0.00    -0.155 A  
HETATM    8  C   UNL     1     -10.640  16.957  67.384  1.00  0.00    -0.294 A  
HETATM    9  C   UNL     1     -10.157  15.981  66.493  1.00  0.00    -0.297 A  
HETATM   10  C   UNL     1     -10.419  14.698  66.960  1.00  0.00    -0.269 A  
HETATM   11  C   UNL     1     -10.055  13.549  66.323  1.00  0.00    -0.298 A  
HETATM   12  N   UNL     1     -10.464  12.519  67.143  1.00  0.00    -0.223 NA 
HETATM   13  C   UNL     1     -11.099  14.321  68.170  1.00  0.00    -0.258 A  
HETATM   14  N   UNL     1     -11.137  12.973  68.241  1.00  0.00    -0.249 NA 
BRANCH  12  15
HETATM   15  C   UNL     1     -10.248  11.124  66.942  1.00  0.00    -0.222 A  
HETATM   16  C   UNL     1     -10.687  10.188  67.887  1.00  0.00    -0.317 A  
HETATM   17  C   UNL     1     -10.457   8.824  67.686  1.00  0.00    -0.310 A  
HETATM   18  C   UNL     1      -9.788   8.363  66.543  1.00  0.00    -0.338 A  
HETATM   19  C   UNL     1      -9.366   9.304  65.594  1.00  0.00    -0.308 A  
HETATM   20  C   UNL     1      -9.595  10.672  65.789  1.00  0.00    -0.258 A  
BRANCH  18  21
HETATM   21  C   UNL     1      -9.495   6.884  66.347  1.00  0.00    -0.170 C  
HETATM   22  C   UNL     1     -10.698   6.000  66.727  1.00  0.00    -0.374 C  
HETATM   23  C   UNL     1     -10.334   4.519  66.646  1.00  0.00    -0.124 C  
HETATM   24  C   UNL     1      -9.072   4.216  67.452  1.00  0.00    -0.144 C  
HETATM   25  N   UNL     1      -7.938   5.023  67.000  1.00  0.00    -0.103 NA 
HETATM   26  C   UNL     1      -8.233   6.457  67.129  1.00  0.00    -0.113 C  
HETATM   27  H   UNL     1      -7.657   4.780  66.051  1.00  0.00     0.000 HD 
ENDBRANCH  18  21
ENDBRANCH  12  15
ENDBRANCH   3   6
TORSDOF 3
ENDMDL
MODEL       47
REMARK 921   NORMALIZED FREE ENERGY PREDICTED BY IDOCK:   -5.65 KCAL/MOL
REMARK 922        TOTAL FREE ENERGY PREDICTED BY IDOCK:   -7.31 KCAL/MOL
REMARK 923 INTER-LIGAND FREE ENERGY PREDICTED BY IDOCK:   -6.57 KCAL/MOL
REMARK 924 INTRA-LIGAND FREE ENERGY PREDICTED BY IDOCK:   -0.74 KCAL/MOL
REMARK 927      BINDING AFFINITY PREDICTED BY RF-SCORE:    0.00 PKD
ROOT
HETATM    1  N   UNL     1      -9.399  14.400  65.816  1.00  0.00    -0.530 N  
HETATM    2  H2  UNL     1      -9.050  14.611  64.881  1.00  0.00     0.000 HD 
HETATM    3  C   UNL     1     -10.723  14.581  66.088  1.00  0.00    -0.310 C  
HETATM    4  H1  UNL     1      -8.752  14.060  66.527  1.00  0.00     0.000 HD 
HETATM    5  O   UNL     1     -11.501  14.990  65.235  1.00  0.00    -0.348 OA 
ENDROOT
BRANCH   3   6
HETATM    6  C   UNL     1     -11.181  14.269  67.453  1.00  0.00    -0.330 A  
HETATM    7  C   UNL     1     -11.710  15.280  68.299  1.00  0.00    -0.320 A  
HETATM    8  C   UNL     1     -12.157  15.036  69.634  1.00  0.00    -0.337 A  
HETATM    9  C   UNL     1     -12.119  13.772  70.251  1.00  0.00    -0.425 A  
HETATM   10  C   UNL     1     -11.609  12.807  69.390  1.00  0.00    -0.361 A  
HETATM   11  C   UNL     1     -11.468  11.486  69.697  1.00  0.00    -0.301 A  
HETATM   12  N   UNL     1     -10.977  10.885  68.559  1.00  0.00    -0.210 NA 
HETATM   13  C   UNL     1     -11.145  12.984  68.040  1.00  0.00    -0.260 A  
HETATM   14  N   UNL     1     -10.735  11.789  67.564  1.00  0.00    -0.213 NA 
BRANCH  12  15
HETATM   15  C   UNL     1     -10.727   9.496  68.360  1.00  0.00    -0.186 A  
HETATM   16  C   UNL     1     -10.778   8.598  69.434  1.00  0.00    -0.169 A  
HETATM   17  C   UNL     1     -10.518   7.240  69.229  1.00  0.00    -0.221 A  
HETATM   18  C   UNL     1     -10.203   6.747  67.955  1.00  0.00    -0.207 A  
HETATM   19  C   UNL     1     -10.170   7.649  66.881  1.00  0.00    -0.365 A  
HETATM   20  C   UNL     1     -10.432   9.010  67.080  1.00  0.00    -0.316 A  
BRANCH  18  21
HETATM   21  C   UNL     1      -9.873   5.279  67.739  1.00  0.00    -0.187 C  
HETATM   22  C   UNL     1      -8.404   4.960  68.074  1.00  0.00    -0.099 C  
HETATM   23  C   UNL     1      -8.065   3.513  67.724  1.00  0.00    -0.081 C  
HETATM   24  C   UNL     1      -8.447   3.190  66.281  1.00  0.00    -0.106 C  
HETATM   25  N   UNL     1      -9.869   3.433  66.034  1.00  0.00    -0.409 NA 
HETATM   26  C   UNL     1     -10.213   4.837  66.298  1.00  0.00    -0.282 C  
HETATM   27  H   UNL     1     -10.458   2.794  66.566  1.00  0.00     0.000 HD 
ENDBRANCH  18  21
ENDBRANCH  12  15
ENDBRANCH   3   6
TORSDOF 3
ENDMDL
MODEL       48
REMARK 921   NORMALIZED FREE ENERGY PREDICTED BY IDOCK:   -5.55 KCAL/MOL
REMARK 922        TOTAL FREE ENERGY PREDICTED BY IDOCK:   -7.19 KCAL/MOL
REMARK 923 INTER-LIGAND FREE ENERGY PREDICTED BY IDOCK:   -6.65 KCAL/MOL
REMARK 924 INTRA-LIGAND FREE ENERGY PREDICTED BY IDOCK:   -0.54 KCAL/MOL
REMARK 927      BINDING AFFINITY PREDICTED BY RF-SCORE:    0.00 PKD
ROOT
HETATM    1  N   UNL     1      -6.102  17.851  69.245  1.00  0.00    -0.229 N  
HETATM    2  H2  UNL     1      -5.153  17.627  69.543  1.00  0.00     0.000 HD 
HETATM    3  C   UNL     1      -6.852  16.890  68.634  1.00  0.00    -0.183 C  
HETATM    4  H1  UNL     1      -6.470  18.787  69.411  1.00  0.00     0.000 HD 
HETATM    5  O   UNL     1      -6.410  15.764  68.435  1.00  0.00    -0.103 OA 
ENDROOT
BRANCH   3   6
HETATM    6  C   UNL     1      -8.215  17.260  68.216  1.00  0.00    -0.237 A  
HETATM    7  C   UNL     1      -8.456  18.429  67.446  1.00  0.00    -0.257 A  
HETATM    8  C   UNL     1      -9.757  18.842  67.025  1.00  0.00    -0.340 A  
HETATM    9  C   UNL     1     -10.936  18.136  67.330  1.00  0.00    -0.095 A  
HETATM   10  C   UNL     1     -10.661  16.993  68.071  1.00  0.00    -0.373 A  
HETATM   11  C   UNL     1     -11.597  16.098  68.498  1.00  0.00    -0.265 A  
HETATM   12  N   UNL     1     -10.899  15.104  69.147  1.00  0.00    -0.240 NA 
HETATM   13  C   UNL     1      -9.380  16.521  68.524  1.00  0.00    -0.229 A  
HETATM   14  N   UNL     1      -9.561  15.372  69.209  1.00  0.00    -0.253 NA 
BRANCH  12  15
HETATM   15  C   UNL     1     -11.431  13.908  69.711  1.00  0.00    -0.215 A  
HETATM   16  C   UNL     1     -12.320  13.959  70.793  1.00  0.00    -0.449 A  
HETATM   17  C   UNL     1     -12.825  12.779  71.346  1.00  0.00    -0.371 A  
HETATM   18  C   UNL     1     -12.458  11.525  70.835  1.00  0.00    -0.464 A  
HETATM   19  C   UNL     1     -11.582  11.482  69.742  1.00  0.00    -0.401 A  
HETATM   20  C   UNL     1     -11.074  12.660  69.182  1.00  0.00    -0.252 A  
BRANCH  18  21
HETATM   21  C   UNL     1     -12.969  10.239  71.467  1.00  0.00    -0.556 C  
HETATM   22  C   UNL     1     -11.820   9.334  71.946  1.00  0.00    -0.426 C  
HETATM   23  C   UNL     1     -12.354   7.996  72.454  1.00  0.00    -0.299 C  
HETATM   24  C   UNL     1     -13.262   7.336  71.419  1.00  0.00    -0.346 C  
HETATM   25  N   UNL     1     -14.383   8.204  71.055  1.00  0.00    -0.664 NA 
HETATM   26  C   UNL     1     -13.901   9.475  70.499  1.00  0.00     0.596 C  
HETATM   27  H   UNL     1     -15.016   8.352  71.841  1.00  0.00     0.000 HD 
ENDBRANCH  18  21
ENDBRANCH  12  15
ENDBRANCH   3   6
TORSDOF 3
ENDMDL
MODEL       49
REMARK 921   NORMALIZED FREE ENERGY PREDICTED BY IDOCK:   -5.51 KCAL/MOL
REMARK 922        TOTAL FREE ENERGY PREDICTED BY IDOCK:   -7.14 KCAL/MOL
REMARK 923 INTER-LIGAND FREE ENERGY PREDICTED BY IDOCK:   -6.38 KCAL/MOL
REMARK 924 INTRA-LIGAND FREE ENERGY PREDICTED BY IDOCK:   -0.77 KCAL/MOL
REMARK 927      BINDING AFFINITY PREDICTED BY RF-SCORE:    0.00 PKD
ROOT
HETATM    1  N   UNL     1      -7.226   9.195  68.908  1.00  0.00    -0.072 N  
HETATM    2  H2  UNL     1      -6.370   8.871  68.458  1.00  0.00     0.000 HD 
HETATM    3  C   UNL     1      -8.395   8.536  68.669  1.00  0.00    -0.123 C  
HETATM    4  H1  UNL     1      -7.188  10.006  69.526  1.00  0.00     0.000 HD 
HETATM    5  O   UNL     1      -8.440   7.563  67.926  1.00  0.00    -0.122 OA 
ENDROOT
BRANCH   3   6
HETATM    6  C   UNL     1      -9.606   9.045  69.336  1.00  0.00    -0.160 A  
HETATM    7  C   UNL     1     -10.370   8.217  70.202  1.00  0.00    -0.212 A  
HETATM    8  C   UNL     1     -11.558   8.654  70.865  1.00  0.00    -0.307 A  
HETATM    9  C   UNL     1     -12.095   9.947  70.730  1.00  0.00    -0.396 A  
HETATM   10  C   UNL     1     -11.315  10.732  69.888  1.00  0.00    -0.385 A  
HETATM   11  C   UNL     1     -11.572  12.035  69.580  1.00  0.00    -0.321 A  
HETATM   12  N   UNL     1     -10.537  12.439  68.764  1.00  0.00    -0.214 NA 
HETATM   13  C   UNL     1     -10.113  10.356  69.194  1.00  0.00    -0.222 A  
HETATM   14  N   UNL     1      -9.673  11.418  68.486  1.00  0.00    -0.196 NA 
BRANCH  12  15
HETATM   15  C   UNL     1     -10.321  13.744  68.233  1.00  0.00    -0.247 A  
HETATM   16  C   UNL     1     -10.827  14.876  68.885  1.00  0.00    -0.253 A  
HETATM   17  C   UNL     1     -10.621  16.149  68.347  1.00  0.00    -0.286 A  
HETATM   18  C   UNL     1      -9.907  16.324  67.154  1.00  0.00    -0.243 A  
HETATM   19  C   UNL     1      -9.389  15.189  66.515  1.00  0.00    -0.308 A  
HETATM   20  C   UNL     1      -9.591  13.910  67.049  1.00  0.00    -0.254 A  
BRANCH  18  21
HETATM   21  C   UNL     1      -9.722  17.705  66.543  1.00  0.00    -0.310 C  
HETATM   22  C   UNL     1      -8.271  18.206  66.672  1.00  0.00    -0.283 C  
HETATM   23  C   UNL     1      -8.143  19.642  66.171  1.00  0.00    -0.356 C  
HETATM   24  C   UNL     1      -9.168  20.555  66.842  1.00  0.00    -0.266 C  
HETATM   25  N   UNL     1     -10.535  20.081  66.624  1.00  0.00    -0.439 NA 
HETATM   26  C   UNL     1     -10.709  18.723  67.157  1.00  0.00    -0.403 C  
HETATM   27  H   UNL     1     -10.801  20.137  65.641  1.00  0.00     0.000 HD 
ENDBRANCH  18  21
ENDBRANCH  12  15
ENDBRANCH   3   6
TORSDOF 3
ENDMDL
MODEL       50
REMARK 921   NORMALIZED FREE ENERGY PREDICTED BY IDOCK:   -5.46 KCAL/MOL
REMARK 922        TOTAL FREE ENERGY PREDICTED BY IDOCK:   -7.09 KCAL/MOL
REMARK 923 INTER-LIGAND FREE ENERGY PREDICTED BY IDOCK:   -6.40 KCAL/MOL
REMARK 924 INTRA-LIGAND FREE ENERGY PREDICTED BY IDOCK:   -0.69 KCAL/MOL
REMARK 927      BINDING AFFINITY PREDICTED BY RF-SCORE:    0.00 PKD
ROOT
HETATM    1  N   UNL     1      -7.847  10.669  63.948  1.00  0.00    -0.359 N  
HETATM    2  H2  UNL     1      -7.463  10.642  63.004  1.00  0.00     0.000 HD 
HETATM    3  C   UNL     1      -9.196  10.567  64.123  1.00  0.00    -0.249 C  
HETATM    4  H1  UNL     1      -7.214  10.772  64.742  1.00  0.00     0.000 HD 
HETATM    5  O   UNL     1      -9.956  10.443  63.170  1.00  0.00    -0.247 OA 
ENDROOT
BRANCH   3   6
HETATM    6  C   UNL     1      -9.704  10.616  65.504  1.00  0.00    -0.291 A  
HETATM    7  C   UNL     1     -10.235   9.459  66.134  1.00  0.00    -0.264 A  
HETATM    8  C   UNL     1     -10.752   9.453  67.466  1.00  0.00    -0.290 A  
HETATM    9  C   UNL     1     -10.790  10.591  68.292  1.00  0.00    -0.293 A  
HETATM   10  C   UNL     1     -10.251  11.699  67.650  1.00  0.00    -0.206 A  
HETATM   11  C   UNL     1     -10.133  12.939  68.204  1.00  0.00    -0.240 A  
HETATM   12  N   UNL     1      -9.510  13.718  67.254  1.00  0.00    -0.228 NA 
HETATM   13  C   UNL     1      -9.714  11.772  66.317  1.00  0.00    -0.222 A  
HETATM   14  N   UNL     1      -9.292  13.035  66.091  1.00  0.00    -0.147 NA 
BRANCH  12  15
HETATM   15  C   UNL     1      -9.105  15.078  67.389  1.00  0.00    -0.186 A  
HETATM   16  C   UNL     1      -8.461  15.742  66.337  1.00  0.00    -0.313 A  
HETATM   17  C   UNL     1      -8.056  17.072  66.487  1.00  0.00    -0.320 A  
HETATM   18  C   UNL     1      -8.284  17.768  67.682  1.00  0.00    -0.230 A  
HETATM   19  C   UNL     1      -8.944  17.102  68.725  1.00  0.00    -0.233 A  
HETATM   20  C   UNL     1      -9.353  15.771  68.581  1.00  0.00    -0.206 A  
BRANCH  18  21
HETATM   21  C   UNL     1      -7.802  19.199  67.863  1.00  0.00    -0.318 C  
HETATM   22  C   UNL     1      -7.190  19.771  66.571  1.00  0.00    -0.255 C  
HETATM   23  C   UNL     1      -6.596  21.157  66.815  1.00  0.00    -0.357 C  
HETATM   24  C   UNL     1      -5.628  21.142  67.997  1.00  0.00    -0.332 C  
HETATM   25  N   UNL     1      -6.278  20.666  69.219  1.00  0.00    -0.272 NA 
HETATM   26  C   UNL     1      -6.802  19.306  69.036  1.00  0.00    -0.337 C  
HETATM   27  H   UNL     1      -7.003  21.310  69.536  1.00  0.00     0.000 HD 
ENDBRANCH  18  21
ENDBRANCH  12  15
ENDBRANCH   3   6
TORSDOF 3
ENDMDL
MODEL       51
REMARK 921   NORMALIZED FREE ENERGY PREDICTED BY IDOCK:   -5.46 KCAL/MOL
REMARK 922        TOTAL FREE ENERGY PREDICTED BY IDOCK:   -7.08 KCAL/MOL
REMARK 923 INTER-LIGAND FREE ENERGY PREDICTED BY IDOCK:   -6.51 KCAL/MOL
REMARK 924 INTRA-LIGAND FREE ENERGY PREDICTED BY IDOCK:   -0.57 KCAL/MOL
REMARK 927      BINDING AFFINITY PREDICTED BY RF-SCORE:    0.00 PKD
ROOT
HETATM    1  N   UNL     1      -8.828   5.158  74.397  1.00  0.00    -0.112 N  
HETATM    2  H2  UNL     1      -8.829   5.415  75.384  1.00  0.00     0.000 HD 
HETATM    3  C   UNL     1      -9.878   5.529  73.610  1.00  0.00    -0.169 C  
HETATM    4  H1  UNL     1      -8.041   4.629  74.020  1.00  0.00     0.000 HD 
HETATM    5  O   UNL     1     -10.822   6.165  74.063  1.00  0.00    -0.136 OA 
ENDROOT
BRANCH   3   6
HETATM    6  C   UNL     1      -9.833   5.131  72.193  1.00  0.00    -0.222 A  
HETATM    7  C   UNL     1      -9.594   3.782  71.816  1.00  0.00    -0.226 A  
HETATM    8  C   UNL     1      -9.529   3.343  70.458  1.00  0.00    -0.247 A  
HETATM    9  C   UNL     1      -9.693   4.198  69.353  1.00  0.00    -0.233 A  
HETATM   10  C   UNL     1      -9.939   5.505  69.759  1.00  0.00    -0.279 A  
HETATM   11  C   UNL     1     -10.158   6.553  68.916  1.00  0.00    -0.164 A  
HETATM   12  N   UNL     1     -10.403   7.641  69.726  1.00  0.00    -0.218 NA 
HETATM   13  C   UNL     1     -10.019   6.011  71.103  1.00  0.00    -0.186 A  
HETATM   14  N   UNL     1     -10.277   7.335  71.050  1.00  0.00    -0.192 NA 
BRANCH  12  15
HETATM   15  C   UNL     1     -10.755   8.959  69.310  1.00  0.00    -0.162 A  
HETATM   16  C   UNL     1     -11.226   9.900  70.234  1.00  0.00    -0.364 A  
HETATM   17  C   UNL     1     -11.581  11.185  69.812  1.00  0.00    -0.409 A  
HETATM   18  C   UNL     1     -11.474  11.560  68.466  1.00  0.00    -0.354 A  
HETATM   19  C   UNL     1     -10.986  10.619  67.549  1.00  0.00    -0.371 A  
HETATM   20  C   UNL     1     -10.627   9.331  67.965  1.00  0.00    -0.262 A  
BRANCH  18  21
HETATM   21  C   UNL     1     -11.904  12.941  67.998  1.00  0.00    -0.390 C  
HETATM   22  C   UNL     1     -11.031  13.459  66.839  1.00  0.00    -0.295 C  
HETATM   23  C   UNL     1     -11.399  14.896  66.478  1.00  0.00    -0.319 C  
HETATM   24  C   UNL     1     -11.377  15.798  67.710  1.00  0.00    -0.240 C  
HETATM   25  N   UNL     1     -12.283  15.309  68.751  1.00  0.00    -0.597 NA 
HETATM   26  C   UNL     1     -11.913  13.950  69.169  1.00  0.00    -0.363 C  
HETATM   27  H   UNL     1     -13.258  15.360  68.457  1.00  0.00     0.000 HD 
ENDBRANCH  18  21
ENDBRANCH  12  15
ENDBRANCH   3   6
TORSDOF 3
ENDMDL
MODEL       52
REMARK 921   NORMALIZED FREE ENERGY PREDICTED BY IDOCK:   -5.43 KCAL/MOL
REMARK 922        TOTAL FREE ENERGY PREDICTED BY IDOCK:   -7.05 KCAL/MOL
REMARK 923 INTER-LIGAND FREE ENERGY PREDICTED BY IDOCK:   -6.26 KCAL/MOL
REMARK 924 INTRA-LIGAND FREE ENERGY PREDICTED BY IDOCK:   -0.79 KCAL/MOL
REMARK 927      BINDING AFFINITY PREDICTED BY RF-SCORE:    0.00 PKD
ROOT
HETATM    1  N   UNL     1     -10.423  18.659  66.202  1.00  0.00    -0.449 N  
HETATM    2  H2  UNL     1     -11.286  19.013  65.788  1.00  0.00     0.000 HD 
HETATM    3  C   UNL     1     -10.011  19.151  67.405  1.00  0.00    -0.351 C  
HETATM    4  H1  UNL     1      -9.888  17.946  65.707  1.00  0.00     0.000 HD 
HETATM    5  O   UNL     1     -10.654  20.008  68.000  1.00  0.00    -0.357 OA 
ENDROOT
BRANCH   3   6
HETATM    6  C   UNL     1      -8.757  18.613  67.961  1.00  0.00    -0.325 A  
HETATM    7  C   UNL     1      -7.818  19.460  68.608  1.00  0.00    -0.399 A  
HETATM    8  C   UNL     1      -6.582  18.995  69.154  1.00  0.00    -0.322 A  
HETATM    9  C   UNL     1      -6.165  17.652  69.106  1.00  0.00    -0.226 A  
HETATM   10  C   UNL     1      -7.113  16.852  68.479  1.00  0.00    -0.198 A  
HETATM   11  C   UNL     1      -7.000  15.505  68.301  1.00  0.00    -0.115 A  
HETATM   12  N   UNL     1      -8.167  15.107  67.687  1.00  0.00    -0.153 NA 
HETATM   13  C   UNL     1      -8.372  17.254  67.912  1.00  0.00    -0.220 A  
HETATM   14  N   UNL     1      -8.986  16.164  67.406  1.00  0.00    -0.189 NA 
BRANCH  12  15
HETATM   15  C   UNL     1      -8.552  13.775  67.354  1.00  0.00    -0.203 A  
HETATM   16  C   UNL     1      -7.817  12.679  67.822  1.00  0.00    -0.154 A  
HETATM   17  C   UNL     1      -8.197  11.378  67.478  1.00  0.00    -0.130 A  
HETATM   18  C   UNL     1      -9.313  11.142  66.663  1.00  0.00    -0.194 A  
HETATM   19  C   UNL     1     -10.054  12.243  66.212  1.00  0.00    -0.253 A  
HETATM   20  C   UNL     1      -9.680  13.548  66.555  1.00  0.00    -0.287 A  
BRANCH  18  21
HETATM   21  C   UNL     1      -9.698   9.730  66.248  1.00  0.00    -0.295 C  
HETATM   22  C   UNL     1     -10.363   8.950  67.398  1.00  0.00    -0.337 C  
HETATM   23  C   UNL     1     -10.619   7.499  66.996  1.00  0.00    -0.409 C  
HETATM   24  C   UNL     1      -9.348   6.841  66.464  1.00  0.00    -0.161 C  
HETATM   25  N   UNL     1      -8.799   7.574  65.323  1.00  0.00    -0.371 NA 
HETATM   26  C   UNL     1      -8.479   8.958  65.696  1.00  0.00    -0.157 C  
HETATM   27  H   UNL     1      -9.421   7.536  64.516  1.00  0.00     0.000 HD 
ENDBRANCH  18  21
ENDBRANCH  12  15
ENDBRANCH   3   6
TORSDOF 3
ENDMDL
MODEL       53
REMARK 921   NORMALIZED FREE ENERGY PREDICTED BY IDOCK:   -5.38 KCAL/MOL
REMARK 922        TOTAL FREE ENERGY PREDICTED BY IDOCK:   -6.99 KCAL/MOL
REMARK 923 INTER-LIGAND FREE ENERGY PREDICTED BY IDOCK:   -6.36 KCAL/MOL
REMARK 924 INTRA-LIGAND FREE ENERGY PREDICTED BY IDOCK:   -0.63 KCAL/MOL
REMARK 927      BINDING AFFINITY PREDICTED BY RF-SCORE:    0.00 PKD
ROOT
HETATM    1  N   UNL     1      -9.860   3.734  66.476  1.00  0.00    -0.399 N  
HETATM    2  H2  UNL     1      -9.567   3.391  65.561  1.00  0.00     0.000 HD 
HETATM    3  C   UNL     1      -9.024   4.547  67.182  1.00  0.00    -0.116 C  
HETATM    4  H1  UNL     1     -10.772   3.461  66.843  1.00  0.00     0.000 HD 
HETATM    5  O   UNL     1      -7.929   4.875  66.741  1.00  0.00    -0.102 OA 
ENDROOT
BRANCH   3   6
HETATM    6  C   UNL     1      -9.488   5.013  68.500  1.00  0.00    -0.185 A  
HETATM    7  C   UNL     1      -9.491   4.147  69.626  1.00  0.00    -0.259 A  
HETATM    8  C   UNL     1      -9.941   4.542  70.924  1.00  0.00    -0.263 A  
HETATM    9  C   UNL     1     -10.430   5.827  71.221  1.00  0.00    -0.295 A  
HETATM   10  C   UNL     1     -10.400   6.649  70.101  1.00  0.00    -0.236 A  
HETATM   11  C   UNL     1     -10.792   7.955  70.084  1.00  0.00    -0.243 A  
HETATM   12  N   UNL     1     -10.556   8.402  68.802  1.00  0.00    -0.172 NA 
HETATM   13  C   UNL     1      -9.959   6.317  68.773  1.00  0.00    -0.149 A  
HETATM   14  N   UNL     1     -10.094   7.407  67.988  1.00  0.00    -0.172 NA 
BRANCH  12  15
HETATM   15  C   UNL     1     -10.741   9.725  68.306  1.00  0.00    -0.233 A  
HETATM   16  C   UNL     1     -10.214  10.106  67.065  1.00  0.00    -0.290 A  
HETATM   17  C   UNL     1     -10.390  11.411  66.596  1.00  0.00    -0.272 A  
HETATM   18  C   UNL     1     -11.094  12.362  67.348  1.00  0.00    -0.320 A  
HETATM   19  C   UNL     1     -11.634  11.970  68.581  1.00  0.00    -0.372 A  
HETATM   20  C   UNL     1     -11.462  10.664  69.056  1.00  0.00    -0.342 A  
BRANCH  18  21
HETATM   21  C   UNL     1     -11.246  13.794  66.860  1.00  0.00    -0.326 C  
HETATM   22  C   UNL     1     -10.284  14.117  65.702  1.00  0.00    -0.357 C  
HETATM   23  C   UNL     1     -10.363  15.593  65.320  1.00  0.00    -0.405 C  
HETATM   24  C   UNL     1     -10.173  16.490  66.542  1.00  0.00    -0.300 C  
HETATM   25  N   UNL     1     -11.161  16.200  67.582  1.00  0.00    -0.264 NA 
HETATM   26  C   UNL     1     -11.064  14.800  68.019  1.00  0.00    -0.286 C  
HETATM   27  H   UNL     1     -12.105  16.436  67.281  1.00  0.00     0.000 HD 
ENDBRANCH  18  21
ENDBRANCH  12  15
ENDBRANCH   3   6
TORSDOF 3
ENDMDL
MODEL       54
REMARK 921   NORMALIZED FREE ENERGY PREDICTED BY IDOCK:   -5.33 KCAL/MOL
REMARK 922        TOTAL FREE ENERGY PREDICTED BY IDOCK:   -6.94 KCAL/MOL
REMARK 923 INTER-LIGAND FREE ENERGY PREDICTED BY IDOCK:   -6.29 KCAL/MOL
REMARK 924 INTRA-LIGAND FREE ENERGY PREDICTED BY IDOCK:   -0.65 KCAL/MOL
REMARK 927      BINDING AFFINITY PREDICTED BY RF-SCORE:    0.00 PKD
ROOT
HETATM    1  N   UNL     1      -6.742   8.968  64.664  1.00  0.00    -0.076 N  
HETATM    2  H2  UNL     1      -6.103   8.854  63.877  1.00  0.00     0.000 HD 
HETATM    3  C   UNL     1      -8.068   8.702  64.490  1.00  0.00    -0.162 C  
HETATM    4  H1  UNL     1      -6.375   9.279  65.564  1.00  0.00     0.000 HD 
HETATM    5  O   UNL     1      -8.508   8.328  63.409  1.00  0.00    -0.080 OA 
ENDROOT
BRANCH   3   6
HETATM    6  C   UNL     1      -8.952   8.887  65.653  1.00  0.00    -0.249 A  
HETATM    7  C   UNL     1      -9.476   7.773  66.363  1.00  0.00    -0.245 A  
HETATM    8  C   UNL     1     -10.346   7.894  67.489  1.00  0.00    -0.329 A  
HETATM    9  C   UNL     1     -10.777   9.127  68.012  1.00  0.00    -0.205 A  
HETATM   10  C   UNL     1     -10.235  10.192  67.303  1.00  0.00    -0.273 A  
HETATM   11  C   UNL     1     -10.455  11.508  67.587  1.00  0.00    -0.189 A  
HETATM   12  N   UNL     1      -9.700  12.219  66.680  1.00  0.00    -0.217 NA 
HETATM   13  C   UNL     1      -9.356  10.140  66.167  1.00  0.00    -0.172 A  
HETATM   14  N   UNL     1      -9.066  11.403  65.787  1.00  0.00    -0.206 NA 
BRANCH  12  15
HETATM   15  C   UNL     1      -9.544  13.635  66.615  1.00  0.00    -0.283 A  
HETATM   16  C   UNL     1     -10.552  14.443  66.077  1.00  0.00    -0.304 A  
HETATM   17  C   UNL     1     -10.382  15.829  66.006  1.00  0.00    -0.356 A  
HETATM   18  C   UNL     1      -9.207  16.438  66.470  1.00  0.00    -0.306 A  
HETATM   19  C   UNL     1      -8.209  15.625  67.024  1.00  0.00    -0.268 A  
HETATM   20  C   UNL     1      -8.374  14.236  67.099  1.00  0.00    -0.202 A  
BRANCH  18  21
HETATM   21  C   UNL     1      -9.000  17.940  66.350  1.00  0.00    -0.247 C  
HETATM   22  C   UNL     1      -8.204  18.511  67.538  1.00  0.00    -0.262 C  
HETATM   23  C   UNL     1      -8.124  20.034  67.461  1.00  0.00    -0.351 C  
HETATM   24  C   UNL     1      -9.512  20.652  67.300  1.00  0.00    -0.379 C  
HETATM   25  N   UNL     1     -10.196  20.137  66.113  1.00  0.00    -0.484 NA 
HETATM   26  C   UNL     1     -10.348  18.678  66.190  1.00  0.00    -0.443 C  
HETATM   27  H   UNL     1      -9.727  20.422  65.254  1.00  0.00     0.000 HD 
ENDBRANCH  18  21
ENDBRANCH  12  15
ENDBRANCH   3   6
TORSDOF 3
ENDMDL
MODEL       55
REMARK 921   NORMALIZED FREE ENERGY PREDICTED BY IDOCK:   -5.33 KCAL/MOL
REMARK 922        TOTAL FREE ENERGY PREDICTED BY IDOCK:   -6.93 KCAL/MOL
REMARK 923 INTER-LIGAND FREE ENERGY PREDICTED BY IDOCK:   -6.15 KCAL/MOL
REMARK 924 INTRA-LIGAND FREE ENERGY PREDICTED BY IDOCK:   -0.78 KCAL/MOL
REMARK 927      BINDING AFFINITY PREDICTED BY RF-SCORE:    0.00 PKD
ROOT
HETATM    1  N   UNL     1     -11.561  11.348  63.125  1.00  0.00    -0.873 N  
HETATM    2  H2  UNL     1     -12.192  11.064  62.375  1.00  0.00     0.000 HD 
HETATM    3  C   UNL     1     -11.662  12.607  63.639  1.00  0.00    -0.522 C  
HETATM    4  H1  UNL     1     -10.869  10.685  63.473  1.00  0.00     0.000 HD 
HETATM    5  O   UNL     1     -12.494  13.404  63.220  1.00  0.00    -0.739 OA 
ENDROOT
BRANCH   3   6
HETATM    6  C   UNL     1     -10.727  12.974  64.716  1.00  0.00    -0.370 A  
HETATM    7  C   UNL     1     -10.473  14.335  65.036  1.00  0.00    -0.458 A  
HETATM    8  C   UNL     1      -9.567  14.747  66.062  1.00  0.00    -0.334 A  
HETATM    9  C   UNL     1      -8.833  13.851  66.859  1.00  0.00    -0.210 A  
HETATM   10  C   UNL     1      -9.117  12.532  66.528  1.00  0.00    -0.177 A  
HETATM   11  C   UNL     1      -8.574  11.441  67.140  1.00  0.00    -0.151 A  
HETATM   12  N   UNL     1      -9.156  10.345  66.542  1.00  0.00    -0.154 NA 
HETATM   13  C   UNL     1     -10.014  12.050  65.513  1.00  0.00    -0.241 A  
HETATM   14  N   UNL     1      -9.996  10.700  65.526  1.00  0.00    -0.256 NA 
BRANCH  12  15
HETATM   15  C   UNL     1      -8.963   8.975  66.886  1.00  0.00    -0.123 A  
HETATM   16  C   UNL     1      -7.909   8.588  67.723  1.00  0.00    -0.103 A  
HETATM   17  C   UNL     1      -7.721   7.240  68.041  1.00  0.00    -0.117 A  
HETATM   18  C   UNL     1      -8.577   6.251  67.536  1.00  0.00    -0.107 A  
HETATM   19  C   UNL     1      -9.640   6.647  66.712  1.00  0.00    -0.207 A  
HETATM   20  C   UNL     1      -9.834   7.996  66.391  1.00  0.00    -0.237 A  
BRANCH  18  21
HETATM   21  C   UNL     1      -8.345   4.779  67.843  1.00  0.00    -0.103 C  
HETATM   22  C   UNL     1      -9.577   3.917  67.508  1.00  0.00    -0.212 C  
HETATM   23  C   UNL     1      -9.366   2.470  67.947  1.00  0.00    -0.241 C  
HETATM   24  C   UNL     1      -8.946   2.393  69.413  1.00  0.00    -0.106 C  
HETATM   25  N   UNL     1      -7.726   3.163  69.664  1.00  0.00    -0.044 NA 
HETATM   26  C   UNL     1      -7.919   4.577  69.314  1.00  0.00    -0.069 C  
HETATM   27  H   UNL     1      -6.922   2.762  69.183  1.00  0.00     0.000 HD 
ENDBRANCH  18  21
ENDBRANCH  12  15
ENDBRANCH   3   6
TORSDOF 3
ENDMDL
MODEL       56
REMARK 921   NORMALIZED FREE ENERGY PREDICTED BY IDOCK:   -5.33 KCAL/MOL
REMARK 922        TOTAL FREE ENERGY PREDICTED BY IDOCK:   -6.93 KCAL/MOL
REMARK 923 INTER-LIGAND FREE ENERGY PREDICTED BY IDOCK:   -6.17 KCAL/MOL
REMARK 924 INTRA-LIGAND FREE ENERGY PREDICTED BY IDOCK:   -0.76 KCAL/MOL
REMARK 927      BINDING AFFINITY PREDICTED BY RF-SCORE:    0.00 PKD
ROOT
HETATM    1  N   UNL     1      -6.459   6.165  71.375  1.00  0.00    -0.048 N  
HETATM    2  H2  UNL     1      -5.465   6.360  71.255  1.00  0.00     0.000 HD 
HETATM    3  C   UNL     1      -7.005   6.232  72.623  1.00  0.00    -0.075 C  
HETATM    4  H1  UNL     1      -7.022   5.924  70.560  1.00  0.00     0.000 HD 
HETATM    5  O   UNL     1      -6.328   6.521  73.602  1.00  0.00    -0.064 OA 
ENDROOT
BRANCH   3   6
HETATM    6  C   UNL     1      -8.443   5.937  72.747  1.00  0.00    -0.122 A  
HETATM    7  C   UNL     1      -8.907   4.882  73.577  1.00  0.00    -0.105 A  
HETATM    8  C   UNL     1     -10.288   4.545  73.726  1.00  0.00    -0.259 A  
HETATM    9  C   UNL     1     -11.330   5.220  73.065  1.00  0.00    -0.376 A  
HETATM   10  C   UNL     1     -10.841   6.253  72.274  1.00  0.00    -0.276 A  
HETATM   11  C   UNL     1     -11.612   7.096  71.530  1.00  0.00    -0.278 A  
HETATM   12  N   UNL     1     -10.738   7.988  70.947  1.00  0.00    -0.218 NA 
HETATM   13  C   UNL     1      -9.470   6.644  72.083  1.00  0.00    -0.144 A  
HETATM   14  N   UNL     1      -9.436   7.697  71.238  1.00  0.00    -0.153 NA 
BRANCH  12  15
HETATM   15  C   UNL     1     -11.072   9.107  70.129  1.00  0.00    -0.222 A  
HETATM   16  C   UNL     1     -10.635   9.179  68.800  1.00  0.00    -0.208 A  
HETATM   17  C   UNL     1     -10.957  10.287  68.012  1.00  0.00    -0.345 A  
HETATM   18  C   UNL     1     -11.720  11.345  68.527  1.00  0.00    -0.386 A  
HETATM   19  C   UNL     1     -12.169  11.259  69.853  1.00  0.00    -0.358 A  
HETATM   20  C   UNL     1     -11.851  10.150  70.647  1.00  0.00    -0.431 A  
BRANCH  18  21
HETATM   21  C   UNL     1     -12.031  12.573  67.686  1.00  0.00    -0.287 C  
HETATM   22  C   UNL     1     -11.308  12.542  66.326  1.00  0.00    -0.386 C  
HETATM   23  C   UNL     1     -11.531  13.843  65.559  1.00  0.00    -0.319 C  
HETATM   24  C   UNL     1     -11.173  15.057  66.415  1.00  0.00    -0.310 C  
HETATM   25  N   UNL     1     -11.944  15.084  67.659  1.00  0.00    -0.444 NA 
HETATM   26  C   UNL     1     -11.698  13.872  68.453  1.00  0.00    -0.356 C  
HETATM   27  H   UNL     1     -12.938  15.224  67.483  1.00  0.00     0.000 HD 
ENDBRANCH  18  21
ENDBRANCH  12  15
ENDBRANCH   3   6
TORSDOF 3
ENDMDL
MODEL       57
REMARK 921   NORMALIZED FREE ENERGY PREDICTED BY IDOCK:   -5.23 KCAL/MOL
REMARK 922        TOTAL FREE ENERGY PREDICTED BY IDOCK:   -6.81 KCAL/MOL
REMARK 923 INTER-LIGAND FREE ENERGY PREDICTED BY IDOCK:   -6.07 KCAL/MOL
REMARK 924 INTRA-LIGAND FREE ENERGY PREDICTED BY IDOCK:   -0.75 KCAL/MOL
REMARK 927      BINDING AFFINITY PREDICTED BY RF-SCORE:    0.00 PKD
ROOT
HETATM    1  N   UNL     1     -10.923   8.290  69.509  1.00  0.00    -0.424 N  
HETATM    2  H2  UNL     1     -11.495   8.223  70.351  1.00  0.00     0.000 HD 
HETATM    3  C   UNL     1     -10.827   7.212  68.680  1.00  0.00    -0.108 C  
HETATM    4  H1  UNL     1     -10.435   9.163  69.306  1.00  0.00     0.000 HD 
HETATM    5  O   UNL     1     -11.413   6.164  68.925  1.00  0.00    -0.305 OA 
ENDROOT
BRANCH   3   6
HETATM    6  C   UNL     1      -9.986   7.355  67.480  1.00  0.00    -0.225 A  
HETATM    7  C   UNL     1      -9.556   6.218  66.744  1.00  0.00    -0.183 A  
HETATM    8  C   UNL     1      -8.731   6.298  65.580  1.00  0.00    -0.122 A  
HETATM    9  C   UNL     1      -8.256   7.509  65.043  1.00  0.00    -0.105 A  
HETATM   10  C   UNL     1      -8.707   8.598  65.779  1.00  0.00    -0.212 A  
HETATM   11  C   UNL     1      -8.429   9.901  65.491  1.00  0.00    -0.140 A  
HETATM   12  N   UNL     1      -9.103  10.647  66.433  1.00  0.00    -0.161 NA 
HETATM   13  C   UNL     1      -9.538   8.587  66.953  1.00  0.00    -0.197 A  
HETATM   14  N   UNL     1      -9.741   9.862  67.350  1.00  0.00    -0.157 NA 
BRANCH  12  15
HETATM   15  C   UNL     1      -9.179  12.069  66.509  1.00  0.00    -0.216 A  
HETATM   16  C   UNL     1     -10.146  12.776  65.784  1.00  0.00    -0.296 A  
HETATM   17  C   UNL     1     -10.201  14.170  65.857  1.00  0.00    -0.332 A  
HETATM   18  C   UNL     1      -9.299  14.890  66.652  1.00  0.00    -0.291 A  
HETATM   19  C   UNL     1      -8.343  14.176  67.388  1.00  0.00    -0.210 A  
HETATM   20  C   UNL     1      -8.284  12.778  67.321  1.00  0.00    -0.181 A  
BRANCH  18  21
HETATM   21  C   UNL     1      -9.327  16.410  66.694  1.00  0.00    -0.282 C  
HETATM   22  C   UNL     1      -9.526  16.946  68.124  1.00  0.00    -0.251 C  
HETATM   23  C   UNL     1      -9.682  18.465  68.122  1.00  0.00    -0.352 C  
HETATM   24  C   UNL     1     -10.771  18.906  67.146  1.00  0.00    -0.432 C  
HETATM   25  N   UNL     1     -10.496  18.440  65.786  1.00  0.00    -0.623 NA 
HETATM   26  C   UNL     1     -10.407  16.975  65.744  1.00  0.00    -0.261 C  
HETATM   27  H   UNL     1      -9.662  18.881  65.399  1.00  0.00     0.000 HD 
ENDBRANCH  18  21
ENDBRANCH  12  15
ENDBRANCH   3   6
TORSDOF 3
ENDMDL
MODEL       58
REMARK 921   NORMALIZED FREE ENERGY PREDICTED BY IDOCK:   -5.22 KCAL/MOL
REMARK 922        TOTAL FREE ENERGY PREDICTED BY IDOCK:   -6.80 KCAL/MOL
REMARK 923 INTER-LIGAND FREE ENERGY PREDICTED BY IDOCK:   -6.19 KCAL/MOL
REMARK 924 INTRA-LIGAND FREE ENERGY PREDICTED BY IDOCK:   -0.61 KCAL/MOL
REMARK 927      BINDING AFFINITY PREDICTED BY RF-SCORE:    0.00 PKD
ROOT
HETATM    1  N   UNL     1     -10.055   2.696  64.884  1.00  0.00    -0.338 N  
HETATM    2  H2  UNL     1      -9.940   2.485  63.893  1.00  0.00     0.000 HD 
HETATM    3  C   UNL     1      -9.025   3.273  65.567  1.00  0.00    -0.142 C  
HETATM    4  H1  UNL     1     -10.937   2.471  65.344  1.00  0.00     0.000 HD 
HETATM    5  O   UNL     1      -7.964   3.543  65.015  1.00  0.00    -0.088 OA 
ENDROOT
BRANCH   3   6
HETATM    6  C   UNL     1      -9.235   3.554  66.997  1.00  0.00    -0.213 A  
HETATM    7  C   UNL     1      -9.091   2.535  67.976  1.00  0.00    -0.232 A  
HETATM    8  C   UNL     1      -9.295   2.749  69.374  1.00  0.00    -0.189 A  
HETATM    9  C   UNL     1      -9.662   3.990  69.927  1.00  0.00    -0.263 A  
HETATM   10  C   UNL     1      -9.780   4.965  68.943  1.00  0.00    -0.242 A  
HETATM   11  C   UNL     1     -10.104   6.269  69.175  1.00  0.00    -0.168 A  
HETATM   12  N   UNL     1     -10.065   6.890  67.945  1.00  0.00    -0.154 NA 
HETATM   13  C   UNL     1      -9.588   4.817  67.525  1.00  0.00    -0.158 A  
HETATM   14  N   UNL     1      -9.798   6.012  66.934  1.00  0.00    -0.149 NA 
BRANCH  12  15
HETATM   15  C   UNL     1     -10.265   8.276  67.676  1.00  0.00    -0.231 A  
HETATM   16  C   UNL     1     -10.092   8.788  66.384  1.00  0.00    -0.313 A  
HETATM   17  C   UNL     1     -10.277  10.151  66.136  1.00  0.00    -0.285 A  
HETATM   18  C   UNL     1     -10.639  11.032  67.165  1.00  0.00    -0.294 A  
HETATM   19  C   UNL     1     -10.827  10.510  68.453  1.00  0.00    -0.284 A  
HETATM   20  C   UNL     1     -10.644   9.145  68.708  1.00  0.00    -0.208 A  
BRANCH  18  21
HETATM   21  C   UNL     1     -10.794  12.522  66.906  1.00  0.00    -0.280 C  
HETATM   22  C   UNL     1     -12.123  12.852  66.202  1.00  0.00    -0.458 C  
HETATM   23  C   UNL     1     -12.195  14.333  65.836  1.00  0.00    -0.422 C  
HETATM   24  C   UNL     1     -10.960  14.768  65.049  1.00  0.00    -0.414 C  
HETATM   25  N   UNL     1      -9.727  14.507  65.794  1.00  0.00    -0.464 NA 
HETATM   26  C   UNL     1      -9.597  13.076  66.102  1.00  0.00    -0.202 C  
HETATM   27  H   UNL     1      -9.666  15.081  66.634  1.00  0.00     0.000 HD 
ENDBRANCH  18  21
ENDBRANCH  12  15
ENDBRANCH   3   6
TORSDOF 3
ENDMDL
MODEL       59
REMARK 921   NORMALIZED FREE ENERGY PREDICTED BY IDOCK:   -5.22 KCAL/MOL
REMARK 922        TOTAL FREE ENERGY PREDICTED BY IDOCK:   -6.80 KCAL/MOL
REMARK 923 INTER-LIGAND FREE ENERGY PREDICTED BY IDOCK:   -6.08 KCAL/MOL
REMARK 924 INTRA-LIGAND FREE ENERGY PREDICTED BY IDOCK:   -0.72 KCAL/MOL
REMARK 927      BINDING AFFINITY PREDICTED BY RF-SCORE:    0.00 PKD
ROOT
HETATM    1  N   UNL     1     -12.252   7.269  72.337  1.00  0.00    -0.502 N  
HETATM    2  H2  UNL     1     -12.936   7.460  73.069  1.00  0.00     0.000 HD 
HETATM    3  C   UNL     1     -11.647   6.048  72.292  1.00  0.00    -0.307 C  
HETATM    4  H1  UNL     1     -12.036   7.996  71.654  1.00  0.00     0.000 HD 
HETATM    5  O   UNL     1     -11.907   5.176  73.112  1.00  0.00    -0.263 OA 
ENDROOT
BRANCH   3   6
HETATM    6  C   UNL     1     -10.663   5.821  71.219  1.00  0.00    -0.323 A  
HETATM    7  C   UNL     1     -10.022   4.563  71.066  1.00  0.00    -0.257 A  
HETATM    8  C   UNL     1      -9.052   4.291  70.052  1.00  0.00    -0.175 A  
HETATM    9  C   UNL     1      -8.631   5.239  69.102  1.00  0.00    -0.102 A  
HETATM   10  C   UNL     1      -9.289   6.451  69.274  1.00  0.00    -0.138 A  
HETATM   11  C   UNL     1      -9.105   7.554  68.493  1.00  0.00    -0.134 A  
HETATM   12  N   UNL     1      -9.977   8.505  68.975  1.00  0.00    -0.187 NA 
HETATM   13  C   UNL     1     -10.272   6.789  70.268  1.00  0.00    -0.195 A  
HETATM   14  N   UNL     1     -10.656   8.069  70.077  1.00  0.00    -0.239 NA 
BRANCH  12  15
HETATM   15  C   UNL     1     -10.205   9.809  68.444  1.00  0.00    -0.185 A  
HETATM   16  C   UNL     1      -9.151  10.560  67.909  1.00  0.00    -0.136 A  
HETATM   17  C   UNL     1      -9.385  11.842  67.404  1.00  0.00    -0.176 A  
HETATM   18  C   UNL     1     -10.670  12.403  67.420  1.00  0.00    -0.257 A  
HETATM   19  C   UNL     1     -11.724  11.639  67.942  1.00  0.00    -0.329 A  
HETATM   20  C   UNL     1     -11.496  10.353  68.448  1.00  0.00    -0.227 A  
BRANCH  18  21
HETATM   21  C   UNL     1     -10.918  13.816  66.915  1.00  0.00    -0.296 C  
HETATM   22  C   UNL     1     -10.530  13.978  65.433  1.00  0.00    -0.365 C  
HETATM   23  C   UNL     1     -10.663  15.432  64.989  1.00  0.00    -0.460 C  
HETATM   24  C   UNL     1      -9.903  16.368  65.927  1.00  0.00    -0.315 C  
HETATM   25  N   UNL     1     -10.363  16.234  67.310  1.00  0.00    -0.282 NA 
HETATM   26  C   UNL     1     -10.184  14.857  67.789  1.00  0.00    -0.236 C  
HETATM   27  H   UNL     1     -11.326  16.549  67.419  1.00  0.00     0.000 HD 
ENDBRANCH  18  21
ENDBRANCH  12  15
ENDBRANCH   3   6
TORSDOF 3
ENDMDL
MODEL       60
REMARK 921   NORMALIZED FREE ENERGY PREDICTED BY IDOCK:   -5.21 KCAL/MOL
REMARK 922        TOTAL FREE ENERGY PREDICTED BY IDOCK:   -6.79 KCAL/MOL
REMARK 923 INTER-LIGAND FREE ENERGY PREDICTED BY IDOCK:   -6.02 KCAL/MOL
REMARK 924 INTRA-LIGAND FREE ENERGY PREDICTED BY IDOCK:   -0.77 KCAL/MOL
REMARK 927      BINDING AFFINITY PREDICTED BY RF-SCORE:    0.00 PKD
ROOT
HETATM    1  N   UNL     1      -8.293   8.004  63.305  1.00  0.00    -0.384 N  
HETATM    2  H2  UNL     1      -7.683   7.967  62.488  1.00  0.00     0.000 HD 
HETATM    3  C   UNL     1      -7.940   7.321  64.432  1.00  0.00    -0.106 C  
HETATM    4  H1  UNL     1      -9.154   8.549  63.261  1.00  0.00     0.000 HD 
HETATM    5  O   UNL     1      -6.906   6.666  64.484  1.00  0.00    -0.044 OA 
ENDROOT
BRANCH   3   6
HETATM    6  C   UNL     1      -8.855   7.399  65.583  1.00  0.00    -0.056 A  
HETATM    7  C   UNL     1      -9.352   6.224  66.208  1.00  0.00    -0.155 A  
HETATM    8  C   UNL     1     -10.250   6.241  67.319  1.00  0.00    -0.237 A  
HETATM    9  C   UNL     1     -10.738   7.422  67.909  1.00  0.00    -0.217 A  
HETATM   10  C   UNL     1     -10.221   8.549  67.281  1.00  0.00    -0.346 A  
HETATM   11  C   UNL     1     -10.496   9.835  67.642  1.00  0.00    -0.251 A  
HETATM   12  N   UNL     1      -9.750  10.630  66.800  1.00  0.00    -0.180 NA 
HETATM   13  C   UNL     1      -9.316   8.602  66.165  1.00  0.00    -0.226 A  
HETATM   14  N   UNL     1      -9.067   9.896  65.872  1.00  0.00    -0.154 NA 
BRANCH  12  15
HETATM   15  C   UNL     1      -9.645  12.051  66.828  1.00  0.00    -0.208 A  
HETATM   16  C   UNL     1      -8.752  12.687  67.700  1.00  0.00    -0.179 A  
HETATM   17  C   UNL     1      -8.669  14.082  67.729  1.00  0.00    -0.185 A  
HETATM   18  C   UNL     1      -9.469  14.872  66.892  1.00  0.00    -0.251 A  
HETATM   19  C   UNL     1     -10.349  14.229  66.010  1.00  0.00    -0.318 A  
HETATM   20  C   UNL     1     -10.436  12.832  65.975  1.00  0.00    -0.291 A  
BRANCH  18  21
HETATM   21  C   UNL     1      -9.414  16.391  66.955  1.00  0.00    -0.240 C  
HETATM   22  C   UNL     1      -9.832  16.928  68.337  1.00  0.00    -0.266 C  
HETATM   23  C   UNL     1      -9.895  18.454  68.334  1.00  0.00    -0.396 C  
HETATM   24  C   UNL     1     -10.765  18.968  67.188  1.00  0.00    -0.456 C  
HETATM   25  N   UNL     1     -10.280  18.495  65.891  1.00  0.00    -0.580 NA 
HETATM   26  C   UNL     1     -10.272  17.027  65.839  1.00  0.00    -0.296 C  
HETATM   27  H   UNL     1      -9.366  18.886  65.665  1.00  0.00     0.000 HD 
ENDBRANCH  18  21
ENDBRANCH  12  15
ENDBRANCH   3   6
TORSDOF 3
ENDMDL
MODEL       61
REMARK 921   NORMALIZED FREE ENERGY PREDICTED BY IDOCK:   -5.17 KCAL/MOL
REMARK 922        TOTAL FREE ENERGY PREDICTED BY IDOCK:   -6.75 KCAL/MOL
REMARK 923 INTER-LIGAND FREE ENERGY PREDICTED BY IDOCK:   -5.94 KCAL/MOL
REMARK 924 INTRA-LIGAND FREE ENERGY PREDICTED BY IDOCK:   -0.80 KCAL/MOL
REMARK 927      BINDING AFFINITY PREDICTED BY RF-SCORE:    0.00 PKD
ROOT
HETATM    1  N   UNL     1     -10.318  14.867  69.234  1.00  0.00    -0.254 N  
HETATM    2  H2  UNL     1      -9.957  15.687  68.746  1.00  0.00     0.000 HD 
HETATM    3  C   UNL     1     -11.607  14.869  69.677  1.00  0.00    -0.303 C  
HETATM    4  H1  UNL     1      -9.706  14.063  69.379  1.00  0.00     0.000 HD 
HETATM    5  O   UNL     1     -12.342  15.834  69.502  1.00  0.00    -0.281 OA 
ENDROOT
BRANCH   3   6
HETATM    6  C   UNL     1     -12.082  13.665  70.380  1.00  0.00    -0.421 A  
HETATM    7  C   UNL     1     -12.966  13.761  71.488  1.00  0.00    -0.444 A  
HETATM    8  C   UNL     1     -13.448  12.628  72.213  1.00  0.00    -0.541 A  
HETATM    9  C   UNL     1     -13.096  11.301  71.908  1.00  0.00    -0.510 A  
HETATM   10  C   UNL     1     -12.243  11.244  70.813  1.00  0.00    -0.479 A  
HETATM   11  C   UNL     1     -11.747  10.095  70.271  1.00  0.00    -0.282 A  
HETATM   12  N   UNL     1     -10.992  10.486  69.187  1.00  0.00    -0.223 NA 
HETATM   13  C   UNL     1     -11.724  12.341  70.040  1.00  0.00    -0.242 A  
HETATM   14  N   UNL     1     -10.934  11.845  69.064  1.00  0.00    -0.228 NA 
BRANCH  12  15
HETATM   15  C   UNL     1     -10.324   9.639  68.255  1.00  0.00    -0.204 A  
HETATM   16  C   UNL     1      -9.703  10.172  67.118  1.00  0.00    -0.214 A  
HETATM   17  C   UNL     1      -9.063   9.329  66.205  1.00  0.00    -0.213 A  
HETATM   18  C   UNL     1      -9.025   7.942  66.404  1.00  0.00    -0.200 A  
HETATM   19  C   UNL     1      -9.634   7.416  67.552  1.00  0.00    -0.171 A  
HETATM   20  C   UNL     1     -10.275   8.255  68.471  1.00  0.00    -0.234 A  
BRANCH  18  21
HETATM   21  C   UNL     1      -8.370   7.020  65.387  1.00  0.00    -0.121 C  
HETATM   22  C   UNL     1      -8.905   5.579  65.483  1.00  0.00    -0.147 C  
HETATM   23  C   UNL     1      -8.140   4.648  64.545  1.00  0.00    -0.105 C  
HETATM   24  C   UNL     1      -6.633   4.758  64.767  1.00  0.00    -0.043 C  
HETATM   25  N   UNL     1      -6.160   6.131  64.586  1.00  0.00    -0.029 NA 
HETATM   26  C   UNL     1      -6.831   7.042  65.524  1.00  0.00    -0.052 C  
HETATM   27  H   UNL     1      -6.264   6.441  63.620  1.00  0.00     0.000 HD 
ENDBRANCH  18  21
ENDBRANCH  12  15
ENDBRANCH   3   6
TORSDOF 3
ENDMDL
MODEL       62
REMARK 921   NORMALIZED FREE ENERGY PREDICTED BY IDOCK:   -5.15 KCAL/MOL
REMARK 922        TOTAL FREE ENERGY PREDICTED BY IDOCK:   -6.72 KCAL/MOL
REMARK 923 INTER-LIGAND FREE ENERGY PREDICTED BY IDOCK:   -5.92 KCAL/MOL
REMARK 924 INTRA-LIGAND FREE ENERGY PREDICTED BY IDOCK:   -0.79 KCAL/MOL
REMARK 927      BINDING AFFINITY PREDICTED BY RF-SCORE:    0.00 PKD
ROOT
HETATM    1  N   UNL     1     -12.125  13.564  70.463  1.00  0.00    -0.445 N  
HETATM    2  H2  UNL     1     -12.160  13.948  71.407  1.00  0.00     0.000 HD 
HETATM    3  C   UNL     1     -11.841  14.391  69.417  1.00  0.00    -0.325 C  
HETATM    4  H1  UNL     1     -12.304  12.570  70.322  1.00  0.00     0.000 HD 
HETATM    5  O   UNL     1     -11.626  15.585  69.587  1.00  0.00    -0.300 OA 
ENDROOT
BRANCH   3   6
HETATM    6  C   UNL     1     -11.807  13.792  68.072  1.00  0.00    -0.408 A  
HETATM    7  C   UNL     1     -12.135  14.554  66.919  1.00  0.00    -0.309 A  
HETATM    8  C   UNL     1     -12.130  14.021  65.594  1.00  0.00    -0.432 A  
HETATM    9  C   UNL     1     -11.803  12.687  65.291  1.00  0.00    -0.452 A  
HETATM   10  C   UNL     1     -11.475  11.976  66.439  1.00  0.00    -0.417 A  
HETATM   11  C   UNL     1     -11.096  10.666  66.462  1.00  0.00     0.058 A  
HETATM   12  N   UNL     1     -10.821  10.377  67.781  1.00  0.00    -0.276 NA 
HETATM   13  C   UNL     1     -11.458  12.450  67.797  1.00  0.00    -0.324 A  
HETATM   14  N   UNL     1     -11.079  11.436  68.604  1.00  0.00    -0.216 NA 
BRANCH  12  15
HETATM   15  C   UNL     1     -10.321   9.149  68.305  1.00  0.00    -0.214 A  
HETATM   16  C   UNL     1     -10.414   7.963  67.566  1.00  0.00    -0.332 A  
HETATM   17  C   UNL     1      -9.933   6.763  68.096  1.00  0.00    -0.161 A  
HETATM   18  C   UNL     1      -9.348   6.717  69.370  1.00  0.00    -0.148 A  
HETATM   19  C   UNL     1      -9.243   7.910  70.098  1.00  0.00    -0.153 A  
HETATM   20  C   UNL     1      -9.722   9.117  69.572  1.00  0.00    -0.176 A  
BRANCH  18  21
HETATM   21  C   UNL     1      -8.868   5.404  69.968  1.00  0.00    -0.141 C  
HETATM   22  C   UNL     1     -10.033   4.552  70.506  1.00  0.00    -0.278 C  
HETATM   23  C   UNL     1      -9.514   3.304  71.217  1.00  0.00    -0.222 C  
HETATM   24  C   UNL     1      -8.477   3.665  72.279  1.00  0.00    -0.085 C  
HETATM   25  N   UNL     1      -7.352   4.404  71.704  1.00  0.00    -0.062 NA 
HETATM   26  C   UNL     1      -7.812   5.646  71.070  1.00  0.00    -0.105 C  
HETATM   27  H   UNL     1      -6.814   3.827  71.058  1.00  0.00     0.000 HD 
ENDBRANCH  18  21
ENDBRANCH  12  15
ENDBRANCH   3   6
TORSDOF 3
ENDMDL
MODEL       63
REMARK 921   NORMALIZED FREE ENERGY PREDICTED BY IDOCK:   -5.12 KCAL/MOL
REMARK 922        TOTAL FREE ENERGY PREDICTED BY IDOCK:   -6.69 KCAL/MOL
REMARK 923 INTER-LIGAND FREE ENERGY PREDICTED BY IDOCK:   -6.06 KCAL/MOL
REMARK 924 INTRA-LIGAND FREE ENERGY PREDICTED BY IDOCK:   -0.62 KCAL/MOL
REMARK 927      BINDING AFFINITY PREDICTED BY RF-SCORE:    0.00 PKD
ROOT
HETATM    1  N   UNL     1      -8.620   7.109  73.082  1.00  0.00    -0.119 N  
HETATM    2  H2  UNL     1      -8.755   7.676  73.919  1.00  0.00     0.000 HD 
HETATM    3  C   UNL     1      -9.684   6.442  72.550  1.00  0.00    -0.162 C  
HETATM    4  H1  UNL     1      -7.692   7.053  72.661  1.00  0.00     0.000 HD 
HETATM    5  O   UNL     1     -10.798   6.509  73.055  1.00  0.00    -0.246 OA 
ENDROOT
BRANCH   3   6
HETATM    6  C   UNL     1      -9.439   5.632  71.344  1.00  0.00    -0.176 A  
HETATM    7  C   UNL     1      -9.186   4.237  71.435  1.00  0.00    -0.194 A  
HETATM    8  C   UNL     1      -8.931   3.406  70.301  1.00  0.00    -0.175 A  
HETATM    9  C   UNL     1      -8.902   3.882  68.977  1.00  0.00    -0.151 A  
HETATM   10  C   UNL     1      -9.167   5.245  68.926  1.00  0.00    -0.150 A  
HETATM   11  C   UNL     1      -9.226   5.984  67.781  1.00  0.00    -0.107 A  
HETATM   12  N   UNL     1      -9.557   7.262  68.175  1.00  0.00    -0.139 NA 
HETATM   13  C   UNL     1      -9.432   6.135  70.024  1.00  0.00    -0.154 A  
HETATM   14  N   UNL     1      -9.640   7.376  69.533  1.00  0.00    -0.156 NA 
BRANCH  12  15
HETATM   15  C   UNL     1      -9.803   8.384  67.331  1.00  0.00    -0.191 A  
HETATM   16  C   UNL     1      -9.322   8.412  66.016  1.00  0.00    -0.244 A  
HETATM   17  C   UNL     1      -9.557   9.524  65.203  1.00  0.00    -0.270 A  
HETATM   18  C   UNL     1     -10.277  10.629  65.679  1.00  0.00    -0.319 A  
HETATM   19  C   UNL     1     -10.770  10.588  66.990  1.00  0.00    -0.310 A  
HETATM   20  C   UNL     1     -10.539   9.476  67.810  1.00  0.00    -0.318 A  
BRANCH  18  21
HETATM   21  C   UNL     1     -10.493  11.859  64.811  1.00  0.00    -0.333 C  
HETATM   22  C   UNL     1     -10.474  13.160  65.636  1.00  0.00    -0.290 C  
HETATM   23  C   UNL     1     -10.824  14.364  64.764  1.00  0.00    -0.415 C  
HETATM   24  C   UNL     1     -12.132  14.137  64.008  1.00  0.00    -0.348 C  
HETATM   25  N   UNL     1     -12.071  12.934  63.178  1.00  0.00    -0.790 NA 
HETATM   26  C   UNL     1     -11.802  11.745  63.999  1.00  0.00    -0.306 C  
HETATM   27  H   UNL     1     -11.394  13.031  62.422  1.00  0.00     0.000 HD 
ENDBRANCH  18  21
ENDBRANCH  12  15
ENDBRANCH   3   6
TORSDOF 3
ENDMDL
MODEL       64
REMARK 921   NORMALIZED FREE ENERGY PREDICTED BY IDOCK:   -5.10 KCAL/MOL
REMARK 922        TOTAL FREE ENERGY PREDICTED BY IDOCK:   -6.66 KCAL/MOL
REMARK 923 INTER-LIGAND FREE ENERGY PREDICTED BY IDOCK:   -5.88 KCAL/MOL
REMARK 924 INTRA-LIGAND FREE ENERGY PREDICTED BY IDOCK:   -0.78 KCAL/MOL
REMARK 927      BINDING AFFINITY PREDICTED BY RF-SCORE:    0.00 PKD
ROOT
HETATM    1  N   UNL     1      -6.331   5.905  69.757  1.00  0.00    -0.035 N  
HETATM    2  H2  UNL     1      -5.336   5.820  69.548  1.00  0.00     0.000 HD 
HETATM    3  C   UNL     1      -6.751   5.802  71.050  1.00  0.00    -0.053 C  
HETATM    4  H1  UNL     1      -6.990   6.065  68.994  1.00  0.00     0.000 HD 
HETATM    5  O   UNL     1      -5.960   5.610  71.966  1.00  0.00    -0.028 OA 
ENDROOT
BRANCH   3   6
HETATM    6  C   UNL     1      -8.197   5.926  71.302  1.00  0.00    -0.123 A  
HETATM    7  C   UNL     1      -8.834   5.163  72.317  1.00  0.00    -0.134 A  
HETATM    8  C   UNL     1     -10.233   5.234  72.597  1.00  0.00    -0.227 A  
HETATM    9  C   UNL     1     -11.126   6.065  71.896  1.00  0.00    -0.331 A  
HETATM   10  C   UNL     1     -10.467   6.806  70.922  1.00  0.00    -0.239 A  
HETATM   11  C   UNL     1     -11.064   7.712  70.096  1.00  0.00    -0.218 A  
HETATM   12  N   UNL     1     -10.052   8.244  69.328  1.00  0.00    -0.194 NA 
HETATM   13  C   UNL     1      -9.068   6.783  70.592  1.00  0.00    -0.155 A  
HETATM   14  N   UNL     1      -8.847   7.657  69.587  1.00  0.00    -0.140 NA 
BRANCH  12  15
HETATM   15  C   UNL     1     -10.165   9.285  68.359  1.00  0.00    -0.202 A  
HETATM   16  C   UNL     1     -10.399  10.608  68.753  1.00  0.00    -0.210 A  
HETATM   17  C   UNL     1     -10.522  11.617  67.794  1.00  0.00    -0.213 A  
HETATM   18  C   UNL     1     -10.413  11.332  66.426  1.00  0.00    -0.306 A  
HETATM   19  C   UNL     1     -10.163  10.008  66.039  1.00  0.00    -0.277 A  
HETATM   20  C   UNL     1     -10.038   8.993  66.995  1.00  0.00    -0.318 A  
BRANCH  18  21
HETATM   21  C   UNL     1     -10.594  12.420  65.379  1.00  0.00    -0.316 C  
HETATM   22  C   UNL     1     -10.751  13.815  66.014  1.00  0.00    -0.284 C  
HETATM   23  C   UNL     1     -11.062  14.867  64.952  1.00  0.00    -0.424 C  
HETATM   24  C   UNL     1     -12.253  14.449  64.093  1.00  0.00    -0.363 C  
HETATM   25  N   UNL     1     -12.023  13.155  63.447  1.00  0.00    -0.731 NA 
HETATM   26  C   UNL     1     -11.787  12.106  64.448  1.00  0.00    -0.358 C  
HETATM   27  H   UNL     1     -11.266  13.204  62.766  1.00  0.00     0.000 HD 
ENDBRANCH  18  21
ENDBRANCH  12  15
ENDBRANCH   3   6
TORSDOF 3
ENDMDL
MODEL       65
REMARK 921   NORMALIZED FREE ENERGY PREDICTED BY IDOCK:   -5.10 KCAL/MOL
REMARK 922        TOTAL FREE ENERGY PREDICTED BY IDOCK:   -6.66 KCAL/MOL
REMARK 923 INTER-LIGAND FREE ENERGY PREDICTED BY IDOCK:   -5.87 KCAL/MOL
REMARK 924 INTRA-LIGAND FREE ENERGY PREDICTED BY IDOCK:   -0.79 KCAL/MOL
REMARK 927      BINDING AFFINITY PREDICTED BY RF-SCORE:    0.00 PKD
ROOT
HETATM    1  N   UNL     1     -10.863   8.694  69.557  1.00  0.00    -0.376 N  
HETATM    2  H2  UNL     1     -11.779   8.385  69.883  1.00  0.00     0.000 HD 
HETATM    3  C   UNL     1     -10.305   8.093  68.468  1.00  0.00    -0.198 C  
HETATM    4  H1  UNL     1     -10.384   9.446  70.054  1.00  0.00     0.000 HD 
HETATM    5  O   UNL     1     -10.880   7.190  67.872  1.00  0.00    -0.205 OA 
ENDROOT
BRANCH   3   6
HETATM    6  C   UNL     1      -8.979   8.570  68.038  1.00  0.00    -0.141 A  
HETATM    7  C   UNL     1      -7.919   7.660  67.780  1.00  0.00    -0.121 A  
HETATM    8  C   UNL     1      -6.612   8.067  67.373  1.00  0.00    -0.058 A  
HETATM    9  C   UNL     1      -6.236   9.410  67.187  1.00  0.00    -0.065 A  
HETATM   10  C   UNL     1      -7.300  10.269  67.435  1.00  0.00    -0.093 A  
HETATM   11  C   UNL     1      -7.247  11.627  67.319  1.00  0.00    -0.137 A  
HETATM   12  N   UNL     1      -8.516  12.079  67.607  1.00  0.00    -0.151 NA 
HETATM   13  C   UNL     1      -8.636   9.927  67.844  1.00  0.00    -0.125 A  
HETATM   14  N   UNL     1      -9.354  11.063  67.970  1.00  0.00    -0.158 NA 
BRANCH  12  15
HETATM   15  C   UNL     1      -8.982  13.426  67.553  1.00  0.00    -0.207 A  
HETATM   16  C   UNL     1      -8.103  14.477  67.261  1.00  0.00    -0.219 A  
HETATM   17  C   UNL     1      -8.569  15.794  67.225  1.00  0.00    -0.209 A  
HETATM   18  C   UNL     1      -9.915  16.093  67.477  1.00  0.00    -0.243 A  
HETATM   19  C   UNL     1     -10.792  15.035  67.752  1.00  0.00    -0.284 A  
HETATM   20  C   UNL     1     -10.333  13.713  67.788  1.00  0.00    -0.241 A  
BRANCH  18  21
HETATM   21  C   UNL     1     -10.413  17.530  67.485  1.00  0.00    -0.355 C  
HETATM   22  C   UNL     1     -10.016  18.288  66.204  1.00  0.00    -0.313 C  
HETATM   23  C   UNL     1     -10.412  19.760  66.295  1.00  0.00    -0.614 C  
HETATM   24  C   UNL     1      -9.875  20.398  67.575  1.00  0.00    -0.424 C  
HETATM   25  N   UNL     1     -10.345  19.690  68.767  1.00  0.00    -0.565 NA 
HETATM   26  C   UNL     1      -9.921  18.284  68.741  1.00  0.00    -0.370 C  
HETATM   27  H   UNL     1     -11.354  19.778  68.884  1.00  0.00     0.000 HD 
ENDBRANCH  18  21
ENDBRANCH  12  15
ENDBRANCH   3   6
TORSDOF 3
ENDMDL
MODEL       66
REMARK 921   NORMALIZED FREE ENERGY PREDICTED BY IDOCK:   -5.06 KCAL/MOL
REMARK 922        TOTAL FREE ENERGY PREDICTED BY IDOCK:   -6.62 KCAL/MOL
REMARK 923 INTER-LIGAND FREE ENERGY PREDICTED BY IDOCK:   -5.84 KCAL/MOL
REMARK 924 INTRA-LIGAND FREE ENERGY PREDICTED BY IDOCK:   -0.77 KCAL/MOL
REMARK 927      BINDING AFFINITY PREDICTED BY RF-SCORE:    0.00 PKD
ROOT
HETATM    1  N   UNL     1     -10.247  18.886  66.334  1.00  0.00    -0.401 N  
HETATM    2  H2  UNL     1     -11.074  19.191  65.819  1.00  0.00     0.000 HD 
HETATM    3  C   UNL     1      -9.584  19.782  67.120  1.00  0.00    -0.361 C  
HETATM    4  H1  UNL     1      -9.935  17.919  66.249  1.00  0.00     0.000 HD 
HETATM    5  O   UNL     1      -9.960  20.944  67.222  1.00  0.00    -0.387 OA 
ENDROOT
BRANCH   3   6
HETATM    6  C   UNL     1      -8.394  19.297  67.839  1.00  0.00    -0.338 A  
HETATM    7  C   UNL     1      -7.383  20.195  68.276  1.00  0.00    -0.254 A  
HETATM    8  C   UNL     1      -6.204  19.779  68.967  1.00  0.00    -0.325 A  
HETATM    9  C   UNL     1      -5.918  18.439  69.285  1.00  0.00    -0.236 A  
HETATM   10  C   UNL     1      -6.933  17.592  68.855  1.00  0.00    -0.251 A  
HETATM   11  C   UNL     1      -6.949  16.241  69.037  1.00  0.00    -0.188 A  
HETATM   12  N   UNL     1      -8.143  15.804  68.508  1.00  0.00    -0.146 NA 
HETATM   13  C   UNL     1      -8.142  17.944  68.160  1.00  0.00    -0.267 A  
HETATM   14  N   UNL     1      -8.853  16.819  67.934  1.00  0.00    -0.215 NA 
BRANCH  12  15
HETATM   15  C   UNL     1      -8.652  14.472  68.520  1.00  0.00    -0.175 A  
HETATM   16  C   UNL     1     -10.030  14.231  68.586  1.00  0.00    -0.234 A  
HETATM   17  C   UNL     1     -10.516  12.921  68.611  1.00  0.00    -0.231 A  
HETATM   18  C   UNL     1      -9.643  11.824  68.569  1.00  0.00    -0.173 A  
HETATM   19  C   UNL     1      -8.266  12.072  68.487  1.00  0.00    -0.113 A  
HETATM   20  C   UNL     1      -7.773  13.382  68.460  1.00  0.00    -0.124 A  
BRANCH  18  21
HETATM   21  C   UNL     1     -10.167  10.399  68.645  1.00  0.00    -0.196 C  
HETATM   22  C   UNL     1      -9.293   9.507  69.545  1.00  0.00    -0.199 C  
HETATM   23  C   UNL     1      -9.763   8.055  69.499  1.00  0.00    -0.170 C  
HETATM   24  C   UNL     1      -9.869   7.555  68.059  1.00  0.00    -0.151 C  
HETATM   25  N   UNL     1     -10.773   8.388  67.265  1.00  0.00    -0.462 NA 
HETATM   26  C   UNL     1     -10.309   9.781  67.235  1.00  0.00    -0.248 C  
HETATM   27  H   UNL     1     -11.736   8.318  67.594  1.00  0.00     0.000 HD 
ENDBRANCH  18  21
ENDBRANCH  12  15
ENDBRANCH   3   6
TORSDOF 3
ENDMDL
MODEL       67
REMARK 921   NORMALIZED FREE ENERGY PREDICTED BY IDOCK:   -5.01 KCAL/MOL
REMARK 922        TOTAL FREE ENERGY PREDICTED BY IDOCK:   -6.55 KCAL/MOL
REMARK 923 INTER-LIGAND FREE ENERGY PREDICTED BY IDOCK:   -5.79 KCAL/MOL
REMARK 924 INTRA-LIGAND FREE ENERGY PREDICTED BY IDOCK:   -0.76 KCAL/MOL
REMARK 927      BINDING AFFINITY PREDICTED BY RF-SCORE:    0.00 PKD
ROOT
HETATM    1  N   UNL     1     -11.607  14.644  64.287  1.00  0.00    -0.641 N  
HETATM    2  H2  UNL     1     -12.055  14.490  63.383  1.00  0.00     0.000 HD 
HETATM    3  C   UNL     1     -11.301  15.916  64.671  1.00  0.00    -0.322 C  
HETATM    4  H1  UNL     1     -11.396  13.843  64.882  1.00  0.00     0.000 HD 
HETATM    5  O   UNL     1     -11.554  16.878  63.956  1.00  0.00    -1.123 OA 
ENDROOT
BRANCH   3   6
HETATM    6  C   UNL     1     -10.650  16.088  65.981  1.00  0.00    -0.324 A  
HETATM    7  C   UNL     1     -10.625  17.352  66.629  1.00  0.00    -0.182 A  
HETATM    8  C   UNL     1      -9.999  17.578  67.893  1.00  0.00    -0.312 A  
HETATM    9  C   UNL     1      -9.339  16.575  68.627  1.00  0.00    -0.241 A  
HETATM   10  C   UNL     1      -9.396  15.351  67.970  1.00  0.00    -0.196 A  
HETATM   11  C   UNL     1      -8.863  14.188  68.444  1.00  0.00    -0.187 A  
HETATM   12  N   UNL     1      -9.183  13.222  67.515  1.00  0.00    -0.203 NA 
HETATM   13  C   UNL     1     -10.009  15.056  66.703  1.00  0.00    -0.256 A  
HETATM   14  N   UNL     1      -9.837  13.744  66.435  1.00  0.00    -0.290 NA 
BRANCH  12  15
HETATM   15  C   UNL     1      -8.904  11.827  67.596  1.00  0.00    -0.162 A  
HETATM   16  C   UNL     1      -7.905  11.344  68.451  1.00  0.00    -0.135 A  
HETATM   17  C   UNL     1      -7.632   9.974  68.511  1.00  0.00    -0.087 A  
HETATM   18  C   UNL     1      -8.345   9.058  67.726  1.00  0.00    -0.117 A  
HETATM   19  C   UNL     1      -9.355   9.546  66.885  1.00  0.00    -0.185 A  
HETATM   20  C   UNL     1      -9.635  10.917  66.821  1.00  0.00    -0.210 A  
BRANCH  18  21
HETATM   21  C   UNL     1      -8.016   7.573  67.755  1.00  0.00    -0.118 C  
HETATM   22  C   UNL     1      -7.586   7.048  66.373  1.00  0.00    -0.088 C  
HETATM   23  C   UNL     1      -7.390   5.534  66.401  1.00  0.00    -0.079 C  
HETATM   24  C   UNL     1      -8.620   4.828  66.968  1.00  0.00    -0.104 C  
HETATM   25  N   UNL     1      -8.941   5.305  68.314  1.00  0.00    -0.108 NA 
HETATM   26  C   UNL     1      -9.202   6.751  68.308  1.00  0.00    -0.122 C  
HETATM   27  H   UNL     1      -8.215   5.055  68.985  1.00  0.00     0.000 HD 
ENDBRANCH  18  21
ENDBRANCH  12  15
ENDBRANCH   3   6
TORSDOF 3
ENDMDL
MODEL       68
REMARK 921   NORMALIZED FREE ENERGY PREDICTED BY IDOCK:   -4.96 KCAL/MOL
REMARK 922        TOTAL FREE ENERGY PREDICTED BY IDOCK:   -6.50 KCAL/MOL
REMARK 923 INTER-LIGAND FREE ENERGY PREDICTED BY IDOCK:   -5.73 KCAL/MOL
REMARK 924 INTRA-LIGAND FREE ENERGY PREDICTED BY IDOCK:   -0.77 KCAL/MOL
REMARK 927      BINDING AFFINITY PREDICTED BY RF-SCORE:    0.00 PKD
ROOT
HETATM    1  N   UNL     1     -12.279  13.723  71.324  1.00  0.00    -0.396 N  
HETATM    2  H2  UNL     1     -12.840  13.636  72.171  1.00  0.00     0.000 HD 
HETATM    3  C   UNL     1     -12.521  14.756  70.467  1.00  0.00    -0.352 C  
HETATM    4  H1  UNL     1     -11.549  13.036  71.136  1.00  0.00     0.000 HD 
HETATM    5  O   UNL     1     -13.398  15.581  70.693  1.00  0.00    -0.432 OA 
ENDROOT
BRANCH   3   6
HETATM    6  C   UNL     1     -11.688  14.838  69.255  1.00  0.00    -0.347 A  
HETATM    7  C   UNL     1     -11.406  16.087  68.641  1.00  0.00    -0.383 A  
HETATM    8  C   UNL     1     -10.615  16.223  67.458  1.00  0.00    -0.310 A  
HETATM    9  C   UNL     1     -10.035  15.136  66.779  1.00  0.00    -0.246 A  
HETATM   10  C   UNL     1     -10.321  13.934  67.415  1.00  0.00    -0.252 A  
HETATM   11  C   UNL     1      -9.881  12.711  67.002  1.00  0.00    -0.225 A  
HETATM   12  N   UNL     1     -10.349  11.809  67.932  1.00  0.00    -0.189 NA 
HETATM   13  C   UNL     1     -11.105  13.728  68.603  1.00  0.00    -0.267 A  
HETATM   14  N   UNL     1     -11.129  12.407  68.881  1.00  0.00    -0.251 NA 
BRANCH  12  15
HETATM   15  C   UNL     1     -10.094  10.407  67.973  1.00  0.00    -0.163 A  
HETATM   16  C   UNL     1      -9.758   9.705  66.809  1.00  0.00    -0.252 A  
HETATM   17  C   UNL     1      -9.523   8.328  66.860  1.00  0.00    -0.240 A  
HETATM   18  C   UNL     1      -9.616   7.622  68.068  1.00  0.00    -0.159 A  
HETATM   19  C   UNL     1      -9.937   8.333  69.232  1.00  0.00    -0.192 A  
HETATM   20  C   UNL     1     -10.171   9.713  69.188  1.00  0.00    -0.212 A  
BRANCH  18  21
HETATM   21  C   UNL     1      -9.409   6.116  68.116  1.00  0.00    -0.115 C  
HETATM   22  C   UNL     1      -7.922   5.732  67.995  1.00  0.00    -0.101 C  
HETATM   23  C   UNL     1      -7.754   4.217  67.914  1.00  0.00    -0.071 C  
HETATM   24  C   UNL     1      -8.631   3.622  66.814  1.00  0.00    -0.110 C  
HETATM   25  N   UNL     1     -10.043   3.947  67.018  1.00  0.00    -0.226 NA 
HETATM   26  C   UNL     1     -10.248   5.402  67.033  1.00  0.00    -0.233 C  
HETATM   27  H   UNL     1     -10.414   3.505  67.858  1.00  0.00     0.000 HD 
ENDBRANCH  18  21
ENDBRANCH  12  15
ENDBRANCH   3   6
TORSDOF 3
ENDMDL
MODEL       69
REMARK 921   NORMALIZED FREE ENERGY PREDICTED BY IDOCK:   -4.93 KCAL/MOL
REMARK 922        TOTAL FREE ENERGY PREDICTED BY IDOCK:   -6.46 KCAL/MOL
REMARK 923 INTER-LIGAND FREE ENERGY PREDICTED BY IDOCK:   -5.66 KCAL/MOL
REMARK 924 INTRA-LIGAND FREE ENERGY PREDICTED BY IDOCK:   -0.80 KCAL/MOL
REMARK 927      BINDING AFFINITY PREDICTED BY RF-SCORE:    0.00 PKD
ROOT
HETATM    1  N   UNL     1      -8.297   7.749  63.689  1.00  0.00    -0.371 N  
HETATM    2  H2  UNL     1      -7.715   7.820  62.854  1.00  0.00     0.000 HD 
HETATM    3  C   UNL     1      -7.951   6.867  64.669  1.00  0.00    -0.112 C  
HETATM    4  H1  UNL     1      -9.125   8.339  63.772  1.00  0.00     0.000 HD 
HETATM    5  O   UNL     1      -6.957   6.158  64.570  1.00  0.00    -0.048 OA 
ENDROOT
BRANCH   3   6
HETATM    6  C   UNL     1      -8.824   6.797  65.853  1.00  0.00    -0.127 A  
HETATM    7  C   UNL     1      -9.090   5.560  66.498  1.00  0.00    -0.138 A  
HETATM    8  C   UNL     1      -9.938   5.432  67.641  1.00  0.00    -0.195 A  
HETATM    9  C   UNL     1     -10.599   6.517  68.246  1.00  0.00    -0.302 A  
HETATM   10  C   UNL     1     -10.305   7.711  67.599  1.00  0.00    -0.303 A  
HETATM   11  C   UNL     1     -10.782   8.934  67.967  1.00  0.00    -0.108 A  
HETATM   12  N   UNL     1     -10.212   9.837  67.097  1.00  0.00    -0.213 NA 
HETATM   13  C   UNL     1      -9.463   7.908  66.450  1.00  0.00    -0.192 A  
HETATM   14  N   UNL     1      -9.448   9.224  66.146  1.00  0.00    -0.215 NA 
BRANCH  12  15
HETATM   15  C   UNL     1     -10.351  11.256  67.119  1.00  0.00    -0.209 A  
HETATM   16  C   UNL     1      -9.992  12.029  66.008  1.00  0.00    -0.258 A  
HETATM   17  C   UNL     1     -10.120  13.421  66.047  1.00  0.00    -0.308 A  
HETATM   18  C   UNL     1     -10.607  14.071  67.189  1.00  0.00    -0.274 A  
HETATM   19  C   UNL     1     -10.980  13.291  68.292  1.00  0.00    -0.280 A  
HETATM   20  C   UNL     1     -10.856  11.896  68.259  1.00  0.00    -0.261 A  
BRANCH  18  21
HETATM   21  C   UNL     1     -10.701  15.588  67.250  1.00  0.00    -0.308 C  
HETATM   22  C   UNL     1     -10.532  16.235  65.863  1.00  0.00    -0.359 C  
HETATM   23  C   UNL     1     -10.499  17.758  65.971  1.00  0.00    -0.286 C  
HETATM   24  C   UNL     1      -9.459  18.216  66.991  1.00  0.00    -0.274 C  
HETATM   25  N   UNL     1      -9.709  17.638  68.312  1.00  0.00    -0.300 NA 
HETATM   26  C   UNL     1      -9.680  16.170  68.253  1.00  0.00    -0.220 C  
HETATM   27  H   UNL     1     -10.579  17.982  68.716  1.00  0.00     0.000 HD 
ENDBRANCH  18  21
ENDBRANCH  12  15
ENDBRANCH   3   6
TORSDOF 3
ENDMDL
MODEL       70
REMARK 921   NORMALIZED FREE ENERGY PREDICTED BY IDOCK:   -4.92 KCAL/MOL
REMARK 922        TOTAL FREE ENERGY PREDICTED BY IDOCK:   -6.45 KCAL/MOL
REMARK 923 INTER-LIGAND FREE ENERGY PREDICTED BY IDOCK:   -5.85 KCAL/MOL
REMARK 924 INTRA-LIGAND FREE ENERGY PREDICTED BY IDOCK:   -0.60 KCAL/MOL
REMARK 927      BINDING AFFINITY PREDICTED BY RF-SCORE:    0.00 PKD
ROOT
HETATM    1  N   UNL     1     -10.546  17.539  67.963  1.00  0.00    -0.389 N  
HETATM    2  H2  UNL     1     -10.040  18.209  68.543  1.00  0.00     0.000 HD 
HETATM    3  C   UNL     1      -9.868  16.837  67.011  1.00  0.00    -0.262 C  
HETATM    4  H1  UNL     1     -11.547  17.410  68.108  1.00  0.00     0.000 HD 
HETATM    5  O   UNL     1      -8.665  16.993  66.838  1.00  0.00    -0.208 OA 
ENDROOT
BRANCH   3   6
HETATM    6  C   UNL     1     -10.641  15.885  66.195  1.00  0.00    -0.310 A  
HETATM    7  C   UNL     1     -11.209  16.275  64.953  1.00  0.00    -0.243 A  
HETATM    8  C   UNL     1     -11.977  15.398  64.128  1.00  0.00    -0.111 A  
HETATM    9  C   UNL     1     -12.252  14.058  64.458  1.00  0.00    -0.463 A  
HETATM   10  C   UNL     1     -11.670  13.708  65.671  1.00  0.00    -0.360 A  
HETATM   11  C   UNL     1     -11.745  12.473  66.243  1.00  0.00    -0.404 A  
HETATM   12  N   UNL     1     -10.999  12.548  67.399  1.00  0.00    -0.250 NA 
HETATM   13  C   UNL     1     -10.887  14.539  66.546  1.00  0.00    -0.314 A  
HETATM   14  N   UNL     1     -10.512  13.805  67.616  1.00  0.00    -0.240 NA 
BRANCH  12  15
HETATM   15  C   UNL     1     -10.718  11.488  68.310  1.00  0.00    -0.211 A  
HETATM   16  C   UNL     1      -9.403  11.210  68.704  1.00  0.00    -0.186 A  
HETATM   17  C   UNL     1      -9.139  10.160  69.587  1.00  0.00    -0.195 A  
HETATM   18  C   UNL     1     -10.176   9.365  70.097  1.00  0.00    -0.271 A  
HETATM   19  C   UNL     1     -11.491   9.659  69.712  1.00  0.00    -0.095 A  
HETATM   20  C   UNL     1     -11.762  10.711  68.829  1.00  0.00    -0.259 A  
BRANCH  18  21
HETATM   21  C   UNL     1      -9.886   8.192  71.021  1.00  0.00    -0.212 C  
HETATM   22  C   UNL     1      -9.163   8.632  72.307  1.00  0.00    -0.297 C  
HETATM   23  C   UNL     1      -8.767   7.424  73.152  1.00  0.00    -0.185 C  
HETATM   24  C   UNL     1      -7.983   6.406  72.327  1.00  0.00    -0.103 C  
HETATM   25  N   UNL     1      -8.744   5.958  71.160  1.00  0.00    -0.132 NA 
HETATM   26  C   UNL     1      -9.082   7.093  70.290  1.00  0.00    -0.156 C  
HETATM   27  H   UNL     1      -9.573   5.430  71.430  1.00  0.00     0.000 HD 
ENDBRANCH  18  21
ENDBRANCH  12  15
ENDBRANCH   3   6
TORSDOF 3
ENDMDL
MODEL       71
REMARK 921   NORMALIZED FREE ENERGY PREDICTED BY IDOCK:   -4.89 KCAL/MOL
REMARK 922        TOTAL FREE ENERGY PREDICTED BY IDOCK:   -6.42 KCAL/MOL
REMARK 923 INTER-LIGAND FREE ENERGY PREDICTED BY IDOCK:   -5.65 KCAL/MOL
REMARK 924 INTRA-LIGAND FREE ENERGY PREDICTED BY IDOCK:   -0.77 KCAL/MOL
REMARK 927      BINDING AFFINITY PREDICTED BY RF-SCORE:    0.00 PKD
ROOT
HETATM    1  N   UNL     1     -10.849  16.829  65.786  1.00  0.00    -0.164 N  
HETATM    2  H2  UNL     1     -11.759  17.165  65.470  1.00  0.00     0.000 HD 
HETATM    3  C   UNL     1      -9.917  17.728  66.212  1.00  0.00    -0.318 C  
HETATM    4  H1  UNL     1     -10.657  15.827  65.776  1.00  0.00     0.000 HD 
HETATM    5  O   UNL     1     -10.148  18.931  66.223  1.00  0.00    -0.372 OA 
ENDROOT
BRANCH   3   6
HETATM    6  C   UNL     1      -8.617  17.195  66.654  1.00  0.00    -0.284 A  
HETATM    7  C   UNL     1      -7.482  18.039  66.782  1.00  0.00    -0.242 A  
HETATM    8  C   UNL     1      -6.196  17.574  67.195  1.00  0.00    -0.180 A  
HETATM    9  C   UNL     1      -5.918  16.232  67.515  1.00  0.00    -0.188 A  
HETATM   10  C   UNL     1      -7.053  15.440  67.392  1.00  0.00    -0.229 A  
HETATM   11  C   UNL     1      -7.100  14.102  67.653  1.00  0.00    -0.183 A  
HETATM   12  N   UNL     1      -8.410  13.726  67.452  1.00  0.00    -0.185 NA 
HETATM   13  C   UNL     1      -8.372  15.843  66.985  1.00  0.00    -0.223 A  
HETATM   14  N   UNL     1      -9.179  14.761  67.004  1.00  0.00    -0.221 NA 
BRANCH  12  15
HETATM   15  C   UNL     1      -8.975  12.434  67.665  1.00  0.00    -0.183 A  
HETATM   16  C   UNL     1     -10.344  12.209  67.471  1.00  0.00    -0.219 A  
HETATM   17  C   UNL     1     -10.888  10.942  67.697  1.00  0.00    -0.317 A  
HETATM   18  C   UNL     1     -10.084   9.873  68.117  1.00  0.00    -0.193 A  
HETATM   19  C   UNL     1      -8.712  10.100  68.293  1.00  0.00    -0.120 A  
HETATM   20  C   UNL     1      -8.160  11.367  68.067  1.00  0.00    -0.134 A  
BRANCH  18  21
HETATM   21  C   UNL     1     -10.683   8.506  68.408  1.00  0.00    -0.084 C  
HETATM   22  C   UNL     1      -9.909   7.757  69.509  1.00  0.00    -0.179 C  
HETATM   23  C   UNL     1     -10.448   6.340  69.689  1.00  0.00    -0.295 C  
HETATM   24  C   UNL     1     -10.494   5.594  68.357  1.00  0.00    -0.195 C  
HETATM   25  N   UNL     1     -11.308   6.305  67.370  1.00  0.00    -0.653 NA 
HETATM   26  C   UNL     1     -10.773   7.651  67.124  1.00  0.00    -0.290 C  
HETATM   27  H   UNL     1     -12.290   6.333  67.641  1.00  0.00     0.000 HD 
ENDBRANCH  18  21
ENDBRANCH  12  15
ENDBRANCH   3   6
TORSDOF 3
ENDMDL
MODEL       72
REMARK 921   NORMALIZED FREE ENERGY PREDICTED BY IDOCK:   -4.87 KCAL/MOL
REMARK 922        TOTAL FREE ENERGY PREDICTED BY IDOCK:   -6.39 KCAL/MOL
REMARK 923 INTER-LIGAND FREE ENERGY PREDICTED BY IDOCK:   -5.81 KCAL/MOL
REMARK 924 INTRA-LIGAND FREE ENERGY PREDICTED BY IDOCK:   -0.59 KCAL/MOL
REMARK 927      BINDING AFFINITY PREDICTED BY RF-SCORE:    0.00 PKD
ROOT
HETATM    1  N   UNL     1     -13.750  15.449  70.458  1.00  0.00    -0.770 N  
HETATM    2  H2  UNL     1     -13.959  16.042  71.261  1.00  0.00     0.000 HD 
HETATM    3  C   UNL     1     -12.481  14.979  70.289  1.00  0.00    -0.337 C  
HETATM    4  H1  UNL     1     -14.494  15.220  69.800  1.00  0.00     0.000 HD 
HETATM    5  O   UNL     1     -11.587  15.254  71.081  1.00  0.00    -0.310 OA 
ENDROOT
BRANCH   3   6
HETATM    6  C   UNL     1     -12.226  14.130  69.113  1.00  0.00    -0.290 A  
HETATM    7  C   UNL     1     -12.460  14.609  67.796  1.00  0.00     0.334 A  
HETATM    8  C   UNL     1     -12.242  13.825  66.622  1.00  0.00    -0.454 A  
HETATM    9  C   UNL     1     -11.775  12.498  66.646  1.00  0.00    -0.453 A  
HETATM   10  C   UNL     1     -11.544  12.069  67.947  1.00  0.00    -0.405 A  
HETATM   11  C   UNL     1     -11.071  10.836  68.287  1.00  0.00    -0.271 A  
HETATM   12  N   UNL     1     -10.947  10.846  69.660  1.00  0.00    -0.260 NA 
HETATM   13  C   UNL     1     -11.740  12.804  69.168  1.00  0.00    -0.322 A  
HETATM   14  N   UNL     1     -11.392  12.016  70.207  1.00  0.00     0.115 NA 
BRANCH  12  15
HETATM   15  C   UNL     1     -10.425   9.806  70.483  1.00  0.00    -0.301 A  
HETATM   16  C   UNL     1     -11.217   9.209  71.472  1.00  0.00    -0.430 A  
HETATM   17  C   UNL     1     -10.690   8.199  72.282  1.00  0.00    -0.381 A  
HETATM   18  C   UNL     1      -9.367   7.762  72.125  1.00  0.00    -0.204 A  
HETATM   19  C   UNL     1      -8.585   8.352  71.123  1.00  0.00    -0.187 A  
HETATM   20  C   UNL     1      -9.108   9.363  70.307  1.00  0.00    -0.283 A  
BRANCH  18  21
HETATM   21  C   UNL     1      -8.778   6.697  73.037  1.00  0.00    -0.130 C  
HETATM   22  C   UNL     1      -7.274   6.483  72.781  1.00  0.00    -0.081 C  
HETATM   23  C   UNL     1      -6.738   5.321  73.614  1.00  0.00    -0.075 C  
HETATM   24  C   UNL     1      -7.579   4.062  73.412  1.00  0.00    -0.076 C  
HETATM   25  N   UNL     1      -8.985   4.295  73.745  1.00  0.00    -0.093 NA 
HETATM   26  C   UNL     1      -9.550   5.365  72.911  1.00  0.00    -0.143 C  
HETATM   27  H   UNL     1      -9.110   4.487  74.739  1.00  0.00     0.000 HD 
ENDBRANCH  18  21
ENDBRANCH  12  15
ENDBRANCH   3   6
TORSDOF 3
ENDMDL
MODEL       73
REMARK 921   NORMALIZED FREE ENERGY PREDICTED BY IDOCK:   -4.83 KCAL/MOL
REMARK 922        TOTAL FREE ENERGY PREDICTED BY IDOCK:   -6.35 KCAL/MOL
REMARK 923 INTER-LIGAND FREE ENERGY PREDICTED BY IDOCK:   -5.74 KCAL/MOL
REMARK 924 INTRA-LIGAND FREE ENERGY PREDICTED BY IDOCK:   -0.61 KCAL/MOL
REMARK 927      BINDING AFFINITY PREDICTED BY RF-SCORE:    0.00 PKD
ROOT
HETATM    1  N   UNL     1      -6.301   6.898  64.814  1.00  0.00    -0.036 N  
HETATM    2  H2  UNL     1      -5.715   7.331  64.100  1.00  0.00     0.000 HD 
HETATM    3  C   UNL     1      -7.658   6.969  64.695  1.00  0.00    -0.106 C  
HETATM    4  H1  UNL     1      -5.861   6.422  65.601  1.00  0.00     0.000 HD 
HETATM    5  O   UNL     1      -8.187   7.542  63.750  1.00  0.00    -0.070 OA 
ENDROOT
BRANCH   3   6
HETATM    6  C   UNL     1      -8.463   6.335  65.753  1.00  0.00    -0.148 A  
HETATM    7  C   UNL     1      -8.443   4.928  65.947  1.00  0.00    -0.119 A  
HETATM    8  C   UNL     1      -9.212   4.259  66.948  1.00  0.00    -0.160 A  
HETATM    9  C   UNL     1     -10.070   4.922  67.844  1.00  0.00    -0.146 A  
HETATM   10  C   UNL     1     -10.054   6.296  67.634  1.00  0.00    -0.179 A  
HETATM   11  C   UNL     1     -10.768   7.203  68.360  1.00  0.00    -0.147 A  
HETATM   12  N   UNL     1     -10.427   8.439  67.857  1.00  0.00    -0.215 NA 
HETATM   13  C   UNL     1      -9.305   7.030  66.650  1.00  0.00    -0.165 A  
HETATM   14  N   UNL     1      -9.577   8.345  66.792  1.00  0.00    -0.200 NA 
BRANCH  12  15
HETATM   15  C   UNL     1     -10.862   9.711  68.334  1.00  0.00    -0.167 A  
HETATM   16  C   UNL     1     -11.112   9.918  69.696  1.00  0.00    -0.279 A  
HETATM   17  C   UNL     1     -11.551  11.165  70.150  1.00  0.00    -0.410 A  
HETATM   18  C   UNL     1     -11.750  12.230  69.260  1.00  0.00    -0.388 A  
HETATM   19  C   UNL     1     -11.483  12.021  67.900  1.00  0.00    -0.396 A  
HETATM   20  C   UNL     1     -11.041  10.774  67.440  1.00  0.00    -0.363 A  
BRANCH  18  21
HETATM   21  C   UNL     1     -12.274  13.573  69.746  1.00  0.00    -0.330 C  
HETATM   22  C   UNL     1     -11.254  14.706  69.527  1.00  0.00    -0.300 C  
HETATM   23  C   UNL     1     -11.749  16.013  70.140  1.00  0.00    -0.290 C  
HETATM   24  C   UNL     1     -12.147  15.821  71.603  1.00  0.00    -0.452 C  
HETATM   25  N   UNL     1     -13.176  14.791  71.750  1.00  0.00    -0.325 NA 
HETATM   26  C   UNL     1     -12.702  13.501  71.228  1.00  0.00    -0.348 C  
HETATM   27  H   UNL     1     -14.055  15.072  71.318  1.00  0.00     0.000 HD 
ENDBRANCH  18  21
ENDBRANCH  12  15
ENDBRANCH   3   6
TORSDOF 3
ENDMDL
MODEL       74
REMARK 921   NORMALIZED FREE ENERGY PREDICTED BY IDOCK:   -4.74 KCAL/MOL
REMARK 922        TOTAL FREE ENERGY PREDICTED BY IDOCK:   -6.24 KCAL/MOL
REMARK 923 INTER-LIGAND FREE ENERGY PREDICTED BY IDOCK:   -5.46 KCAL/MOL
REMARK 924 INTRA-LIGAND FREE ENERGY PREDICTED BY IDOCK:   -0.78 KCAL/MOL
REMARK 927      BINDING AFFINITY PREDICTED BY RF-SCORE:    0.00 PKD
ROOT
HETATM    1  N   UNL     1     -11.246   9.444  68.009  1.00  0.00    -0.492 N  
HETATM    2  H2  UNL     1     -12.252   9.285  68.078  1.00  0.00     0.000 HD 
HETATM    3  C   UNL     1     -10.397   8.666  68.740  1.00  0.00    -0.208 C  
HETATM    4  H1  UNL     1     -10.898  10.181  67.396  1.00  0.00     0.000 HD 
HETATM    5  O   UNL     1     -10.816   7.781  69.476  1.00  0.00    -0.230 OA 
ENDROOT
BRANCH   3   6
HETATM    6  C   UNL     1      -8.955   8.936  68.612  1.00  0.00    -0.137 A  
HETATM    7  C   UNL     1      -8.008   7.877  68.595  1.00  0.00    -0.124 A  
HETATM    8  C   UNL     1      -6.598   8.081  68.485  1.00  0.00    -0.058 A  
HETATM    9  C   UNL     1      -6.000   9.351  68.384  1.00  0.00    -0.044 A  
HETATM   10  C   UNL     1      -6.956  10.360  68.390  1.00  0.00    -0.069 A  
HETATM   11  C   UNL     1      -6.683  11.692  68.286  1.00  0.00    -0.064 A  
HETATM   12  N   UNL     1      -7.905  12.328  68.287  1.00  0.00    -0.146 NA 
HETATM   13  C   UNL     1      -8.384  10.223  68.495  1.00  0.00    -0.116 A  
HETATM   14  N   UNL     1      -8.939  11.453  68.458  1.00  0.00    -0.167 NA 
BRANCH  12  15
HETATM   15  C   UNL     1      -8.146  13.724  68.129  1.00  0.00    -0.155 A  
HETATM   16  C   UNL     1      -7.663  14.646  69.067  1.00  0.00    -0.134 A  
HETATM   17  C   UNL     1      -7.918  16.011  68.909  1.00  0.00    -0.212 A  
HETATM   18  C   UNL     1      -8.657  16.488  67.817  1.00  0.00    -0.180 A  
HETATM   19  C   UNL     1      -9.124  15.562  66.874  1.00  0.00    -0.264 A  
HETATM   20  C   UNL     1      -8.870  14.193  67.025  1.00  0.00    -0.237 A  
BRANCH  18  21
HETATM   21  C   UNL     1      -8.976  17.967  67.670  1.00  0.00    -0.251 C  
HETATM   22  C   UNL     1     -10.493  18.231  67.627  1.00  0.00    -0.431 C  
HETATM   23  C   UNL     1     -10.784  19.703  67.347  1.00  0.00    -0.563 C  
HETATM   24  C   UNL     1     -10.044  20.185  66.100  1.00  0.00    -0.415 C  
HETATM   25  N   UNL     1      -8.599  19.986  66.222  1.00  0.00    -0.495 NA 
HETATM   26  C   UNL     1      -8.282  18.566  66.426  1.00  0.00    -0.268 C  
HETATM   27  H   UNL     1      -8.199  20.571  66.956  1.00  0.00     0.000 HD 
ENDBRANCH  18  21
ENDBRANCH  12  15
ENDBRANCH   3   6
TORSDOF 3
ENDMDL
MODEL       75
REMARK 921   NORMALIZED FREE ENERGY PREDICTED BY IDOCK:   -4.73 KCAL/MOL
REMARK 922        TOTAL FREE ENERGY PREDICTED BY IDOCK:   -6.22 KCAL/MOL
REMARK 923 INTER-LIGAND FREE ENERGY PREDICTED BY IDOCK:   -5.46 KCAL/MOL
REMARK 924 INTRA-LIGAND FREE ENERGY PREDICTED BY IDOCK:   -0.76 KCAL/MOL
REMARK 927      BINDING AFFINITY PREDICTED BY RF-SCORE:    0.00 PKD
ROOT
HETATM    1  N   UNL     1      -8.113  16.457  66.238  1.00  0.00    -0.321 N  
HETATM    2  H2  UNL     1      -7.573  16.965  65.537  1.00  0.00     0.000 HD 
HETATM    3  C   UNL     1      -9.469  16.603  66.269  1.00  0.00    -0.293 C  
HETATM    4  H1  UNL     1      -7.628  15.851  66.900  1.00  0.00     0.000 HD 
HETATM    5  O   UNL     1     -10.051  17.332  65.474  1.00  0.00    -0.581 OA 
ENDROOT
BRANCH   3   6
HETATM    6  C   UNL     1     -10.205  15.854  67.301  1.00  0.00    -0.278 A  
HETATM    7  C   UNL     1     -11.037  16.521  68.240  1.00  0.00    -0.321 A  
HETATM    8  C   UNL     1     -11.764  15.846  69.268  1.00  0.00    -0.360 A  
HETATM    9  C   UNL     1     -11.731  14.453  69.460  1.00  0.00    -0.362 A  
HETATM   10  C   UNL     1     -10.920  13.833  68.516  1.00  0.00    -0.283 A  
HETATM   11  C   UNL     1     -10.707  12.489  68.436  1.00  0.00    -0.240 A  
HETATM   12  N   UNL     1      -9.889  12.303  67.343  1.00  0.00    -0.196 NA 
HETATM   13  C   UNL     1     -10.166  14.451  67.459  1.00  0.00    -0.240 A  
HETATM   14  N   UNL     1      -9.518  13.486  66.772  1.00  0.00    -0.263 NA 
BRANCH  12  15
HETATM   15  C   UNL     1      -9.440  11.060  66.808  1.00  0.00    -0.182 A  
HETATM   16  C   UNL     1      -8.109  10.891  66.405  1.00  0.00    -0.164 A  
HETATM   17  C   UNL     1      -7.685   9.672  65.869  1.00  0.00    -0.102 A  
HETATM   18  C   UNL     1      -8.572   8.597  65.724  1.00  0.00    -0.184 A  
HETATM   19  C   UNL     1      -9.899   8.767  66.144  1.00  0.00    -0.297 A  
HETATM   20  C   UNL     1     -10.330   9.985  66.683  1.00  0.00    -0.281 A  
BRANCH  18  21
HETATM   21  C   UNL     1      -8.124   7.286  65.097  1.00  0.00    -0.128 C  
HETATM   22  C   UNL     1      -8.150   7.342  63.558  1.00  0.00    -0.002 C  
HETATM   23  C   UNL     1      -7.823   5.977  62.956  1.00  0.00    -0.099 C  
HETATM   24  C   UNL     1      -8.716   4.886  63.544  1.00  0.00    -0.107 C  
HETATM   25  N   UNL     1      -8.596   4.820  65.002  1.00  0.00    -0.137 NA 
HETATM   26  C   UNL     1      -8.969   6.102  65.615  1.00  0.00    -0.041 C  
HETATM   27  H   UNL     1      -7.665   4.521  65.290  1.00  0.00     0.000 HD 
ENDBRANCH  18  21
ENDBRANCH  12  15
ENDBRANCH   3   6
TORSDOF 3
ENDMDL
MODEL       76
REMARK 921   NORMALIZED FREE ENERGY PREDICTED BY IDOCK:   -4.71 KCAL/MOL
REMARK 922        TOTAL FREE ENERGY PREDICTED BY IDOCK:   -6.20 KCAL/MOL
REMARK 923 INTER-LIGAND FREE ENERGY PREDICTED BY IDOCK:   -5.42 KCAL/MOL
REMARK 924 INTRA-LIGAND FREE ENERGY PREDICTED BY IDOCK:   -0.77 KCAL/MOL
REMARK 927      BINDING AFFINITY PREDICTED BY RF-SCORE:    0.00 PKD
ROOT
HETATM    1  N   UNL     1      -5.943  15.399  68.213  1.00  0.00    -0.110 N  
HETATM    2  H2  UNL     1      -4.936  15.249  68.157  1.00  0.00     0.000 HD 
HETATM    3  C   UNL     1      -6.509  16.410  67.494  1.00  0.00    -0.159 C  
HETATM    4  H1  UNL     1      -6.506  14.789  68.807  1.00  0.00     0.000 HD 
HETATM    5  O   UNL     1      -5.833  17.142  66.781  1.00  0.00    -0.169 OA 
ENDROOT
BRANCH   3   6
HETATM    6  C   UNL     1      -7.966  16.590  67.612  1.00  0.00    -0.178 A  
HETATM    7  C   UNL     1      -8.557  17.878  67.517  1.00  0.00    -0.239 A  
HETATM    8  C   UNL     1      -9.961  18.112  67.636  1.00  0.00    -0.344 A  
HETATM    9  C   UNL     1     -10.905  17.093  67.860  1.00  0.00    -0.294 A  
HETATM   10  C   UNL     1     -10.293  15.847  67.933  1.00  0.00    -0.269 A  
HETATM   11  C   UNL     1     -10.950  14.668  68.124  1.00  0.00    -0.261 A  
HETATM   12  N   UNL     1      -9.983  13.688  68.085  1.00  0.00    -0.240 NA 
HETATM   13  C   UNL     1      -8.892  15.544  67.821  1.00  0.00    -0.172 A  
HETATM   14  N   UNL     1      -8.728  14.209  67.947  1.00  0.00    -0.171 NA 
BRANCH  12  15
HETATM   15  C   UNL     1     -10.184  12.279  68.168  1.00  0.00    -0.212 A  
HETATM   16  C   UNL     1      -9.429  11.399  67.381  1.00  0.00    -0.174 A  
HETATM   17  C   UNL     1      -9.645  10.021  67.461  1.00  0.00    -0.178 A  
HETATM   18  C   UNL     1     -10.613   9.489  68.324  1.00  0.00    -0.260 A  
HETATM   19  C   UNL     1     -11.353  10.373  69.121  1.00  0.00    -0.286 A  
HETATM   20  C   UNL     1     -11.141  11.755  69.047  1.00  0.00    -0.301 A  
BRANCH  18  21
HETATM   21  C   UNL     1     -10.881   7.993  68.377  1.00  0.00     0.030 C  
HETATM   22  C   UNL     1      -9.960   7.274  69.380  1.00  0.00    -0.170 C  
HETATM   23  C   UNL     1     -10.159   5.761  69.318  1.00  0.00    -0.268 C  
HETATM   24  C   UNL     1     -10.026   5.245  67.886  1.00  0.00    -0.160 C  
HETATM   25  N   UNL     1     -10.977   5.901  66.988  1.00  0.00    -0.521 NA 
HETATM   26  C   UNL     1     -10.766   7.355  66.975  1.00  0.00    -0.319 C  
HETATM   27  H   UNL     1     -11.941   5.662  67.220  1.00  0.00     0.000 HD 
ENDBRANCH  18  21
ENDBRANCH  12  15
ENDBRANCH   3   6
TORSDOF 3
ENDMDL
MODEL       77
REMARK 921   NORMALIZED FREE ENERGY PREDICTED BY IDOCK:   -4.59 KCAL/MOL
REMARK 922        TOTAL FREE ENERGY PREDICTED BY IDOCK:   -6.06 KCAL/MOL
REMARK 923 INTER-LIGAND FREE ENERGY PREDICTED BY IDOCK:   -5.26 KCAL/MOL
REMARK 924 INTRA-LIGAND FREE ENERGY PREDICTED BY IDOCK:   -0.80 KCAL/MOL
REMARK 927      BINDING AFFINITY PREDICTED BY RF-SCORE:    0.00 PKD
ROOT
HETATM    1  N   UNL     1      -9.079   8.693  64.657  1.00  0.00    -0.382 N  
HETATM    2  H2  UNL     1      -9.298   8.448  63.691  1.00  0.00     0.000 HD 
HETATM    3  C   UNL     1      -8.011   8.107  65.268  1.00  0.00    -0.126 C  
HETATM    4  H1  UNL     1      -9.664   9.372  65.144  1.00  0.00     0.000 HD 
HETATM    5  O   UNL     1      -7.308   7.291  64.683  1.00  0.00    -0.068 OA 
ENDROOT
BRANCH   3   6
HETATM    6  C   UNL     1      -7.737   8.489  66.664  1.00  0.00    -0.090 A  
HETATM    7  C   UNL     1      -7.353   7.521  67.630  1.00  0.00    -0.103 A  
HETATM    8  C   UNL     1      -7.088   7.834  68.998  1.00  0.00    -0.074 A  
HETATM    9  C   UNL     1      -7.181   9.132  69.533  1.00  0.00    -0.060 A  
HETATM   10  C   UNL     1      -7.545  10.054  68.558  1.00  0.00    -0.087 A  
HETATM   11  C   UNL     1      -7.695  11.392  68.771  1.00  0.00    -0.135 A  
HETATM   12  N   UNL     1      -8.011  11.934  67.544  1.00  0.00    -0.146 NA 
HETATM   13  C   UNL     1      -7.823   9.806  67.169  1.00  0.00    -0.099 A  
HETATM   14  N   UNL     1      -8.136  10.978  66.577  1.00  0.00    -0.157 NA 
BRANCH  12  15
HETATM   15  C   UNL     1      -8.199  13.314  67.237  1.00  0.00    -0.158 A  
HETATM   16  C   UNL     1      -7.213  14.258  67.549  1.00  0.00    -0.197 A  
HETATM   17  C   UNL     1      -7.415  15.610  67.256  1.00  0.00    -0.257 A  
HETATM   18  C   UNL     1      -8.598  16.050  66.646  1.00  0.00    -0.316 A  
HETATM   19  C   UNL     1      -9.574  15.097  66.321  1.00  0.00    -0.325 A  
HETATM   20  C   UNL     1      -9.377  13.741  66.611  1.00  0.00    -0.277 A  
BRANCH  18  21
HETATM   21  C   UNL     1      -8.839  17.526  66.370  1.00  0.00    -0.269 C  
HETATM   22  C   UNL     1      -8.319  18.421  67.510  1.00  0.00    -0.259 C  
HETATM   23  C   UNL     1      -8.690  19.882  67.270  1.00  0.00    -0.399 C  
HETATM   24  C   UNL     1     -10.187  20.035  67.005  1.00  0.00    -0.451 C  
HETATM   25  N   UNL     1     -10.616  19.228  65.863  1.00  0.00    -0.480 NA 
HETATM   26  C   UNL     1     -10.333  17.805  66.093  1.00  0.00    -0.340 C  
HETATM   27  H   UNL     1     -10.204  19.558  64.991  1.00  0.00     0.000 HD 
ENDBRANCH  18  21
ENDBRANCH  12  15
ENDBRANCH   3   6
TORSDOF 3
ENDMDL
MODEL       78
REMARK 921   NORMALIZED FREE ENERGY PREDICTED BY IDOCK:   -4.44 KCAL/MOL
REMARK 922        TOTAL FREE ENERGY PREDICTED BY IDOCK:   -5.88 KCAL/MOL
REMARK 923 INTER-LIGAND FREE ENERGY PREDICTED BY IDOCK:   -5.11 KCAL/MOL
REMARK 924 INTRA-LIGAND FREE ENERGY PREDICTED BY IDOCK:   -0.77 KCAL/MOL
REMARK 927      BINDING AFFINITY PREDICTED BY RF-SCORE:    0.00 PKD
ROOT
HETATM    1  N   UNL     1     -10.999  16.664  69.404  1.00  0.00    -0.282 N  
HETATM    2  H2  UNL     1     -11.980  16.922  69.505  1.00  0.00     0.000 HD 
HETATM    3  C   UNL     1     -10.247  17.266  68.439  1.00  0.00    -0.358 C  
HETATM    4  H1  UNL     1     -10.601  15.960  70.027  1.00  0.00     0.000 HD 
HETATM    5  O   UNL     1     -10.724  18.110  67.691  1.00  0.00    -0.416 OA 
ENDROOT
BRANCH   3   6
HETATM    6  C   UNL     1      -8.836  16.856  68.328  1.00  0.00    -0.228 A  
HETATM    7  C   UNL     1      -7.788  17.813  68.372  1.00  0.00    -0.284 A  
HETATM    8  C   UNL     1      -6.405  17.474  68.257  1.00  0.00    -0.180 A  
HETATM    9  C   UNL     1      -5.937  16.158  68.088  1.00  0.00    -0.116 A  
HETATM   10  C   UNL     1      -6.988  15.248  68.064  1.00  0.00    -0.144 A  
HETATM   11  C   UNL     1      -6.846  13.899  67.932  1.00  0.00    -0.160 A  
HETATM   12  N   UNL     1      -8.120  13.378  68.005  1.00  0.00    -0.147 NA 
HETATM   13  C   UNL     1      -8.395  15.522  68.175  1.00  0.00    -0.145 A  
HETATM   14  N   UNL     1      -9.069  14.355  68.106  1.00  0.00    -0.187 NA 
BRANCH  12  15
HETATM   15  C   UNL     1      -8.487  12.001  67.986  1.00  0.00    -0.168 A  
HETATM   16  C   UNL     1      -8.140  11.152  69.045  1.00  0.00    -0.078 A  
HETATM   17  C   UNL     1      -8.494   9.800  69.009  1.00  0.00    -0.137 A  
HETATM   18  C   UNL     1      -9.200   9.265  67.922  1.00  0.00    -0.140 A  
HETATM   19  C   UNL     1      -9.559  10.124  66.873  1.00  0.00    -0.219 A  
HETATM   20  C   UNL     1      -9.208  11.479  66.904  1.00  0.00    -0.181 A  
BRANCH  18  21
HETATM   21  C   UNL     1      -9.544   7.785  67.859  1.00  0.00    -0.167 C  
HETATM   22  C   UNL     1      -8.339   6.929  67.429  1.00  0.00    -0.122 C  
HETATM   23  C   UNL     1      -8.744   5.468  67.246  1.00  0.00    -0.107 C  
HETATM   24  C   UNL     1      -9.949   5.341  66.316  1.00  0.00    -0.192 C  
HETATM   25  N   UNL     1     -11.093   6.109  66.810  1.00  0.00    -0.725 NA 
HETATM   26  C   UNL     1     -10.754   7.533  66.932  1.00  0.00    -0.229 C  
HETATM   27  H   UNL     1     -11.451   5.730  67.686  1.00  0.00     0.000 HD 
ENDBRANCH  18  21
ENDBRANCH  12  15
ENDBRANCH   3   6
TORSDOF 3
ENDMDL
MODEL       79
REMARK 921   NORMALIZED FREE ENERGY PREDICTED BY IDOCK:   -4.42 KCAL/MOL
REMARK 922        TOTAL FREE ENERGY PREDICTED BY IDOCK:   -5.86 KCAL/MOL
REMARK 923 INTER-LIGAND FREE ENERGY PREDICTED BY IDOCK:   -5.08 KCAL/MOL
REMARK 924 INTRA-LIGAND FREE ENERGY PREDICTED BY IDOCK:   -0.79 KCAL/MOL
REMARK 927      BINDING AFFINITY PREDICTED BY RF-SCORE:    0.00 PKD
ROOT
HETATM    1  N   UNL     1     -12.469  13.956  71.213  1.00  0.00    -0.359 N  
HETATM    2  H2  UNL     1     -13.127  13.896  71.990  1.00  0.00     0.000 HD 
HETATM    3  C   UNL     1     -12.621  14.944  70.286  1.00  0.00    -0.313 C  
HETATM    4  H1  UNL     1     -11.711  13.276  71.147  1.00  0.00     0.000 HD 
HETATM    5  O   UNL     1     -13.531  15.761  70.366  1.00  0.00    -0.261 OA 
ENDROOT
BRANCH   3   6
HETATM    6  C   UNL     1     -11.649  14.988  69.180  1.00  0.00    -0.333 A  
HETATM    7  C   UNL     1     -11.350  16.206  68.513  1.00  0.00    -0.359 A  
HETATM    8  C   UNL     1     -10.426  16.304  67.427  1.00  0.00    -0.304 A  
HETATM    9  C   UNL     1      -9.718  15.206  66.905  1.00  0.00    -0.248 A  
HETATM   10  C   UNL     1     -10.024  14.037  67.590  1.00  0.00    -0.237 A  
HETATM   11  C   UNL     1      -9.481  12.814  67.326  1.00  0.00    -0.204 A  
HETATM   12  N   UNL     1     -10.019  11.954  68.258  1.00  0.00    -0.198 NA 
HETATM   13  C   UNL     1     -10.939  13.870  68.687  1.00  0.00    -0.261 A  
HETATM   14  N   UNL     1     -10.937  12.572  69.058  1.00  0.00    -0.218 NA 
BRANCH  12  15
HETATM   15  C   UNL     1      -9.706  10.574  68.434  1.00  0.00    -0.159 A  
HETATM   16  C   UNL     1     -10.569   9.728  69.143  1.00  0.00    -0.237 A  
HETATM   17  C   UNL     1     -10.245   8.381  69.321  1.00  0.00    -0.211 A  
HETATM   18  C   UNL     1      -9.059   7.846  68.797  1.00  0.00    -0.140 A  
HETATM   19  C   UNL     1      -8.208   8.693  68.074  1.00  0.00    -0.115 A  
HETATM   20  C   UNL     1      -8.528  10.045  67.891  1.00  0.00    -0.118 A  
BRANCH  18  21
HETATM   21  C   UNL     1      -8.682   6.391  69.031  1.00  0.00    -0.123 C  
HETATM   22  C   UNL     1      -9.816   5.601  69.710  1.00  0.00    -0.245 C  
HETATM   23  C   UNL     1      -9.365   4.183  70.052  1.00  0.00    -0.237 C  
HETATM   24  C   UNL     1      -8.063   4.195  70.851  1.00  0.00    -0.070 C  
HETATM   25  N   UNL     1      -6.995   4.887  70.128  1.00  0.00    -0.047 NA 
HETATM   26  C   UNL     1      -7.373   6.278  69.844  1.00  0.00    -0.079 C  
HETATM   27  H   UNL     1      -6.729   4.387  69.281  1.00  0.00     0.000 HD 
ENDBRANCH  18  21
ENDBRANCH  12  15
ENDBRANCH   3   6
TORSDOF 3
ENDMDL
MODEL       80
REMARK 921   NORMALIZED FREE ENERGY PREDICTED BY IDOCK:   -4.38 KCAL/MOL
REMARK 922        TOTAL FREE ENERGY PREDICTED BY IDOCK:   -5.81 KCAL/MOL
REMARK 923 INTER-LIGAND FREE ENERGY PREDICTED BY IDOCK:   -5.43 KCAL/MOL
REMARK 924 INTRA-LIGAND FREE ENERGY PREDICTED BY IDOCK:   -0.38 KCAL/MOL
REMARK 927      BINDING AFFINITY PREDICTED BY RF-SCORE:    0.00 PKD
ROOT
HETATM    1  N   UNL     1      -8.458   7.422  64.661  1.00  0.00    -0.361 N  
HETATM    2  H2  UNL     1      -8.029   7.297  63.744  1.00  0.00     0.000 HD 
HETATM    3  C   UNL     1      -8.896   8.659  65.029  1.00  0.00    -0.070 C  
HETATM    4  H1  UNL     1      -8.549   6.618  65.283  1.00  0.00     0.000 HD 
HETATM    5  O   UNL     1      -8.786   9.624  64.282  1.00  0.00    -0.204 OA 
ENDROOT
BRANCH   3   6
HETATM    6  C   UNL     1      -9.503   8.792  66.365  1.00  0.00    -0.291 A  
HETATM    7  C   UNL     1      -9.918   7.649  67.099  1.00  0.00    -0.297 A  
HETATM    8  C   UNL     1     -10.523   7.720  68.392  1.00  0.00    -0.207 A  
HETATM    9  C   UNL     1     -10.772   8.926  69.071  1.00  0.00    -0.148 A  
HETATM   10  C   UNL     1     -10.341  10.020  68.329  1.00  0.00    -0.224 A  
HETATM   11  C   UNL     1     -10.431  11.319  68.734  1.00  0.00    -0.208 A  
HETATM   12  N   UNL     1      -9.852  12.066  67.732  1.00  0.00    -0.186 NA 
HETATM   13  C   UNL     1      -9.726  10.019  67.029  1.00  0.00    -0.181 A  
HETATM   14  N   UNL     1      -9.462  11.294  66.675  1.00  0.00    -0.182 NA 
BRANCH  12  15
HETATM   15  C   UNL     1      -9.643  13.477  67.723  1.00  0.00    -0.219 A  
HETATM   16  C   UNL     1     -10.240  14.296  68.690  1.00  0.00    -0.246 A  
HETATM   17  C   UNL     1     -10.040  15.679  68.662  1.00  0.00    -0.210 A  
HETATM   18  C   UNL     1      -9.241  16.275  67.676  1.00  0.00    -0.206 A  
HETATM   19  C   UNL     1      -8.633  15.448  66.721  1.00  0.00    -0.308 A  
HETATM   20  C   UNL     1      -8.829  14.061  66.745  1.00  0.00    -0.178 A  
BRANCH  18  21
HETATM   21  C   UNL     1      -9.061  17.784  67.616  1.00  0.00    -0.246 C  
HETATM   22  C   UNL     1      -8.264  18.223  66.374  1.00  0.00    -0.276 C  
HETATM   23  C   UNL     1      -7.984  19.724  66.406  1.00  0.00    -0.335 C  
HETATM   24  C   UNL     1      -7.336  20.136  67.726  1.00  0.00    -0.298 C  
HETATM   25  N   UNL     1      -8.168  19.768  68.873  1.00  0.00    -0.210 NA 
HETATM   26  C   UNL     1      -8.400  18.318  68.907  1.00  0.00    -0.144 C  
HETATM   27  H   UNL     1      -9.044  20.290  68.885  1.00  0.00     0.000 HD 
ENDBRANCH  18  21
ENDBRANCH  12  15
ENDBRANCH   3   6
TORSDOF 3
ENDMDL
MODEL       81
REMARK 921   NORMALIZED FREE ENERGY PREDICTED BY IDOCK:   -4.35 KCAL/MOL
REMARK 922        TOTAL FREE ENERGY PREDICTED BY IDOCK:   -5.78 KCAL/MOL
REMARK 923 INTER-LIGAND FREE ENERGY PREDICTED BY IDOCK:   -5.25 KCAL/MOL
REMARK 924 INTRA-LIGAND FREE ENERGY PREDICTED BY IDOCK:   -0.52 KCAL/MOL
REMARK 927      BINDING AFFINITY PREDICTED BY RF-SCORE:    0.00 PKD
ROOT
HETATM    1  N   UNL     1      -5.776  20.841  69.144  1.00  0.00    -0.366 N  
HETATM    2  H2  UNL     1      -4.804  20.976  69.425  1.00  0.00     0.000 HD 
HETATM    3  C   UNL     1      -6.069  19.924  68.178  1.00  0.00    -0.237 C  
HETATM    4  H1  UNL     1      -6.506  21.394  69.592  1.00  0.00     0.000 HD 
HETATM    5  O   UNL     1      -5.191  19.260  67.640  1.00  0.00    -0.169 OA 
ENDROOT
BRANCH   3   6
HETATM    6  C   UNL     1      -7.484  19.768  67.802  1.00  0.00    -0.322 A  
HETATM    7  C   UNL     1      -8.315  20.899  67.580  1.00  0.00    -0.091 A  
HETATM    8  C   UNL     1      -9.696  20.805  67.225  1.00  0.00    -0.487 A  
HETATM    9  C   UNL     1     -10.378  19.586  67.062  1.00  0.00    -0.568 A  
HETATM   10  C   UNL     1      -9.532  18.503  67.274  1.00  0.00    -0.296 A  
HETATM   11  C   UNL     1      -9.901  17.195  67.168  1.00  0.00    -0.271 A  
HETATM   12  N   UNL     1      -8.760  16.461  67.410  1.00  0.00    -0.180 NA 
HETATM   13  C   UNL     1      -8.139  18.527  67.629  1.00  0.00    -0.250 A  
HETATM   14  N   UNL     1      -7.698  17.256  67.735  1.00  0.00    -0.187 NA 
BRANCH  12  15
HETATM   15  C   UNL     1      -8.621  15.044  67.346  1.00  0.00    -0.192 A  
HETATM   16  C   UNL     1      -7.409  14.427  67.683  1.00  0.00    -0.197 A  
HETATM   17  C   UNL     1      -7.280  13.038  67.603  1.00  0.00    -0.151 A  
HETATM   18  C   UNL     1      -8.352  12.234  67.190  1.00  0.00    -0.183 A  
HETATM   19  C   UNL     1      -9.567  12.856  66.871  1.00  0.00    -0.240 A  
HETATM   20  C   UNL     1      -9.703  14.248  66.950  1.00  0.00    -0.268 A  
BRANCH  18  21
HETATM   21  C   UNL     1      -8.199  10.727  67.057  1.00  0.00    -0.126 C  
HETATM   22  C   UNL     1      -8.452   9.999  68.390  1.00  0.00    -0.112 C  
HETATM   23  C   UNL     1      -8.164   8.505  68.261  1.00  0.00    -0.123 C  
HETATM   24  C   UNL     1      -6.771   8.259  67.685  1.00  0.00    -0.062 C  
HETATM   25  N   UNL     1      -6.607   8.904  66.381  1.00  0.00    -0.066 NA 
HETATM   26  C   UNL     1      -6.812  10.355  66.486  1.00  0.00    -0.107 C  
HETATM   27  H   UNL     1      -7.213   8.487  65.675  1.00  0.00     0.000 HD 
ENDBRANCH  18  21
ENDBRANCH  12  15
ENDBRANCH   3   6
TORSDOF 3
ENDMDL
MODEL       82
REMARK 921   NORMALIZED FREE ENERGY PREDICTED BY IDOCK:   -4.31 KCAL/MOL
REMARK 922        TOTAL FREE ENERGY PREDICTED BY IDOCK:   -5.73 KCAL/MOL
REMARK 923 INTER-LIGAND FREE ENERGY PREDICTED BY IDOCK:   -5.26 KCAL/MOL
REMARK 924 INTRA-LIGAND FREE ENERGY PREDICTED BY IDOCK:   -0.47 KCAL/MOL
REMARK 927      BINDING AFFINITY PREDICTED BY RF-SCORE:    0.00 PKD
ROOT
HETATM    1  N   UNL     1     -12.587  15.158  64.064  1.00  0.00    -0.876 N  
HETATM    2  H2  UNL     1     -13.414  14.988  63.491  1.00  0.00     0.000 HD 
HETATM    3  C   UNL     1     -12.231  14.241  65.008  1.00  0.00    -0.433 C  
HETATM    4  H1  UNL     1     -12.046  16.010  63.919  1.00  0.00     0.000 HD 
HETATM    5  O   UNL     1     -12.881  13.217  65.183  1.00  0.00    -0.670 OA 
ENDROOT
BRANCH   3   6
HETATM    6  C   UNL     1     -11.033  14.532  65.814  1.00  0.00    -0.319 A  
HETATM    7  C   UNL     1     -10.757  15.848  66.271  1.00  0.00    -0.261 A  
HETATM    8  C   UNL     1      -9.605  16.189  67.045  1.00  0.00    -0.233 A  
HETATM    9  C   UNL     1      -8.624  15.259  67.434  1.00  0.00    -0.197 A  
HETATM   10  C   UNL     1      -8.934  13.982  66.981  1.00  0.00    -0.248 A  
HETATM   11  C   UNL     1      -8.182  12.869  67.218  1.00  0.00    -0.176 A  
HETATM   12  N   UNL     1      -8.866  11.823  66.639  1.00  0.00    -0.187 NA 
HETATM   13  C   UNL     1     -10.072  13.572  66.204  1.00  0.00    -0.304 A  
HETATM   14  N   UNL     1      -9.988  12.243  65.983  1.00  0.00    -0.248 NA 
BRANCH  12  15
HETATM   15  C   UNL     1      -8.515  10.441  66.676  1.00  0.00    -0.126 A  
HETATM   16  C   UNL     1      -8.720   9.680  67.834  1.00  0.00    -0.119 A  
HETATM   17  C   UNL     1      -8.359   8.330  67.862  1.00  0.00    -0.128 A  
HETATM   18  C   UNL     1      -7.789   7.710  66.742  1.00  0.00    -0.107 A  
HETATM   19  C   UNL     1      -7.601   8.473  65.581  1.00  0.00    -0.090 A  
HETATM   20  C   UNL     1      -7.962   9.825  65.546  1.00  0.00    -0.123 A  
BRANCH  18  21
HETATM   21  C   UNL     1      -7.351   6.254  66.787  1.00  0.00    -0.079 C  
HETATM   22  C   UNL     1      -8.542   5.287  66.647  1.00  0.00    -0.110 C  
HETATM   23  C   UNL     1      -8.094   3.839  66.828  1.00  0.00    -0.096 C  
HETATM   24  C   UNL     1      -7.310   3.661  68.127  1.00  0.00    -0.054 C  
HETATM   25  N   UNL     1      -6.144   4.544  68.177  1.00  0.00    -0.030 NA 
HETATM   26  C   UNL     1      -6.550   5.952  68.073  1.00  0.00    -0.052 C  
HETATM   27  H   UNL     1      -5.454   4.297  67.468  1.00  0.00     0.000 HD 
ENDBRANCH  18  21
ENDBRANCH  12  15
ENDBRANCH   3   6
TORSDOF 3
ENDMDL
MODEL       83
REMARK 921   NORMALIZED FREE ENERGY PREDICTED BY IDOCK:   -4.18 KCAL/MOL
REMARK 922        TOTAL FREE ENERGY PREDICTED BY IDOCK:   -5.57 KCAL/MOL
REMARK 923 INTER-LIGAND FREE ENERGY PREDICTED BY IDOCK:   -4.79 KCAL/MOL
REMARK 924 INTRA-LIGAND FREE ENERGY PREDICTED BY IDOCK:   -0.79 KCAL/MOL
REMARK 927      BINDING AFFINITY PREDICTED BY RF-SCORE:    0.00 PKD
ROOT
HETATM    1  N   UNL     1      -6.270   3.912  67.904  1.00  0.00    -0.035 N  
HETATM    2  H2  UNL     1      -5.337   3.894  68.314  1.00  0.00     0.000 HD 
HETATM    3  C   UNL     1      -6.410   3.737  66.559  1.00  0.00    -0.036 C  
HETATM    4  H1  UNL     1      -7.079   4.060  68.508  1.00  0.00     0.000 HD 
HETATM    5  O   UNL     1      -5.438   3.559  65.833  1.00  0.00    -0.012 OA 
ENDROOT
BRANCH   3   6
HETATM    6  C   UNL     1      -7.776   3.775  66.010  1.00  0.00    -0.089 A  
HETATM    7  C   UNL     1      -8.217   2.810  65.066  1.00  0.00    -0.087 A  
HETATM    8  C   UNL     1      -9.526   2.806  64.494  1.00  0.00    -0.151 A  
HETATM    9  C   UNL     1     -10.514   3.759  64.803  1.00  0.00    -0.100 A  
HETATM   10  C   UNL     1     -10.053   4.678  65.739  1.00  0.00    -0.264 A  
HETATM   11  C   UNL     1     -10.789   5.706  66.247  1.00  0.00    -0.011 A  
HETATM   12  N   UNL     1      -9.976   6.333  67.165  1.00  0.00    -0.138 NA 
HETATM   13  C   UNL     1      -8.754   4.736  66.353  1.00  0.00    -0.112 A  
HETATM   14  N   UNL     1      -8.726   5.783  67.205  1.00  0.00    -0.109 NA 
BRANCH  12  15
HETATM   15  C   UNL     1     -10.320   7.427  68.012  1.00  0.00    -0.199 A  
HETATM   16  C   UNL     1     -10.546   7.231  69.381  1.00  0.00    -0.238 A  
HETATM   17  C   UNL     1     -10.896   8.310  70.198  1.00  0.00    -0.237 A  
HETATM   18  C   UNL     1     -11.027   9.603  69.674  1.00  0.00    -0.253 A  
HETATM   19  C   UNL     1     -10.783   9.796  68.307  1.00  0.00    -0.277 A  
HETATM   20  C   UNL     1     -10.430   8.720  67.483  1.00  0.00    -0.340 A  
BRANCH  18  21
HETATM   21  C   UNL     1     -11.455  10.769  70.552  1.00  0.00    -0.367 C  
HETATM   22  C   UNL     1     -12.819  10.519  71.222  1.00  0.00    -0.532 C  
HETATM   23  C   UNL     1     -13.284  11.754  71.990  1.00  0.00    -0.460 C  
HETATM   24  C   UNL     1     -13.256  12.998  71.105  1.00  0.00    -0.006 C  
HETATM   25  N   UNL     1     -11.920  13.238  70.557  1.00  0.00    -0.523 NA 
HETATM   26  C   UNL     1     -11.471  12.092  69.755  1.00  0.00    -0.210 C  
HETATM   27  H   UNL     1     -11.249  13.472  71.288  1.00  0.00     0.000 HD 
ENDBRANCH  18  21
ENDBRANCH  12  15
ENDBRANCH   3   6
TORSDOF 3
ENDMDL
MODEL       84
REMARK 921   NORMALIZED FREE ENERGY PREDICTED BY IDOCK:   -4.15 KCAL/MOL
REMARK 922        TOTAL FREE ENERGY PREDICTED BY IDOCK:   -5.54 KCAL/MOL
REMARK 923 INTER-LIGAND FREE ENERGY PREDICTED BY IDOCK:   -4.94 KCAL/MOL
REMARK 924 INTRA-LIGAND FREE ENERGY PREDICTED BY IDOCK:   -0.61 KCAL/MOL
REMARK 927      BINDING AFFINITY PREDICTED BY RF-SCORE:    0.00 PKD
ROOT
HETATM    1  N   UNL     1      -6.767   3.702  72.408  1.00  0.00    -0.028 N  
HETATM    2  H2  UNL     1      -6.401   3.931  73.332  1.00  0.00     0.000 HD 
HETATM    3  C   UNL     1      -8.072   3.972  72.122  1.00  0.00    -0.085 C  
HETATM    4  H1  UNL     1      -6.149   3.274  71.718  1.00  0.00     0.000 HD 
HETATM    5  O   UNL     1      -8.815   4.486  72.951  1.00  0.00    -0.114 OA 
ENDROOT
BRANCH   3   6
HETATM    6  C   UNL     1      -8.557   3.618  70.777  1.00  0.00    -0.111 A  
HETATM    7  C   UNL     1      -8.608   2.265  70.347  1.00  0.00    -0.101 A  
HETATM    8  C   UNL     1      -9.058   1.866  69.051  1.00  0.00    -0.179 A  
HETATM    9  C   UNL     1      -9.494   2.770  68.065  1.00  0.00    -0.212 A  
HETATM   10  C   UNL     1      -9.443   4.081  68.525  1.00  0.00    -0.215 A  
HETATM   11  C   UNL     1      -9.821   5.174  67.803  1.00  0.00    -0.156 A  
HETATM   12  N   UNL     1      -9.656   6.254  68.642  1.00  0.00    -0.123 NA 
HETATM   13  C   UNL     1      -9.005   4.549  69.812  1.00  0.00    -0.099 A  
HETATM   14  N   UNL     1      -9.120   5.893  69.845  1.00  0.00    -0.145 NA 
BRANCH  12  15
HETATM   15  C   UNL     1      -9.982   7.614  68.366  1.00  0.00    -0.176 A  
HETATM   16  C   UNL     1     -10.064   8.079  67.047  1.00  0.00    -0.350 A  
HETATM   17  C   UNL     1     -10.372   9.417  66.789  1.00  0.00    -0.303 A  
HETATM   18  C   UNL     1     -10.605  10.321  67.836  1.00  0.00    -0.282 A  
HETATM   19  C   UNL     1     -10.538   9.846  69.153  1.00  0.00    -0.240 A  
HETATM   20  C   UNL     1     -10.232   8.506  69.418  1.00  0.00    -0.211 A  
BRANCH  18  21
HETATM   21  C   UNL     1     -10.892  11.788  67.558  1.00  0.00    -0.286 C  
HETATM   22  C   UNL     1     -11.511  12.004  66.164  1.00  0.00    -0.401 C  
HETATM   23  C   UNL     1     -11.666  13.492  65.860  1.00  0.00    -0.380 C  
HETATM   24  C   UNL     1     -10.350  14.239  66.068  1.00  0.00    -0.309 C  
HETATM   25  N   UNL     1      -9.844  14.069  67.431  1.00  0.00    -0.236 NA 
HETATM   26  C   UNL     1      -9.620  12.648  67.731  1.00  0.00    -0.197 C  
HETATM   27  H   UNL     1     -10.457  14.507  68.118  1.00  0.00     0.000 HD 
ENDBRANCH  18  21
ENDBRANCH  12  15
ENDBRANCH   3   6
TORSDOF 3
ENDMDL
MODEL       85
REMARK 921   NORMALIZED FREE ENERGY PREDICTED BY IDOCK:   -4.03 KCAL/MOL
REMARK 922        TOTAL FREE ENERGY PREDICTED BY IDOCK:   -5.40 KCAL/MOL
REMARK 923 INTER-LIGAND FREE ENERGY PREDICTED BY IDOCK:   -4.81 KCAL/MOL
REMARK 924 INTRA-LIGAND FREE ENERGY PREDICTED BY IDOCK:   -0.59 KCAL/MOL
REMARK 927      BINDING AFFINITY PREDICTED BY RF-SCORE:    0.00 PKD
ROOT
HETATM    1  N   UNL     1     -12.596  14.768  68.606  1.00  0.00    -0.367 N  
HETATM    2  H2  UNL     1     -12.726  15.345  69.437  1.00  0.00     0.000 HD 
HETATM    3  C   UNL     1     -11.507  14.978  67.812  1.00  0.00    -0.334 C  
HETATM    4  H1  UNL     1     -13.283  14.046  68.386  1.00  0.00     0.000 HD 
HETATM    5  O   UNL     1     -10.682  15.844  68.076  1.00  0.00    -0.280 OA 
ENDROOT
BRANCH   3   6
HETATM    6  C   UNL     1     -11.365  14.124  66.621  1.00  0.00    -0.352 A  
HETATM    7  C   UNL     1     -11.751  14.587  65.335  1.00  0.00    -0.354 A  
HETATM    8  C   UNL     1     -11.646  13.798  64.148  1.00  0.00    -0.360 A  
HETATM    9  C   UNL     1     -11.152  12.481  64.129  1.00  0.00    -0.426 A  
HETATM   10  C   UNL     1     -10.772  12.067  65.400  1.00  0.00    -0.330 A  
HETATM   11  C   UNL     1     -10.240  10.847  65.694  1.00  0.00    -0.263 A  
HETATM   12  N   UNL     1      -9.968  10.871  67.045  1.00  0.00    -0.187 NA 
HETATM   13  C   UNL     1     -10.849  12.808  66.630  1.00  0.00    -0.264 A  
HETATM   14  N   UNL     1     -10.374  12.036  67.630  1.00  0.00    -0.196 NA 
BRANCH  12  15
HETATM   15  C   UNL     1      -9.338   9.848  67.813  1.00  0.00    -0.140 A  
HETATM   16  C   UNL     1      -7.972   9.578  67.664  1.00  0.00    -0.106 A  
HETATM   17  C   UNL     1      -7.369   8.563  68.413  1.00  0.00    -0.094 A  
HETATM   18  C   UNL     1      -8.110   7.798  69.324  1.00  0.00    -0.127 A  
HETATM   19  C   UNL     1      -9.474   8.084  69.480  1.00  0.00    -0.160 A  
HETATM   20  C   UNL     1     -10.083   9.101  68.734  1.00  0.00    -0.212 A  
BRANCH  18  21
HETATM   21  C   UNL     1      -7.467   6.662  70.104  1.00  0.00    -0.094 C  
HETATM   22  C   UNL     1      -6.026   6.997  70.533  1.00  0.00    -0.027 C  
HETATM   23  C   UNL     1      -5.360   5.795  71.197  1.00  0.00    -0.013 C  
HETATM   24  C   UNL     1      -5.462   4.551  70.316  1.00  0.00    -0.011 C  
HETATM   25  N   UNL     1      -6.854   4.227  70.002  1.00  0.00    -0.037 NA 
HETATM   26  C   UNL     1      -7.505   5.342  69.301  1.00  0.00    -0.073 C  
HETATM   27  H   UNL     1      -7.374   3.951  70.834  1.00  0.00     0.000 HD 
ENDBRANCH  18  21
ENDBRANCH  12  15
ENDBRANCH   3   6
TORSDOF 3
ENDMDL
MODEL       86
REMARK 921   NORMALIZED FREE ENERGY PREDICTED BY IDOCK:   -4.01 KCAL/MOL
REMARK 922        TOTAL FREE ENERGY PREDICTED BY IDOCK:   -5.38 KCAL/MOL
REMARK 923 INTER-LIGAND FREE ENERGY PREDICTED BY IDOCK:   -4.60 KCAL/MOL
REMARK 924 INTRA-LIGAND FREE ENERGY PREDICTED BY IDOCK:   -0.78 KCAL/MOL
REMARK 927      BINDING AFFINITY PREDICTED BY RF-SCORE:    0.00 PKD
ROOT
HETATM    1  N   UNL     1     -10.840  12.482  64.447  1.00  0.00    -0.319 N  
HETATM    2  H2  UNL     1     -11.606  12.143  63.864  1.00  0.00     0.000 HD 
HETATM    3  C   UNL     1     -11.036  13.580  65.231  1.00  0.00    -0.295 C  
HETATM    4  H1  UNL     1      -9.946  11.992  64.431  1.00  0.00     0.000 HD 
HETATM    5  O   UNL     1     -12.111  14.168  65.250  1.00  0.00    -0.370 OA 
ENDROOT
BRANCH   3   6
HETATM    6  C   UNL     1      -9.901  14.035  66.052  1.00  0.00    -0.316 A  
HETATM    7  C   UNL     1      -9.405  15.362  65.949  1.00  0.00    -0.329 A  
HETATM    8  C   UNL     1      -8.301  15.853  66.711  1.00  0.00    -0.306 A  
HETATM    9  C   UNL     1      -7.588  15.074  67.641  1.00  0.00    -0.198 A  
HETATM   10  C   UNL     1      -8.109  13.788  67.725  1.00  0.00    -0.176 A  
HETATM   11  C   UNL     1      -7.641  12.811  68.554  1.00  0.00    -0.120 A  
HETATM   12  N   UNL     1      -8.463  11.723  68.355  1.00  0.00    -0.159 NA 
HETATM   13  C   UNL     1      -9.214  13.233  66.991  1.00  0.00    -0.237 A  
HETATM   14  N   UNL     1      -9.390  11.952  67.379  1.00  0.00    -0.173 NA 
BRANCH  12  15
HETATM   15  C   UNL     1      -8.419  10.476  69.044  1.00  0.00    -0.157 A  
HETATM   16  C   UNL     1      -7.490  10.255  70.069  1.00  0.00    -0.143 A  
HETATM   17  C   UNL     1      -7.447   9.023  70.727  1.00  0.00    -0.121 A  
HETATM   18  C   UNL     1      -8.327   7.987  70.383  1.00  0.00    -0.120 A  
HETATM   19  C   UNL     1      -9.265   8.220  69.368  1.00  0.00    -0.155 A  
HETATM   20  C   UNL     1      -9.314   9.453  68.705  1.00  0.00    -0.142 A  
BRANCH  18  21
HETATM   21  C   UNL     1      -8.250   6.631  71.066  1.00  0.00    -0.120 C  
HETATM   22  C   UNL     1      -8.577   5.477  70.099  1.00  0.00    -0.122 C  
HETATM   23  C   UNL     1      -8.622   4.141  70.839  1.00  0.00    -0.106 C  
HETATM   24  C   UNL     1      -9.554   4.211  72.047  1.00  0.00    -0.152 C  
HETATM   25  N   UNL     1      -9.154   5.270  72.975  1.00  0.00    -0.125 NA 
HETATM   26  C   UNL     1      -9.166   6.579  72.309  1.00  0.00    -0.138 C  
HETATM   27  H   UNL     1      -8.251   5.074  73.404  1.00  0.00     0.000 HD 
ENDBRANCH  18  21
ENDBRANCH  12  15
ENDBRANCH   3   6
TORSDOF 3
ENDMDL
MODEL       87
REMARK 921   NORMALIZED FREE ENERGY PREDICTED BY IDOCK:   -3.97 KCAL/MOL
REMARK 922        TOTAL FREE ENERGY PREDICTED BY IDOCK:   -5.33 KCAL/MOL
REMARK 923 INTER-LIGAND FREE ENERGY PREDICTED BY IDOCK:   -4.52 KCAL/MOL
REMARK 924 INTRA-LIGAND FREE ENERGY PREDICTED BY IDOCK:   -0.81 KCAL/MOL
REMARK 927      BINDING AFFINITY PREDICTED BY RF-SCORE:    0.00 PKD
ROOT
HETATM    1  N   UNL     1     -11.557  12.576  70.624  1.00  0.00    -0.286 N  
HETATM    2  H2  UNL     1     -12.387  12.408  71.193  1.00  0.00     0.000 HD 
HETATM    3  C   UNL     1     -11.545  13.627  69.755  1.00  0.00    -0.254 C  
HETATM    4  H1  UNL     1     -10.754  11.954  70.717  1.00  0.00     0.000 HD 
HETATM    5  O   UNL     1     -12.510  14.374  69.643  1.00  0.00    -0.288 OA 
ENDROOT
BRANCH   3   6
HETATM    6  C   UNL     1     -10.327  13.826  68.952  1.00  0.00    -0.146 A  
HETATM    7  C   UNL     1      -9.687  15.092  68.890  1.00  0.00    -0.224 A  
HETATM    8  C   UNL     1      -8.511  15.344  68.118  1.00  0.00    -0.147 A  
HETATM    9  C   UNL     1      -7.866  14.367  67.338  1.00  0.00    -0.211 A  
HETATM   10  C   UNL     1      -8.511  13.140  67.434  1.00  0.00    -0.201 A  
HETATM   11  C   UNL     1      -8.109  11.998  66.807  1.00  0.00    -0.081 A  
HETATM   12  N   UNL     1      -8.991  11.018  67.206  1.00  0.00    -0.138 NA 
HETATM   13  C   UNL     1      -9.692  12.819  68.191  1.00  0.00    -0.223 A  
HETATM   14  N   UNL     1      -9.980  11.513  68.008  1.00  0.00    -0.183 NA 
BRANCH  12  15
HETATM   15  C   UNL     1      -8.946   9.633  66.871  1.00  0.00    -0.134 A  
HETATM   16  C   UNL     1      -9.838   8.725  67.456  1.00  0.00    -0.232 A  
HETATM   17  C   UNL     1      -9.775   7.367  67.129  1.00  0.00    -0.223 A  
HETATM   18  C   UNL     1      -8.827   6.885  66.216  1.00  0.00    -0.161 A  
HETATM   19  C   UNL     1      -7.948   7.802  65.622  1.00  0.00    -0.118 A  
HETATM   20  C   UNL     1      -8.007   9.164  65.944  1.00  0.00    -0.106 A  
BRANCH  18  21
HETATM   21  C   UNL     1      -8.726   5.402  65.897  1.00  0.00    -0.145 C  
HETATM   22  C   UNL     1      -8.226   5.151  64.462  1.00  0.00    -0.133 C  
HETATM   23  C   UNL     1      -8.260   3.663  64.124  1.00  0.00    -0.090 C  
HETATM   24  C   UNL     1      -9.636   3.063  64.406  1.00  0.00    -0.150 C  
HETATM   25  N   UNL     1     -10.032   3.257  65.801  1.00  0.00    -0.382 NA 
HETATM   26  C   UNL     1     -10.074   4.686  66.139  1.00  0.00    -0.266 C  
HETATM   27  H   UNL     1      -9.430   2.737  66.439  1.00  0.00     0.000 HD 
ENDBRANCH  18  21
ENDBRANCH  12  15
ENDBRANCH   3   6
TORSDOF 3
ENDMDL
MODEL       88
REMARK 921   NORMALIZED FREE ENERGY PREDICTED BY IDOCK:   -3.92 KCAL/MOL
REMARK 922        TOTAL FREE ENERGY PREDICTED BY IDOCK:   -5.27 KCAL/MOL
REMARK 923 INTER-LIGAND FREE ENERGY PREDICTED BY IDOCK:   -4.53 KCAL/MOL
REMARK 924 INTRA-LIGAND FREE ENERGY PREDICTED BY IDOCK:   -0.74 KCAL/MOL
REMARK 927      BINDING AFFINITY PREDICTED BY RF-SCORE:    0.00 PKD
ROOT
HETATM    1  N   UNL     1      -8.539   6.469  63.442  1.00  0.00    -0.284 N  
HETATM    2  H2  UNL     1      -8.724   6.549  62.442  1.00  0.00     0.000 HD 
HETATM    3  C   UNL     1      -8.210   5.253  63.964  1.00  0.00    -0.131 C  
HETATM    4  H1  UNL     1      -8.604   7.300  64.030  1.00  0.00     0.000 HD 
HETATM    5  O   UNL     1      -8.132   4.255  63.258  1.00  0.00    -0.081 OA 
ENDROOT
BRANCH   3   6
HETATM    6  C   UNL     1      -7.957   5.186  65.413  1.00  0.00    -0.110 A  
HETATM    7  C   UNL     1      -7.335   4.051  65.999  1.00  0.00    -0.076 A  
HETATM    8  C   UNL     1      -7.076   3.928  67.398  1.00  0.00    -0.063 A  
HETATM    9  C   UNL     1      -7.411   4.915  68.343  1.00  0.00    -0.074 A  
HETATM   10  C   UNL     1      -8.004   6.015  67.733  1.00  0.00    -0.105 A  
HETATM   11  C   UNL     1      -8.419   7.137  68.387  1.00  0.00    -0.124 A  
HETATM   12  N   UNL     1      -8.898   7.985  67.412  1.00  0.00    -0.130 NA 
HETATM   13  C   UNL     1      -8.290   6.203  66.337  1.00  0.00    -0.120 A  
HETATM   14  N   UNL     1      -8.866   7.412  66.173  1.00  0.00    -0.161 NA 
BRANCH  12  15
HETATM   15  C   UNL     1      -9.382   9.314  67.592  1.00  0.00    -0.128 A  
HETATM   16  C   UNL     1      -8.498  10.371  67.843  1.00  0.00    -0.114 A  
HETATM   17  C   UNL     1      -8.986  11.667  68.031  1.00  0.00    -0.176 A  
HETATM   18  C   UNL     1     -10.360  11.939  67.971  1.00  0.00    -0.209 A  
HETATM   19  C   UNL     1     -11.238  10.880  67.702  1.00  0.00    -0.379 A  
HETATM   20  C   UNL     1     -10.755   9.579  67.512  1.00  0.00    -0.311 A  
BRANCH  18  21
HETATM   21  C   UNL     1     -10.896  13.340  68.223  1.00  0.00    -0.276 C  
HETATM   22  C   UNL     1      -9.776  14.398  68.222  1.00  0.00    -0.222 C  
HETATM   23  C   UNL     1     -10.321  15.771  68.606  1.00  0.00    -0.225 C  
HETATM   24  C   UNL     1     -11.103  15.708  69.917  1.00  0.00    -0.319 C  
HETATM   25  N   UNL     1     -12.205  14.748  69.841  1.00  0.00    -0.384 NA 
HETATM   26  C   UNL     1     -11.704  13.400  69.538  1.00  0.00    -0.324 C  
HETATM   27  H   UNL     1     -12.917  15.044  69.174  1.00  0.00     0.000 HD 
ENDBRANCH  18  21
ENDBRANCH  12  15
ENDBRANCH   3   6
TORSDOF 3
ENDMDL
MODEL       89
REMARK 921   NORMALIZED FREE ENERGY PREDICTED BY IDOCK:   -3.89 KCAL/MOL
REMARK 922        TOTAL FREE ENERGY PREDICTED BY IDOCK:   -5.24 KCAL/MOL
REMARK 923 INTER-LIGAND FREE ENERGY PREDICTED BY IDOCK:   -4.61 KCAL/MOL
REMARK 924 INTRA-LIGAND FREE ENERGY PREDICTED BY IDOCK:   -0.63 KCAL/MOL
REMARK 927      BINDING AFFINITY PREDICTED BY RF-SCORE:    0.00 PKD
ROOT
HETATM    1  N   UNL     1     -11.325   9.653  67.991  1.00  0.00    -0.485 N  
HETATM    2  H2  UNL     1     -12.247   9.640  67.556  1.00  0.00     0.000 HD 
HETATM    3  C   UNL     1     -10.214   9.661  67.200  1.00  0.00    -0.243 C  
HETATM    4  H1  UNL     1     -11.253   9.659  69.009  1.00  0.00     0.000 HD 
HETATM    5  O   UNL     1     -10.300   9.653  65.978  1.00  0.00    -0.218 OA 
ENDROOT
BRANCH   3   6
HETATM    6  C   UNL     1      -8.905   9.674  67.875  1.00  0.00    -0.119 A  
HETATM    7  C   UNL     1      -8.321   8.477  68.370  1.00  0.00    -0.124 A  
HETATM    8  C   UNL     1      -7.060   8.434  69.041  1.00  0.00    -0.069 A  
HETATM    9  C   UNL     1      -6.267   9.570  69.284  1.00  0.00    -0.040 A  
HETATM   10  C   UNL     1      -6.862  10.719  68.775  1.00  0.00    -0.067 A  
HETATM   11  C   UNL     1      -6.323  11.969  68.840  1.00  0.00    -0.081 A  
HETATM   12  N   UNL     1      -7.207  12.795  68.181  1.00  0.00    -0.102 NA 
HETATM   13  C   UNL     1      -8.122  10.831  68.090  1.00  0.00    -0.117 A  
HETATM   14  N   UNL     1      -8.321  12.125  67.762  1.00  0.00    -0.149 NA 
BRANCH  12  15
HETATM   15  C   UNL     1      -7.051  14.188  67.922  1.00  0.00    -0.160 A  
HETATM   16  C   UNL     1      -8.119  14.950  67.430  1.00  0.00    -0.218 A  
HETATM   17  C   UNL     1      -7.950  16.312  67.168  1.00  0.00    -0.220 A  
HETATM   18  C   UNL     1      -6.719  16.945  67.389  1.00  0.00    -0.187 A  
HETATM   19  C   UNL     1      -5.659  16.181  67.897  1.00  0.00    -0.142 A  
HETATM   20  C   UNL     1      -5.822  14.816  68.164  1.00  0.00    -0.142 A  
BRANCH  18  21
HETATM   21  C   UNL     1      -6.520  18.416  67.059  1.00  0.00    -0.200 C  
HETATM   22  C   UNL     1      -6.061  19.228  68.284  1.00  0.00    -0.242 C  
HETATM   23  C   UNL     1      -5.997  20.719  67.959  1.00  0.00    -0.352 C  
HETATM   24  C   UNL     1      -7.312  21.210  67.357  1.00  0.00    -0.146 C  
HETATM   25  N   UNL     1      -7.664  20.460  66.149  1.00  0.00    -0.515 NA 
HETATM   26  C   UNL     1      -7.799  19.028  66.445  1.00  0.00    -0.278 C  
HETATM   27  H   UNL     1      -6.999  20.629  65.395  1.00  0.00     0.000 HD 
ENDBRANCH  18  21
ENDBRANCH  12  15
ENDBRANCH   3   6
TORSDOF 3
ENDMDL
MODEL       90
REMARK 921   NORMALIZED FREE ENERGY PREDICTED BY IDOCK:   -3.83 KCAL/MOL
REMARK 922        TOTAL FREE ENERGY PREDICTED BY IDOCK:   -5.17 KCAL/MOL
REMARK 923 INTER-LIGAND FREE ENERGY PREDICTED BY IDOCK:   -4.54 KCAL/MOL
REMARK 924 INTRA-LIGAND FREE ENERGY PREDICTED BY IDOCK:   -0.62 KCAL/MOL
REMARK 927      BINDING AFFINITY PREDICTED BY RF-SCORE:    0.00 PKD
ROOT
HETATM    1  N   UNL     1      -5.415   5.489  67.083  1.00  0.00    -0.012 N  
HETATM    2  H2  UNL     1      -4.403   5.607  67.024  1.00  0.00     0.000 HD 
HETATM    3  C   UNL     1      -6.157   5.525  65.940  1.00  0.00    -0.033 C  
HETATM    4  H1  UNL     1      -5.849   5.347  67.995  1.00  0.00     0.000 HD 
HETATM    5  O   UNL     1      -5.636   5.696  64.844  1.00  0.00    -0.016 OA 
ENDROOT
BRANCH   3   6
HETATM    6  C   UNL     1      -7.614   5.354  66.075  1.00  0.00    -0.087 A  
HETATM    7  C   UNL     1      -8.228   4.089  65.874  1.00  0.00    -0.108 A  
HETATM    8  C   UNL     1      -9.635   3.869  65.980  1.00  0.00    -0.189 A  
HETATM    9  C   UNL     1     -10.561   4.882  66.293  1.00  0.00    -0.307 A  
HETATM   10  C   UNL     1      -9.924   6.101  66.496  1.00  0.00    -0.179 A  
HETATM   11  C   UNL     1     -10.556   7.262  66.831  1.00  0.00    -0.305 A  
HETATM   12  N   UNL     1      -9.560   8.202  66.980  1.00  0.00    -0.180 NA 
HETATM   13  C   UNL     1      -8.518   6.388  66.407  1.00  0.00    -0.123 A  
HETATM   14  N   UNL     1      -8.327   7.696  66.681  1.00  0.00    -0.123 NA 
BRANCH  12  15
HETATM   15  C   UNL     1      -9.713   9.558  67.394  1.00  0.00    -0.157 A  
HETATM   16  C   UNL     1     -10.964  10.051  67.786  1.00  0.00    -0.310 A  
HETATM   17  C   UNL     1     -11.104  11.385  68.176  1.00  0.00    -0.306 A  
HETATM   18  C   UNL     1     -10.005  12.256  68.187  1.00  0.00    -0.210 A  
HETATM   19  C   UNL     1      -8.753  11.752  67.809  1.00  0.00    -0.155 A  
HETATM   20  C   UNL     1      -8.605  10.415  67.419  1.00  0.00    -0.125 A  
BRANCH  18  21
HETATM   21  C   UNL     1     -10.165  13.720  68.566  1.00  0.00    -0.235 C  
HETATM   22  C   UNL     1     -11.538  14.007  69.202  1.00  0.00    -0.356 C  
HETATM   23  C   UNL     1     -11.723  15.502  69.451  1.00  0.00    -0.382 C  
HETATM   24  C   UNL     1     -11.456  16.310  68.183  1.00  0.00    -0.173 C  
HETATM   25  N   UNL     1     -10.111  16.064  67.661  1.00  0.00    -0.241 NA 
HETATM   26  C   UNL     1      -9.924  14.641  67.348  1.00  0.00    -0.231 C  
HETATM   27  H   UNL     1      -9.391  16.407  68.297  1.00  0.00     0.000 HD 
ENDBRANCH  18  21
ENDBRANCH  12  15
ENDBRANCH   3   6
TORSDOF 3
ENDMDL
MODEL       91
REMARK 921   NORMALIZED FREE ENERGY PREDICTED BY IDOCK:   -3.80 KCAL/MOL
REMARK 922        TOTAL FREE ENERGY PREDICTED BY IDOCK:   -5.14 KCAL/MOL
REMARK 923 INTER-LIGAND FREE ENERGY PREDICTED BY IDOCK:   -4.55 KCAL/MOL
REMARK 924 INTRA-LIGAND FREE ENERGY PREDICTED BY IDOCK:   -0.59 KCAL/MOL
REMARK 927      BINDING AFFINITY PREDICTED BY RF-SCORE:    0.00 PKD
ROOT
HETATM    1  N   UNL     1     -10.214  19.367  69.892  1.00  0.00    -0.232 N  
HETATM    2  H2  UNL     1      -9.883  19.771  70.769  1.00  0.00     0.000 HD 
HETATM    3  C   UNL     1      -9.312  18.819  69.029  1.00  0.00    -0.181 C  
HETATM    4  H1  UNL     1     -11.211  19.383  69.681  1.00  0.00     0.000 HD 
HETATM    5  O   UNL     1      -8.114  18.800  69.283  1.00  0.00    -0.089 OA 
ENDROOT
BRANCH   3   6
HETATM    6  C   UNL     1      -9.837  18.253  67.774  1.00  0.00    -0.328 A  
HETATM    7  C   UNL     1     -10.154  19.087  66.668  1.00  0.00    -0.453 A  
HETATM    8  C   UNL     1     -10.676  18.594  65.433  1.00  0.00     0.217 A  
HETATM    9  C   UNL     1     -10.932  17.233  65.183  1.00  0.00     0.118 A  
HETATM   10  C   UNL     1     -10.597  16.447  66.280  1.00  0.00    -0.243 A  
HETATM   11  C   UNL     1     -10.716  15.090  66.330  1.00  0.00    -0.322 A  
HETATM   12  N   UNL     1     -10.236  14.716  67.566  1.00  0.00    -0.226 NA 
HETATM   13  C   UNL     1     -10.068  16.878  67.546  1.00  0.00    -0.282 A  
HETATM   14  N   UNL     1      -9.883  15.793  68.327  1.00  0.00    -0.211 NA 
BRANCH  12  15
HETATM   15  C   UNL     1     -10.089  13.388  68.064  1.00  0.00    -0.241 A  
HETATM   16  C   UNL     1     -11.109  12.786  68.811  1.00  0.00    -0.303 A  
HETATM   17  C   UNL     1     -10.948  11.489  69.306  1.00  0.00    -0.261 A  
HETATM   18  C   UNL     1      -9.771  10.764  69.069  1.00  0.00    -0.201 A  
HETATM   19  C   UNL     1      -8.761  11.367  68.307  1.00  0.00    -0.160 A  
HETATM   20  C   UNL     1      -8.917  12.665  67.806  1.00  0.00    -0.189 A  
BRANCH  18  21
HETATM   21  C   UNL     1      -9.575   9.372  69.647  1.00  0.00    -0.199 C  
HETATM   22  C   UNL     1     -10.903   8.601  69.766  1.00  0.00    -0.185 C  
HETATM   23  C   UNL     1     -10.697   7.262  70.469  1.00  0.00    -0.249 C  
HETATM   24  C   UNL     1      -9.974   7.444  71.802  1.00  0.00    -0.171 C  
HETATM   25  N   UNL     1      -8.682   8.108  71.627  1.00  0.00    -0.132 NA 
HETATM   26  C   UNL     1      -8.854   9.431  71.012  1.00  0.00    -0.023 C  
HETATM   27  H   UNL     1      -8.029   7.530  71.099  1.00  0.00     0.000 HD 
ENDBRANCH  18  21
ENDBRANCH  12  15
ENDBRANCH   3   6
TORSDOF 3
ENDMDL
MODEL       92
REMARK 921   NORMALIZED FREE ENERGY PREDICTED BY IDOCK:   -3.77 KCAL/MOL
REMARK 922        TOTAL FREE ENERGY PREDICTED BY IDOCK:   -5.09 KCAL/MOL
REMARK 923 INTER-LIGAND FREE ENERGY PREDICTED BY IDOCK:   -4.31 KCAL/MOL
REMARK 924 INTRA-LIGAND FREE ENERGY PREDICTED BY IDOCK:   -0.78 KCAL/MOL
REMARK 927      BINDING AFFINITY PREDICTED BY RF-SCORE:    0.00 PKD
ROOT
HETATM    1  N   UNL     1     -11.804  12.173  70.615  1.00  0.00    -0.466 N  
HETATM    2  H2  UNL     1     -12.679  12.176  71.139  1.00  0.00     0.000 HD 
HETATM    3  C   UNL     1     -11.503  13.234  69.813  1.00  0.00    -0.158 C  
HETATM    4  H1  UNL     1     -11.173  11.376  70.701  1.00  0.00     0.000 HD 
HETATM    5  O   UNL     1     -12.261  14.192  69.709  1.00  0.00    -0.326 OA 
ENDROOT
BRANCH   3   6
HETATM    6  C   UNL     1     -10.232  13.182  69.072  1.00  0.00     0.086 A  
HETATM    7  C   UNL     1      -9.430  14.343  68.906  1.00  0.00    -0.107 A  
HETATM    8  C   UNL     1      -8.195  14.352  68.188  1.00  0.00    -0.149 A  
HETATM    9  C   UNL     1      -7.645  13.215  67.568  1.00  0.00    -0.166 A  
HETATM   10  C   UNL     1      -8.449  12.097  67.762  1.00  0.00    -0.160 A  
HETATM   11  C   UNL     1      -8.168  10.847  67.297  1.00  0.00    -0.123 A  
HETATM   12  N   UNL     1      -9.189  10.039  67.748  1.00  0.00    -0.134 NA 
HETATM   13  C   UNL     1      -9.696  12.019  68.473  1.00  0.00    -0.161 A  
HETATM   14  N   UNL     1     -10.143  10.746  68.423  1.00  0.00    -0.163 NA 
BRANCH  12  15
HETATM   15  C   UNL     1      -9.308   8.629  67.578  1.00  0.00    -0.137 A  
HETATM   16  C   UNL     1     -10.484   8.066  67.065  1.00  0.00    -0.410 A  
HETATM   17  C   UNL     1     -10.594   6.681  66.915  1.00  0.00    -0.376 A  
HETATM   18  C   UNL     1      -9.539   5.828  67.271  1.00  0.00    -0.122 A  
HETATM   19  C   UNL     1      -8.359   6.399  67.768  1.00  0.00    -0.118 A  
HETATM   20  C   UNL     1      -8.242   7.786  67.919  1.00  0.00    -0.123 A  
BRANCH  18  21
HETATM   21  C   UNL     1      -9.675   4.318  67.154  1.00  0.00    -0.232 C  
HETATM   22  C   UNL     1      -9.419   3.607  68.496  1.00  0.00    -0.212 C  
HETATM   23  C   UNL     1      -9.432   2.090  68.322  1.00  0.00    -0.231 C  
HETATM   24  C   UNL     1      -8.482   1.654  67.208  1.00  0.00    -0.084 C  
HETATM   25  N   UNL     1      -8.816   2.295  65.935  1.00  0.00    -0.123 NA 
HETATM   26  C   UNL     1      -8.747   3.758  66.053  1.00  0.00    -0.117 C  
HETATM   27  H   UNL     1      -9.723   1.988  65.585  1.00  0.00     0.000 HD 
ENDBRANCH  18  21
ENDBRANCH  12  15
ENDBRANCH   3   6
TORSDOF 3
ENDMDL
MODEL       93
REMARK 921   NORMALIZED FREE ENERGY PREDICTED BY IDOCK:   -3.63 KCAL/MOL
REMARK 922        TOTAL FREE ENERGY PREDICTED BY IDOCK:   -4.94 KCAL/MOL
REMARK 923 INTER-LIGAND FREE ENERGY PREDICTED BY IDOCK:   -4.18 KCAL/MOL
REMARK 924 INTRA-LIGAND FREE ENERGY PREDICTED BY IDOCK:   -0.76 KCAL/MOL
REMARK 927      BINDING AFFINITY PREDICTED BY RF-SCORE:    0.00 PKD
ROOT
HETATM    1  N   UNL     1      -5.900  17.279  66.165  1.00  0.00    -0.145 N  
HETATM    2  H2  UNL     1      -5.059  17.535  65.647  1.00  0.00     0.000 HD 
HETATM    3  C   UNL     1      -6.825  18.240  66.449  1.00  0.00    -0.226 C  
HETATM    4  H1  UNL     1      -6.029  16.312  66.461  1.00  0.00     0.000 HD 
HETATM    5  O   UNL     1      -6.669  19.402  66.093  1.00  0.00    -0.200 OA 
ENDROOT
BRANCH   3   6
HETATM    6  C   UNL     1      -8.020  17.825  67.204  1.00  0.00    -0.229 A  
HETATM    7  C   UNL     1      -8.938  18.783  67.710  1.00  0.00    -0.308 A  
HETATM    8  C   UNL     1     -10.105  18.437  68.459  1.00  0.00    -0.413 A  
HETATM    9  C   UNL     1     -10.466  17.114  68.774  1.00  0.00    -0.351 A  
HETATM   10  C   UNL     1      -9.554  16.205  68.251  1.00  0.00    -0.216 A  
HETATM   11  C   UNL     1      -9.647  14.851  68.375  1.00  0.00    -0.209 A  
HETATM   12  N   UNL     1      -8.576  14.335  67.678  1.00  0.00    -0.171 NA 
HETATM   13  C   UNL     1      -8.365  16.485  67.491  1.00  0.00    -0.164 A  
HETATM   14  N   UNL     1      -7.769  15.315  67.177  1.00  0.00    -0.210 NA 
BRANCH  12  15
HETATM   15  C   UNL     1      -8.277  12.958  67.458  1.00  0.00    -0.184 A  
HETATM   16  C   UNL     1      -6.962  12.539  67.222  1.00  0.00    -0.114 A  
HETATM   17  C   UNL     1      -6.684  11.188  66.993  1.00  0.00    -0.115 A  
HETATM   18  C   UNL     1      -7.705  10.228  66.997  1.00  0.00    -0.100 A  
HETATM   19  C   UNL     1      -9.017  10.652  67.251  1.00  0.00    -0.141 A  
HETATM   20  C   UNL     1      -9.303  12.003  67.482  1.00  0.00    -0.179 A  
BRANCH  18  21
HETATM   21  C   UNL     1      -7.411   8.765  66.701  1.00  0.00    -0.085 C  
HETATM   22  C   UNL     1      -8.680   7.895  66.765  1.00  0.00    -0.143 C  
HETATM   23  C   UNL     1      -8.337   6.417  66.595  1.00  0.00    -0.113 C  
HETATM   24  C   UNL     1      -7.249   5.986  67.578  1.00  0.00    -0.076 C  
HETATM   25  N   UNL     1      -6.036   6.790  67.423  1.00  0.00    -0.030 NA 
HETATM   26  C   UNL     1      -6.321   8.214  67.648  1.00  0.00    -0.053 C  
HETATM   27  H   UNL     1      -5.592   6.632  66.520  1.00  0.00     0.000 HD 
ENDBRANCH  18  21
ENDBRANCH  12  15
ENDBRANCH   3   6
TORSDOF 3
ENDMDL
MODEL       94
REMARK 921   NORMALIZED FREE ENERGY PREDICTED BY IDOCK:   -3.59 KCAL/MOL
REMARK 922        TOTAL FREE ENERGY PREDICTED BY IDOCK:   -4.89 KCAL/MOL
REMARK 923 INTER-LIGAND FREE ENERGY PREDICTED BY IDOCK:   -4.31 KCAL/MOL
REMARK 924 INTRA-LIGAND FREE ENERGY PREDICTED BY IDOCK:   -0.57 KCAL/MOL
REMARK 927      BINDING AFFINITY PREDICTED BY RF-SCORE:    0.00 PKD
ROOT
HETATM    1  N   UNL     1      -9.858  10.000  63.691  1.00  0.00    -0.493 N  
HETATM    2  H2  UNL     1     -10.532  10.325  62.999  1.00  0.00     0.000 HD 
HETATM    3  C   UNL     1     -10.041  10.323  65.003  1.00  0.00    -0.283 C  
HETATM    4  H1  UNL     1      -9.060   9.441  63.388  1.00  0.00     0.000 HD 
HETATM    5  O   UNL     1     -10.998  10.996  65.368  1.00  0.00    -0.155 OA 
ENDROOT
BRANCH   3   6
HETATM    6  C   UNL     1      -9.038   9.836  65.966  1.00  0.00    -0.201 A  
HETATM    7  C   UNL     1      -8.785   8.447  66.124  1.00  0.00    -0.175 A  
HETATM    8  C   UNL     1      -7.833   7.919  67.049  1.00  0.00    -0.108 A  
HETATM    9  C   UNL     1      -7.049   8.718  67.902  1.00  0.00    -0.079 A  
HETATM   10  C   UNL     1      -7.313  10.069  67.710  1.00  0.00    -0.089 A  
HETATM   11  C   UNL     1      -6.695  11.085  68.378  1.00  0.00    -0.060 A  
HETATM   12  N   UNL     1      -7.214  12.249  67.855  1.00  0.00    -0.095 NA 
HETATM   13  C   UNL     1      -8.252  10.665  66.798  1.00  0.00    -0.130 A  
HETATM   14  N   UNL     1      -8.190  12.007  66.930  1.00  0.00    -0.167 NA 
BRANCH  12  15
HETATM   15  C   UNL     1      -6.832  13.583  68.182  1.00  0.00    -0.119 A  
HETATM   16  C   UNL     1      -5.580  14.084  67.802  1.00  0.00    -0.052 A  
HETATM   17  C   UNL     1      -5.212  15.389  68.141  1.00  0.00    -0.124 A  
HETATM   18  C   UNL     1      -6.079  16.222  68.862  1.00  0.00    -0.131 A  
HETATM   19  C   UNL     1      -7.337  15.720  69.224  1.00  0.00    -0.216 A  
HETATM   20  C   UNL     1      -7.713  14.414  68.886  1.00  0.00    -0.128 A  
BRANCH  18  21
HETATM   21  C   UNL     1      -5.661  17.626  69.272  1.00  0.00    -0.205 C  
HETATM   22  C   UNL     1      -5.439  17.742  70.792  1.00  0.00    -0.160 C  
HETATM   23  C   UNL     1      -5.150  19.187  71.192  1.00  0.00    -0.282 C  
HETATM   24  C   UNL     1      -6.222  20.134  70.656  1.00  0.00    -0.282 C  
HETATM   25  N   UNL     1      -6.340  20.044  69.200  1.00  0.00    -0.310 NA 
HETATM   26  C   UNL     1      -6.684  18.677  68.787  1.00  0.00    -0.270 C  
HETATM   27  H   UNL     1      -5.497  20.378  68.732  1.00  0.00     0.000 HD 
ENDBRANCH  18  21
ENDBRANCH  12  15
ENDBRANCH   3   6
TORSDOF 3
ENDMDL
MODEL       95
REMARK 921   NORMALIZED FREE ENERGY PREDICTED BY IDOCK:   -3.50 KCAL/MOL
REMARK 922        TOTAL FREE ENERGY PREDICTED BY IDOCK:   -4.78 KCAL/MOL
REMARK 923 INTER-LIGAND FREE ENERGY PREDICTED BY IDOCK:   -4.02 KCAL/MOL
REMARK 924 INTRA-LIGAND FREE ENERGY PREDICTED BY IDOCK:   -0.76 KCAL/MOL
REMARK 927      BINDING AFFINITY PREDICTED BY RF-SCORE:    0.00 PKD
ROOT
HETATM    1  N   UNL     1     -10.157  13.804  64.881  1.00  0.00    -0.607 N  
HETATM    2  H2  UNL     1     -10.877  13.833  64.160  1.00  0.00     0.000 HD 
HETATM    3  C   UNL     1     -10.348  14.495  66.041  1.00  0.00    -0.309 C  
HETATM    4  H1  UNL     1      -9.310  13.260  64.720  1.00  0.00     0.000 HD 
HETATM    5  O   UNL     1     -11.366  15.150  66.235  1.00  0.00    -0.317 OA 
ENDROOT
BRANCH   3   6
HETATM    6  C   UNL     1      -9.278  14.428  67.052  1.00  0.00    -0.246 A  
HETATM    7  C   UNL     1      -8.761  15.606  67.653  1.00  0.00    -0.182 A  
HETATM    8  C   UNL     1      -7.717  15.601  68.628  1.00  0.00    -0.150 A  
HETATM    9  C   UNL     1      -7.091  14.429  69.093  1.00  0.00    -0.127 A  
HETATM   10  C   UNL     1      -7.632  13.297  68.495  1.00  0.00    -0.128 A  
HETATM   11  C   UNL     1      -7.244  12.017  68.758  1.00  0.00    -0.108 A  
HETATM   12  N   UNL     1      -8.059  11.212  67.993  1.00  0.00    -0.118 NA 
HETATM   13  C   UNL     1      -8.680  13.234  67.512  1.00  0.00    -0.202 A  
HETATM   14  N   UNL     1      -8.902  11.939  67.201  1.00  0.00    -0.174 NA 
BRANCH  12  15
HETATM   15  C   UNL     1      -8.086   9.787  67.974  1.00  0.00    -0.105 A  
HETATM   16  C   UNL     1      -9.098   9.080  68.635  1.00  0.00    -0.137 A  
HETATM   17  C   UNL     1      -9.105   7.682  68.621  1.00  0.00    -0.135 A  
HETATM   18  C   UNL     1      -8.110   6.960  67.949  1.00  0.00    -0.114 A  
HETATM   19  C   UNL     1      -7.109   7.674  67.275  1.00  0.00    -0.085 A  
HETATM   20  C   UNL     1      -7.097   9.074  67.284  1.00  0.00    -0.079 A  
BRANCH  18  21
HETATM   21  C   UNL     1      -8.090   5.439  67.972  1.00  0.00    -0.096 C  
HETATM   22  C   UNL     1      -8.844   4.831  66.775  1.00  0.00    -0.110 C  
HETATM   23  C   UNL     1      -8.922   3.311  66.893  1.00  0.00    -0.174 C  
HETATM   24  C   UNL     1      -9.485   2.891  68.249  1.00  0.00    -0.155 C  
HETATM   25  N   UNL     1      -8.688   3.427  69.353  1.00  0.00    -0.070 NA 
HETATM   26  C   UNL     1      -8.650   4.895  69.305  1.00  0.00    -0.087 C  
HETATM   27  H   UNL     1      -7.751   3.026  69.370  1.00  0.00     0.000 HD 
ENDBRANCH  18  21
ENDBRANCH  12  15
ENDBRANCH   3   6
TORSDOF 3
ENDMDL
MODEL       96
REMARK 921   NORMALIZED FREE ENERGY PREDICTED BY IDOCK:   -3.47 KCAL/MOL
REMARK 922        TOTAL FREE ENERGY PREDICTED BY IDOCK:   -4.74 KCAL/MOL
REMARK 923 INTER-LIGAND FREE ENERGY PREDICTED BY IDOCK:   -4.35 KCAL/MOL
REMARK 924 INTRA-LIGAND FREE ENERGY PREDICTED BY IDOCK:   -0.39 KCAL/MOL
REMARK 927      BINDING AFFINITY PREDICTED BY RF-SCORE:    0.00 PKD
ROOT
HETATM    1  N   UNL     1     -11.406  16.849  71.432  1.00  0.00    -0.209 N  
HETATM    2  H2  UNL     1     -10.910  17.733  71.314  1.00  0.00     0.000 HD 
HETATM    3  C   UNL     1     -11.219  15.854  70.519  1.00  0.00    -0.377 C  
HETATM    4  H1  UNL     1     -12.030  16.729  72.229  1.00  0.00     0.000 HD 
HETATM    5  O   UNL     1     -10.469  15.998  69.561  1.00  0.00    -0.244 OA 
ENDROOT
BRANCH   3   6
HETATM    6  C   UNL     1     -11.959  14.598  70.728  1.00  0.00    -0.380 A  
HETATM    7  C   UNL     1     -13.078  14.541  71.601  1.00  0.00    -0.416 A  
HETATM    8  C   UNL     1     -13.825  13.349  71.850  1.00  0.00    -0.370 A  
HETATM    9  C   UNL     1     -13.529  12.106  71.259  1.00  0.00     0.345 A  
HETATM   10  C   UNL     1     -12.439  12.203  70.402  1.00  0.00    -0.224 A  
HETATM   11  C   UNL     1     -11.929  11.170  69.672  1.00  0.00    -0.359 A  
HETATM   12  N   UNL     1     -10.897  11.705  68.933  1.00  0.00    -0.215 NA 
HETATM   13  C   UNL     1     -11.648  13.367  70.107  1.00  0.00    -0.100 A  
HETATM   14  N   UNL     1     -10.688  13.024  69.222  1.00  0.00    -0.016 NA 
BRANCH  12  15
HETATM   15  C   UNL     1     -10.097  11.034  67.963  1.00  0.00    -0.179 A  
HETATM   16  C   UNL     1     -10.425   9.742  67.533  1.00  0.00    -0.309 A  
HETATM   17  C   UNL     1      -9.625   9.089  66.591  1.00  0.00    -0.274 A  
HETATM   18  C   UNL     1      -8.484   9.705  66.058  1.00  0.00    -0.131 A  
HETATM   19  C   UNL     1      -8.171  11.005  66.480  1.00  0.00    -0.161 A  
HETATM   20  C   UNL     1      -8.969  11.665  67.422  1.00  0.00    -0.166 A  
BRANCH  18  21
HETATM   21  C   UNL     1      -7.586   8.978  65.069  1.00  0.00    -0.103 C  
HETATM   22  C   UNL     1      -6.370   9.828  64.657  1.00  0.00    -0.106 C  
HETATM   23  C   UNL     1      -5.559   9.129  63.568  1.00  0.00    -0.071 C  
HETATM   24  C   UNL     1      -6.447   8.721  62.394  1.00  0.00    -0.095 C  
HETATM   25  N   UNL     1      -7.541   7.849  62.825  1.00  0.00    -0.116 NA 
HETATM   26  C   UNL     1      -8.381   8.520  63.826  1.00  0.00    -0.080 C  
HETATM   27  H   UNL     1      -7.196   6.951  63.163  1.00  0.00     0.000 HD 
ENDBRANCH  18  21
ENDBRANCH  12  15
ENDBRANCH   3   6
TORSDOF 3
ENDMDL
MODEL       97
REMARK 921   NORMALIZED FREE ENERGY PREDICTED BY IDOCK:   -3.45 KCAL/MOL
REMARK 922        TOTAL FREE ENERGY PREDICTED BY IDOCK:   -4.72 KCAL/MOL
REMARK 923 INTER-LIGAND FREE ENERGY PREDICTED BY IDOCK:   -4.11 KCAL/MOL
REMARK 924 INTRA-LIGAND FREE ENERGY PREDICTED BY IDOCK:   -0.61 KCAL/MOL
REMARK 927      BINDING AFFINITY PREDICTED BY RF-SCORE:    0.00 PKD
ROOT
HETATM    1  N   UNL     1     -10.474   3.352  74.566  1.00  0.00    -0.193 N  
HETATM    2  H2  UNL     1     -11.087   3.506  75.367  1.00  0.00     0.000 HD 
HETATM    3  C   UNL     1     -10.983   3.469  73.306  1.00  0.00    -0.168 C  
HETATM    4  H1  UNL     1      -9.495   3.113  74.724  1.00  0.00     0.000 HD 
HETATM    5  O   UNL     1     -12.159   3.756  73.115  1.00  0.00     0.219 OA 
ENDROOT
BRANCH   3   6
HETATM    6  C   UNL     1     -10.062   3.233  72.181  1.00  0.00    -0.199 A  
HETATM    7  C   UNL     1      -9.520   1.943  71.934  1.00  0.00    -0.177 A  
HETATM    8  C   UNL     1      -8.614   1.660  70.866  1.00  0.00    -0.087 A  
HETATM    9  C   UNL     1      -8.163   2.628  69.949  1.00  0.00    -0.064 A  
HETATM   10  C   UNL     1      -8.723   3.872  70.213  1.00  0.00    -0.123 A  
HETATM   11  C   UNL     1      -8.491   5.000  69.484  1.00  0.00    -0.088 A  
HETATM   12  N   UNL     1      -9.272   5.983  70.053  1.00  0.00    -0.148 NA 
HETATM   13  C   UNL     1      -9.639   4.223  71.265  1.00  0.00    -0.172 A  
HETATM   14  N   UNL     1      -9.936   5.535  71.159  1.00  0.00    -0.187 NA 
BRANCH  12  15
HETATM   15  C   UNL     1      -9.426   7.327  69.602  1.00  0.00    -0.155 A  
HETATM   16  C   UNL     1      -9.325   8.399  70.497  1.00  0.00    -0.177 A  
HETATM   17  C   UNL     1      -9.492   9.711  70.045  1.00  0.00    -0.277 A  
HETATM   18  C   UNL     1      -9.760   9.984  68.696  1.00  0.00    -0.165 A  
HETATM   19  C   UNL     1      -9.843   8.907  67.802  1.00  0.00    -0.208 A  
HETATM   20  C   UNL     1      -9.675   7.590  68.248  1.00  0.00    -0.163 A  
BRANCH  18  21
HETATM   21  C   UNL     1      -9.989  11.407  68.212  1.00  0.00    -0.203 C  
HETATM   22  C   UNL     1     -11.137  11.493  67.188  1.00  0.00    -0.355 C  
HETATM   23  C   UNL     1     -11.258  12.906  66.621  1.00  0.00    -0.342 C  
HETATM   24  C   UNL     1      -9.918  13.401  66.081  1.00  0.00    -0.294 C  
HETATM   25  N   UNL     1      -8.880  13.376  67.112  1.00  0.00    -0.217 NA 
HETATM   26  C   UNL     1      -8.692  12.014  67.631  1.00  0.00    -0.166 C  
HETATM   27  H   UNL     1      -9.075  14.041  67.860  1.00  0.00     0.000 HD 
ENDBRANCH  18  21
ENDBRANCH  12  15
ENDBRANCH   3   6
TORSDOF 3
ENDMDL
MODEL       98
REMARK 921   NORMALIZED FREE ENERGY PREDICTED BY IDOCK:   -3.09 KCAL/MOL
REMARK 922        TOTAL FREE ENERGY PREDICTED BY IDOCK:   -4.30 KCAL/MOL
REMARK 923 INTER-LIGAND FREE ENERGY PREDICTED BY IDOCK:   -3.91 KCAL/MOL
REMARK 924 INTRA-LIGAND FREE ENERGY PREDICTED BY IDOCK:   -0.39 KCAL/MOL
REMARK 927      BINDING AFFINITY PREDICTED BY RF-SCORE:    0.00 PKD
ROOT
HETATM    1  N   UNL     1     -11.028  17.632  65.831  1.00  0.00     0.055 N  
HETATM    2  H2  UNL     1     -10.571  18.500  66.109  1.00  0.00     0.000 HD 
HETATM    3  C   UNL     1     -10.406  16.443  66.077  1.00  0.00    -0.352 C  
HETATM    4  H1  UNL     1     -11.939  17.671  65.373  1.00  0.00     0.000 HD 
HETATM    5  O   UNL     1      -9.312  16.397  66.626  1.00  0.00    -0.231 OA 
ENDROOT
BRANCH   3   6
HETATM    6  C   UNL     1     -11.101  15.216  65.652  1.00  0.00    -0.334 A  
HETATM    7  C   UNL     1     -12.115  15.253  64.658  1.00  0.00    -0.190 A  
HETATM    8  C   UNL     1     -12.830  14.097  64.217  1.00  0.00     0.249 A  
HETATM    9  C   UNL     1     -12.605  12.803  64.722  1.00  0.00    -0.518 A  
HETATM   10  C   UNL     1     -11.599  12.803  65.680  1.00  0.00    -0.410 A  
HETATM   11  C   UNL     1     -11.146  11.695  66.334  1.00  0.00    -0.291 A  
HETATM   12  N   UNL     1     -10.126  12.131  67.151  1.00  0.00    -0.206 NA 
HETATM   13  C   UNL     1     -10.842  13.926  66.166  1.00  0.00    -0.290 A  
HETATM   14  N   UNL     1      -9.963  13.486  67.092  1.00  0.00    -0.242 NA 
BRANCH  12  15
HETATM   15  C   UNL     1      -9.292  11.331  67.985  1.00  0.00    -0.166 A  
HETATM   16  C   UNL     1      -7.957  11.686  68.217  1.00  0.00    -0.143 A  
HETATM   17  C   UNL     1      -7.145  10.886  69.026  1.00  0.00    -0.095 A  
HETATM   18  C   UNL     1      -7.643   9.718  69.621  1.00  0.00    -0.120 A  
HETATM   19  C   UNL     1      -8.985   9.377  69.399  1.00  0.00    -0.157 A  
HETATM   20  C   UNL     1      -9.804  10.175  68.591  1.00  0.00    -0.170 A  
BRANCH  18  21
HETATM   21  C   UNL     1      -6.748   8.821  70.462  1.00  0.00    -0.044 C  
HETATM   22  C   UNL     1      -6.255   7.593  69.675  1.00  0.00    -0.031 C  
HETATM   23  C   UNL     1      -5.470   6.644  70.577  1.00  0.00    -0.022 C  
HETATM   24  C   UNL     1      -6.267   6.288  71.830  1.00  0.00    -0.042 C  
HETATM   25  N   UNL     1      -6.644   7.483  72.587  1.00  0.00    -0.059 NA 
HETATM   26  C   UNL     1      -7.459   8.387  71.764  1.00  0.00    -0.103 C  
HETATM   27  H   UNL     1      -5.828   7.958  72.972  1.00  0.00     0.000 HD 
ENDBRANCH  18  21
ENDBRANCH  12  15
ENDBRANCH   3   6
TORSDOF 3
ENDMDL
MODEL       99
REMARK 921   NORMALIZED FREE ENERGY PREDICTED BY IDOCK:   -2.72 KCAL/MOL
REMARK 922        TOTAL FREE ENERGY PREDICTED BY IDOCK:   -3.86 KCAL/MOL
REMARK 923 INTER-LIGAND FREE ENERGY PREDICTED BY IDOCK:   -3.24 KCAL/MOL
REMARK 924 INTRA-LIGAND FREE ENERGY PREDICTED BY IDOCK:   -0.62 KCAL/MOL
REMARK 927      BINDING AFFINITY PREDICTED BY RF-SCORE:    0.00 PKD
ROOT
HETATM    1  N   UNL     1     -11.024  13.512  66.823  1.00  0.00    -0.289 N  
HETATM    2  H2  UNL     1     -11.942  13.957  66.836  1.00  0.00     0.000 HD 
HETATM    3  C   UNL     1     -10.274  13.499  67.962  1.00  0.00    -0.243 C  
HETATM    4  H1  UNL     1     -10.686  13.087  65.959  1.00  0.00     0.000 HD 
HETATM    5  O   UNL     1     -10.679  14.010  69.000  1.00  0.00    -0.240 OA 
ENDROOT
BRANCH   3   6
HETATM    6  C   UNL     1      -8.953  12.850  67.894  1.00  0.00    -0.193 A  
HETATM    7  C   UNL     1      -7.835  13.517  67.324  1.00  0.00    -0.106 A  
HETATM    8  C   UNL     1      -6.536  12.931  67.222  1.00  0.00    -0.047 A  
HETATM    9  C   UNL     1      -6.228  11.634  67.672  1.00  0.00    -0.068 A  
HETATM   10  C   UNL     1      -7.340  11.019  68.234  1.00  0.00    -0.088 A  
HETATM   11  C   UNL     1      -7.347   9.767  68.774  1.00  0.00    -0.074 A  
HETATM   12  N   UNL     1      -8.623   9.571  69.254  1.00  0.00    -0.139 NA 
HETATM   13  C   UNL     1      -8.670  11.550  68.370  1.00  0.00    -0.160 A  
HETATM   14  N   UNL     1      -9.445  10.625  68.975  1.00  0.00    -0.198 NA 
BRANCH  12  15
HETATM   15  C   UNL     1      -9.108   8.436  69.968  1.00  0.00    -0.150 A  
HETATM   16  C   UNL     1     -10.052   8.583  70.992  1.00  0.00    -0.257 A  
HETATM   17  C   UNL     1     -10.509   7.464  71.694  1.00  0.00    -0.219 A  
HETATM   18  C   UNL     1     -10.038   6.178  71.393  1.00  0.00    -0.230 A  
HETATM   19  C   UNL     1      -9.105   6.036  70.357  1.00  0.00    -0.156 A  
HETATM   20  C   UNL     1      -8.645   7.153  69.648  1.00  0.00    -0.137 A  
BRANCH  18  21
HETATM   21  C   UNL     1     -10.498   4.966  72.188  1.00  0.00    -0.257 C  
HETATM   22  C   UNL     1      -9.789   4.864  73.551  1.00  0.00    -0.167 C  
HETATM   23  C   UNL     1     -10.170   3.572  74.270  1.00  0.00    -0.228 C  
HETATM   24  C   UNL     1      -9.950   2.355  73.373  1.00  0.00    -0.101 C  
HETATM   25  N   UNL     1     -10.707   2.463  72.125  1.00  0.00     0.196 NA 
HETATM   26  C   UNL     1     -10.314   3.664  71.377  1.00  0.00     0.313 C  
HETATM   27  H   UNL     1     -11.713   2.435  72.292  1.00  0.00     0.000 HD 
ENDBRANCH  18  21
ENDBRANCH  12  15
ENDBRANCH   3   6
TORSDOF 3
ENDMDL
MODEL      100
REMARK 921   NORMALIZED FREE ENERGY PREDICTED BY IDOCK:   -2.43 KCAL/MOL
REMARK 922        TOTAL FREE ENERGY PREDICTED BY IDOCK:   -3.52 KCAL/MOL
REMARK 923 INTER-LIGAND FREE ENERGY PREDICTED BY IDOCK:   -2.89 KCAL/MOL
REMARK 924 INTRA-LIGAND FREE ENERGY PREDICTED BY IDOCK:   -0.63 KCAL/MOL
REMARK 927      BINDING AFFINITY PREDICTED BY RF-SCORE:    0.00 PKD
ROOT
HETATM    1  N   UNL     1      -5.656   3.658  72.393  1.00  0.00    -0.007 N  
HETATM    2  H2  UNL     1      -5.162   3.893  73.254  1.00  0.00     0.000 HD 
HETATM    3  C   UNL     1      -6.983   3.949  72.285  1.00  0.00    -0.049 C  
HETATM    4  H1  UNL     1      -5.146   3.209  71.632  1.00  0.00     0.000 HD 
HETATM    5  O   UNL     1      -7.595   4.488  73.200  1.00  0.00    -0.083 OA 
ENDROOT
BRANCH   3   6
HETATM    6  C   UNL     1      -7.654   3.587  71.026  1.00  0.00    -0.047 A  
HETATM    7  C   UNL     1      -8.066   2.251  70.770  1.00  0.00    -0.060 A  
HETATM    8  C   UNL     1      -8.709   1.842  69.562  1.00  0.00    -0.109 A  
HETATM    9  C   UNL     1      -9.001   2.716  68.499  1.00  0.00    -0.182 A  
HETATM   10  C   UNL     1      -8.598   4.014  68.790  1.00  0.00    -0.114 A  
HETATM   11  C   UNL     1      -8.765   5.084  67.962  1.00  0.00    -0.102 A  
HETATM   12  N   UNL     1      -8.273   6.172  68.649  1.00  0.00    -0.107 NA 
HETATM   13  C   UNL     1      -7.950   4.492  69.981  1.00  0.00    -0.063 A  
HETATM   14  N   UNL     1      -7.736   5.819  69.854  1.00  0.00    -0.086 NA 
BRANCH  12  15
HETATM   15  C   UNL     1      -8.287   7.534  68.227  1.00  0.00    -0.125 A  
HETATM   16  C   UNL     1      -7.601   8.517  68.951  1.00  0.00    -0.096 A  
HETATM   17  C   UNL     1      -7.634   9.850  68.535  1.00  0.00    -0.080 A  
HETATM   18  C   UNL     1      -8.347  10.234  67.390  1.00  0.00    -0.118 A  
HETATM   19  C   UNL     1      -9.018   9.243  66.660  1.00  0.00    -0.165 A  
HETATM   20  C   UNL     1      -8.988   7.905  67.071  1.00  0.00    -0.145 A  
BRANCH  18  21
HETATM   21  C   UNL     1      -8.423  11.692  66.963  1.00  0.00    -0.168 C  
HETATM   22  C   UNL     1      -7.499  12.591  67.804  1.00  0.00    -0.130 C  
HETATM   23  C   UNL     1      -7.692  14.062  67.444  1.00  0.00    -0.177 C  
HETATM   24  C   UNL     1      -9.165  14.459  67.518  1.00  0.00    -0.200 C  
HETATM   25  N   UNL     1      -9.991  13.629  66.641  1.00  0.00    -0.275 NA 
HETATM   26  C   UNL     1      -9.878  12.210  67.006  1.00  0.00    -0.203 C  
HETATM   27  H   UNL     1      -9.770  13.783  65.657  1.00  0.00     0.000 HD 
ENDBRANCH  18  21
ENDBRANCH  12  15
ENDBRANCH   3   6
TORSDOF 3
ENDMDL
MODEL      101
REMARK 921   NORMALIZED FREE ENERGY PREDICTED BY IDOCK:    0.41 KCAL/MOL
REMARK 922        TOTAL FREE ENERGY PREDICTED BY IDOCK:   -0.18 KCAL/MOL
REMARK 923 INTER-LIGAND FREE ENERGY PREDICTED BY IDOCK:    0.22 KCAL/MOL
REMARK 924 INTRA-LIGAND FREE ENERGY PREDICTED BY IDOCK:   -0.40 KCAL/MOL
REMARK 927      BINDING AFFINITY PREDICTED BY RF-SCORE:    0.00 PKD
ROOT
HETATM    1  N   UNL     1     -12.282  18.133  68.491  1.00  0.00     2.926 N  
HETATM    2  H2  UNL     1     -13.251  17.957  68.757  1.00  0.00     0.000 HD 
HETATM    3  C   UNL     1     -11.514  17.098  68.047  1.00  0.00     0.412 C  
HETATM    4  H1  UNL     1     -11.909  19.080  68.565  1.00  0.00     0.000 HD 
HETATM    5  O   UNL     1     -11.963  15.961  67.958  1.00  0.00    -0.065 OA 
ENDROOT
BRANCH   3   6
HETATM    6  C   UNL     1     -10.120  17.400  67.680  1.00  0.00    -0.327 A  
HETATM    7  C   UNL     1      -9.710  18.727  67.381  1.00  0.00    -0.340 A  
HETATM    8  C   UNL     1      -8.374  19.075  67.009  1.00  0.00    -0.291 A  
HETATM    9  C   UNL     1      -7.328  18.141  66.898  1.00  0.00    -0.228 A  
HETATM   10  C   UNL     1      -7.762  16.858  67.211  1.00  0.00    -0.196 A  
HETATM   11  C   UNL     1      -6.971  15.747  67.212  1.00  0.00    -0.197 A  
HETATM   12  N   UNL     1      -7.780  14.710  67.622  1.00  0.00    -0.161 NA 
HETATM   13  C   UNL     1      -9.085  16.442  67.594  1.00  0.00    -0.198 A  
HETATM   14  N   UNL     1      -9.072  15.110  67.811  1.00  0.00    -0.178 NA 
BRANCH  12  15
HETATM   15  C   UNL     1      -7.393  13.356  67.846  1.00  0.00    -0.140 A  
HETATM   16  C   UNL     1      -7.980  12.313  67.119  1.00  0.00    -0.161 A  
HETATM   17  C   UNL     1      -7.602  10.988  67.358  1.00  0.00    -0.110 A  
HETATM   18  C   UNL     1      -6.634  10.675  68.323  1.00  0.00    -0.062 A  
HETATM   19  C   UNL     1      -6.039  11.725  69.036  1.00  0.00    -0.066 A  
HETATM   20  C   UNL     1      -6.412  13.054  68.800  1.00  0.00    -0.085 A  
BRANCH  18  21
HETATM   21  C   UNL     1      -6.257   9.231  68.618  1.00  0.00    -0.045 C  
HETATM   22  C   UNL     1      -7.474   8.289  68.550  1.00  0.00    -0.095 C  
HETATM   23  C   UNL     1      -7.093   6.874  68.978  1.00  0.00    -0.088 C  
HETATM   24  C   UNL     1      -6.396   6.876  70.337  1.00  0.00    -0.039 C  
HETATM   25  N   UNL     1      -5.202   7.722  70.328  1.00  0.00    -0.023 NA 
HETATM   26  C   UNL     1      -5.546   9.109  69.984  1.00  0.00    -0.027 C  
HETATM   27  H   UNL     1      -4.481   7.349  69.711  1.00  0.00     0.000 HD 
ENDBRANCH  18  21
ENDBRANCH  12  15
ENDBRANCH   3   6
TORSDOF 3
ENDMDL
MODEL      102
REMARK 921   NORMALIZED FREE ENERGY PREDICTED BY IDOCK:    0.68 KCAL/MOL
REMARK 922        TOTAL FREE ENERGY PREDICTED BY IDOCK:    0.13 KCAL/MOL
REMARK 923 INTER-LIGAND FREE ENERGY PREDICTED BY IDOCK:    0.72 KCAL/MOL
REMARK 924 INTRA-LIGAND FREE ENERGY PREDICTED BY IDOCK:   -0.59 KCAL/MOL
REMARK 927      BINDING AFFINITY PREDICTED BY RF-SCORE:    0.00 PKD
ROOT
HETATM    1  N   UNL     1      -7.421  19.243  68.827  1.00  0.00    -0.342 N  
HETATM    2  H2  UNL     1      -6.853  19.923  68.321  1.00  0.00     0.000 HD 
HETATM    3  C   UNL     1      -8.708  19.024  68.432  1.00  0.00    -0.346 C  
HETATM    4  H1  UNL     1      -7.015  18.742  69.617  1.00  0.00     0.000 HD 
HETATM    5  O   UNL     1      -9.196  19.626  67.483  1.00  0.00    -0.305 OA 
ENDROOT
BRANCH   3   6
HETATM    6  C   UNL     1      -9.490  18.037  69.195  1.00  0.00    -0.016 A  
HETATM    7  C   UNL     1     -10.191  18.408  70.374  1.00  0.00     1.705 A  
HETATM    8  C   UNL     1     -10.955  17.490  71.158  1.00  0.00     1.834 A  
HETATM    9  C   UNL     1     -11.091  16.124  70.848  1.00  0.00    -0.232 A  
HETATM   10  C   UNL     1     -10.404  15.801  69.683  1.00  0.00    -0.290 A  
HETATM   11  C   UNL     1     -10.367  14.560  69.121  1.00  0.00    -0.189 A  
HETATM   12  N   UNL     1      -9.624  14.691  67.968  1.00  0.00    -0.207 NA 
HETATM   13  C   UNL     1      -9.622  16.673  68.849  1.00  0.00    -0.252 A  
HETATM   14  N   UNL     1      -9.130  15.956  67.816  1.00  0.00    -0.195 NA 
BRANCH  12  15
HETATM   15  C   UNL     1      -9.359  13.682  66.997  1.00  0.00    -0.248 A  
HETATM   16  C   UNL     1      -8.325  12.756  67.189  1.00  0.00    -0.164 A  
HETATM   17  C   UNL     1      -8.066  11.780  66.223  1.00  0.00     0.114 A  
HETATM   18  C   UNL     1      -8.829  11.702  65.049  1.00  0.00     0.342 A  
HETATM   19  C   UNL     1      -9.872  12.621  64.871  1.00  0.00    -0.078 A  
HETATM   20  C   UNL     1     -10.138  13.601  65.835  1.00  0.00    -0.320 A  
BRANCH  18  21
HETATM   21  C   UNL     1      -8.517  10.671  63.976  1.00  0.00    -0.056 C  
HETATM   22  C   UNL     1      -8.666   9.229  64.497  1.00  0.00    -0.218 C  
HETATM   23  C   UNL     1      -8.221   8.218  63.443  1.00  0.00    -0.088 C  
HETATM   24  C   UNL     1      -6.821   8.541  62.925  1.00  0.00    -0.090 C  
HETATM   25  N   UNL     1      -6.752   9.892  62.366  1.00  0.00    -0.107 NA 
HETATM   26  C   UNL     1      -7.110  10.894  63.379  1.00  0.00     0.469 C  
HETATM   27  H   UNL     1      -7.323   9.983  61.527  1.00  0.00     0.000 HD 
ENDBRANCH  18  21
ENDBRANCH  12  15
ENDBRANCH   3   6
TORSDOF 3
ENDMDL
MODEL      103
REMARK 921   NORMALIZED FREE ENERGY PREDICTED BY IDOCK:    3.56 KCAL/MOL
REMARK 922        TOTAL FREE ENERGY PREDICTED BY IDOCK:    3.52 KCAL/MOL
REMARK 923 INTER-LIGAND FREE ENERGY PREDICTED BY IDOCK:    3.87 KCAL/MOL
REMARK 924 INTRA-LIGAND FREE ENERGY PREDICTED BY IDOCK:   -0.36 KCAL/MOL
REMARK 927      BINDING AFFINITY PREDICTED BY RF-SCORE:    0.00 PKD
ROOT
HETATM    1  N   UNL     1     -11.790  16.170  74.514  1.00  0.00     0.051 N  
HETATM    2  H2  UNL     1     -11.179  16.410  75.295  1.00  0.00     0.000 HD 
HETATM    3  C   UNL     1     -11.607  14.986  73.863  1.00  0.00     0.294 C  
HETATM    4  H1  UNL     1     -12.525  16.822  74.237  1.00  0.00     0.000 HD 
HETATM    5  O   UNL     1     -10.725  14.204  74.197  1.00  0.00     3.152 OA 
ENDROOT
BRANCH   3   6
HETATM    6  C   UNL     1     -12.510  14.686  72.739  1.00  0.00    -0.381 A  
HETATM    7  C   UNL     1     -13.330  15.695  72.167  1.00  0.00    -0.548 A  
HETATM    8  C   UNL     1     -14.232  15.457  71.084  1.00  0.00    -0.323 A  
HETATM    9  C   UNL     1     -14.403  14.201  70.473  1.00  0.00     1.701 A  
HETATM   10  C   UNL     1     -13.576  13.244  71.049  1.00  0.00     0.326 A  
HETATM   11  C   UNL     1     -13.505  11.940  70.657  1.00  0.00     1.205 A  
HETATM   12  N   UNL     1     -12.539  11.361  71.451  1.00  0.00    -0.362 NA 
HETATM   13  C   UNL     1     -12.649  13.416  72.135  1.00  0.00     0.028 A  
HETATM   14  N   UNL     1     -12.046  12.233  72.379  1.00  0.00     1.935 NA 
BRANCH  12  15
HETATM   15  C   UNL     1     -12.053  10.023  71.375  1.00  0.00    -0.407 A  
HETATM   16  C   UNL     1     -11.058   9.672  70.454  1.00  0.00    -0.346 A  
HETATM   17  C   UNL     1     -10.600   8.354  70.380  1.00  0.00    -0.236 A  
HETATM   18  C   UNL     1     -11.120   7.359  71.219  1.00  0.00    -0.269 A  
HETATM   19  C   UNL     1     -12.104   7.719  72.150  1.00  0.00    -0.346 A  
HETATM   20  C   UNL     1     -12.566   9.039  72.231  1.00  0.00    -0.445 A  
BRANCH  18  21
HETATM   21  C   UNL     1     -10.657   5.914  71.107  1.00  0.00    -0.306 C  
HETATM   22  C   UNL     1     -10.670   5.194  72.469  1.00  0.00    -0.286 C  
HETATM   23  C   UNL     1     -10.078   3.792  72.351  1.00  0.00    -0.237 C  
HETATM   24  C   UNL     1      -8.701   3.828  71.690  1.00  0.00    -0.098 C  
HETATM   25  N   UNL     1      -8.755   4.449  70.366  1.00  0.00    -0.083 NA 
HETATM   26  C   UNL     1      -9.259   5.826  70.455  1.00  0.00    -0.147 C  
HETATM   27  H   UNL     1      -9.299   3.890  69.710  1.00  0.00     0.000 HD 
ENDBRANCH  18  21
ENDBRANCH  12  15
ENDBRANCH   3   6
TORSDOF 3
ENDMDL
MODEL      104
REMARK 921   NORMALIZED FREE ENERGY PREDICTED BY IDOCK:    3.82 KCAL/MOL
REMARK 922        TOTAL FREE ENERGY PREDICTED BY IDOCK:    3.83 KCAL/MOL
REMARK 923 INTER-LIGAND FREE ENERGY PREDICTED BY IDOCK:    4.44 KCAL/MOL
REMARK 924 INTRA-LIGAND FREE ENERGY PREDICTED BY IDOCK:   -0.62 KCAL/MOL
REMARK 927      BINDING AFFINITY PREDICTED BY RF-SCORE:    0.00 PKD
ROOT
HETATM    1  N   UNL     1     -10.463  19.272  71.399  1.00  0.00     1.210 N  
HETATM    2  H2  UNL     1     -11.390  19.506  71.754  1.00  0.00     0.000 HD 
HETATM    3  C   UNL     1      -9.824  20.148  70.572  1.00  0.00     1.231 C  
HETATM    4  H1  UNL     1     -10.034  18.386  71.669  1.00  0.00     0.000 HD 
HETATM    5  O   UNL     1     -10.340  21.212  70.248  1.00  0.00     1.175 OA 
ENDROOT
BRANCH   3   6
HETATM    6  C   UNL     1      -8.491  19.763  70.080  1.00  0.00     1.154 A  
HETATM    7  C   UNL     1      -7.311  20.309  70.653  1.00  0.00     0.937 A  
HETATM    8  C   UNL     1      -5.993  19.980  70.207  1.00  0.00    -0.375 A  
HETATM    9  C   UNL     1      -5.727  19.085  69.155  1.00  0.00    -0.234 A  
HETATM   10  C   UNL     1      -6.902  18.562  68.629  1.00  0.00    -0.279 A  
HETATM   11  C   UNL     1      -6.963  17.654  67.614  1.00  0.00    -0.176 A  
HETATM   12  N   UNL     1      -8.301  17.373  67.441  1.00  0.00    -0.203 NA 
HETATM   13  C   UNL     1      -8.253  18.847  69.030  1.00  0.00    -0.158 A  
HETATM   14  N   UNL     1      -9.094  18.123  68.262  1.00  0.00    -0.293 NA 
BRANCH  12  15
HETATM   15  C   UNL     1      -8.871  16.427  66.539  1.00  0.00    -0.281 A  
HETATM   16  C   UNL     1      -9.743  16.839  65.523  1.00  0.00     0.125 A  
HETATM   17  C   UNL     1     -10.306  15.901  64.654  1.00  0.00     0.432 A  
HETATM   18  C   UNL     1     -10.013  14.535  64.775  1.00  0.00     0.048 A  
HETATM   19  C   UNL     1      -9.126  14.131  65.783  1.00  0.00     0.416 A  
HETATM   20  C   UNL     1      -8.558  15.066  66.656  1.00  0.00    -0.246 A  
BRANCH  18  21
HETATM   21  C   UNL     1     -10.661  13.508  63.861  1.00  0.00     0.116 C  
HETATM   22  C   UNL     1     -12.196  13.503  63.991  1.00  0.00    -0.458 C  
HETATM   23  C   UNL     1     -12.811  12.377  63.163  1.00  0.00    -0.014 C  
HETATM   24  C   UNL     1     -12.165  11.033  63.494  1.00  0.00     1.378 C  
HETATM   25  N   UNL     1     -10.718  11.064  63.278  1.00  0.00    -0.752 NA 
HETATM   26  C   UNL     1     -10.087  12.095  64.113  1.00  0.00    -0.308 C  
HETATM   27  H   UNL     1     -10.487  11.183  62.292  1.00  0.00     0.000 HD 
ENDBRANCH  18  21
ENDBRANCH  12  15
ENDBRANCH   3   6
TORSDOF 3
ENDMDL
MODEL      105
REMARK 921   NORMALIZED FREE ENERGY PREDICTED BY IDOCK:    4.70 KCAL/MOL
REMARK 922        TOTAL FREE ENERGY PREDICTED BY IDOCK:    4.85 KCAL/MOL
REMARK 923 INTER-LIGAND FREE ENERGY PREDICTED BY IDOCK:    5.21 KCAL/MOL
REMARK 924 INTRA-LIGAND FREE ENERGY PREDICTED BY IDOCK:   -0.35 KCAL/MOL
REMARK 927      BINDING AFFINITY PREDICTED BY RF-SCORE:    0.00 PKD
ROOT
HETATM    1  N   UNL     1     -11.445  15.789  73.724  1.00  0.00     0.359 N  
HETATM    2  H2  UNL     1     -11.258  15.655  74.718  1.00  0.00     0.000 HD 
HETATM    3  C   UNL     1     -11.113  14.800  72.845  1.00  0.00     1.204 C  
HETATM    4  H1  UNL     1     -11.874  16.659  73.409  1.00  0.00     0.000 HD 
HETATM    5  O   UNL     1     -10.598  13.755  73.223  1.00  0.00     5.395 OA 
ENDROOT
BRANCH   3   6
HETATM    6  C   UNL     1     -11.396  15.041  71.420  1.00  0.00    -0.327 A  
HETATM    7  C   UNL     1     -11.751  16.333  70.949  1.00  0.00    -0.270 A  
HETATM    8  C   UNL     1     -12.047  16.620  69.581  1.00  0.00     1.099 A  
HETATM    9  C   UNL     1     -12.021  15.654  68.558  1.00  0.00    -0.145 A  
HETATM   10  C   UNL     1     -11.657  14.407  69.053  1.00  0.00    -0.330 A  
HETATM   11  C   UNL     1     -11.527  13.279  68.298  1.00  0.00    -0.316 A  
HETATM   12  N   UNL     1     -11.111  12.292  69.166  1.00  0.00    -0.228 NA 
HETATM   13  C   UNL     1     -11.346  14.052  70.411  1.00  0.00     0.066 A  
HETATM   14  N   UNL     1     -11.042  12.737  70.455  1.00  0.00     0.870 NA 
BRANCH  12  15
HETATM   15  C   UNL     1     -10.772  10.947  68.837  1.00  0.00    -0.215 A  
HETATM   16  C   UNL     1     -10.961   9.914  69.764  1.00  0.00    -0.304 A  
HETATM   17  C   UNL     1     -10.611   8.601  69.435  1.00  0.00    -0.207 A  
HETATM   18  C   UNL     1     -10.069   8.288  68.181  1.00  0.00    -0.238 A  
HETATM   19  C   UNL     1      -9.898   9.325  67.252  1.00  0.00    -0.236 A  
HETATM   20  C   UNL     1     -10.248  10.642  67.575  1.00  0.00    -0.236 A  
BRANCH  18  21
HETATM   21  C   UNL     1      -9.644   6.869  67.839  1.00  0.00    -0.126 C  
HETATM   22  C   UNL     1      -8.115   6.738  67.707  1.00  0.00    -0.113 C  
HETATM   23  C   UNL     1      -7.725   5.339  67.235  1.00  0.00    -0.096 C  
HETATM   24  C   UNL     1      -8.485   4.952  65.968  1.00  0.00    -0.117 C  
HETATM   25  N   UNL     1      -9.933   5.014  66.169  1.00  0.00    -0.200 NA 
HETATM   26  C   UNL     1     -10.349   6.369  66.558  1.00  0.00    -0.080 C  
HETATM   27  H   UNL     1     -10.251   4.315  66.838  1.00  0.00     0.000 HD 
ENDBRANCH  18  21
ENDBRANCH  12  15
ENDBRANCH   3   6
TORSDOF 3
ENDMDL
MODEL      106
REMARK 921   NORMALIZED FREE ENERGY PREDICTED BY IDOCK:    6.27 KCAL/MOL
REMARK 922        TOTAL FREE ENERGY PREDICTED BY IDOCK:    6.71 KCAL/MOL
REMARK 923 INTER-LIGAND FREE ENERGY PREDICTED BY IDOCK:    7.29 KCAL/MOL
REMARK 924 INTRA-LIGAND FREE ENERGY PREDICTED BY IDOCK:   -0.58 KCAL/MOL
REMARK 927      BINDING AFFINITY PREDICTED BY RF-SCORE:    0.00 PKD
ROOT
HETATM    1  N   UNL     1      -8.007  20.470  72.143  1.00  0.00     0.814 N  
HETATM    2  H2  UNL     1      -7.770  20.503  73.135  1.00  0.00     0.000 HD 
HETATM    3  C   UNL     1      -9.177  19.885  71.758  1.00  0.00     2.978 C  
HETATM    4  H1  UNL     1      -7.365  20.874  71.462  1.00  0.00     0.000 HD 
HETATM    5  O   UNL     1      -9.949  19.399  72.576  1.00  0.00     2.668 OA 
ENDROOT
BRANCH   3   6
HETATM    6  C   UNL     1      -9.475  19.856  70.316  1.00  0.00     0.930 A  
HETATM    7  C   UNL     1      -9.709  21.055  69.590  1.00  0.00     1.697 A  
HETATM    8  C   UNL     1     -10.013  21.084  68.194  1.00  0.00     0.308 A  
HETATM    9  C   UNL     1     -10.115  19.931  67.394  1.00  0.00    -0.567 A  
HETATM   10  C   UNL     1      -9.867  18.781  68.133  1.00  0.00    -0.396 A  
HETATM   11  C   UNL     1      -9.873  17.515  67.628  1.00  0.00    -0.291 A  
HETATM   12  N   UNL     1      -9.536  16.689  68.678  1.00  0.00    -0.241 NA 
HETATM   13  C   UNL     1      -9.554  18.682  69.533  1.00  0.00     0.298 A  
HETATM   14  N   UNL     1      -9.384  17.380  69.846  1.00  0.00     1.008 NA 
BRANCH  12  15
HETATM   15  C   UNL     1      -9.344  15.277  68.633  1.00  0.00    -0.201 A  
HETATM   16  C   UNL     1     -10.439  14.408  68.549  1.00  0.00    -0.254 A  
HETATM   17  C   UNL     1     -10.239  13.025  68.520  1.00  0.00    -0.218 A  
HETATM   18  C   UNL     1      -8.949  12.478  68.573  1.00  0.00    -0.052 A  
HETATM   19  C   UNL     1      -7.857  13.354  68.640  1.00  0.00    -0.073 A  
HETATM   20  C   UNL     1      -8.050  14.741  68.668  1.00  0.00    -0.153 A  
BRANCH  18  21
HETATM   21  C   UNL     1      -8.733  10.973  68.590  1.00  0.00    -0.161 C  
HETATM   22  C   UNL     1      -8.603  10.390  67.170  1.00  0.00    -0.130 C  
HETATM   23  C   UNL     1      -8.520   8.866  67.210  1.00  0.00    -0.114 C  
HETATM   24  C   UNL     1      -9.674   8.271  68.013  1.00  0.00    -0.161 C  
HETATM   25  N   UNL     1      -9.707   8.795  69.379  1.00  0.00    -0.170 NA 
HETATM   26  C   UNL     1      -9.855  10.257  69.374  1.00  0.00    -0.227 C  
HETATM   27  H   UNL     1      -8.891   8.501  69.915  1.00  0.00     0.000 HD 
ENDBRANCH  18  21
ENDBRANCH  12  15
ENDBRANCH   3   6
TORSDOF 3
ENDMDL
MODEL      107
REMARK 921   NORMALIZED FREE ENERGY PREDICTED BY IDOCK:    8.20 KCAL/MOL
REMARK 922        TOTAL FREE ENERGY PREDICTED BY IDOCK:    8.97 KCAL/MOL
REMARK 923 INTER-LIGAND FREE ENERGY PREDICTED BY IDOCK:    9.31 KCAL/MOL
REMARK 924 INTRA-LIGAND FREE ENERGY PREDICTED BY IDOCK:   -0.34 KCAL/MOL
REMARK 927      BINDING AFFINITY PREDICTED BY RF-SCORE:    0.00 PKD
ROOT
HETATM    1  N   UNL     1     -10.854  19.558  65.428  1.00  0.00    -0.241 N  
HETATM    2  H2  UNL     1     -10.247  20.375  65.489  1.00  0.00     0.000 HD 
HETATM    3  C   UNL     1     -10.371  18.339  65.804  1.00  0.00    -0.181 C  
HETATM    4  H1  UNL     1     -11.809  19.669  65.087  1.00  0.00     0.000 HD 
HETATM    5  O   UNL     1      -9.224  18.205  66.214  1.00  0.00    -0.410 OA 
ENDROOT
BRANCH   3   6
HETATM    6  C   UNL     1     -11.282  17.187  65.694  1.00  0.00     0.488 A  
HETATM    7  C   UNL     1     -12.576  17.326  65.125  1.00  0.00     6.453 A  
HETATM    8  C   UNL     1     -13.505  16.247  65.004  1.00  0.00     4.631 A  
HETATM    9  C   UNL     1     -13.236  14.936  65.438  1.00  0.00     0.799 A  
HETATM   10  C   UNL     1     -11.958  14.835  65.975  1.00  0.00    -0.155 A  
HETATM   11  C   UNL     1     -11.407  13.686  66.461  1.00  0.00    -0.319 A  
HETATM   12  N   UNL     1     -10.127  14.017  66.848  1.00  0.00    -0.255 NA 
HETATM   13  C   UNL     1     -10.978  15.876  66.124  1.00  0.00    -0.126 A  
HETATM   14  N   UNL     1      -9.871  15.350  66.691  1.00  0.00    -0.245 NA 
BRANCH  12  15
HETATM   15  C   UNL     1      -9.128  13.136  67.357  1.00  0.00    -0.208 A  
HETATM   16  C   UNL     1      -7.768  13.449  67.238  1.00  0.00    -0.092 A  
HETATM   17  C   UNL     1      -6.798  12.571  67.728  1.00  0.00    -0.120 A  
HETATM   18  C   UNL     1      -7.159  11.366  68.348  1.00  0.00    -0.079 A  
HETATM   19  C   UNL     1      -8.522  11.067  68.478  1.00  0.00    -0.153 A  
HETATM   20  C   UNL     1      -9.499  11.943  67.990  1.00  0.00    -0.197 A  
BRANCH  18  21
HETATM   21  C   UNL     1      -6.103  10.388  68.839  1.00  0.00    -0.040 C  
HETATM   22  C   UNL     1      -6.130   9.064  68.052  1.00  0.00    -0.050 C  
HETATM   23  C   UNL     1      -5.153   8.054  68.650  1.00  0.00    -0.024 C  
HETATM   24  C   UNL     1      -5.388   7.879  70.149  1.00  0.00    -0.023 C  
HETATM   25  N   UNL     1      -5.273   9.152  70.863  1.00  0.00    -0.028 NA 
HETATM   26  C   UNL     1      -6.249  10.126  70.355  1.00  0.00    -0.112 C  
HETATM   27  H   UNL     1      -4.322   9.518  70.830  1.00  0.00     0.000 HD 
ENDBRANCH  18  21
ENDBRANCH  12  15
ENDBRANCH   3   6
TORSDOF 3
ENDMDL
MODEL      108
REMARK 921   NORMALIZED FREE ENERGY PREDICTED BY IDOCK:    8.21 KCAL/MOL
REMARK 922        TOTAL FREE ENERGY PREDICTED BY IDOCK:    8.99 KCAL/MOL
REMARK 923 INTER-LIGAND FREE ENERGY PREDICTED BY IDOCK:    9.62 KCAL/MOL
REMARK 924 INTRA-LIGAND FREE ENERGY PREDICTED BY IDOCK:   -0.63 KCAL/MOL
REMARK 927      BINDING AFFINITY PREDICTED BY RF-SCORE:    0.00 PKD
ROOT
HETATM    1  N   UNL     1     -10.014  19.798  70.882  1.00  0.00     0.453 N  
HETATM    2  H2  UNL     1     -10.418  20.119  71.761  1.00  0.00     0.000 HD 
HETATM    3  C   UNL     1      -8.669  19.585  70.804  1.00  0.00     2.439 C  
HETATM    4  H1  UNL     1     -10.624  19.644  70.079  1.00  0.00     0.000 HD 
HETATM    5  O   UNL     1      -7.937  19.770  71.769  1.00  0.00     2.130 OA 
ENDROOT
BRANCH   3   6
HETATM    6  C   UNL     1      -8.131  19.127  69.512  1.00  0.00     0.217 A  
HETATM    7  C   UNL     1      -7.368  19.993  68.685  1.00  0.00    -0.234 A  
HETATM    8  C   UNL     1      -6.832  19.606  67.419  1.00  0.00    -0.234 A  
HETATM    9  C   UNL     1      -7.006  18.328  66.857  1.00  0.00    -0.213 A  
HETATM   10  C   UNL     1      -7.745  17.504  67.698  1.00  0.00    -0.207 A  
HETATM   11  C   UNL     1      -8.060  16.204  67.434  1.00  0.00    -0.159 A  
HETATM   12  N   UNL     1      -8.752  15.753  68.537  1.00  0.00    -0.176 NA 
HETATM   13  C   UNL     1      -8.309  17.829  68.980  1.00  0.00    -0.024 A  
HETATM   14  N   UNL     1      -8.948  16.741  69.460  1.00  0.00     0.173 NA 
BRANCH  12  15
HETATM   15  C   UNL     1      -9.235  14.432  68.767  1.00  0.00    -0.144 A  
HETATM   16  C   UNL     1     -10.558  14.089  68.460  1.00  0.00    -0.260 A  
HETATM   17  C   UNL     1     -11.024  12.794  68.702  1.00  0.00    -0.295 A  
HETATM   18  C   UNL     1     -10.187  11.814  69.254  1.00  0.00     0.153 A  
HETATM   19  C   UNL     1      -8.859  12.159  69.544  1.00  0.00     1.445 A  
HETATM   20  C   UNL     1      -8.385  13.454  69.301  1.00  0.00     0.686 A  
BRANCH  18  21
HETATM   21  C   UNL     1     -10.706  10.418  69.563  1.00  0.00    -0.284 C  
HETATM   22  C   UNL     1     -11.389   9.772  68.343  1.00  0.00     0.027 C  
HETATM   23  C   UNL     1     -12.016   8.430  68.716  1.00  0.00     2.391 C  
HETATM   24  C   UNL     1     -12.932   8.567  69.930  1.00  0.00     2.430 C  
HETATM   25  N   UNL     1     -12.217   9.111  71.086  1.00  0.00    -0.339 NA 
HETATM   26  C   UNL     1     -11.659  10.435  70.779  1.00  0.00    -0.358 C  
HETATM   27  H   UNL     1     -11.501   8.468  71.422  1.00  0.00     0.000 HD 
ENDBRANCH  18  21
ENDBRANCH  12  15
ENDBRANCH   3   6
TORSDOF 3
ENDMDL
MODEL      109
REMARK 921   NORMALIZED FREE ENERGY PREDICTED BY IDOCK:   28.90 KCAL/MOL
REMARK 922        TOTAL FREE ENERGY PREDICTED BY IDOCK:   33.30 KCAL/MOL
REMARK 923 INTER-LIGAND FREE ENERGY PREDICTED BY IDOCK:   33.89 KCAL/MOL
REMARK 924 INTRA-LIGAND FREE ENERGY PREDICTED BY IDOCK:   -0.59 KCAL/MOL
REMARK 927      BINDING AFFINITY PREDICTED BY RF-SCORE:    0.00 PKD
ROOT
HETATM    1  N   UNL     1      -7.633  20.100  72.449  1.00  0.00     0.941 N  
HETATM    2  H2  UNL     1      -7.190  20.342  73.336  1.00  0.00     0.000 HD 
HETATM    3  C   UNL     1      -8.657  19.199  72.440  1.00  0.00     7.303 C  
HETATM    4  H1  UNL     1      -7.300  20.536  71.589  1.00  0.00     0.000 HD 
HETATM    5  O   UNL     1      -9.057  18.676  73.474  1.00  0.00     6.672 OA 
ENDROOT
BRANCH   3   6
HETATM    6  C   UNL     1      -9.262  18.877  71.137  1.00  0.00     4.695 A  
HETATM    7  C   UNL     1     -10.033  19.836  70.427  1.00  0.00     0.898 A  
HETATM    8  C   UNL     1     -10.651  19.574  69.166  1.00  0.00     0.343 A  
HETATM    9  C   UNL     1     -10.563  18.339  68.497  1.00  0.00    -0.111 A  
HETATM   10  C   UNL     1      -9.792  17.431  69.213  1.00  0.00    -0.061 A  
HETATM   11  C   UNL     1      -9.511  16.160  68.809  1.00  0.00    -0.230 A  
HETATM   12  N   UNL     1      -8.689  15.630  69.779  1.00  0.00    -0.100 NA 
HETATM   13  C   UNL     1      -9.143  17.631  70.480  1.00  0.00     3.950 A  
HETATM   14  N   UNL     1      -8.495  16.495  70.817  1.00  0.00     3.701 NA 
BRANCH  12  15
HETATM   15  C   UNL     1      -8.071  14.345  69.773  1.00  0.00     0.514 A  
HETATM   16  C   UNL     1      -8.815  13.190  70.044  1.00  0.00     3.315 A  
HETATM   17  C   UNL     1      -8.195  11.938  70.049  1.00  0.00     2.520 A  
HETATM   18  C   UNL     1      -6.825  11.807  69.785  1.00  0.00     0.086 A  
HETATM   19  C   UNL     1      -6.089  12.965  69.498  1.00  0.00    -0.117 A  
HETATM   20  C   UNL     1      -6.704  14.223  69.489  1.00  0.00    -0.130 A  
BRANCH  18  21
HETATM   21  C   UNL     1      -6.140  10.450  69.837  1.00  0.00    -0.068 C  
HETATM   22  C   UNL     1      -6.168   9.734  68.474  1.00  0.00    -0.046 C  
HETATM   23  C   UNL     1      -5.593   8.324  68.586  1.00  0.00    -0.036 C  
HETATM   24  C   UNL     1      -6.272   7.538  69.705  1.00  0.00    -0.030 C  
HETATM   25  N   UNL     1      -6.149   8.220  70.994  1.00  0.00    -0.033 NA 
HETATM   26  C   UNL     1      -6.755   9.557  70.938  1.00  0.00    -0.083 C  
HETATM   27  H   UNL     1      -5.180   8.258  71.309  1.00  0.00     0.000 HD 
ENDBRANCH  18  21
ENDBRANCH  12  15
ENDBRANCH   3   6
TORSDOF 3
ENDMDL
