MODEL        1
REMARK 921   NORMALIZED FREE ENERGY PREDICTED BY IDOCK:   -6.82 KCAL/MOL
REMARK 922        TOTAL FREE ENERGY PREDICTED BY IDOCK:   -9.82 KCAL/MOL
REMARK 923 INTER-LIGAND FREE ENERGY PREDICTED BY IDOCK:   -9.21 KCAL/MOL
REMARK 924 INTRA-LIGAND FREE ENERGY PREDICTED BY IDOCK:   -0.61 KCAL/MOL
REMARK 927      BINDING AFFINITY PREDICTED BY RF-SCORE:    0.00 PKD
ROOT
HETATM    1  C   UNL     1     -10.519  11.079  64.115  1.00  0.00    -0.366 C  
HETATM    2  O   UNL     1     -10.528  10.486  65.419  1.00  0.00    -0.244 OA 
ENDROOT
BRANCH   2   3
HETATM    3  C   UNL     1      -9.609  10.990  66.273  1.00  0.00    -0.201 C  
HETATM    4  O   UNL     1      -8.429  11.164  65.994  1.00  0.00    -0.172 OA 
BRANCH   3   5
HETATM    5  C   UNL     1     -10.198  11.235  67.619  1.00  0.00    -0.206 C  
HETATM    6  C   UNL     1     -10.696  10.192  68.324  1.00  0.00    -0.238 C  
HETATM    7  C   UNL     1     -10.622   8.726  67.954  1.00  0.00    -0.236 C  
HETATM    8  N   UNL     1     -11.384  10.431  69.499  1.00  0.00    -0.256 NA 
HETATM    9  C   UNL     1     -11.796  11.675  69.943  1.00  0.00    -0.358 C  
HETATM   10  C   UNL     1     -12.773  11.633  71.097  1.00  0.00    -0.426 C  
HETATM   11  C   UNL     1     -11.352  12.802  69.329  1.00  0.00    -0.307 C  
HETATM   12  C   UNL     1     -10.393  12.700  68.117  1.00  0.00    -0.238 C  
BRANCH  11  13
HETATM   13  C   UNL     1     -11.874  14.125  69.788  1.00  0.00    -0.322 C  
HETATM   14  O   UNL     1     -12.462  14.911  69.057  1.00  0.00    -0.083 OA 
BRANCH  13  15
HETATM   15  O   UNL     1     -11.549  14.393  71.079  1.00  0.00    -0.251 OA 
BRANCH  15  16
HETATM   16  C   UNL     1     -11.793  15.756  71.483  1.00  0.00    -0.446 C  
HETATM   17  C   UNL     1     -14.231  15.396  72.158  1.00  0.00    -0.660 C  
HETATM   18  C   UNL     1     -12.857  15.917  72.577  1.00  0.00    -0.524 C  
HETATM   19  C   UNL     1     -12.425  15.268  73.889  1.00  0.00    -0.752 C  
ENDBRANCH  15  16
ENDBRANCH  13  15
ENDBRANCH  11  13
BRANCH  12  20
HETATM   20  C   UNL     1     -10.849  13.581  66.944  1.00  0.00    -0.286 A  
HETATM   21  O   UNL     1      -7.901  14.231  67.129  1.00  0.00    -0.170 OA 
HETATM   22  C   UNL     1     -12.101  13.309  66.352  1.00  0.00    -0.454 A  
HETATM   23  O   UNL     1      -8.707  16.271  67.155  1.00  0.00    -0.179 OA 
HETATM   24  C   UNL     1     -12.513  13.972  65.195  1.00  0.00    -0.472 A  
HETATM   25  N   UNL     1      -8.801  15.056  66.936  1.00  0.00    -0.242 N  
HETATM   26  C   UNL     1     -10.059  14.594  66.353  1.00  0.00    -0.278 A  
HETATM   27  C   UNL     1     -11.690  14.923  64.597  1.00  0.00    -0.406 A  
HETATM   28  C   UNL     1     -10.467  15.246  65.179  1.00  0.00    -0.438 A  
ENDBRANCH  12  20
ENDBRANCH   3   5
ENDBRANCH   2   3
TORSDOF 6
ENDMDL
MODEL        2
REMARK 921   NORMALIZED FREE ENERGY PREDICTED BY IDOCK:   -6.49 KCAL/MOL
REMARK 922        TOTAL FREE ENERGY PREDICTED BY IDOCK:   -9.38 KCAL/MOL
REMARK 923 INTER-LIGAND FREE ENERGY PREDICTED BY IDOCK:   -8.09 KCAL/MOL
REMARK 924 INTRA-LIGAND FREE ENERGY PREDICTED BY IDOCK:   -1.28 KCAL/MOL
REMARK 927      BINDING AFFINITY PREDICTED BY RF-SCORE:    0.00 PKD
ROOT
HETATM    1  C   UNL     1     -12.732  11.982  63.790  1.00  0.00    -0.400 C  
HETATM    2  O   UNL     1     -12.379  12.312  65.139  1.00  0.00    -0.520 OA 
ENDROOT
BRANCH   2   3
HETATM    3  C   UNL     1     -11.148  12.850  65.283  1.00  0.00    -0.284 C  
HETATM    4  O   UNL     1     -10.125  12.373  64.807  1.00  0.00    -0.278 OA 
BRANCH   3   5
HETATM    5  C   UNL     1     -11.183  14.054  66.159  1.00  0.00    -0.318 C  
HETATM    6  C   UNL     1     -11.271  15.282  65.593  1.00  0.00    -0.256 C  
HETATM    7  C   UNL     1     -11.463  15.594  64.125  1.00  0.00    -0.080 C  
HETATM    8  N   UNL     1     -11.144  16.406  66.387  1.00  0.00     0.065 NA 
HETATM    9  C   UNL     1     -10.734  16.410  67.707  1.00  0.00    -0.328 C  
HETATM   10  C   UNL     1     -10.403  17.780  68.255  1.00  0.00    -0.387 C  
HETATM   11  C   UNL     1     -10.623  15.241  68.392  1.00  0.00    -0.246 C  
HETATM   12  C   UNL     1     -10.941  13.898  67.692  1.00  0.00    -0.278 C  
BRANCH  11  13
HETATM   13  C   UNL     1     -10.107  15.276  69.794  1.00  0.00    -0.218 C  
HETATM   14  O   UNL     1      -8.936  15.491  70.079  1.00  0.00    -0.054 OA 
BRANCH  13  15
HETATM   15  O   UNL     1     -11.059  14.955  70.708  1.00  0.00    -0.222 OA 
BRANCH  15  16
HETATM   16  C   UNL     1     -11.714  16.092  71.307  1.00  0.00    -0.461 C  
HETATM   17  C   UNL     1     -13.982  14.953  71.612  1.00  0.00    -0.573 C  
HETATM   18  C   UNL     1     -12.850  15.735  72.277  1.00  0.00    -0.525 C  
HETATM   19  C   UNL     1     -12.336  14.981  73.500  1.00  0.00    -0.597 C  
ENDBRANCH  15  16
ENDBRANCH  13  15
ENDBRANCH  11  13
BRANCH  12  20
HETATM   20  C   UNL     1      -9.846  12.847  67.930  1.00  0.00    -0.227 A  
HETATM   21  O   UNL     1     -12.375  11.248  68.368  1.00  0.00    -0.545 OA 
HETATM   22  C   UNL     1      -8.534  13.143  67.502  1.00  0.00    -0.198 A  
HETATM   23  O   UNL     1     -11.320  10.739  70.222  1.00  0.00    -0.298 OA 
HETATM   24  C   UNL     1      -7.523  12.182  67.555  1.00  0.00    -0.148 A  
HETATM   25  N   UNL     1     -11.356  11.172  69.062  1.00  0.00    -0.248 N  
HETATM   26  C   UNL     1     -10.077  11.563  68.472  1.00  0.00    -0.207 A  
HETATM   27  C   UNL     1      -7.791  10.904  68.036  1.00  0.00    -0.107 A  
HETATM   28  C   UNL     1      -9.063  10.592  68.507  1.00  0.00    -0.154 A  
ENDBRANCH  12  20
ENDBRANCH   3   5
ENDBRANCH   2   3
TORSDOF 6
ENDMDL
MODEL        3
REMARK 921   NORMALIZED FREE ENERGY PREDICTED BY IDOCK:   -6.41 KCAL/MOL
REMARK 922        TOTAL FREE ENERGY PREDICTED BY IDOCK:   -9.26 KCAL/MOL
REMARK 923 INTER-LIGAND FREE ENERGY PREDICTED BY IDOCK:   -7.33 KCAL/MOL
REMARK 924 INTRA-LIGAND FREE ENERGY PREDICTED BY IDOCK:   -1.93 KCAL/MOL
REMARK 927      BINDING AFFINITY PREDICTED BY RF-SCORE:    0.00 PKD
ROOT
HETATM    1  C   UNL     1     -10.788  19.263  67.176  1.00  0.00    -0.440 C  
HETATM    2  O   UNL     1     -10.415  17.923  67.516  1.00  0.00    -0.368 OA 
ENDROOT
BRANCH   2   3
HETATM    3  C   UNL     1      -9.844  17.224  66.509  1.00  0.00    -0.298 C  
HETATM    4  O   UNL     1     -10.210  17.271  65.341  1.00  0.00    -0.604 OA 
BRANCH   3   5
HETATM    5  C   UNL     1      -8.763  16.333  67.014  1.00  0.00    -0.220 C  
HETATM    6  C   UNL     1      -7.470  16.673  66.797  1.00  0.00    -0.254 C  
HETATM    7  C   UNL     1      -6.958  17.958  66.183  1.00  0.00    -0.336 C  
HETATM    8  N   UNL     1      -6.468  15.777  67.121  1.00  0.00    -0.309 NA 
HETATM    9  C   UNL     1      -6.664  14.454  67.475  1.00  0.00    -0.108 C  
HETATM   10  C   UNL     1      -5.403  13.620  67.496  1.00  0.00     0.123 C  
HETATM   11  C   UNL     1      -7.915  13.994  67.735  1.00  0.00    -0.175 C  
HETATM   12  C   UNL     1      -9.132  14.945  67.622  1.00  0.00    -0.183 C  
BRANCH  11  13
HETATM   13  C   UNL     1      -8.099  12.543  68.043  1.00  0.00    -0.164 C  
HETATM   14  O   UNL     1      -8.147  12.093  69.180  1.00  0.00     0.164 OA 
BRANCH  13  15
HETATM   15  O   UNL     1      -8.117  11.772  66.924  1.00  0.00    -0.163 OA 
BRANCH  15  16
HETATM   16  C   UNL     1      -8.374  10.374  67.169  1.00  0.00    -0.126 C  
HETATM   17  C   UNL     1     -10.905  10.617  67.423  1.00  0.00    -0.353 C  
HETATM   18  C   UNL     1      -9.760   9.891  66.718  1.00  0.00    -0.244 C  
HETATM   19  C   UNL     1      -9.929   9.986  65.204  1.00  0.00    -0.350 C  
ENDBRANCH  15  16
ENDBRANCH  13  15
ENDBRANCH  11  13
BRANCH  12  20
HETATM   20  C   UNL     1     -10.279  14.323  66.812  1.00  0.00    -0.272 A  
HETATM   21  O   UNL     1     -11.731  15.475  69.202  1.00  0.00    -0.328 OA 
HETATM   22  C   UNL     1     -10.032  13.969  65.469  1.00  0.00    -0.302 A  
HETATM   23  O   UNL     1     -12.527  13.432  69.266  1.00  0.00    -0.139 OA 
HETATM   24  C   UNL     1     -11.063  13.534  64.634  1.00  0.00    -0.383 A  
HETATM   25  N   UNL     1     -11.961  14.373  68.693  1.00  0.00    -0.320 N  
HETATM   26  C   UNL     1     -11.598  14.160  67.293  1.00  0.00    -0.373 A  
HETATM   27  C   UNL     1     -12.366  13.441  65.115  1.00  0.00    -0.501 A  
HETATM   28  C   UNL     1     -12.637  13.740  66.447  1.00  0.00    -0.309 A  
ENDBRANCH  12  20
ENDBRANCH   3   5
ENDBRANCH   2   3
TORSDOF 6
ENDMDL
MODEL        4
REMARK 921   NORMALIZED FREE ENERGY PREDICTED BY IDOCK:   -6.35 KCAL/MOL
REMARK 922        TOTAL FREE ENERGY PREDICTED BY IDOCK:   -9.18 KCAL/MOL
REMARK 923 INTER-LIGAND FREE ENERGY PREDICTED BY IDOCK:   -7.78 KCAL/MOL
REMARK 924 INTRA-LIGAND FREE ENERGY PREDICTED BY IDOCK:   -1.40 KCAL/MOL
REMARK 927      BINDING AFFINITY PREDICTED BY RF-SCORE:    0.00 PKD
ROOT
HETATM    1  C   UNL     1     -10.599  16.457  65.524  1.00  0.00    -0.330 C  
HETATM    2  O   UNL     1     -10.317  15.161  64.984  1.00  0.00    -0.383 OA 
ENDROOT
BRANCH   2   3
HETATM    3  C   UNL     1     -11.237  14.215  65.277  1.00  0.00    -0.326 C  
HETATM    4  O   UNL     1     -12.437  14.432  65.396  1.00  0.00    -0.407 OA 
BRANCH   3   5
HETATM    5  C   UNL     1     -10.596  12.891  65.510  1.00  0.00    -0.298 C  
HETATM    6  C   UNL     1     -10.934  11.843  64.721  1.00  0.00    -0.312 C  
HETATM    7  C   UNL     1     -11.833  11.875  63.503  1.00  0.00    -0.560 C  
HETATM    8  N   UNL     1     -10.466  10.580  65.031  1.00  0.00    -0.237 NA 
HETATM    9  C   UNL     1      -9.826  10.232  66.206  1.00  0.00    -0.219 C  
HETATM   10  C   UNL     1      -9.677   8.742  66.418  1.00  0.00    -0.335 C  
HETATM   11  C   UNL     1      -9.421  11.194  67.075  1.00  0.00    -0.193 C  
HETATM   12  C   UNL     1      -9.687  12.686  66.761  1.00  0.00    -0.240 C  
BRANCH  11  13
HETATM   13  C   UNL     1      -8.799  10.779  68.370  1.00  0.00    -0.146 C  
HETATM   14  O   UNL     1      -7.590  10.721  68.552  1.00  0.00    -0.091 OA 
BRANCH  13  15
HETATM   15  O   UNL     1      -9.721  10.391  69.289  1.00  0.00    -0.206 OA 
BRANCH  15  16
HETATM   16  C   UNL     1      -9.197   9.551  70.338  1.00  0.00    -0.253 C  
HETATM   17  C   UNL     1     -11.399   9.330  71.616  1.00  0.00    -0.467 C  
HETATM   18  C   UNL     1     -10.225   8.599  70.966  1.00  0.00    -0.278 C  
HETATM   19  C   UNL     1     -10.736   7.571  69.960  1.00  0.00    -0.248 C  
ENDBRANCH  15  16
ENDBRANCH  13  15
ENDBRANCH  11  13
BRANCH  12  20
HETATM   20  C   UNL     1     -10.295  13.431  67.960  1.00  0.00    -0.242 A  
HETATM   21  O   UNL     1      -7.915  15.163  67.268  1.00  0.00    -0.175 OA 
HETATM   22  C   UNL     1     -11.607  13.096  68.357  1.00  0.00    -0.372 A  
HETATM   23  O   UNL     1      -7.532  14.891  69.410  1.00  0.00    -0.168 OA 
HETATM   24  C   UNL     1     -12.273  13.828  69.341  1.00  0.00    -0.325 A  
HETATM   25  N   UNL     1      -8.266  14.862  68.413  1.00  0.00    -0.144 N  
HETATM   26  C   UNL     1      -9.662  14.495  68.642  1.00  0.00    -0.221 A  
HETATM   27  C   UNL     1     -11.651  14.911  69.956  1.00  0.00    -0.331 A  
HETATM   28  C   UNL     1     -10.341  15.241  69.619  1.00  0.00    -0.271 A  
ENDBRANCH  12  20
ENDBRANCH   3   5
ENDBRANCH   2   3
TORSDOF 6
ENDMDL
MODEL        5
REMARK 921   NORMALIZED FREE ENERGY PREDICTED BY IDOCK:   -6.33 KCAL/MOL
REMARK 922        TOTAL FREE ENERGY PREDICTED BY IDOCK:   -9.15 KCAL/MOL
REMARK 923 INTER-LIGAND FREE ENERGY PREDICTED BY IDOCK:   -7.86 KCAL/MOL
REMARK 924 INTRA-LIGAND FREE ENERGY PREDICTED BY IDOCK:   -1.29 KCAL/MOL
REMARK 927      BINDING AFFINITY PREDICTED BY RF-SCORE:    0.00 PKD
ROOT
HETATM    1  C   UNL     1     -11.460  10.159  70.618  1.00  0.00    -0.349 C  
HETATM    2  O   UNL     1     -10.735  11.076  69.791  1.00  0.00    -0.197 OA 
ENDROOT
BRANCH   2   3
HETATM    3  C   UNL     1     -11.499  11.779  68.925  1.00  0.00    -0.297 C  
HETATM    4  O   UNL     1     -12.389  11.294  68.237  1.00  0.00    -0.542 OA 
BRANCH   3   5
HETATM    5  C   UNL     1     -11.070  13.204  68.860  1.00  0.00    -0.310 C  
HETATM    6  C   UNL     1     -11.699  14.121  69.632  1.00  0.00    -0.316 C  
HETATM    7  C   UNL     1     -12.751  13.853  70.688  1.00  0.00    -0.351 C  
HETATM    8  N   UNL     1     -11.416  15.463  69.461  1.00  0.00    -0.295 NA 
HETATM    9  C   UNL     1     -10.677  15.997  68.421  1.00  0.00    -0.289 C  
HETATM   10  C   UNL     1     -10.759  17.502  68.306  1.00  0.00    -0.309 C  
HETATM   11  C   UNL     1      -9.985  15.180  67.584  1.00  0.00    -0.229 C  
HETATM   12  C   UNL     1     -10.033  13.646  67.782  1.00  0.00    -0.235 C  
BRANCH  11  13
HETATM   13  C   UNL     1      -9.258  15.786  66.427  1.00  0.00    -0.312 C  
HETATM   14  O   UNL     1      -9.799  16.096  65.375  1.00  0.00    -0.474 OA 
BRANCH  13  15
HETATM   15  O   UNL     1      -7.919  15.872  66.642  1.00  0.00    -0.247 OA 
BRANCH  15  16
HETATM   16  C   UNL     1      -7.374  17.196  66.469  1.00  0.00    -0.276 C  
HETATM   17  C   UNL     1      -7.385  17.806  68.951  1.00  0.00    -0.245 C  
HETATM   18  C   UNL     1      -6.563  17.712  67.666  1.00  0.00    -0.185 C  
HETATM   19  C   UNL     1      -5.307  16.877  67.904  1.00  0.00    -0.128 C  
ENDBRANCH  15  16
ENDBRANCH  13  15
ENDBRANCH  11  13
BRANCH  12  20
HETATM   20  C   UNL     1     -10.315  12.902  66.468  1.00  0.00    -0.272 A  
HETATM   21  O   UNL     1      -8.288  11.099  67.804  1.00  0.00    -0.118 OA 
HETATM   22  C   UNL     1     -11.453  13.275  65.721  1.00  0.00    -0.349 A  
HETATM   23  O   UNL     1      -7.319  11.318  65.848  1.00  0.00     0.031 OA 
HETATM   24  C   UNL     1     -11.851  12.549  64.597  1.00  0.00    -0.439 A  
HETATM   25  N   UNL     1      -8.298  11.392  66.603  1.00  0.00    -0.169 N  
HETATM   26  C   UNL     1      -9.561  11.804  65.995  1.00  0.00    -0.230 A  
HETATM   27  C   UNL     1     -11.126  11.434  64.187  1.00  0.00    -0.382 A  
HETATM   28  C   UNL     1      -9.973  11.064  64.875  1.00  0.00    -0.343 A  
ENDBRANCH  12  20
ENDBRANCH   3   5
ENDBRANCH   2   3
TORSDOF 6
ENDMDL
MODEL        6
REMARK 921   NORMALIZED FREE ENERGY PREDICTED BY IDOCK:   -6.19 KCAL/MOL
REMARK 922        TOTAL FREE ENERGY PREDICTED BY IDOCK:   -8.96 KCAL/MOL
REMARK 923 INTER-LIGAND FREE ENERGY PREDICTED BY IDOCK:   -7.44 KCAL/MOL
REMARK 924 INTRA-LIGAND FREE ENERGY PREDICTED BY IDOCK:   -1.52 KCAL/MOL
REMARK 927      BINDING AFFINITY PREDICTED BY RF-SCORE:    0.00 PKD
ROOT
HETATM    1  C   UNL     1     -12.074  12.128  63.649  1.00  0.00    -0.551 C  
HETATM    2  O   UNL     1     -11.564  13.039  64.629  1.00  0.00    -0.320 OA 
ENDROOT
BRANCH   2   3
HETATM    3  C   UNL     1     -11.375  12.502  65.854  1.00  0.00    -0.340 C  
HETATM    4  O   UNL     1     -12.278  12.218  66.632  1.00  0.00    -0.574 OA 
BRANCH   3   5
HETATM    5  C   UNL     1      -9.925  12.368  66.169  1.00  0.00    -0.267 C  
HETATM    6  C   UNL     1      -9.369  11.135  66.219  1.00  0.00    -0.195 C  
HETATM    7  C   UNL     1     -10.035   9.822  65.866  1.00  0.00    -0.345 C  
HETATM    8  N   UNL     1      -8.068  10.993  66.664  1.00  0.00    -0.150 NA 
HETATM    9  C   UNL     1      -7.316  11.987  67.264  1.00  0.00    -0.151 C  
HETATM   10  C   UNL     1      -6.042  11.499  67.915  1.00  0.00    -0.048 C  
HETATM   11  C   UNL     1      -7.758  13.272  67.264  1.00  0.00    -0.100 C  
HETATM   12  C   UNL     1      -9.114  13.627  66.608  1.00  0.00    -0.189 C  
BRANCH  11  13
HETATM   13  C   UNL     1      -6.957  14.308  67.985  1.00  0.00    -0.144 C  
HETATM   14  O   UNL     1      -6.818  14.332  69.200  1.00  0.00    -0.110 OA 
BRANCH  13  15
HETATM   15  O   UNL     1      -6.475  15.266  67.151  1.00  0.00    -0.299 OA 
BRANCH  15  16
HETATM   16  C   UNL     1      -5.674  16.273  67.802  1.00  0.00    -0.140 C  
HETATM   17  C   UNL     1      -6.379  18.194  66.272  1.00  0.00    -0.249 C  
HETATM   18  C   UNL     1      -6.241  17.696  67.710  1.00  0.00    -0.176 C  
HETATM   19  C   UNL     1      -7.574  17.826  68.442  1.00  0.00    -0.269 C  
ENDBRANCH  15  16
ENDBRANCH  13  15
ENDBRANCH  11  13
BRANCH  12  20
HETATM   20  C   UNL     1      -9.988  14.502  67.520  1.00  0.00    -0.224 A  
HETATM   21  O   UNL     1     -10.316  15.848  64.831  1.00  0.00    -0.517 OA 
HETATM   22  C   UNL     1     -10.340  13.999  68.790  1.00  0.00    -0.225 A  
HETATM   23  O   UNL     1      -9.754  17.599  66.027  1.00  0.00    -0.488 OA 
HETATM   24  C   UNL     1     -11.245  14.674  69.610  1.00  0.00    -0.307 A  
HETATM   25  N   UNL     1     -10.162  16.436  65.907  1.00  0.00    -0.350 N  
HETATM   26  C   UNL     1     -10.540  15.747  67.140  1.00  0.00    -0.313 A  
HETATM   27  C   UNL     1     -11.823  15.868  69.188  1.00  0.00    -0.340 A  
HETATM   28  C   UNL     1     -11.465  16.415  67.959  1.00  0.00    -0.059 A  
ENDBRANCH  12  20
ENDBRANCH   3   5
ENDBRANCH   2   3
TORSDOF 6
ENDMDL
MODEL        7
REMARK 921   NORMALIZED FREE ENERGY PREDICTED BY IDOCK:   -6.17 KCAL/MOL
REMARK 922        TOTAL FREE ENERGY PREDICTED BY IDOCK:   -8.94 KCAL/MOL
REMARK 923 INTER-LIGAND FREE ENERGY PREDICTED BY IDOCK:   -7.08 KCAL/MOL
REMARK 924 INTRA-LIGAND FREE ENERGY PREDICTED BY IDOCK:   -1.86 KCAL/MOL
REMARK 927      BINDING AFFINITY PREDICTED BY RF-SCORE:    0.00 PKD
ROOT
HETATM    1  C   UNL     1     -11.131  15.923  64.609  1.00  0.00    -0.354 C  
HETATM    2  O   UNL     1     -10.037  15.067  64.958  1.00  0.00    -0.348 OA 
ENDROOT
BRANCH   2   3
HETATM    3  C   UNL     1      -9.560  15.246  66.210  1.00  0.00    -0.303 C  
HETATM    4  O   UNL     1      -8.439  15.669  66.469  1.00  0.00    -0.266 OA 
BRANCH   3   5
HETATM    5  C   UNL     1     -10.543  14.793  67.234  1.00  0.00    -0.273 C  
HETATM    6  C   UNL     1     -11.030  15.688  68.126  1.00  0.00    -0.314 C  
HETATM    7  C   UNL     1     -10.782  17.181  68.144  1.00  0.00    -0.366 C  
HETATM    8  N   UNL     1     -11.816  15.245  69.173  1.00  0.00    -0.327 NA 
HETATM    9  C   UNL     1     -12.004  13.921  69.525  1.00  0.00    -0.343 C  
HETATM   10  C   UNL     1     -12.667  13.721  70.870  1.00  0.00    -0.394 C  
HETATM   11  C   UNL     1     -11.575  12.927  68.704  1.00  0.00    -0.353 C  
HETATM   12  C   UNL     1     -10.858  13.272  67.376  1.00  0.00    -0.279 C  
BRANCH  11  13
HETATM   13  C   UNL     1     -11.729  11.509  69.150  1.00  0.00    -0.329 C  
HETATM   14  O   UNL     1     -12.647  10.783  68.793  1.00  0.00    -0.257 OA 
BRANCH  13  15
HETATM   15  O   UNL     1     -10.789  11.145  70.060  1.00  0.00    -0.125 OA 
BRANCH  15  16
HETATM   16  C   UNL     1     -10.880   9.772  70.493  1.00  0.00    -0.323 C  
HETATM   17  C   UNL     1      -9.690   8.780  68.461  1.00  0.00    -0.173 C  
HETATM   18  C   UNL     1      -9.749   8.866  69.985  1.00  0.00    -0.187 C  
HETATM   19  C   UNL     1      -8.391   9.287  70.542  1.00  0.00    -0.237 C  
ENDBRANCH  15  16
ENDBRANCH  13  15
ENDBRANCH  11  13
BRANCH  12  20
HETATM   20  C   UNL     1      -9.565  12.464  67.189  1.00  0.00    -0.206 A  
HETATM   21  O   UNL     1     -10.901  12.171  64.492  1.00  0.00    -0.282 OA 
HETATM   22  C   UNL     1      -8.530  12.635  68.133  1.00  0.00    -0.177 A  
HETATM   23  O   UNL     1     -10.513  10.055  64.916  1.00  0.00    -0.038 OA 
HETATM   24  C   UNL     1      -7.278  12.045  67.947  1.00  0.00    -0.102 A  
HETATM   25  N   UNL     1     -10.326  11.264  65.103  1.00  0.00    -0.281 N  
HETATM   26  C   UNL     1      -9.303  11.622  66.085  1.00  0.00    -0.224 A  
HETATM   27  C   UNL     1      -7.025  11.270  66.819  1.00  0.00    -0.141 A  
HETATM   28  C   UNL     1      -8.038  11.045  65.890  1.00  0.00    -0.075 A  
ENDBRANCH  12  20
ENDBRANCH   3   5
ENDBRANCH   2   3
TORSDOF 6
ENDMDL
MODEL        8
REMARK 921   NORMALIZED FREE ENERGY PREDICTED BY IDOCK:   -6.13 KCAL/MOL
REMARK 922        TOTAL FREE ENERGY PREDICTED BY IDOCK:   -8.88 KCAL/MOL
REMARK 923 INTER-LIGAND FREE ENERGY PREDICTED BY IDOCK:   -7.45 KCAL/MOL
REMARK 924 INTRA-LIGAND FREE ENERGY PREDICTED BY IDOCK:   -1.44 KCAL/MOL
REMARK 927      BINDING AFFINITY PREDICTED BY RF-SCORE:    0.00 PKD
ROOT
HETATM    1  C   UNL     1      -9.406   8.901  68.475  1.00  0.00    -0.140 C  
HETATM    2  O   UNL     1      -9.962   9.933  69.297  1.00  0.00    -0.183 OA 
ENDROOT
BRANCH   2   3
HETATM    3  C   UNL     1     -11.045  10.549  68.772  1.00  0.00    -0.265 C  
HETATM    4  O   UNL     1     -11.574  10.234  67.713  1.00  0.00    -0.331 OA 
BRANCH   3   5
HETATM    5  C   UNL     1     -11.466  11.709  69.608  1.00  0.00    -0.359 C  
HETATM    6  C   UNL     1     -12.376  11.520  70.592  1.00  0.00    -0.364 C  
HETATM    7  C   UNL     1     -12.960  10.200  71.050  1.00  0.00    -0.473 C  
HETATM    8  N   UNL     1     -12.888  12.614  71.264  1.00  0.00    -0.319 NA 
HETATM    9  C   UNL     1     -12.706  13.934  70.895  1.00  0.00    -0.340 C  
HETATM   10  C   UNL     1     -13.601  14.913  71.620  1.00  0.00    -0.506 C  
HETATM   11  C   UNL     1     -11.807  14.256  69.929  1.00  0.00    -0.382 C  
HETATM   12  C   UNL     1     -10.991  13.145  69.225  1.00  0.00    -0.131 C  
BRANCH  11  13
HETATM   13  C   UNL     1     -11.689  15.684  69.504  1.00  0.00    -0.370 C  
HETATM   14  O   UNL     1     -12.599  16.312  68.979  1.00  0.00     0.343 OA 
BRANCH  13  15
HETATM   15  O   UNL     1     -10.437  16.179  69.684  1.00  0.00    -0.262 OA 
BRANCH  15  16
HETATM   16  C   UNL     1     -10.259  17.532  69.216  1.00  0.00    -0.180 C  
HETATM   17  C   UNL     1      -7.829  17.236  68.482  1.00  0.00    -0.266 C  
HETATM   18  C   UNL     1      -9.234  17.686  68.084  1.00  0.00    -0.282 C  
HETATM   19  C   UNL     1      -9.678  16.965  66.814  1.00  0.00    -0.274 C  
ENDBRANCH  15  16
ENDBRANCH  13  15
ENDBRANCH  11  13
BRANCH  12  20
HETATM   20  C   UNL     1     -11.007  13.295  67.696  1.00  0.00    -0.281 A  
HETATM   21  O   UNL     1      -8.167  12.399  68.224  1.00  0.00    -0.162 OA 
HETATM   22  C   UNL     1     -12.256  13.392  67.048  1.00  0.00    -0.321 A  
HETATM   23  O   UNL     1      -7.748  14.170  67.000  1.00  0.00    -0.076 OA 
HETATM   24  C   UNL     1     -12.351  13.386  65.655  1.00  0.00    -0.521 A  
HETATM   25  N   UNL     1      -8.498  13.280  67.424  1.00  0.00    -0.195 N  
HETATM   26  C   UNL     1      -9.854  13.256  66.879  1.00  0.00    -0.247 A  
HETATM   27  C   UNL     1     -11.205  13.284  64.872  1.00  0.00    -0.338 A  
HETATM   28  C   UNL     1      -9.953  13.232  65.479  1.00  0.00    -0.222 A  
ENDBRANCH  12  20
ENDBRANCH   3   5
ENDBRANCH   2   3
TORSDOF 6
ENDMDL
MODEL        9
REMARK 921   NORMALIZED FREE ENERGY PREDICTED BY IDOCK:   -6.12 KCAL/MOL
REMARK 922        TOTAL FREE ENERGY PREDICTED BY IDOCK:   -8.87 KCAL/MOL
REMARK 923 INTER-LIGAND FREE ENERGY PREDICTED BY IDOCK:   -9.02 KCAL/MOL
REMARK 924 INTRA-LIGAND FREE ENERGY PREDICTED BY IDOCK:    0.15 KCAL/MOL
REMARK 927      BINDING AFFINITY PREDICTED BY RF-SCORE:    0.00 PKD
ROOT
HETATM    1  C   UNL     1      -7.822  17.118  65.975  1.00  0.00    -0.158 C  
HETATM    2  O   UNL     1      -8.799  16.077  66.082  1.00  0.00    -0.320 OA 
ENDROOT
BRANCH   2   3
HETATM    3  C   UNL     1     -10.080  16.507  66.107  1.00  0.00    -0.348 C  
HETATM    4  O   UNL     1     -10.641  17.061  65.169  1.00  0.00    -0.688 OA 
BRANCH   3   5
HETATM    5  C   UNL     1     -10.699  16.290  67.444  1.00  0.00    -0.287 C  
HETATM    6  C   UNL     1     -10.472  17.188  68.433  1.00  0.00    -0.376 C  
HETATM    7  C   UNL     1      -9.732  18.503  68.314  1.00  0.00    -0.385 C  
HETATM    8  N   UNL     1     -10.909  16.913  69.714  1.00  0.00    -0.183 NA 
HETATM    9  C   UNL     1     -11.400  15.694  70.146  1.00  0.00    -0.344 C  
HETATM   10  C   UNL     1     -11.536  15.572  71.647  1.00  0.00    -0.496 C  
HETATM   11  C   UNL     1     -11.685  14.715  69.248  1.00  0.00    -0.348 C  
HETATM   12  C   UNL     1     -11.447  14.953  67.738  1.00  0.00    -0.353 C  
BRANCH  11  13
HETATM   13  C   UNL     1     -12.144  13.386  69.755  1.00  0.00    -0.310 C  
HETATM   14  O   UNL     1     -13.139  13.234  70.451  1.00  0.00     0.113 OA 
BRANCH  13  15
HETATM   15  O   UNL     1     -11.289  12.382  69.431  1.00  0.00    -0.256 OA 
BRANCH  15  16
HETATM   16  C   UNL     1     -11.934  11.137  69.093  1.00  0.00    -0.343 C  
HETATM   17  C   UNL     1      -9.983   9.638  69.782  1.00  0.00    -0.252 C  
HETATM   18  C   UNL     1     -11.475   9.933  69.927  1.00  0.00    -0.234 C  
HETATM   19  C   UNL     1     -11.840  10.091  71.401  1.00  0.00    -0.447 C  
ENDBRANCH  15  16
ENDBRANCH  13  15
ENDBRANCH  11  13
BRANCH  12  20
HETATM   20  C   UNL     1     -10.687  13.791  67.081  1.00  0.00    -0.283 A  
HETATM   21  O   UNL     1     -12.711  14.518  64.954  1.00  0.00    -0.571 OA 
HETATM   22  C   UNL     1      -9.455  13.397  67.644  1.00  0.00    -0.216 A  
HETATM   23  O   UNL     1     -13.098  12.363  65.076  1.00  0.00    -0.678 OA 
HETATM   24  C   UNL     1      -8.644  12.448  67.018  1.00  0.00    -0.191 A  
HETATM   25  N   UNL     1     -12.401  13.366  65.277  1.00  0.00    -0.441 N  
HETATM   26  C   UNL     1     -11.095  13.141  65.894  1.00  0.00    -0.278 A  
HETATM   27  C   UNL     1      -9.040  11.867  65.816  1.00  0.00    -0.041 A  
HETATM   28  C   UNL     1     -10.270  12.201  65.256  1.00  0.00    -0.304 A  
ENDBRANCH  12  20
ENDBRANCH   3   5
ENDBRANCH   2   3
TORSDOF 6
ENDMDL
MODEL       10
REMARK 921   NORMALIZED FREE ENERGY PREDICTED BY IDOCK:   -6.12 KCAL/MOL
REMARK 922        TOTAL FREE ENERGY PREDICTED BY IDOCK:   -8.87 KCAL/MOL
REMARK 923 INTER-LIGAND FREE ENERGY PREDICTED BY IDOCK:   -7.69 KCAL/MOL
REMARK 924 INTRA-LIGAND FREE ENERGY PREDICTED BY IDOCK:   -1.18 KCAL/MOL
REMARK 927      BINDING AFFINITY PREDICTED BY RF-SCORE:    0.00 PKD
ROOT
HETATM    1  C   UNL     1     -11.341   6.779  70.565  1.00  0.00    -0.343 C  
HETATM    2  O   UNL     1     -11.773   8.140  70.670  1.00  0.00    -0.251 OA 
ENDROOT
BRANCH   2   3
HETATM    3  C   UNL     1     -10.827   8.998  71.113  1.00  0.00    -0.294 C  
HETATM    4  O   UNL     1     -10.021   8.741  71.999  1.00  0.00    -0.310 OA 
BRANCH   3   5
HETATM    5  C   UNL     1     -10.939  10.322  70.438  1.00  0.00    -0.365 C  
HETATM    6  C   UNL     1     -12.011  11.108  70.696  1.00  0.00    -0.360 C  
HETATM    7  C   UNL     1     -13.101  10.853  71.715  1.00  0.00    -0.564 C  
HETATM    8  N   UNL     1     -12.201  12.261  69.958  1.00  0.00    -0.241 NA 
HETATM    9  C   UNL     1     -11.495  12.607  68.821  1.00  0.00    -0.306 C  
HETATM   10  C   UNL     1     -12.087  13.762  68.045  1.00  0.00    -0.315 C  
HETATM   11  C   UNL     1     -10.387  11.905  68.464  1.00  0.00    -0.228 C  
HETATM   12  C   UNL     1      -9.920  10.704  69.321  1.00  0.00    -0.215 C  
BRANCH  11  13
HETATM   13  C   UNL     1      -9.690  12.260  67.190  1.00  0.00    -0.201 C  
HETATM   14  O   UNL     1      -8.614  12.840  67.147  1.00  0.00    -0.191 OA 
BRANCH  13  15
HETATM   15  O   UNL     1     -10.424  11.946  66.091  1.00  0.00    -0.224 OA 
BRANCH  15  16
HETATM   16  C   UNL     1     -10.311  12.893  65.010  1.00  0.00    -0.315 C  
HETATM   17  C   UNL     1      -9.799  11.163  63.201  1.00  0.00    -0.403 C  
HETATM   18  C   UNL     1     -10.682  12.334  63.629  1.00  0.00    -0.513 C  
HETATM   19  C   UNL     1     -12.155  11.938  63.555  1.00  0.00    -0.575 C  
ENDBRANCH  15  16
ENDBRANCH  13  15
ENDBRANCH  11  13
BRANCH  12  20
HETATM   20  C   UNL     1      -9.615   9.465  68.464  1.00  0.00    -0.154 A  
HETATM   21  O   UNL     1      -7.352   9.431  70.470  1.00  0.00    -0.103 OA 
HETATM   22  C   UNL     1     -10.633   8.971  67.621  1.00  0.00    -0.298 A  
HETATM   23  O   UNL     1      -6.179   9.275  68.624  1.00  0.00    -0.044 OA 
HETATM   24  C   UNL     1     -10.477   7.771  66.926  1.00  0.00    -0.388 A  
HETATM   25  N   UNL     1      -7.236   9.195  69.263  1.00  0.00    -0.064 N  
HETATM   26  C   UNL     1      -8.410   8.729  68.526  1.00  0.00    -0.129 A  
HETATM   27  C   UNL     1      -9.304   7.032  67.052  1.00  0.00    -0.174 A  
HETATM   28  C   UNL     1      -8.262   7.513  67.841  1.00  0.00    -0.123 A  
ENDBRANCH  12  20
ENDBRANCH   3   5
ENDBRANCH   2   3
TORSDOF 6
ENDMDL
MODEL       11
REMARK 921   NORMALIZED FREE ENERGY PREDICTED BY IDOCK:   -6.10 KCAL/MOL
REMARK 922        TOTAL FREE ENERGY PREDICTED BY IDOCK:   -8.85 KCAL/MOL
REMARK 923 INTER-LIGAND FREE ENERGY PREDICTED BY IDOCK:   -7.53 KCAL/MOL
REMARK 924 INTRA-LIGAND FREE ENERGY PREDICTED BY IDOCK:   -1.32 KCAL/MOL
REMARK 927      BINDING AFFINITY PREDICTED BY RF-SCORE:    0.00 PKD
ROOT
HETATM    1  C   UNL     1      -6.904   7.127  72.240  1.00  0.00    -0.060 C  
HETATM    2  O   UNL     1      -7.421   7.799  71.086  1.00  0.00    -0.074 OA 
ENDROOT
BRANCH   2   3
HETATM    3  C   UNL     1      -8.622   7.347  70.661  1.00  0.00    -0.141 C  
HETATM    4  O   UNL     1      -8.777   6.358  69.955  1.00  0.00    -0.139 OA 
BRANCH   3   5
HETATM    5  C   UNL     1      -9.725   8.247  71.099  1.00  0.00    -0.209 C  
HETATM    6  C   UNL     1     -10.628   7.797  72.001  1.00  0.00    -0.228 C  
HETATM    7  C   UNL     1     -10.593   6.477  72.743  1.00  0.00    -0.257 C  
HETATM    8  N   UNL     1     -11.740   8.565  72.291  1.00  0.00    -0.371 NA 
HETATM    9  C   UNL     1     -12.136   9.692  71.594  1.00  0.00    -0.402 C  
HETATM   10  C   UNL     1     -13.530  10.175  71.928  1.00  0.00    -0.426 C  
HETATM   11  C   UNL     1     -11.310  10.251  70.672  1.00  0.00    -0.431 C  
HETATM   12  C   UNL     1      -9.925   9.620  70.386  1.00  0.00    -0.330 C  
BRANCH  11  13
HETATM   13  C   UNL     1     -11.799  11.424  69.885  1.00  0.00    -0.359 C  
HETATM   14  O   UNL     1     -12.299  11.330  68.772  1.00  0.00    -0.518 OA 
BRANCH  13  15
HETATM   15  O   UNL     1     -11.547  12.607  70.503  1.00  0.00    -0.037 OA 
BRANCH  15  16
HETATM   16  C   UNL     1     -12.402  13.690  70.084  1.00  0.00    -0.304 C  
HETATM   17  C   UNL     1     -13.820  13.736  72.210  1.00  0.00    -0.679 C  
HETATM   18  C   UNL     1     -12.963  14.540  71.233  1.00  0.00    -0.403 C  
HETATM   19  C   UNL     1     -11.859  15.278  71.986  1.00  0.00    -0.513 C  
ENDBRANCH  15  16
ENDBRANCH  13  15
ENDBRANCH  11  13
BRANCH  12  20
HETATM   20  C   UNL     1      -9.664   9.456  68.882  1.00  0.00    -0.166 A  
HETATM   21  O   UNL     1      -7.126  10.800  69.831  1.00  0.00    -0.151 OA 
HETATM   22  C   UNL     1     -10.493   8.577  68.152  1.00  0.00    -0.236 A  
HETATM   23  O   UNL     1      -7.634  12.149  68.179  1.00  0.00    -0.107 OA 
HETATM   24  C   UNL     1     -10.224   8.270  66.818  1.00  0.00    -0.375 A  
HETATM   25  N   UNL     1      -7.732  11.077  68.791  1.00  0.00    -0.127 N  
HETATM   26  C   UNL     1      -8.589  10.059  68.188  1.00  0.00    -0.118 A  
HETATM   27  C   UNL     1      -9.124   8.829  66.174  1.00  0.00    -0.251 A  
HETATM   28  C   UNL     1      -8.310   9.733  66.851  1.00  0.00    -0.120 A  
ENDBRANCH  12  20
ENDBRANCH   3   5
ENDBRANCH   2   3
TORSDOF 6
ENDMDL
MODEL       12
REMARK 921   NORMALIZED FREE ENERGY PREDICTED BY IDOCK:   -6.08 KCAL/MOL
REMARK 922        TOTAL FREE ENERGY PREDICTED BY IDOCK:   -8.83 KCAL/MOL
REMARK 923 INTER-LIGAND FREE ENERGY PREDICTED BY IDOCK:   -7.43 KCAL/MOL
REMARK 924 INTRA-LIGAND FREE ENERGY PREDICTED BY IDOCK:   -1.39 KCAL/MOL
REMARK 927      BINDING AFFINITY PREDICTED BY RF-SCORE:    0.00 PKD
ROOT
HETATM    1  C   UNL     1     -11.368  16.641  65.202  1.00  0.00     0.171 C  
HETATM    2  O   UNL     1     -11.134  15.412  64.504  1.00  0.00    -0.357 OA 
ENDROOT
BRANCH   2   3
HETATM    3  C   UNL     1     -11.871  14.367  64.941  1.00  0.00    -0.417 C  
HETATM    4  O   UNL     1     -13.048  14.442  65.274  1.00  0.00    -0.629 OA 
BRANCH   3   5
HETATM    5  C   UNL     1     -11.049  13.128  65.039  1.00  0.00    -0.322 C  
HETATM    6  C   UNL     1     -11.394  12.045  64.303  1.00  0.00    -0.364 C  
HETATM    7  C   UNL     1     -12.489  11.965  63.261  1.00  0.00    -0.506 C  
HETATM    8  N   UNL     1     -10.735  10.847  64.506  1.00  0.00    -0.278 NA 
HETATM    9  C   UNL     1      -9.864  10.582  65.547  1.00  0.00    -0.265 C  
HETATM   10  C   UNL     1      -9.507   9.121  65.706  1.00  0.00    -0.322 C  
HETATM   11  C   UNL     1      -9.429  11.589  66.348  1.00  0.00    -0.230 C  
HETATM   12  C   UNL     1      -9.918  13.038  66.109  1.00  0.00    -0.278 C  
BRANCH  11  13
HETATM   13  C   UNL     1      -8.547  11.256  67.508  1.00  0.00    -0.134 C  
HETATM   14  O   UNL     1      -7.327  11.347  67.479  1.00  0.00    -0.100 OA 
BRANCH  13  15
HETATM   15  O   UNL     1      -9.242  10.761  68.565  1.00  0.00    -0.159 OA 
BRANCH  15  16
HETATM   16  C   UNL     1      -8.506   9.819  69.372  1.00  0.00    -0.159 C  
HETATM   17  C   UNL     1     -10.404   9.347  71.016  1.00  0.00    -0.382 C  
HETATM   18  C   UNL     1      -9.372   8.753  70.058  1.00  0.00    -0.175 C  
HETATM   19  C   UNL     1     -10.057   7.839  69.045  1.00  0.00    -0.198 C  
ENDBRANCH  15  16
ENDBRANCH  13  15
ENDBRANCH  11  13
BRANCH  12  20
HETATM   20  C   UNL     1     -10.391  13.711  67.407  1.00  0.00    -0.244 A  
HETATM   21  O   UNL     1      -8.339  15.678  66.375  1.00  0.00    -0.278 OA 
HETATM   22  C   UNL     1     -11.581  13.244  68.005  1.00  0.00    -0.371 A  
HETATM   23  O   UNL     1      -7.584  15.434  68.419  1.00  0.00    -0.111 OA 
HETATM   24  C   UNL     1     -12.145  13.900  69.101  1.00  0.00    -0.377 A  
HETATM   25  N   UNL     1      -8.466  15.336  67.555  1.00  0.00    -0.167 N  
HETATM   26  C   UNL     1      -9.762  14.829  68.000  1.00  0.00    -0.213 A  
HETATM   27  C   UNL     1     -11.539  15.037  69.629  1.00  0.00    -0.333 A  
HETATM   28  C   UNL     1     -10.341  15.499  69.091  1.00  0.00    -0.237 A  
ENDBRANCH  12  20
ENDBRANCH   3   5
ENDBRANCH   2   3
TORSDOF 6
ENDMDL
MODEL       13
REMARK 921   NORMALIZED FREE ENERGY PREDICTED BY IDOCK:   -6.06 KCAL/MOL
REMARK 922        TOTAL FREE ENERGY PREDICTED BY IDOCK:   -8.80 KCAL/MOL
REMARK 923 INTER-LIGAND FREE ENERGY PREDICTED BY IDOCK:   -7.44 KCAL/MOL
REMARK 924 INTRA-LIGAND FREE ENERGY PREDICTED BY IDOCK:   -1.35 KCAL/MOL
REMARK 927      BINDING AFFINITY PREDICTED BY RF-SCORE:    0.00 PKD
ROOT
HETATM    1  C   UNL     1     -11.553  15.958  64.220  1.00  0.00    -0.178 C  
HETATM    2  O   UNL     1     -11.567  15.302  65.494  1.00  0.00    -0.222 OA 
ENDROOT
BRANCH   2   3
HETATM    3  C   UNL     1     -12.193  14.104  65.503  1.00  0.00    -0.432 C  
HETATM    4  O   UNL     1     -13.397  13.954  65.668  1.00  0.00    -0.620 OA 
BRANCH   3   5
HETATM    5  C   UNL     1     -11.220  12.984  65.364  1.00  0.00    -0.317 C  
HETATM    6  C   UNL     1     -11.411  12.058  64.395  1.00  0.00    -0.345 C  
HETATM    7  C   UNL     1     -12.469  12.079  63.312  1.00  0.00    -0.544 C  
HETATM    8  N   UNL     1     -10.606  10.935  64.360  1.00  0.00    -0.339 NA 
HETATM    9  C   UNL     1      -9.726  10.552  65.356  1.00  0.00    -0.257 C  
HETATM   10  C   UNL     1      -9.186   9.148  65.206  1.00  0.00    -0.243 C  
HETATM   11  C   UNL     1      -9.437  11.402  66.376  1.00  0.00    -0.224 C  
HETATM   12  C   UNL     1     -10.105  12.797  66.438  1.00  0.00    -0.266 C  
BRANCH  11  13
HETATM   13  C   UNL     1      -8.538  10.929  67.473  1.00  0.00    -0.127 C  
HETATM   14  O   UNL     1      -7.358  11.238  67.562  1.00  0.00    -0.095 OA 
BRANCH  13  15
HETATM   15  O   UNL     1      -9.153  10.051  68.307  1.00  0.00    -0.121 OA 
BRANCH  15  16
HETATM   16  C   UNL     1      -8.582   9.987  69.630  1.00  0.00    -0.184 C  
HETATM   17  C   UNL     1     -10.804   9.704  70.859  1.00  0.00    -0.409 C  
HETATM   18  C   UNL     1      -9.394   9.160  70.637  1.00  0.00    -0.312 C  
HETATM   19  C   UNL     1      -9.453   7.686  70.243  1.00  0.00    -0.161 C  
ENDBRANCH  15  16
ENDBRANCH  13  15
ENDBRANCH  11  13
BRANCH  12  20
HETATM   20  C   UNL     1     -10.681  13.101  67.829  1.00  0.00    -0.252 A  
HETATM   21  O   UNL     1      -9.079  15.597  67.237  1.00  0.00    -0.196 OA 
HETATM   22  C   UNL     1     -11.744  12.302  68.300  1.00  0.00    -0.392 A  
HETATM   23  O   UNL     1      -8.258  15.121  69.214  1.00  0.00    -0.204 OA 
HETATM   24  C   UNL     1     -12.410  12.610  69.488  1.00  0.00    -0.002 A  
HETATM   25  N   UNL     1      -9.116  15.018  68.328  1.00  0.00    -0.177 N  
HETATM   26  C   UNL     1     -10.279  14.188  68.639  1.00  0.00    -0.238 A  
HETATM   27  C   UNL     1     -12.035  13.722  70.237  1.00  0.00    -0.397 A  
HETATM   28  C   UNL     1     -10.962  14.507  69.823  1.00  0.00    -0.187 A  
ENDBRANCH  12  20
ENDBRANCH   3   5
ENDBRANCH   2   3
TORSDOF 6
ENDMDL
MODEL       14
REMARK 921   NORMALIZED FREE ENERGY PREDICTED BY IDOCK:   -6.04 KCAL/MOL
REMARK 922        TOTAL FREE ENERGY PREDICTED BY IDOCK:   -8.77 KCAL/MOL
REMARK 923 INTER-LIGAND FREE ENERGY PREDICTED BY IDOCK:   -7.45 KCAL/MOL
REMARK 924 INTRA-LIGAND FREE ENERGY PREDICTED BY IDOCK:   -1.32 KCAL/MOL
REMARK 927      BINDING AFFINITY PREDICTED BY RF-SCORE:    0.00 PKD
ROOT
HETATM    1  C   UNL     1      -6.572  16.473  67.028  1.00  0.00    -0.199 C  
HETATM    2  O   UNL     1      -6.646  15.046  67.116  1.00  0.00    -0.281 OA 
ENDROOT
BRANCH   2   3
HETATM    3  C   UNL     1      -7.141  14.578  68.284  1.00  0.00    -0.113 C  
HETATM    4  O   UNL     1      -6.943  15.098  69.376  1.00  0.00    -0.148 OA 
BRANCH   3   5
HETATM    5  C   UNL     1      -7.894  13.308  68.083  1.00  0.00    -0.145 C  
HETATM    6  C   UNL     1      -7.227  12.199  67.685  1.00  0.00    -0.123 C  
HETATM    7  C   UNL     1      -5.729  12.047  67.523  1.00  0.00    -0.107 C  
HETATM    8  N   UNL     1      -7.938  11.064  67.345  1.00  0.00    -0.116 NA 
HETATM    9  C   UNL     1      -9.310  11.001  67.180  1.00  0.00    -0.164 C  
HETATM   10  C   UNL     1      -9.803   9.727  66.530  1.00  0.00    -0.286 C  
HETATM   11  C   UNL     1     -10.093  12.045  67.558  1.00  0.00    -0.205 C  
HETATM   12  C   UNL     1      -9.452  13.318  68.161  1.00  0.00    -0.222 C  
BRANCH  11  13
HETATM   13  C   UNL     1     -11.563  11.973  67.297  1.00  0.00    -0.313 C  
HETATM   14  O   UNL     1     -12.098  12.444  66.303  1.00  0.00    -0.612 OA 
BRANCH  13  15
HETATM   15  O   UNL     1     -12.247  11.405  68.325  1.00  0.00    -0.588 OA 
BRANCH  15  16
HETATM   16  C   UNL     1     -11.913  11.933  69.624  1.00  0.00    -0.298 C  
HETATM   17  C   UNL     1     -13.126  10.122  70.959  1.00  0.00    -0.458 C  
HETATM   18  C   UNL     1     -11.817  10.878  70.736  1.00  0.00    -0.424 C  
HETATM   19  C   UNL     1     -10.676   9.895  70.488  1.00  0.00    -0.382 C  
ENDBRANCH  15  16
ENDBRANCH  13  15
ENDBRANCH  11  13
BRANCH  12  20
HETATM   20  C   UNL     1      -9.986  14.601  67.508  1.00  0.00    -0.223 A  
HETATM   21  O   UNL     1     -10.202  15.244  70.455  1.00  0.00    -0.144 OA 
HETATM   22  C   UNL     1      -9.741  14.801  66.133  1.00  0.00    -0.338 A  
HETATM   23  O   UNL     1     -12.249  15.741  69.843  1.00  0.00    -0.352 OA 
HETATM   24  C   UNL     1     -10.070  16.005  65.507  1.00  0.00    -0.336 A  
HETATM   25  N   UNL     1     -11.055  15.516  69.603  1.00  0.00    -0.255 N  
HETATM   26  C   UNL     1     -10.634  15.644  68.209  1.00  0.00    -0.262 A  
HETATM   27  C   UNL     1     -10.652  17.040  66.234  1.00  0.00    -0.185 A  
HETATM   28  C   UNL     1     -10.947  16.861  67.582  1.00  0.00    -0.165 A  
ENDBRANCH  12  20
ENDBRANCH   3   5
ENDBRANCH   2   3
TORSDOF 6
ENDMDL
MODEL       15
REMARK 921   NORMALIZED FREE ENERGY PREDICTED BY IDOCK:   -6.03 KCAL/MOL
REMARK 922        TOTAL FREE ENERGY PREDICTED BY IDOCK:   -8.76 KCAL/MOL
REMARK 923 INTER-LIGAND FREE ENERGY PREDICTED BY IDOCK:   -7.06 KCAL/MOL
REMARK 924 INTRA-LIGAND FREE ENERGY PREDICTED BY IDOCK:   -1.70 KCAL/MOL
REMARK 927      BINDING AFFINITY PREDICTED BY RF-SCORE:    0.00 PKD
ROOT
HETATM    1  C   UNL     1     -10.318   9.393  70.705  1.00  0.00    -0.284 C  
HETATM    2  O   UNL     1     -10.672  10.471  69.832  1.00  0.00    -0.267 OA 
ENDROOT
BRANCH   2   3
HETATM    3  C   UNL     1      -9.737  10.775  68.903  1.00  0.00    -0.198 C  
HETATM    4  O   UNL     1      -8.535  10.837  69.128  1.00  0.00    -0.152 OA 
BRANCH   3   5
HETATM    5  C   UNL     1     -10.363  11.097  67.591  1.00  0.00    -0.223 C  
HETATM    6  C   UNL     1     -10.214  10.236  66.556  1.00  0.00    -0.226 C  
HETATM    7  C   UNL     1      -9.561   8.871  66.597  1.00  0.00    -0.281 C  
HETATM    8  N   UNL     1     -10.654  10.602  65.298  1.00  0.00    -0.185 NA 
HETATM    9  C   UNL     1     -11.070  11.870  64.935  1.00  0.00    -0.307 C  
HETATM   10  C   UNL     1     -11.223  12.074  63.445  1.00  0.00    -0.481 C  
HETATM   11  C   UNL     1     -11.274  12.820  65.885  1.00  0.00    -0.334 C  
HETATM   12  C   UNL     1     -11.025  12.493  67.377  1.00  0.00    -0.297 C  
BRANCH  11  13
HETATM   13  C   UNL     1     -11.652  14.200  65.451  1.00  0.00    -0.334 C  
HETATM   14  O   UNL     1     -12.800  14.537  65.192  1.00  0.00    -0.519 OA 
BRANCH  13  15
HETATM   15  O   UNL     1     -10.573  15.010  65.294  1.00  0.00    -0.336 OA 
BRANCH  15  16
HETATM   16  C   UNL     1     -10.899  16.378  64.971  1.00  0.00    -0.273 C  
HETATM   17  C   UNL     1     -10.887  17.223  67.383  1.00  0.00    -0.167 C  
HETATM   18  C   UNL     1     -10.354  17.414  65.964  1.00  0.00    -0.309 C  
HETATM   19  C   UNL     1      -8.827  17.443  65.974  1.00  0.00    -0.091 C  
ENDBRANCH  15  16
ENDBRANCH  13  15
ENDBRANCH  11  13
BRANCH  12  20
HETATM   20  C   UNL     1     -10.179  13.570  68.073  1.00  0.00    -0.243 A  
HETATM   21  O   UNL     1     -12.425  13.141  70.052  1.00  0.00    -0.203 OA 
HETATM   22  C   UNL     1      -8.870  13.799  67.598  1.00  0.00    -0.189 A  
HETATM   23  O   UNL     1     -12.535  15.324  69.873  1.00  0.00    -0.309 OA 
HETATM   24  C   UNL     1      -7.997  14.657  68.270  1.00  0.00    -0.133 A  
HETATM   25  N   UNL     1     -11.954  14.239  69.737  1.00  0.00    -0.319 N  
HETATM   26  C   UNL     1     -10.589  14.291  69.217  1.00  0.00    -0.141 A  
HETATM   27  C   UNL     1      -8.404  15.308  69.430  1.00  0.00    -0.232 A  
HETATM   28  C   UNL     1      -9.703  15.139  69.902  1.00  0.00    -0.025 A  
ENDBRANCH  12  20
ENDBRANCH   3   5
ENDBRANCH   2   3
TORSDOF 6
ENDMDL
MODEL       16
REMARK 921   NORMALIZED FREE ENERGY PREDICTED BY IDOCK:   -6.01 KCAL/MOL
REMARK 922        TOTAL FREE ENERGY PREDICTED BY IDOCK:   -8.72 KCAL/MOL
REMARK 923 INTER-LIGAND FREE ENERGY PREDICTED BY IDOCK:   -7.15 KCAL/MOL
REMARK 924 INTRA-LIGAND FREE ENERGY PREDICTED BY IDOCK:   -1.57 KCAL/MOL
REMARK 927      BINDING AFFINITY PREDICTED BY RF-SCORE:    0.00 PKD
ROOT
HETATM    1  C   UNL     1      -5.523  10.222  65.300  1.00  0.00    -0.093 C  
HETATM    2  O   UNL     1      -6.756  10.355  66.016  1.00  0.00    -0.108 OA 
ENDROOT
BRANCH   2   3
HETATM    3  C   UNL     1      -6.798  11.397  66.877  1.00  0.00    -0.142 C  
HETATM    4  O   UNL     1      -6.117  12.409  66.770  1.00  0.00    -0.210 OA 
BRANCH   3   5
HETATM    5  C   UNL     1      -7.723  11.124  68.012  1.00  0.00    -0.107 C  
HETATM    6  C   UNL     1      -7.433  10.122  68.876  1.00  0.00    -0.086 C  
HETATM    7  C   UNL     1      -6.174   9.282  68.905  1.00  0.00    -0.043 C  
HETATM    8  N   UNL     1      -8.362   9.761  69.834  1.00  0.00    -0.171 NA 
HETATM    9  C   UNL     1      -9.672  10.200  69.881  1.00  0.00    -0.150 C  
HETATM   10  C   UNL     1     -10.552   9.439  70.847  1.00  0.00    -0.390 C  
HETATM   11  C   UNL     1     -10.083  11.214  69.075  1.00  0.00    -0.173 C  
HETATM   12  C   UNL     1      -9.090  11.872  68.087  1.00  0.00    -0.190 C  
BRANCH  11  13
HETATM   13  C   UNL     1     -11.523  11.613  69.099  1.00  0.00    -0.300 C  
HETATM   14  O   UNL     1     -12.393  11.051  68.447  1.00  0.00    -0.528 OA 
BRANCH  13  15
HETATM   15  O   UNL     1     -11.743  12.720  69.855  1.00  0.00    -0.302 OA 
BRANCH  15  16
HETATM   16  C   UNL     1     -12.134  13.886  69.102  1.00  0.00    -0.338 C  
HETATM   17  C   UNL     1     -12.676  15.337  71.135  1.00  0.00    -0.476 C  
HETATM   18  C   UNL     1     -11.899  15.220  69.825  1.00  0.00    -0.357 C  
HETATM   19  C   UNL     1     -10.414  15.480  70.068  1.00  0.00    -0.322 C  
ENDBRANCH  15  16
ENDBRANCH  13  15
ENDBRANCH  11  13
BRANCH  12  20
HETATM   20  C   UNL     1      -9.678  12.000  66.674  1.00  0.00    -0.221 A  
HETATM   21  O   UNL     1      -8.488  14.744  67.126  1.00  0.00    -0.199 OA 
HETATM   22  C   UNL     1     -10.037  10.819  65.991  1.00  0.00    -0.305 A  
HETATM   23  O   UNL     1     -10.507  15.340  66.512  1.00  0.00    -0.284 OA 
HETATM   24  C   UNL     1     -10.441  10.850  64.655  1.00  0.00    -0.384 A  
HETATM   25  N   UNL     1      -9.582  14.521  66.597  1.00  0.00    -0.264 N  
HETATM   26  C   UNL     1      -9.804  13.219  65.970  1.00  0.00    -0.263 A  
HETATM   27  C   UNL     1     -10.498  12.057  63.965  1.00  0.00    -0.410 A  
HETATM   28  C   UNL     1     -10.192  13.247  64.621  1.00  0.00    -0.334 A  
ENDBRANCH  12  20
ENDBRANCH   3   5
ENDBRANCH   2   3
TORSDOF 6
ENDMDL
MODEL       17
REMARK 921   NORMALIZED FREE ENERGY PREDICTED BY IDOCK:   -5.97 KCAL/MOL
REMARK 922        TOTAL FREE ENERGY PREDICTED BY IDOCK:   -8.67 KCAL/MOL
REMARK 923 INTER-LIGAND FREE ENERGY PREDICTED BY IDOCK:   -7.38 KCAL/MOL
REMARK 924 INTRA-LIGAND FREE ENERGY PREDICTED BY IDOCK:   -1.30 KCAL/MOL
REMARK 927      BINDING AFFINITY PREDICTED BY RF-SCORE:    0.00 PKD
ROOT
HETATM    1  C   UNL     1      -9.897  10.647  66.404  1.00  0.00    -0.211 C  
HETATM    2  O   UNL     1      -8.630  11.313  66.348  1.00  0.00    -0.168 OA 
ENDROOT
BRANCH   2   3
HETATM    3  C   UNL     1      -8.216  11.836  67.524  1.00  0.00    -0.152 C  
HETATM    4  O   UNL     1      -8.443  11.338  68.620  1.00  0.00    -0.151 OA 
BRANCH   3   5
HETATM    5  C   UNL     1      -7.514  13.135  67.321  1.00  0.00    -0.076 C  
HETATM    6  C   UNL     1      -6.256  13.289  67.796  1.00  0.00    -0.158 C  
HETATM    7  C   UNL     1      -5.388  12.224  68.433  1.00  0.00    -0.052 C  
HETATM    8  N   UNL     1      -5.660  14.535  67.752  1.00  0.00    -0.307 NA 
HETATM    9  C   UNL     1      -6.306  15.718  67.441  1.00  0.00    -0.139 C  
HETATM   10  C   UNL     1      -5.506  16.964  67.745  1.00  0.00    -0.137 C  
HETATM   11  C   UNL     1      -7.568  15.696  66.938  1.00  0.00    -0.201 C  
HETATM   12  C   UNL     1      -8.297  14.346  66.727  1.00  0.00    -0.005 C  
BRANCH  11  13
HETATM   13  C   UNL     1      -8.263  16.994  66.682  1.00  0.00    -0.260 C  
HETATM   14  O   UNL     1      -8.246  17.570  65.602  1.00  0.00    -0.505 OA 
BRANCH  13  15
HETATM   15  O   UNL     1      -8.840  17.506  67.801  1.00  0.00    -0.235 OA 
BRANCH  15  16
HETATM   16  C   UNL     1     -10.181  17.999  67.606  1.00  0.00    -0.368 C  
HETATM   17  C   UNL     1     -10.005  19.904  69.299  1.00  0.00    -0.268 C  
HETATM   18  C   UNL     1     -10.352  19.502  67.867  1.00  0.00    -0.567 C  
HETATM   19  C   UNL     1      -9.554  20.345  66.875  1.00  0.00    -0.546 C  
ENDBRANCH  15  16
ENDBRANCH  13  15
ENDBRANCH  11  13
BRANCH  12  20
HETATM   20  C   UNL     1      -9.722  14.362  67.300  1.00  0.00    -0.233 A  
HETATM   21  O   UNL     1     -10.191  13.522  64.433  1.00  0.00    -0.399 OA 
HETATM   22  C   UNL     1      -9.877  14.398  68.702  1.00  0.00    -0.231 A  
HETATM   23  O   UNL     1     -11.624  15.179  64.545  1.00  0.00    -0.392 OA 
HETATM   24  C   UNL     1     -11.135  14.270  69.294  1.00  0.00    -0.297 A  
HETATM   25  N   UNL     1     -10.886  14.328  65.060  1.00  0.00    -0.378 N  
HETATM   26  C   UNL     1     -10.896  14.254  66.520  1.00  0.00    -0.304 A  
HETATM   27  C   UNL     1     -12.270  14.102  68.506  1.00  0.00    -0.204 A  
HETATM   28  C   UNL     1     -12.158  14.106  67.118  1.00  0.00    -0.432 A  
ENDBRANCH  12  20
ENDBRANCH   3   5
ENDBRANCH   2   3
TORSDOF 6
ENDMDL
MODEL       18
REMARK 921   NORMALIZED FREE ENERGY PREDICTED BY IDOCK:   -5.94 KCAL/MOL
REMARK 922        TOTAL FREE ENERGY PREDICTED BY IDOCK:   -8.63 KCAL/MOL
REMARK 923 INTER-LIGAND FREE ENERGY PREDICTED BY IDOCK:   -7.40 KCAL/MOL
REMARK 924 INTRA-LIGAND FREE ENERGY PREDICTED BY IDOCK:   -1.24 KCAL/MOL
REMARK 927      BINDING AFFINITY PREDICTED BY RF-SCORE:    0.00 PKD
ROOT
HETATM    1  C   UNL     1     -10.996  16.508  68.952  1.00  0.00    -0.325 C  
HETATM    2  O   UNL     1      -9.568  16.407  69.010  1.00  0.00    -0.249 OA 
ENDROOT
BRANCH   2   3
HETATM    3  C   UNL     1      -8.968  16.221  67.813  1.00  0.00    -0.193 C  
HETATM    4  O   UNL     1      -9.116  16.956  66.844  1.00  0.00    -0.215 OA 
BRANCH   3   5
HETATM    5  C   UNL     1      -8.164  14.968  67.799  1.00  0.00    -0.162 C  
HETATM    6  C   UNL     1      -6.818  15.045  67.668  1.00  0.00    -0.179 C  
HETATM    7  C   UNL     1      -5.978  16.305  67.650  1.00  0.00    -0.170 C  
HETATM    8  N   UNL     1      -6.084  13.887  67.496  1.00  0.00    -0.346 NA 
HETATM    9  C   UNL     1      -6.615  12.635  67.244  1.00  0.00    -0.104 C  
HETATM   10  C   UNL     1      -5.599  11.603  66.811  1.00  0.00    -0.134 C  
HETATM   11  C   UNL     1      -7.952  12.424  67.358  1.00  0.00    -0.178 C  
HETATM   12  C   UNL     1      -8.891  13.588  67.758  1.00  0.00    -0.198 C  
BRANCH  11  13
HETATM   13  C   UNL     1      -8.500  11.079  67.007  1.00  0.00    -0.141 C  
HETATM   14  O   UNL     1      -8.834  10.246  67.839  1.00  0.00    -0.122 OA 
BRANCH  13  15
HETATM   15  O   UNL     1      -8.504  10.852  65.668  1.00  0.00    -0.175 OA 
BRANCH  15  16
HETATM   16  C   UNL     1      -9.721  10.263  65.168  1.00  0.00    -0.300 C  
HETATM   17  C   UNL     1      -9.954  11.819  63.154  1.00  0.00    -0.373 C  
HETATM   18  C   UNL     1      -9.906  10.374  63.648  1.00  0.00    -0.288 C  
HETATM   19  C   UNL     1      -8.838   9.593  62.887  1.00  0.00    -0.252 C  
ENDBRANCH  15  16
ENDBRANCH  13  15
ENDBRANCH  11  13
BRANCH  12  20
HETATM   20  C   UNL     1     -10.116  13.686  66.836  1.00  0.00    -0.260 A  
HETATM   21  O   UNL     1     -11.363  12.921  69.483  1.00  0.00    -0.230 OA 
HETATM   22  C   UNL     1      -9.965  14.335  65.592  1.00  0.00    -0.346 A  
HETATM   23  O   UNL     1     -12.272  11.380  68.214  1.00  0.00    -0.588 OA 
HETATM   24  C   UNL     1     -11.064  14.587  64.769  1.00  0.00    -0.400 A  
HETATM   25  N   UNL     1     -11.685  12.457  68.384  1.00  0.00    -0.322 N  
HETATM   26  C   UNL     1     -11.413  13.247  67.184  1.00  0.00    -0.341 A  
HETATM   27  C   UNL     1     -12.341  14.199  65.163  1.00  0.00    -0.460 A  
HETATM   28  C   UNL     1     -12.520  13.518  66.364  1.00  0.00    -0.349 A  
ENDBRANCH  12  20
ENDBRANCH   3   5
ENDBRANCH   2   3
TORSDOF 6
ENDMDL
MODEL       19
REMARK 921   NORMALIZED FREE ENERGY PREDICTED BY IDOCK:   -5.89 KCAL/MOL
REMARK 922        TOTAL FREE ENERGY PREDICTED BY IDOCK:   -8.56 KCAL/MOL
REMARK 923 INTER-LIGAND FREE ENERGY PREDICTED BY IDOCK:   -7.35 KCAL/MOL
REMARK 924 INTRA-LIGAND FREE ENERGY PREDICTED BY IDOCK:   -1.21 KCAL/MOL
REMARK 927      BINDING AFFINITY PREDICTED BY RF-SCORE:    0.00 PKD
ROOT
HETATM    1  C   UNL     1      -6.670  15.142  68.960  1.00  0.00    -0.120 C  
HETATM    2  O   UNL     1      -8.024  14.721  69.160  1.00  0.00    -0.156 OA 
ENDROOT
BRANCH   2   3
HETATM    3  C   UNL     1      -8.952  15.673  68.914  1.00  0.00    -0.221 C  
HETATM    4  O   UNL     1      -9.309  16.516  69.728  1.00  0.00     0.121 OA 
BRANCH   3   5
HETATM    5  C   UNL     1      -9.538  15.519  67.553  1.00  0.00    -0.212 C  
HETATM    6  C   UNL     1      -9.318  16.480  66.625  1.00  0.00    -0.256 C  
HETATM    7  C   UNL     1      -8.416  17.688  66.763  1.00  0.00    -0.274 C  
HETATM    8  N   UNL     1      -9.986  16.423  65.416  1.00  0.00    -0.533 NA 
HETATM    9  C   UNL     1     -11.031  15.568  65.121  1.00  0.00    -0.409 C  
HETATM   10  C   UNL     1     -11.771  15.902  63.845  1.00  0.00     0.361 C  
HETATM   11  C   UNL     1     -11.341  14.550  65.966  1.00  0.00    -0.341 C  
HETATM   12  C   UNL     1     -10.535  14.353  67.273  1.00  0.00    -0.269 C  
BRANCH  11  13
HETATM   13  C   UNL     1     -12.523  13.690  65.654  1.00  0.00    -0.496 C  
HETATM   14  O   UNL     1     -13.643  14.132  65.436  1.00  0.00    -0.568 OA 
BRANCH  13  15
HETATM   15  O   UNL     1     -12.235  12.364  65.723  1.00  0.00    -0.620 OA 
BRANCH  15  16
HETATM   16  C   UNL     1     -12.082  11.721  64.442  1.00  0.00    -0.109 C  
HETATM   17  C   UNL     1      -9.664  12.458  64.068  1.00  0.00    -0.031 C  
HETATM   18  C   UNL     1     -10.647  11.288  64.112  1.00  0.00    -0.437 C  
HETATM   19  C   UNL     1     -10.143  10.213  65.072  1.00  0.00    -0.305 C  
ENDBRANCH  15  16
ENDBRANCH  13  15
ENDBRANCH  11  13
BRANCH  12  20
HETATM   20  C   UNL     1     -11.448  14.159  68.493  1.00  0.00    -0.333 A  
HETATM   21  O   UNL     1      -9.731  11.671  68.575  1.00  0.00    -0.195 OA 
HETATM   22  C   UNL     1     -12.172  15.273  68.968  1.00  0.00    -0.158 A  
HETATM   23  O   UNL     1     -11.708  10.730  68.693  1.00  0.00    -0.334 OA 
HETATM   24  C   UNL     1     -12.906  15.207  70.153  1.00  0.00    -0.200 A  
HETATM   25  N   UNL     1     -10.948  11.703  68.785  1.00  0.00    -0.213 N  
HETATM   26  C   UNL     1     -11.547  12.959  69.232  1.00  0.00    -0.310 A  
HETATM   27  C   UNL     1     -12.939  14.030  70.896  1.00  0.00    -0.347 A  
HETATM   28  C   UNL     1     -12.271  12.899  70.434  1.00  0.00    -0.381 A  
ENDBRANCH  12  20
ENDBRANCH   3   5
ENDBRANCH   2   3
TORSDOF 6
ENDMDL
MODEL       20
REMARK 921   NORMALIZED FREE ENERGY PREDICTED BY IDOCK:   -5.88 KCAL/MOL
REMARK 922        TOTAL FREE ENERGY PREDICTED BY IDOCK:   -8.55 KCAL/MOL
REMARK 923 INTER-LIGAND FREE ENERGY PREDICTED BY IDOCK:   -6.71 KCAL/MOL
REMARK 924 INTRA-LIGAND FREE ENERGY PREDICTED BY IDOCK:   -1.84 KCAL/MOL
REMARK 927      BINDING AFFINITY PREDICTED BY RF-SCORE:    0.00 PKD
ROOT
HETATM    1  C   UNL     1     -12.595  11.824  63.397  1.00  0.00    -0.336 C  
HETATM    2  O   UNL     1     -11.888  12.988  63.840  1.00  0.00    -0.411 OA 
ENDROOT
BRANCH   2   3
HETATM    3  C   UNL     1     -12.254  13.440  65.060  1.00  0.00    -0.424 C  
HETATM    4  O   UNL     1     -13.360  13.265  65.558  1.00  0.00    -0.403 OA 
BRANCH   3   5
HETATM    5  C   UNL     1     -11.167  14.241  65.689  1.00  0.00    -0.314 C  
HETATM    6  C   UNL     1     -10.881  15.470  65.198  1.00  0.00    -0.436 C  
HETATM    7  C   UNL     1     -11.635  16.215  64.117  1.00  0.00     0.076 C  
HETATM    8  N   UNL     1      -9.775  16.150  65.671  1.00  0.00    -0.468 NA 
HETATM    9  C   UNL     1      -8.791  15.611  66.480  1.00  0.00    -0.310 C  
HETATM   10  C   UNL     1      -7.554  16.470  66.615  1.00  0.00    -0.310 C  
HETATM   11  C   UNL     1      -8.967  14.390  67.048  1.00  0.00    -0.257 C  
HETATM   12  C   UNL     1     -10.264  13.588  66.780  1.00  0.00    -0.264 C  
BRANCH  11  13
HETATM   13  C   UNL     1      -7.854  13.806  67.856  1.00  0.00    -0.159 C  
HETATM   14  O   UNL     1      -7.782  13.897  69.075  1.00  0.00    -0.085 OA 
BRANCH  13  15
HETATM   15  O   UNL     1      -6.891  13.240  67.083  1.00  0.00    -0.120 OA 
BRANCH  15  16
HETATM   16  C   UNL     1      -5.869  12.540  67.823  1.00  0.00    -0.118 C  
HETATM   17  C   UNL     1      -7.225  10.403  68.178  1.00  0.00    -0.087 C  
HETATM   18  C   UNL     1      -5.914  11.012  67.682  1.00  0.00    -0.044 C  
HETATM   19  C   UNL     1      -5.634  10.565  66.250  1.00  0.00    -0.076 C  
ENDBRANCH  15  16
ENDBRANCH  13  15
ENDBRANCH  11  13
BRANCH  12  20
HETATM   20  C   UNL     1      -9.974  12.129  66.395  1.00  0.00    -0.243 A  
HETATM   21  O   UNL     1     -12.179  11.826  68.443  1.00  0.00    -0.467 OA 
HETATM   22  C   UNL     1      -9.222  11.885  65.226  1.00  0.00     0.082 A  
HETATM   23  O   UNL     1     -10.720  10.429  69.297  1.00  0.00    -0.205 OA 
HETATM   24  C   UNL     1      -9.043  10.589  64.739  1.00  0.00    -0.242 A  
HETATM   25  N   UNL     1     -11.173  11.112  68.369  1.00  0.00    -0.238 N  
HETATM   26  C   UNL     1     -10.484  11.006  67.084  1.00  0.00    -0.232 A  
HETATM   27  C   UNL     1      -9.608   9.504  65.402  1.00  0.00    -0.342 A  
HETATM   28  C   UNL     1     -10.319   9.705  66.582  1.00  0.00    -0.279 A  
ENDBRANCH  12  20
ENDBRANCH   3   5
ENDBRANCH   2   3
TORSDOF 6
ENDMDL
MODEL       21
REMARK 921   NORMALIZED FREE ENERGY PREDICTED BY IDOCK:   -5.87 KCAL/MOL
REMARK 922        TOTAL FREE ENERGY PREDICTED BY IDOCK:   -8.54 KCAL/MOL
REMARK 923 INTER-LIGAND FREE ENERGY PREDICTED BY IDOCK:   -7.32 KCAL/MOL
REMARK 924 INTRA-LIGAND FREE ENERGY PREDICTED BY IDOCK:   -1.22 KCAL/MOL
REMARK 927      BINDING AFFINITY PREDICTED BY RF-SCORE:    0.00 PKD
ROOT
HETATM    1  C   UNL     1      -5.645  16.443  67.177  1.00  0.00    -0.076 C  
HETATM    2  O   UNL     1      -6.473  15.276  67.115  1.00  0.00    -0.299 OA 
ENDROOT
BRANCH   2   3
HETATM    3  C   UNL     1      -6.997  14.893  68.301  1.00  0.00    -0.117 C  
HETATM    4  O   UNL     1      -6.752  15.435  69.372  1.00  0.00    -0.141 OA 
BRANCH   3   5
HETATM    5  C   UNL     1      -7.850  13.681  68.150  1.00  0.00    -0.143 C  
HETATM    6  C   UNL     1      -7.301  12.540  67.671  1.00  0.00    -0.134 C  
HETATM    7  C   UNL     1      -5.839  12.293  67.365  1.00  0.00    -0.143 C  
HETATM    8  N   UNL     1      -8.117  11.463  67.380  1.00  0.00    -0.136 NA 
HETATM    9  C   UNL     1      -9.499  11.496  67.344  1.00  0.00    -0.165 C  
HETATM   10  C   UNL     1     -10.136  10.274  66.722  1.00  0.00    -0.272 C  
HETATM   11  C   UNL     1     -10.170  12.580  67.813  1.00  0.00    -0.217 C  
HETATM   12  C   UNL     1      -9.390  13.793  68.376  1.00  0.00    -0.190 C  
BRANCH  11  13
HETATM   13  C   UNL     1     -11.659  12.612  67.692  1.00  0.00    -0.357 C  
HETATM   14  O   UNL     1     -12.409  12.864  68.626  1.00  0.00    -0.075 OA 
BRANCH  13  15
HETATM   15  O   UNL     1     -12.089  12.247  66.456  1.00  0.00    -0.616 OA 
BRANCH  15  16
HETATM   16  C   UNL     1     -12.350  13.352  65.567  1.00  0.00    -0.480 C  
HETATM   17  C   UNL     1     -10.343  12.936  64.040  1.00  0.00    -0.346 C  
HETATM   18  C   UNL     1     -11.854  13.144  64.128  1.00  0.00    -0.487 C  
HETATM   19  C   UNL     1     -12.585  11.996  63.436  1.00  0.00    -0.592 C  
ENDBRANCH  15  16
ENDBRANCH  13  15
ENDBRANCH  11  13
BRANCH  12  20
HETATM   20  C   UNL     1      -9.894  15.124  67.799  1.00  0.00    -0.223 A  
HETATM   21  O   UNL     1     -10.330  15.505  70.767  1.00  0.00    -0.119 OA 
HETATM   22  C   UNL     1      -9.553  15.446  66.467  1.00  0.00    -0.298 A  
HETATM   23  O   UNL     1     -12.334  16.038  70.053  1.00  0.00    -0.235 OA 
HETATM   24  C   UNL     1      -9.853  16.697  65.926  1.00  0.00    -0.301 A  
HETATM   25  N   UNL     1     -11.123  15.844  69.882  1.00  0.00    -0.313 N  
HETATM   26  C   UNL     1     -10.605  16.096  68.539  1.00  0.00    -0.284 A  
HETATM   27  C   UNL     1     -10.500  17.660  66.696  1.00  0.00    -0.286 A  
HETATM   28  C   UNL     1     -10.889  17.361  67.999  1.00  0.00    -0.281 A  
ENDBRANCH  12  20
ENDBRANCH   3   5
ENDBRANCH   2   3
TORSDOF 6
ENDMDL
MODEL       22
REMARK 921   NORMALIZED FREE ENERGY PREDICTED BY IDOCK:   -5.87 KCAL/MOL
REMARK 922        TOTAL FREE ENERGY PREDICTED BY IDOCK:   -8.53 KCAL/MOL
REMARK 923 INTER-LIGAND FREE ENERGY PREDICTED BY IDOCK:   -6.61 KCAL/MOL
REMARK 924 INTRA-LIGAND FREE ENERGY PREDICTED BY IDOCK:   -1.92 KCAL/MOL
REMARK 927      BINDING AFFINITY PREDICTED BY RF-SCORE:    0.00 PKD
ROOT
HETATM    1  C   UNL     1     -10.230  10.880  64.635  1.00  0.00    -0.345 C  
HETATM    2  O   UNL     1     -10.136  10.102  65.834  1.00  0.00    -0.258 OA 
ENDROOT
BRANCH   2   3
HETATM    3  C   UNL     1      -9.677  10.780  66.910  1.00  0.00    -0.178 C  
HETATM    4  O   UNL     1      -8.544  11.235  67.009  1.00  0.00    -0.139 OA 
BRANCH   3   5
HETATM    5  C   UNL     1     -10.702  10.838  67.990  1.00  0.00    -0.270 C  
HETATM    6  C   UNL     1     -11.258  12.030  68.312  1.00  0.00    -0.261 C  
HETATM    7  C   UNL     1     -11.048  13.352  67.605  1.00  0.00    -0.288 C  
HETATM    8  N   UNL     1     -12.088  12.117  69.414  1.00  0.00    -0.237 NA 
HETATM    9  C   UNL     1     -12.262  11.126  70.363  1.00  0.00    -0.369 C  
HETATM   10  C   UNL     1     -12.990  11.576  71.609  1.00  0.00    -0.499 C  
HETATM   11  C   UNL     1     -11.765   9.880  70.149  1.00  0.00    -0.239 C  
HETATM   12  C   UNL     1     -10.987   9.567  68.848  1.00  0.00    -0.116 C  
BRANCH  11  13
HETATM   13  C   UNL     1     -11.907   8.854  71.227  1.00  0.00    -0.310 C  
HETATM   14  O   UNL     1     -12.836   8.058  71.286  1.00  0.00    -0.289 OA 
BRANCH  13  15
HETATM   15  O   UNL     1     -10.942   8.959  72.177  1.00  0.00    -0.362 OA 
BRANCH  15  16
HETATM   16  C   UNL     1     -11.000   7.944  73.199  1.00  0.00    -0.236 C  
HETATM   17  C   UNL     1      -9.382   6.331  72.053  1.00  0.00    -0.155 C  
HETATM   18  C   UNL     1      -9.726   7.097  73.330  1.00  0.00    -0.251 C  
HETATM   19  C   UNL     1      -8.532   7.935  73.779  1.00  0.00    -0.309 C  
ENDBRANCH  15  16
ENDBRANCH  13  15
ENDBRANCH  11  13
BRANCH  12  20
HETATM   20  C   UNL     1      -9.666   8.833  69.125  1.00  0.00    -0.175 A  
HETATM   21  O   UNL     1     -10.851   7.194  66.876  1.00  0.00    -0.352 OA 
HETATM   22  C   UNL     1      -8.686   9.492  69.897  1.00  0.00    -0.224 A  
HETATM   23  O   UNL     1     -10.434   5.577  68.298  1.00  0.00    -0.191 OA 
HETATM   24  C   UNL     1      -7.412   8.947  70.067  1.00  0.00    -0.057 A  
HETATM   25  N   UNL     1     -10.287   6.731  67.873  1.00  0.00    -0.177 N  
HETATM   26  C   UNL     1      -9.326   7.571  68.586  1.00  0.00    -0.143 A  
HETATM   27  C   UNL     1      -7.081   7.732  69.474  1.00  0.00    -0.063 A  
HETATM   28  C   UNL     1      -8.038   7.034  68.743  1.00  0.00    -0.121 A  
ENDBRANCH  12  20
ENDBRANCH   3   5
ENDBRANCH   2   3
TORSDOF 6
ENDMDL
MODEL       23
REMARK 921   NORMALIZED FREE ENERGY PREDICTED BY IDOCK:   -5.84 KCAL/MOL
REMARK 922        TOTAL FREE ENERGY PREDICTED BY IDOCK:   -8.50 KCAL/MOL
REMARK 923 INTER-LIGAND FREE ENERGY PREDICTED BY IDOCK:   -6.95 KCAL/MOL
REMARK 924 INTRA-LIGAND FREE ENERGY PREDICTED BY IDOCK:   -1.54 KCAL/MOL
REMARK 927      BINDING AFFINITY PREDICTED BY RF-SCORE:    0.00 PKD
ROOT
HETATM    1  C   UNL     1     -11.276  16.417  70.113  1.00  0.00    -0.250 C  
HETATM    2  O   UNL     1     -11.442  16.247  68.700  1.00  0.00    -0.367 OA 
ENDROOT
BRANCH   2   3
HETATM    3  C   UNL     1     -10.362  16.588  67.962  1.00  0.00    -0.294 C  
HETATM    4  O   UNL     1     -10.369  17.437  67.078  1.00  0.00    -0.317 OA 
BRANCH   3   5
HETATM    5  C   UNL     1      -9.183  15.746  68.308  1.00  0.00    -0.188 C  
HETATM    6  C   UNL     1      -7.991  16.343  68.548  1.00  0.00    -0.203 C  
HETATM    7  C   UNL     1      -7.719  17.830  68.628  1.00  0.00    -0.283 C  
HETATM    8  N   UNL     1      -6.862  15.564  68.712  1.00  0.00    -0.111 NA 
HETATM    9  C   UNL     1      -6.784  14.207  68.459  1.00  0.00    -0.101 C  
HETATM   10  C   UNL     1      -5.376  13.655  68.439  1.00  0.00    -0.098 C  
HETATM   11  C   UNL     1      -7.913  13.490  68.219  1.00  0.00    -0.147 C  
HETATM   12  C   UNL     1      -9.292  14.193  68.214  1.00  0.00    -0.203 C  
BRANCH  11  13
HETATM   13  C   UNL     1      -7.787  12.041  67.876  1.00  0.00    -0.144 C  
HETATM   14  O   UNL     1      -7.823  11.143  68.707  1.00  0.00    -0.129 OA 
BRANCH  13  15
HETATM   15  O   UNL     1      -7.539  11.838  66.556  1.00  0.00    -0.064 OA 
BRANCH  15  16
HETATM   16  C   UNL     1      -7.321  10.459  66.197  1.00  0.00    -0.131 C  
HETATM   17  C   UNL     1      -9.777   9.917  65.746  1.00  0.00    -0.332 C  
HETATM   18  C   UNL     1      -8.347   9.887  65.209  1.00  0.00    -0.153 C  
HETATM   19  C   UNL     1      -8.280  10.584  63.853  1.00  0.00    -0.063 C  
ENDBRANCH  15  16
ENDBRANCH  13  15
ENDBRANCH  11  13
BRANCH  12  20
HETATM   20  C   UNL     1     -10.130  13.815  66.983  1.00  0.00    -0.256 A  
HETATM   21  O   UNL     1     -11.922  12.962  69.266  1.00  0.00    -0.296 OA 
HETATM   22  C   UNL     1      -9.760  14.355  65.733  1.00  0.00    -0.283 A  
HETATM   23  O   UNL     1     -11.925  11.099  68.108  1.00  0.00    -0.615 OA 
HETATM   24  C   UNL     1     -10.556  14.171  64.601  1.00  0.00    -0.391 A  
HETATM   25  N   UNL     1     -11.733  12.316  68.229  1.00  0.00    -0.324 N  
HETATM   26  C   UNL     1     -11.305  13.031  67.028  1.00  0.00    -0.301 A  
HETATM   27  C   UNL     1     -11.741  13.446  64.685  1.00  0.00    -0.406 A  
HETATM   28  C   UNL     1     -12.115  12.863  65.893  1.00  0.00    -0.503 A  
ENDBRANCH  12  20
ENDBRANCH   3   5
ENDBRANCH   2   3
TORSDOF 6
ENDMDL
MODEL       24
REMARK 921   NORMALIZED FREE ENERGY PREDICTED BY IDOCK:   -5.83 KCAL/MOL
REMARK 922        TOTAL FREE ENERGY PREDICTED BY IDOCK:   -8.48 KCAL/MOL
REMARK 923 INTER-LIGAND FREE ENERGY PREDICTED BY IDOCK:   -7.02 KCAL/MOL
REMARK 924 INTRA-LIGAND FREE ENERGY PREDICTED BY IDOCK:   -1.46 KCAL/MOL
REMARK 927      BINDING AFFINITY PREDICTED BY RF-SCORE:    0.00 PKD
ROOT
HETATM    1  C   UNL     1      -7.871   7.445  66.613  1.00  0.00    -0.109 C  
HETATM    2  O   UNL     1      -8.807   8.052  65.714  1.00  0.00    -0.165 OA 
ENDROOT
BRANCH   2   3
HETATM    3  C   UNL     1      -8.511   9.324  65.367  1.00  0.00    -0.145 C  
HETATM    4  O   UNL     1      -7.386   9.720  65.088  1.00  0.00    -0.110 OA 
BRANCH   3   5
HETATM    5  C   UNL     1      -9.714  10.199  65.441  1.00  0.00    -0.355 C  
HETATM    6  C   UNL     1     -10.147  10.826  64.322  1.00  0.00    -0.361 C  
HETATM    7  C   UNL     1      -9.609  10.653  62.917  1.00  0.00    -0.358 C  
HETATM    8  N   UNL     1     -11.161  11.760  64.415  1.00  0.00    -0.326 NA 
HETATM    9  C   UNL     1     -11.666  12.276  65.595  1.00  0.00    -0.382 C  
HETATM   10  C   UNL     1     -12.559  13.483  65.416  1.00  0.00    -0.531 C  
HETATM   11  C   UNL     1     -11.320  11.722  66.786  1.00  0.00    -0.385 C  
HETATM   12  C   UNL     1     -10.348  10.519  66.830  1.00  0.00    -0.293 C  
BRANCH  11  13
HETATM   13  C   UNL     1     -11.825  12.351  68.045  1.00  0.00    -0.316 C  
HETATM   14  O   UNL     1     -12.367  11.724  68.945  1.00  0.00    -0.293 OA 
BRANCH  13  15
HETATM   15  O   UNL     1     -11.694  13.703  68.040  1.00  0.00    -0.312 OA 
BRANCH  15  16
HETATM   16  C   UNL     1     -10.473  14.184  68.638  1.00  0.00    -0.250 C  
HETATM   17  C   UNL     1      -9.376  14.901  66.444  1.00  0.00    -0.327 C  
HETATM   18  C   UNL     1      -9.782  15.312  67.858  1.00  0.00    -0.211 C  
HETATM   19  C   UNL     1     -10.636  16.577  67.814  1.00  0.00    -0.332 C  
ENDBRANCH  15  16
ENDBRANCH  13  15
ENDBRANCH  11  13
BRANCH  12  20
HETATM   20  C   UNL     1      -9.230  10.715  67.867  1.00  0.00    -0.150 A  
HETATM   21  O   UNL     1     -10.453   8.087  68.730  1.00  0.00    -0.208 OA 
HETATM   22  C   UNL     1      -8.233  11.677  67.598  1.00  0.00    -0.141 A  
HETATM   23  O   UNL     1     -10.512   9.143  70.651  1.00  0.00    -0.209 OA 
HETATM   24  C   UNL     1      -7.114  11.807  68.422  1.00  0.00    -0.085 A  
HETATM   25  N   UNL     1     -10.101   8.993  69.493  1.00  0.00    -0.191 N  
HETATM   26  C   UNL     1      -9.081   9.935  69.036  1.00  0.00    -0.164 A  
HETATM   27  C   UNL     1      -6.959  10.984  69.534  1.00  0.00    -0.126 A  
HETATM   28  C   UNL     1      -7.945  10.055  69.853  1.00  0.00    -0.184 A  
ENDBRANCH  12  20
ENDBRANCH   3   5
ENDBRANCH   2   3
TORSDOF 6
ENDMDL
MODEL       25
REMARK 921   NORMALIZED FREE ENERGY PREDICTED BY IDOCK:   -5.80 KCAL/MOL
REMARK 922        TOTAL FREE ENERGY PREDICTED BY IDOCK:   -8.44 KCAL/MOL
REMARK 923 INTER-LIGAND FREE ENERGY PREDICTED BY IDOCK:   -7.26 KCAL/MOL
REMARK 924 INTRA-LIGAND FREE ENERGY PREDICTED BY IDOCK:   -1.18 KCAL/MOL
REMARK 927      BINDING AFFINITY PREDICTED BY RF-SCORE:    0.00 PKD
ROOT
HETATM    1  C   UNL     1      -9.668   7.702  66.690  1.00  0.00    -0.213 C  
HETATM    2  O   UNL     1     -10.401   8.876  66.324  1.00  0.00    -0.240 OA 
ENDROOT
BRANCH   2   3
HETATM    3  C   UNL     1      -9.665   9.836  65.722  1.00  0.00    -0.273 C  
HETATM    4  O   UNL     1      -8.597   9.634  65.155  1.00  0.00    -0.138 OA 
BRANCH   3   5
HETATM    5  C   UNL     1     -10.278  11.182  65.900  1.00  0.00    -0.303 C  
HETATM    6  C   UNL     1     -10.455  11.978  64.819  1.00  0.00    -0.294 C  
HETATM    7  C   UNL     1     -10.204  11.614  63.371  1.00  0.00    -0.471 C  
HETATM    8  N   UNL     1     -10.874  13.282  64.997  1.00  0.00    -0.308 NA 
HETATM    9  C   UNL     1     -10.950  13.938  66.213  1.00  0.00    -0.298 C  
HETATM   10  C   UNL     1     -11.158  15.432  66.105  1.00  0.00    -0.230 C  
HETATM   11  C   UNL     1     -10.807  13.245  67.373  1.00  0.00    -0.279 C  
HETATM   12  C   UNL     1     -10.542  11.721  67.340  1.00  0.00    -0.258 C  
BRANCH  11  13
HETATM   13  C   UNL     1     -10.822  13.997  68.665  1.00  0.00    -0.258 C  
HETATM   14  O   UNL     1      -9.822  14.480  69.178  1.00  0.00    -0.181 OA 
BRANCH  13  15
HETATM   15  O   UNL     1     -12.049  14.007  69.248  1.00  0.00    -0.333 OA 
BRANCH  15  16
HETATM   16  C   UNL     1     -12.088  13.417  70.563  1.00  0.00    -0.323 C  
HETATM   17  C   UNL     1     -11.675  15.596  71.835  1.00  0.00    -0.544 C  
HETATM   18  C   UNL     1     -12.566  14.365  71.673  1.00  0.00    -0.429 C  
HETATM   19  C   UNL     1     -14.018  14.789  71.470  1.00  0.00    -0.548 C  
ENDBRANCH  15  16
ENDBRANCH  13  15
ENDBRANCH  11  13
BRANCH  12  20
HETATM   20  C   UNL     1      -9.379  11.315  68.257  1.00  0.00    -0.180 A  
HETATM   21  O   UNL     1     -11.533   9.344  69.044  1.00  0.00     0.131 OA 
HETATM   22  C   UNL     1      -8.090  11.804  67.955  1.00  0.00    -0.144 A  
HETATM   23  O   UNL     1     -11.009  10.096  71.036  1.00  0.00    -0.291 OA 
HETATM   24  C   UNL     1      -6.966  11.363  68.656  1.00  0.00    -0.087 A  
HETATM   25  N   UNL     1     -10.780   9.927  69.831  1.00  0.00    -0.259 N  
HETATM   26  C   UNL     1      -9.492  10.412  69.338  1.00  0.00    -0.183 A  
HETATM   27  C   UNL     1      -7.097  10.425  69.677  1.00  0.00    -0.135 A  
HETATM   28  C   UNL     1      -8.359   9.955  70.030  1.00  0.00    -0.191 A  
ENDBRANCH  12  20
ENDBRANCH   3   5
ENDBRANCH   2   3
TORSDOF 6
ENDMDL
MODEL       26
REMARK 921   NORMALIZED FREE ENERGY PREDICTED BY IDOCK:   -5.77 KCAL/MOL
REMARK 922        TOTAL FREE ENERGY PREDICTED BY IDOCK:   -8.40 KCAL/MOL
REMARK 923 INTER-LIGAND FREE ENERGY PREDICTED BY IDOCK:   -7.24 KCAL/MOL
REMARK 924 INTRA-LIGAND FREE ENERGY PREDICTED BY IDOCK:   -1.16 KCAL/MOL
REMARK 927      BINDING AFFINITY PREDICTED BY RF-SCORE:    0.00 PKD
ROOT
HETATM    1  C   UNL     1      -8.789   5.946  65.667  1.00  0.00    -0.118 C  
HETATM    2  O   UNL     1      -9.645   7.057  65.960  1.00  0.00    -0.015 OA 
ENDROOT
BRANCH   2   3
HETATM    3  C   UNL     1      -9.000   8.170  66.377  1.00  0.00    -0.171 C  
HETATM    4  O   UNL     1      -7.794   8.233  66.583  1.00  0.00    -0.092 OA 
BRANCH   3   5
HETATM    5  C   UNL     1      -9.954   9.287  66.626  1.00  0.00    -0.333 C  
HETATM    6  C   UNL     1     -10.005  10.320  65.753  1.00  0.00    -0.271 C  
HETATM    7  C   UNL     1      -9.269  10.436  64.436  1.00  0.00    -0.291 C  
HETATM    8  N   UNL     1     -10.769  11.431  66.059  1.00  0.00    -0.271 NA 
HETATM    9  C   UNL     1     -11.351  11.686  67.288  1.00  0.00    -0.305 C  
HETATM   10  C   UNL     1     -11.883  13.092  67.447  1.00  0.00    -0.412 C  
HETATM   11  C   UNL     1     -11.378  10.721  68.245  1.00  0.00    -0.376 C  
HETATM   12  C   UNL     1     -10.745   9.336  67.970  1.00  0.00    -0.231 C  
BRANCH  11  13
HETATM   13  C   UNL     1     -11.949  11.055  69.585  1.00  0.00    -0.353 C  
HETATM   14  O   UNL     1     -11.548  11.978  70.281  1.00  0.00    -0.225 OA 
BRANCH  13  15
HETATM   15  O   UNL     1     -12.898  10.168  69.982  1.00  0.00    -0.045 OA 
BRANCH  15  16
HETATM   16  C   UNL     1     -13.392  10.384  71.320  1.00  0.00    -0.246 C  
HETATM   17  C   UNL     1     -14.319   8.024  71.638  1.00  0.00    -0.581 C  
HETATM   18  C   UNL     1     -13.422   9.126  72.199  1.00  0.00    -0.530 C  
HETATM   19  C   UNL     1     -12.019   8.582  72.460  1.00  0.00    -0.401 C  
ENDBRANCH  15  16
ENDBRANCH  13  15
ENDBRANCH  11  13
BRANCH  12  20
HETATM   20  C   UNL     1      -9.830   8.880  69.116  1.00  0.00    -0.180 A  
HETATM   21  O   UNL     1     -11.178   6.297  68.305  1.00  0.00    -0.328 OA 
HETATM   22  C   UNL     1      -8.803   9.752  69.538  1.00  0.00    -0.202 A  
HETATM   23  O   UNL     1     -11.580   6.234  70.460  1.00  0.00    -0.363 OA 
HETATM   24  C   UNL     1      -7.848   9.347  70.472  1.00  0.00    -0.185 A  
HETATM   25  N   UNL     1     -10.969   6.656  69.469  1.00  0.00    -0.288 N  
HETATM   26  C   UNL     1      -9.888   7.606  69.724  1.00  0.00    -0.181 A  
HETATM   27  C   UNL     1      -7.891   8.064  71.011  1.00  0.00    -0.090 A  
HETATM   28  C   UNL     1      -8.915   7.194  70.650  1.00  0.00    -0.154 A  
ENDBRANCH  12  20
ENDBRANCH   3   5
ENDBRANCH   2   3
TORSDOF 6
ENDMDL
MODEL       27
REMARK 921   NORMALIZED FREE ENERGY PREDICTED BY IDOCK:   -5.75 KCAL/MOL
REMARK 922        TOTAL FREE ENERGY PREDICTED BY IDOCK:   -8.37 KCAL/MOL
REMARK 923 INTER-LIGAND FREE ENERGY PREDICTED BY IDOCK:   -7.28 KCAL/MOL
REMARK 924 INTRA-LIGAND FREE ENERGY PREDICTED BY IDOCK:   -1.09 KCAL/MOL
REMARK 927      BINDING AFFINITY PREDICTED BY RF-SCORE:    0.00 PKD
ROOT
HETATM    1  C   UNL     1      -8.080   7.580  64.234  1.00  0.00    -0.064 C  
HETATM    2  O   UNL     1      -8.571   8.367  65.326  1.00  0.00    -0.172 OA 
ENDROOT
BRANCH   2   3
HETATM    3  C   UNL     1      -8.377   9.698  65.193  1.00  0.00    -0.137 C  
HETATM    4  O   UNL     1      -7.285  10.222  65.007  1.00  0.00    -0.136 OA 
BRANCH   3   5
HETATM    5  C   UNL     1      -9.649  10.451  65.377  1.00  0.00    -0.303 C  
HETATM    6  C   UNL     1     -10.209  11.075  64.313  1.00  0.00    -0.352 C  
HETATM    7  C   UNL     1      -9.749  11.005  62.872  1.00  0.00    -0.353 C  
HETATM    8  N   UNL     1     -11.298  11.903  64.507  1.00  0.00    -0.329 NA 
HETATM    9  C   UNL     1     -11.771  12.326  65.736  1.00  0.00    -0.385 C  
HETATM   10  C   UNL     1     -12.783  13.447  65.664  1.00  0.00    -0.432 C  
HETATM   11  C   UNL     1     -11.300  11.764  66.880  1.00  0.00    -0.386 C  
HETATM   12  C   UNL     1     -10.219  10.658  66.814  1.00  0.00    -0.284 C  
BRANCH  11  13
HETATM   13  C   UNL     1     -11.779  12.295  68.192  1.00  0.00    -0.349 C  
HETATM   14  O   UNL     1     -11.582  13.442  68.571  1.00  0.00    -0.287 OA 
BRANCH  13  15
HETATM   15  O   UNL     1     -12.377  11.342  68.953  1.00  0.00    -0.485 OA 
BRANCH  15  16
HETATM   16  C   UNL     1     -11.672  11.021  70.169  1.00  0.00    -0.356 C  
HETATM   17  C   UNL     1     -13.281  12.245  71.732  1.00  0.00    -0.428 C  
HETATM   18  C   UNL     1     -12.560  10.935  71.418  1.00  0.00    -0.508 C  
HETATM   19  C   UNL     1     -13.566   9.791  71.321  1.00  0.00    -0.285 C  
ENDBRANCH  15  16
ENDBRANCH  13  15
ENDBRANCH  11  13
BRANCH  12  20
HETATM   20  C   UNL     1      -9.060  10.922  67.788  1.00  0.00    -0.149 A  
HETATM   21  O   UNL     1      -9.459   7.936  68.058  1.00  0.00    -0.147 OA 
HETATM   22  C   UNL     1      -8.381  12.155  67.697  1.00  0.00    -0.163 A  
HETATM   23  O   UNL     1      -9.527   8.486  70.179  1.00  0.00    -0.161 OA 
HETATM   24  C   UNL     1      -7.232  12.404  68.450  1.00  0.00    -0.110 A  
HETATM   25  N   UNL     1      -9.248   8.713  68.995  1.00  0.00    -0.145 N  
HETATM   26  C   UNL     1      -8.567   9.976  68.716  1.00  0.00    -0.131 A  
HETATM   27  C   UNL     1      -6.730  11.433  69.311  1.00  0.00    -0.113 A  
HETATM   28  C   UNL     1      -7.401  10.222  69.457  1.00  0.00    -0.132 A  
ENDBRANCH  12  20
ENDBRANCH   3   5
ENDBRANCH   2   3
TORSDOF 6
ENDMDL
MODEL       28
REMARK 921   NORMALIZED FREE ENERGY PREDICTED BY IDOCK:   -5.67 KCAL/MOL
REMARK 922        TOTAL FREE ENERGY PREDICTED BY IDOCK:   -8.27 KCAL/MOL
REMARK 923 INTER-LIGAND FREE ENERGY PREDICTED BY IDOCK:   -7.20 KCAL/MOL
REMARK 924 INTRA-LIGAND FREE ENERGY PREDICTED BY IDOCK:   -1.07 KCAL/MOL
REMARK 927      BINDING AFFINITY PREDICTED BY RF-SCORE:    0.00 PKD
ROOT
HETATM    1  C   UNL     1     -10.504   5.910  73.594  1.00  0.00    -0.265 C  
HETATM    2  O   UNL     1     -10.896   7.247  73.262  1.00  0.00    -0.350 OA 
ENDROOT
BRANCH   2   3
HETATM    3  C   UNL     1     -11.655   7.352  72.150  1.00  0.00    -0.293 C  
HETATM    4  O   UNL     1     -12.292   6.428  71.658  1.00  0.00    -0.312 OA 
BRANCH   3   5
HETATM    5  C   UNL     1     -11.559   8.715  71.555  1.00  0.00    -0.368 C  
HETATM    6  C   UNL     1     -12.612   9.559  71.662  1.00  0.00    -0.388 C  
HETATM    7  C   UNL     1     -13.888   9.328  72.443  1.00  0.00    -0.484 C  
HETATM    8  N   UNL     1     -12.592  10.761  70.979  1.00  0.00    -0.385 NA 
HETATM    9  C   UNL     1     -11.664  11.117  70.017  1.00  0.00    -0.356 C  
HETATM   10  C   UNL     1     -12.030  12.351  69.224  1.00  0.00    -0.308 C  
HETATM   11  C   UNL     1     -10.553  10.359  69.825  1.00  0.00    -0.302 C  
HETATM   12  C   UNL     1     -10.327   9.083  70.673  1.00  0.00    -0.284 C  
BRANCH  11  13
HETATM   13  C   UNL     1      -9.609  10.731  68.728  1.00  0.00    -0.189 C  
HETATM   14  O   UNL     1      -8.431  11.006  68.913  1.00  0.00    -0.157 OA 
BRANCH  13  15
HETATM   15  O   UNL     1     -10.223  10.816  67.519  1.00  0.00    -0.183 OA 
BRANCH  15  16
HETATM   16  C   UNL     1      -9.678  11.825  66.645  1.00  0.00    -0.202 C  
HETATM   17  C   UNL     1     -10.267  10.626  64.467  1.00  0.00    -0.399 C  
HETATM   18  C   UNL     1     -10.364  11.920  65.275  1.00  0.00    -0.316 C  
HETATM   19  C   UNL     1     -11.821  12.356  65.397  1.00  0.00    -0.460 C  
ENDBRANCH  15  16
ENDBRANCH  13  15
ENDBRANCH  11  13
BRANCH  12  20
HETATM   20  C   UNL     1      -9.941   7.874  69.807  1.00  0.00    -0.186 A  
HETATM   21  O   UNL     1      -7.859   7.785  71.999  1.00  0.00    -0.089 OA 
HETATM   22  C   UNL     1     -10.879   7.402  68.864  1.00  0.00    -0.088 A  
HETATM   23  O   UNL     1      -6.530   7.694  70.257  1.00  0.00    -0.037 OA 
HETATM   24  C   UNL     1     -10.655   6.225  68.147  1.00  0.00    -0.318 A  
HETATM   25  N   UNL     1      -7.638   7.589  70.799  1.00  0.00    -0.080 N  
HETATM   26  C   UNL     1      -8.741   7.142  69.950  1.00  0.00    -0.142 A  
HETATM   27  C   UNL     1      -9.491   5.488  68.351  1.00  0.00    -0.144 A  
HETATM   28  C   UNL     1      -8.525   5.948  69.242  1.00  0.00    -0.113 A  
ENDBRANCH  12  20
ENDBRANCH   3   5
ENDBRANCH   2   3
TORSDOF 6
ENDMDL
MODEL       29
REMARK 921   NORMALIZED FREE ENERGY PREDICTED BY IDOCK:   -5.64 KCAL/MOL
REMARK 922        TOTAL FREE ENERGY PREDICTED BY IDOCK:   -8.23 KCAL/MOL
REMARK 923 INTER-LIGAND FREE ENERGY PREDICTED BY IDOCK:   -6.71 KCAL/MOL
REMARK 924 INTRA-LIGAND FREE ENERGY PREDICTED BY IDOCK:   -1.52 KCAL/MOL
REMARK 927      BINDING AFFINITY PREDICTED BY RF-SCORE:    0.00 PKD
ROOT
HETATM    1  C   UNL     1      -6.779  15.594  69.655  1.00  0.00    -0.178 C  
HETATM    2  O   UNL     1      -7.696  14.652  69.087  1.00  0.00    -0.135 OA 
ENDROOT
BRANCH   2   3
HETATM    3  C   UNL     1      -8.978  15.078  69.029  1.00  0.00    -0.205 C  
HETATM    4  O   UNL     1      -9.649  15.384  70.008  1.00  0.00    -0.217 OA 
BRANCH   3   5
HETATM    5  C   UNL     1      -9.493  15.056  67.632  1.00  0.00    -0.195 C  
HETATM    6  C   UNL     1      -9.845  16.221  67.038  1.00  0.00    -0.244 C  
HETATM    7  C   UNL     1      -9.664  17.617  67.595  1.00  0.00    -0.277 C  
HETATM    8  N   UNL     1     -10.471  16.194  65.806  1.00  0.00    -0.358 NA 
HETATM    9  C   UNL     1     -10.962  15.060  65.185  1.00  0.00    -0.406 C  
HETATM   10  C   UNL     1     -11.850  15.337  63.992  1.00  0.00     0.005 C  
HETATM   11  C   UNL     1     -10.664  13.828  65.675  1.00  0.00    -0.288 C  
HETATM   12  C   UNL     1      -9.786  13.689  66.942  1.00  0.00    -0.262 C  
BRANCH  11  13
HETATM   13  C   UNL     1     -11.272  12.629  65.023  1.00  0.00    -0.296 C  
HETATM   14  O   UNL     1     -12.426  12.267  65.212  1.00  0.00    -0.585 OA 
BRANCH  13  15
HETATM   15  O   UNL     1     -10.379  11.938  64.269  1.00  0.00    -0.279 OA 
BRANCH  15  16
HETATM   16  C   UNL     1     -10.273  10.539  64.604  1.00  0.00    -0.294 C  
HETATM   17  C   UNL     1      -9.237   9.818  62.382  1.00  0.00    -0.294 C  
HETATM   18  C   UNL     1      -9.122   9.801  63.906  1.00  0.00    -0.275 C  
HETATM   19  C   UNL     1      -7.759  10.337  64.337  1.00  0.00    -0.104 C  
ENDBRANCH  15  16
ENDBRANCH  13  15
ENDBRANCH  11  13
BRANCH  12  20
HETATM   20  C   UNL     1     -10.398  12.722  67.967  1.00  0.00    -0.232 A  
HETATM   21  O   UNL     1      -7.524  11.787  67.838  1.00  0.00    -0.095 OA 
HETATM   22  C   UNL     1     -11.650  13.049  68.528  1.00  0.00    -0.363 A  
HETATM   23  O   UNL     1      -8.527   9.865  67.507  1.00  0.00    -0.115 OA 
HETATM   24  C   UNL     1     -12.197  12.295  69.567  1.00  0.00    -0.153 A  
HETATM   25  N   UNL     1      -8.512  11.046  67.878  1.00  0.00    -0.125 N  
HETATM   26  C   UNL     1      -9.751  11.564  68.456  1.00  0.00    -0.189 A  
HETATM   27  C   UNL     1     -11.512  11.194  70.074  1.00  0.00    -0.376 A  
HETATM   28  C   UNL     1     -10.294  10.817  69.514  1.00  0.00    -0.178 A  
ENDBRANCH  12  20
ENDBRANCH   3   5
ENDBRANCH   2   3
TORSDOF 6
ENDMDL
MODEL       30
REMARK 921   NORMALIZED FREE ENERGY PREDICTED BY IDOCK:   -5.63 KCAL/MOL
REMARK 922        TOTAL FREE ENERGY PREDICTED BY IDOCK:   -8.21 KCAL/MOL
REMARK 923 INTER-LIGAND FREE ENERGY PREDICTED BY IDOCK:   -6.73 KCAL/MOL
REMARK 924 INTRA-LIGAND FREE ENERGY PREDICTED BY IDOCK:   -1.48 KCAL/MOL
REMARK 927      BINDING AFFINITY PREDICTED BY RF-SCORE:    0.00 PKD
ROOT
HETATM    1  C   UNL     1      -8.211   8.258  69.354  1.00  0.00    -0.117 C  
HETATM    2  O   UNL     1      -8.866   9.414  69.888  1.00  0.00    -0.163 OA 
ENDROOT
BRANCH   2   3
HETATM    3  C   UNL     1     -10.044   9.717  69.299  1.00  0.00    -0.198 C  
HETATM    4  O   UNL     1     -10.811   8.890  68.822  1.00  0.00    -0.135 OA 
BRANCH   3   5
HETATM    5  C   UNL     1     -10.254  11.191  69.236  1.00  0.00    -0.110 C  
HETATM    6  C   UNL     1     -11.293  11.741  69.908  1.00  0.00    -0.121 C  
HETATM    7  C   UNL     1     -12.242  11.033  70.852  1.00  0.00    -0.471 C  
HETATM    8  N   UNL     1     -11.588  13.079  69.727  1.00  0.00    -0.254 NA 
HETATM    9  C   UNL     1     -11.036  13.894  68.756  1.00  0.00    -0.263 C  
HETATM   10  C   UNL     1     -11.734  15.224  68.586  1.00  0.00    -0.367 C  
HETATM   11  C   UNL     1      -9.976  13.463  68.023  1.00  0.00    -0.239 C  
HETATM   12  C   UNL     1      -9.390  12.050  68.262  1.00  0.00    -0.197 C  
BRANCH  11  13
HETATM   13  C   UNL     1      -9.451  14.339  66.933  1.00  0.00    -0.263 C  
HETATM   14  O   UNL     1      -8.796  15.353  67.135  1.00  0.00    -0.188 OA 
BRANCH  13  15
HETATM   15  O   UNL     1      -9.854  13.935  65.700  1.00  0.00    -0.276 OA 
BRANCH  15  16
HETATM   16  C   UNL     1     -10.679  14.889  65.001  1.00  0.00    -0.431 C  
HETATM   17  C   UNL     1     -11.813  13.182  63.475  1.00  0.00    -0.539 C  
HETATM   18  C   UNL     1     -12.005  14.321  64.475  1.00  0.00    -0.478 C  
HETATM   19  C   UNL     1     -12.923  13.876  65.610  1.00  0.00    -0.361 C  
ENDBRANCH  15  16
ENDBRANCH  13  15
ENDBRANCH  11  13
BRANCH  12  20
HETATM   20  C   UNL     1      -9.185  11.279  66.949  1.00  0.00    -0.184 A  
HETATM   21  O   UNL     1      -6.459  11.078  68.244  1.00  0.00    -0.056 OA 
HETATM   22  C   UNL     1     -10.328  10.883  66.222  1.00  0.00    -0.306 A  
HETATM   23  O   UNL     1      -5.851  11.829  66.275  1.00  0.00    -0.192 OA 
HETATM   24  C   UNL     1     -10.222  10.059  65.100  1.00  0.00    -0.146 A  
HETATM   25  N   UNL     1      -6.663  11.299  67.045  1.00  0.00    -0.115 N  
HETATM   26  C   UNL     1      -7.927  10.859  66.459  1.00  0.00    -0.152 A  
HETATM   27  C   UNL     1      -8.976   9.608  64.673  1.00  0.00    -0.274 A  
HETATM   28  C   UNL     1      -7.825  10.014  65.341  1.00  0.00    -0.136 A  
ENDBRANCH  12  20
ENDBRANCH   3   5
ENDBRANCH   2   3
TORSDOF 6
ENDMDL
MODEL       31
REMARK 921   NORMALIZED FREE ENERGY PREDICTED BY IDOCK:   -5.63 KCAL/MOL
REMARK 922        TOTAL FREE ENERGY PREDICTED BY IDOCK:   -8.21 KCAL/MOL
REMARK 923 INTER-LIGAND FREE ENERGY PREDICTED BY IDOCK:   -6.84 KCAL/MOL
REMARK 924 INTRA-LIGAND FREE ENERGY PREDICTED BY IDOCK:   -1.37 KCAL/MOL
REMARK 927      BINDING AFFINITY PREDICTED BY RF-SCORE:    0.00 PKD
ROOT
HETATM    1  C   UNL     1      -7.294   8.590  71.302  1.00  0.00    -0.091 C  
HETATM    2  O   UNL     1      -7.260   9.892  70.708  1.00  0.00    -0.305 OA 
ENDROOT
BRANCH   2   3
HETATM    3  C   UNL     1      -7.178   9.894  69.359  1.00  0.00    -0.083 C  
HETATM    4  O   UNL     1      -6.501   9.108  68.706  1.00  0.00    -0.048 OA 
BRANCH   3   5
HETATM    5  C   UNL     1      -7.956  11.020  68.770  1.00  0.00    -0.144 C  
HETATM    6  C   UNL     1      -7.462  12.278  68.847  1.00  0.00    -0.012 C  
HETATM    7  C   UNL     1      -6.104  12.691  69.375  1.00  0.00    -0.107 C  
HETATM    8  N   UNL     1      -8.247  13.343  68.447  1.00  0.00    -0.154 NA 
HETATM    9  C   UNL     1      -9.596  13.272  68.148  1.00  0.00    -0.227 C  
HETATM   10  C   UNL     1     -10.278  14.615  68.021  1.00  0.00    -0.231 C  
HETATM   11  C   UNL     1     -10.207  12.064  68.026  1.00  0.00    -0.203 C  
HETATM   12  C   UNL     1      -9.399  10.761  68.237  1.00  0.00    -0.161 C  
BRANCH  11  13
HETATM   13  C   UNL     1     -11.680  12.025  67.775  1.00  0.00    -0.309 C  
HETATM   14  O   UNL     1     -12.519  12.054  68.666  1.00  0.00    -0.097 OA 
BRANCH  13  15
HETATM   15  O   UNL     1     -11.979  11.868  66.460  1.00  0.00    -0.588 OA 
BRANCH  15  16
HETATM   16  C   UNL     1     -12.520  13.046  65.828  1.00  0.00    -0.329 C  
HETATM   17  C   UNL     1     -10.428  13.591  64.465  1.00  0.00    -0.426 C  
HETATM   18  C   UNL     1     -11.937  13.350  64.441  1.00  0.00    -0.460 C  
HETATM   19  C   UNL     1     -12.279  12.259  63.429  1.00  0.00    -0.630 C  
ENDBRANCH  15  16
ENDBRANCH  13  15
ENDBRANCH  11  13
BRANCH  12  20
HETATM   20  C   UNL     1     -10.119   9.779  69.174  1.00  0.00    -0.200 A  
HETATM   21  O   UNL     1      -8.910   7.928  67.110  1.00  0.00    -0.128 OA 
HETATM   22  C   UNL     1     -10.534  10.246  70.439  1.00  0.00    -0.141 A  
HETATM   23  O   UNL     1     -10.982   7.212  67.043  1.00  0.00    -0.369 OA 
HETATM   24  C   UNL     1     -11.063   9.376  71.394  1.00  0.00    -0.450 A  
HETATM   25  N   UNL     1     -10.048   7.823  67.579  1.00  0.00    -0.190 N  
HETATM   26  C   UNL     1     -10.319   8.408  68.891  1.00  0.00    -0.215 A  
HETATM   27  C   UNL     1     -11.193   8.018  71.114  1.00  0.00    -0.287 A  
HETATM   28  C   UNL     1     -10.834   7.531  69.860  1.00  0.00    -0.250 A  
ENDBRANCH  12  20
ENDBRANCH   3   5
ENDBRANCH   2   3
TORSDOF 6
ENDMDL
MODEL       32
REMARK 921   NORMALIZED FREE ENERGY PREDICTED BY IDOCK:   -5.61 KCAL/MOL
REMARK 922        TOTAL FREE ENERGY PREDICTED BY IDOCK:   -8.19 KCAL/MOL
REMARK 923 INTER-LIGAND FREE ENERGY PREDICTED BY IDOCK:   -6.66 KCAL/MOL
REMARK 924 INTRA-LIGAND FREE ENERGY PREDICTED BY IDOCK:   -1.52 KCAL/MOL
REMARK 927      BINDING AFFINITY PREDICTED BY RF-SCORE:    0.00 PKD
ROOT
HETATM    1  C   UNL     1     -12.258  14.722  64.114  1.00  0.00    -0.295 C  
HETATM    2  O   UNL     1     -11.716  14.366  65.391  1.00  0.00    -0.346 OA 
ENDROOT
BRANCH   2   3
HETATM    3  C   UNL     1     -11.736  13.043  65.662  1.00  0.00    -0.375 C  
HETATM    4  O   UNL     1     -12.757  12.386  65.828  1.00  0.00    -0.392 OA 
BRANCH   3   5
HETATM    5  C   UNL     1     -10.357  12.499  65.808  1.00  0.00    -0.288 C  
HETATM    6  C   UNL     1      -9.901  11.598  64.906  1.00  0.00    -0.235 C  
HETATM    7  C   UNL     1     -10.603  11.138  63.645  1.00  0.00    -0.414 C  
HETATM    8  N   UNL     1      -8.688  10.973  65.123  1.00  0.00    -0.120 NA 
HETATM    9  C   UNL     1      -7.958  11.031  66.297  1.00  0.00    -0.148 C  
HETATM   10  C   UNL     1      -6.824  10.035  66.376  1.00  0.00    -0.093 C  
HETATM   11  C   UNL     1      -8.305  11.908  67.274  1.00  0.00    -0.169 C  
HETATM   12  C   UNL     1      -9.528  12.838  67.086  1.00  0.00    -0.223 C  
BRANCH  11  13
HETATM   13  C   UNL     1      -7.540  11.893  68.558  1.00  0.00    -0.127 C  
HETATM   14  O   UNL     1      -7.474  10.919  69.296  1.00  0.00    -0.123 OA 
BRANCH  13  15
HETATM   15  O   UNL     1      -7.001  13.104  68.857  1.00  0.00    -0.101 OA 
BRANCH  15  16
HETATM   16  C   UNL     1      -5.872  13.471  68.038  1.00  0.00    -0.130 C  
HETATM   17  C   UNL     1      -6.822  15.719  67.282  1.00  0.00    -0.220 C  
HETATM   18  C   UNL     1      -5.641  14.983  67.912  1.00  0.00    -0.133 C  
HETATM   19  C   UNL     1      -5.281  15.617  69.254  1.00  0.00    -0.100 C  
ENDBRANCH  15  16
ENDBRANCH  13  15
ENDBRANCH  11  13
BRANCH  12  20
HETATM   20  C   UNL     1     -10.456  12.829  68.310  1.00  0.00    -0.250 A  
HETATM   21  O   UNL     1     -10.307  15.774  67.638  1.00  0.00    -0.268 OA 
HETATM   22  C   UNL     1     -11.017  11.599  68.714  1.00  0.00    -0.274 A  
HETATM   23  O   UNL     1      -9.794  15.880  69.767  1.00  0.00    -0.262 OA 
HETATM   24  C   UNL     1     -11.978  11.539  69.725  1.00  0.00    -0.415 A  
HETATM   25  N   UNL     1     -10.264  15.302  68.779  1.00  0.00    -0.220 N  
HETATM   26  C   UNL     1     -10.858  13.987  69.014  1.00  0.00    -0.243 A  
HETATM   27  C   UNL     1     -12.404  12.702  70.361  1.00  0.00    -0.315 A  
HETATM   28  C   UNL     1     -11.838  13.928  70.018  1.00  0.00    -0.384 A  
ENDBRANCH  12  20
ENDBRANCH   3   5
ENDBRANCH   2   3
TORSDOF 6
ENDMDL
MODEL       33
REMARK 921   NORMALIZED FREE ENERGY PREDICTED BY IDOCK:   -5.61 KCAL/MOL
REMARK 922        TOTAL FREE ENERGY PREDICTED BY IDOCK:   -8.19 KCAL/MOL
REMARK 923 INTER-LIGAND FREE ENERGY PREDICTED BY IDOCK:   -6.95 KCAL/MOL
REMARK 924 INTRA-LIGAND FREE ENERGY PREDICTED BY IDOCK:   -1.24 KCAL/MOL
REMARK 927      BINDING AFFINITY PREDICTED BY RF-SCORE:    0.00 PKD
ROOT
HETATM    1  C   UNL     1     -11.389  16.212  70.296  1.00  0.00    -0.353 C  
HETATM    2  O   UNL     1     -11.489  15.797  68.929  1.00  0.00    -0.334 OA 
ENDROOT
BRANCH   2   3
HETATM    3  C   UNL     1     -10.493  16.242  68.132  1.00  0.00    -0.289 C  
HETATM    4  O   UNL     1     -10.603  17.174  67.344  1.00  0.00    -0.337 OA 
BRANCH   3   5
HETATM    5  C   UNL     1      -9.268  15.407  68.277  1.00  0.00    -0.188 C  
HETATM    6  C   UNL     1      -8.075  16.012  68.488  1.00  0.00    -0.169 C  
HETATM    7  C   UNL     1      -7.833  17.489  68.722  1.00  0.00    -0.242 C  
HETATM    8  N   UNL     1      -6.917  15.259  68.466  1.00  0.00    -0.109 NA 
HETATM    9  C   UNL     1      -6.828  13.943  68.047  1.00  0.00    -0.144 C  
HETATM   10  C   UNL     1      -5.414  13.446  67.847  1.00  0.00    -0.113 C  
HETATM   11  C   UNL     1      -7.956  13.221  67.819  1.00  0.00    -0.166 C  
HETATM   12  C   UNL     1      -9.347  13.873  68.010  1.00  0.00    -0.204 C  
BRANCH  11  13
HETATM   13  C   UNL     1      -7.824  11.827  67.297  1.00  0.00    -0.161 C  
HETATM   14  O   UNL     1      -7.302  11.552  66.225  1.00  0.00    -0.023 OA 
BRANCH  13  15
HETATM   15  O   UNL     1      -8.423  10.911  68.102  1.00  0.00    -0.121 OA 
BRANCH  15  16
HETATM   16  C   UNL     1      -7.791  10.746  69.388  1.00  0.00    -0.087 C  
HETATM   17  C   UNL     1      -9.731   9.481  70.468  1.00  0.00    -0.325 C  
HETATM   18  C   UNL     1      -8.234   9.496  70.160  1.00  0.00    -0.192 C  
HETATM   19  C   UNL     1      -7.833   8.211  69.440  1.00  0.00    -0.105 C  
ENDBRANCH  15  16
ENDBRANCH  13  15
ENDBRANCH  11  13
BRANCH  12  20
HETATM   20  C   UNL     1     -10.278  13.611  66.816  1.00  0.00    -0.268 A  
HETATM   21  O   UNL     1     -11.955  12.677  69.153  1.00  0.00    -0.291 OA 
HETATM   22  C   UNL     1      -9.965  14.219  65.581  1.00  0.00    -0.346 A  
HETATM   23  O   UNL     1     -12.114  10.898  67.881  1.00  0.00    -0.527 OA 
HETATM   24  C   UNL     1     -10.839  14.143  64.496  1.00  0.00    -0.336 A  
HETATM   25  N   UNL     1     -11.861  12.096  68.066  1.00  0.00    -0.333 N  
HETATM   26  C   UNL     1     -11.480  12.872  66.888  1.00  0.00    -0.341 A  
HETATM   27  C   UNL     1     -12.047  13.461  64.611  1.00  0.00    -0.456 A  
HETATM   28  C   UNL     1     -12.368  12.813  65.801  1.00  0.00    -0.388 A  
ENDBRANCH  12  20
ENDBRANCH   3   5
ENDBRANCH   2   3
TORSDOF 6
ENDMDL
MODEL       34
REMARK 921   NORMALIZED FREE ENERGY PREDICTED BY IDOCK:   -5.60 KCAL/MOL
REMARK 922        TOTAL FREE ENERGY PREDICTED BY IDOCK:   -8.18 KCAL/MOL
REMARK 923 INTER-LIGAND FREE ENERGY PREDICTED BY IDOCK:   -6.86 KCAL/MOL
REMARK 924 INTRA-LIGAND FREE ENERGY PREDICTED BY IDOCK:   -1.32 KCAL/MOL
REMARK 927      BINDING AFFINITY PREDICTED BY RF-SCORE:    0.00 PKD
ROOT
HETATM    1  C   UNL     1      -6.357   7.407  70.163  1.00  0.00    -0.034 C  
HETATM    2  O   UNL     1      -7.389   8.000  70.959  1.00  0.00    -0.055 OA 
ENDROOT
BRANCH   2   3
HETATM    3  C   UNL     1      -8.621   7.480  70.764  1.00  0.00    -0.135 C  
HETATM    4  O   UNL     1      -8.835   6.344  70.358  1.00  0.00    -0.148 OA 
BRANCH   3   5
HETATM    5  C   UNL     1      -9.683   8.489  71.032  1.00  0.00    -0.243 C  
HETATM    6  C   UNL     1     -10.592   8.251  72.008  1.00  0.00    -0.296 C  
HETATM    7  C   UNL     1     -10.597   7.092  72.982  1.00  0.00    -0.346 C  
HETATM    8  N   UNL     1     -11.670   9.103  72.156  1.00  0.00    -0.307 NA 
HETATM    9  C   UNL     1     -12.032  10.095  71.263  1.00  0.00    -0.382 C  
HETATM   10  C   UNL     1     -13.402  10.686  71.509  1.00  0.00    -0.359 C  
HETATM   11  C   UNL     1     -11.197  10.439  70.248  1.00  0.00    -0.395 C  
HETATM   12  C   UNL     1      -9.841   9.712  70.077  1.00  0.00    -0.286 C  
BRANCH  11  13
HETATM   13  C   UNL     1     -11.652  11.463  69.259  1.00  0.00    -0.317 C  
HETATM   14  O   UNL     1     -12.282  11.192  68.245  1.00  0.00    -0.613 OA 
BRANCH  13  15
HETATM   15  O   UNL     1     -11.214  12.712  69.563  1.00  0.00    -0.190 OA 
BRANCH  15  16
HETATM   16  C   UNL     1     -12.049  13.775  69.061  1.00  0.00    -0.322 C  
HETATM   17  C   UNL     1     -10.175  15.498  68.844  1.00  0.00    -0.210 C  
HETATM   18  C   UNL     1     -11.328  14.776  68.148  1.00  0.00    -0.324 C  
HETATM   19  C   UNL     1     -10.837  14.119  66.860  1.00  0.00    -0.296 C  
ENDBRANCH  15  16
ENDBRANCH  13  15
ENDBRANCH  11  13
BRANCH  12  20
HETATM   20  C   UNL     1      -9.606   9.260  68.628  1.00  0.00    -0.152 A  
HETATM   21  O   UNL     1      -7.184  10.991  69.162  1.00  0.00    -0.101 OA 
HETATM   22  C   UNL     1     -10.366   8.178  68.134  1.00  0.00    -0.251 A  
HETATM   23  O   UNL     1      -7.863  11.914  67.292  1.00  0.00    -0.151 OA 
HETATM   24  C   UNL     1     -10.106   7.623  66.881  1.00  0.00    -0.348 A  
HETATM   25  N   UNL     1      -7.841  10.990  68.115  1.00  0.00    -0.110 N  
HETATM   26  C   UNL     1      -8.613   9.796  67.776  1.00  0.00    -0.125 A  
HETATM   27  C   UNL     1      -9.082   8.130  66.085  1.00  0.00    -0.232 A  
HETATM   28  C   UNL     1      -8.340   9.224  66.523  1.00  0.00    -0.126 A  
ENDBRANCH  12  20
ENDBRANCH   3   5
ENDBRANCH   2   3
TORSDOF 6
ENDMDL
MODEL       35
REMARK 921   NORMALIZED FREE ENERGY PREDICTED BY IDOCK:   -5.57 KCAL/MOL
REMARK 922        TOTAL FREE ENERGY PREDICTED BY IDOCK:   -8.13 KCAL/MOL
REMARK 923 INTER-LIGAND FREE ENERGY PREDICTED BY IDOCK:   -6.99 KCAL/MOL
REMARK 924 INTRA-LIGAND FREE ENERGY PREDICTED BY IDOCK:   -1.14 KCAL/MOL
REMARK 927      BINDING AFFINITY PREDICTED BY RF-SCORE:    0.00 PKD
ROOT
HETATM    1  C   UNL     1     -11.664  14.220  64.531  1.00  0.00    -0.418 C  
HETATM    2  O   UNL     1     -10.365  13.698  64.835  1.00  0.00    -0.377 OA 
ENDROOT
BRANCH   2   3
HETATM    3  C   UNL     1      -9.987  13.844  66.124  1.00  0.00    -0.310 C  
HETATM    4  O   UNL     1      -9.102  14.602  66.504  1.00  0.00    -0.261 OA 
BRANCH   3   5
HETATM    5  C   UNL     1     -10.733  12.912  67.016  1.00  0.00    -0.273 C  
HETATM    6  C   UNL     1     -11.544  13.419  67.974  1.00  0.00    -0.334 C  
HETATM    7  C   UNL     1     -11.897  14.875  68.190  1.00  0.00    -0.307 C  
HETATM    8  N   UNL     1     -12.112  12.568  68.904  1.00  0.00    -0.210 NA 
HETATM    9  C   UNL     1     -11.776  11.238  69.079  1.00  0.00    -0.342 C  
HETATM   10  C   UNL     1     -12.330  10.615  70.341  1.00  0.00    -0.428 C  
HETATM   11  C   UNL     1     -10.981  10.609  68.175  1.00  0.00    -0.321 C  
HETATM   12  C   UNL     1     -10.434  11.383  66.951  1.00  0.00    -0.278 C  
BRANCH  11  13
HETATM   13  C   UNL     1     -10.578   9.193  68.434  1.00  0.00    -0.172 C  
HETATM   14  O   UNL     1     -10.776   8.278  67.646  1.00  0.00    -0.219 OA 
BRANCH  13  15
HETATM   15  O   UNL     1     -10.047   9.021  69.673  1.00  0.00    -0.185 OA 
BRANCH  15  16
HETATM   16  C   UNL     1      -9.667   7.663  69.973  1.00  0.00    -0.172 C  
HETATM   17  C   UNL     1     -10.260   7.772  72.457  1.00  0.00    -0.320 C  
HETATM   18  C   UNL     1     -10.442   7.026  71.136  1.00  0.00    -0.229 C  
HETATM   19  C   UNL     1     -11.927   6.878  70.814  1.00  0.00    -0.424 C  
ENDBRANCH  15  16
ENDBRANCH  13  15
ENDBRANCH  11  13
BRANCH  12  20
HETATM   20  C   UNL     1      -8.925  11.166  66.756  1.00  0.00    -0.169 A  
HETATM   21  O   UNL     1     -10.022  10.550  64.006  1.00  0.00    -0.320 OA 
HETATM   22  C   UNL     1      -8.047  11.669  67.739  1.00  0.00    -0.139 A  
HETATM   23  O   UNL     1      -8.829   8.737  64.316  1.00  0.00    -0.078 OA 
HETATM   24  C   UNL     1      -6.663  11.637  67.558  1.00  0.00    -0.096 A  
HETATM   25  N   UNL     1      -9.138   9.906  64.580  1.00  0.00    -0.233 N  
HETATM   26  C   UNL     1      -8.346  10.573  65.612  1.00  0.00    -0.167 A  
HETATM   27  C   UNL     1      -6.118  11.102  66.394  1.00  0.00    -0.137 A  
HETATM   28  C   UNL     1      -6.954  10.558  65.423  1.00  0.00    -0.074 A  
ENDBRANCH  12  20
ENDBRANCH   3   5
ENDBRANCH   2   3
TORSDOF 6
ENDMDL
MODEL       36
REMARK 921   NORMALIZED FREE ENERGY PREDICTED BY IDOCK:   -5.55 KCAL/MOL
REMARK 922        TOTAL FREE ENERGY PREDICTED BY IDOCK:   -8.11 KCAL/MOL
REMARK 923 INTER-LIGAND FREE ENERGY PREDICTED BY IDOCK:   -6.78 KCAL/MOL
REMARK 924 INTRA-LIGAND FREE ENERGY PREDICTED BY IDOCK:   -1.33 KCAL/MOL
REMARK 927      BINDING AFFINITY PREDICTED BY RF-SCORE:    0.00 PKD
ROOT
HETATM    1  C   UNL     1     -12.292  13.954  65.841  1.00  0.00    -0.483 C  
HETATM    2  O   UNL     1     -11.043  13.287  66.058  1.00  0.00    -0.282 OA 
ENDROOT
BRANCH   2   3
HETATM    3  C   UNL     1     -10.536  13.432  67.302  1.00  0.00    -0.248 C  
HETATM    4  O   UNL     1      -9.736  14.303  67.626  1.00  0.00    -0.215 OA 
BRANCH   3   5
HETATM    5  C   UNL     1     -11.014  12.353  68.211  1.00  0.00    -0.269 C  
HETATM    6  C   UNL     1     -11.753  12.681  69.297  1.00  0.00    -0.322 C  
HETATM    7  C   UNL     1     -12.277  14.054  69.659  1.00  0.00    -0.383 C  
HETATM    8  N   UNL     1     -12.064  11.707  70.227  1.00  0.00    -0.358 NA 
HETATM    9  C   UNL     1     -11.521  10.435  70.264  1.00  0.00    -0.325 C  
HETATM   10  C   UNL     1     -11.806   9.671  71.537  1.00  0.00    -0.483 C  
HETATM   11  C   UNL     1     -10.774   9.981  69.224  1.00  0.00    -0.249 C  
HETATM   12  C   UNL     1     -10.512  10.891  68.000  1.00  0.00    -0.222 C  
BRANCH  11  13
HETATM   13  C   UNL     1     -10.142   8.630  69.329  1.00  0.00    -0.202 C  
HETATM   14  O   UNL     1      -9.295   8.342  70.164  1.00  0.00    -0.160 OA 
BRANCH  13  15
HETATM   15  O   UNL     1     -10.547   7.788  68.343  1.00  0.00    -0.187 OA 
BRANCH  15  16
HETATM   16  C   UNL     1     -10.920   6.473  68.801  1.00  0.00    -0.305 C  
HETATM   17  C   UNL     1     -10.520   5.298  66.566  1.00  0.00    -0.354 C  
HETATM   18  C   UNL     1     -10.222   5.320  68.065  1.00  0.00    -0.204 C  
HETATM   19  C   UNL     1      -8.714   5.326  68.301  1.00  0.00    -0.101 C  
ENDBRANCH  15  16
ENDBRANCH  13  15
ENDBRANCH  11  13
BRANCH  12  20
HETATM   20  C   UNL     1      -9.028  10.915  67.603  1.00  0.00    -0.140 A  
HETATM   21  O   UNL     1     -10.392  10.382  64.957  1.00  0.00    -0.306 OA 
HETATM   22  C   UNL     1      -8.101  11.455  68.519  1.00  0.00    -0.149 A  
HETATM   23  O   UNL     1      -8.936   8.742  64.931  1.00  0.00    -0.139 OA 
HETATM   24  C   UNL     1      -6.762  11.641  68.170  1.00  0.00    -0.063 A  
HETATM   25  N   UNL     1      -9.360   9.827  65.350  1.00  0.00    -0.232 N  
HETATM   26  C   UNL     1      -8.533  10.512  66.342  1.00  0.00    -0.143 A  
HETATM   27  C   UNL     1      -6.312  11.292  66.899  1.00  0.00    -0.125 A  
HETATM   28  C   UNL     1      -7.190  10.716  65.985  1.00  0.00    -0.131 A  
ENDBRANCH  12  20
ENDBRANCH   3   5
ENDBRANCH   2   3
TORSDOF 6
ENDMDL
MODEL       37
REMARK 921   NORMALIZED FREE ENERGY PREDICTED BY IDOCK:   -5.55 KCAL/MOL
REMARK 922        TOTAL FREE ENERGY PREDICTED BY IDOCK:   -8.10 KCAL/MOL
REMARK 923 INTER-LIGAND FREE ENERGY PREDICTED BY IDOCK:   -6.38 KCAL/MOL
REMARK 924 INTRA-LIGAND FREE ENERGY PREDICTED BY IDOCK:   -1.73 KCAL/MOL
REMARK 927      BINDING AFFINITY PREDICTED BY RF-SCORE:    0.00 PKD
ROOT
HETATM    1  C   UNL     1     -11.891  12.560  66.233  1.00  0.00    -0.390 C  
HETATM    2  O   UNL     1     -11.820  11.557  67.253  1.00  0.00    -0.609 OA 
ENDROOT
BRANCH   2   3
HETATM    3  C   UNL     1     -11.105  11.912  68.343  1.00  0.00    -0.244 C  
HETATM    4  O   UNL     1     -10.605  13.018  68.512  1.00  0.00    -0.249 OA 
BRANCH   3   5
HETATM    5  C   UNL     1     -10.937  10.764  69.278  1.00  0.00    -0.292 C  
HETATM    6  C   UNL     1     -11.545  10.801  70.487  1.00  0.00    -0.330 C  
HETATM    7  C   UNL     1     -12.511  11.854  70.988  1.00  0.00    -0.390 C  
HETATM    8  N   UNL     1     -11.267   9.818  71.418  1.00  0.00    -0.352 NA 
HETATM    9  C   UNL     1     -10.258   8.879  71.310  1.00  0.00    -0.291 C  
HETATM   10  C   UNL     1      -9.982   8.110  72.582  1.00  0.00    -0.371 C  
HETATM   11  C   UNL     1      -9.583   8.732  70.140  1.00  0.00    -0.187 C  
HETATM   12  C   UNL     1      -9.930   9.626  68.926  1.00  0.00    -0.186 C  
BRANCH  11  13
HETATM   13  C   UNL     1      -8.449   7.759  70.081  1.00  0.00    -0.134 C  
HETATM   14  O   UNL     1      -7.297   8.044  70.379  1.00  0.00    -0.061 OA 
BRANCH  13  15
HETATM   15  O   UNL     1      -8.823   6.554  69.578  1.00  0.00    -0.136 OA 
BRANCH  15  16
HETATM   16  C   UNL     1      -8.444   6.339  68.204  1.00  0.00    -0.114 C  
HETATM   17  C   UNL     1      -9.569   4.056  67.978  1.00  0.00    -0.195 C  
HETATM   18  C   UNL     1      -9.417   5.463  67.402  1.00  0.00    -0.127 C  
HETATM   19  C   UNL     1     -10.786   6.123  67.257  1.00  0.00    -0.438 C  
ENDBRANCH  15  16
ENDBRANCH  13  15
ENDBRANCH  11  13
BRANCH  12  20
HETATM   20  C   UNL     1      -8.677  10.238  68.280  1.00  0.00    -0.126 A  
HETATM   21  O   UNL     1     -10.240   9.283  65.873  1.00  0.00    -0.245 OA 
HETATM   22  C   UNL     1      -7.860  11.073  69.070  1.00  0.00    -0.126 A  
HETATM   23  O   UNL     1      -8.310   8.342  65.426  1.00  0.00    -0.141 OA 
HETATM   24  C   UNL     1      -6.790  11.775  68.512  1.00  0.00    -0.075 A  
HETATM   25  N   UNL     1      -9.019   9.165  66.021  1.00  0.00    -0.168 N  
HETATM   26  C   UNL     1      -8.331  10.092  66.917  1.00  0.00    -0.125 A  
HETATM   27  C   UNL     1      -6.506  11.663  67.153  1.00  0.00    -0.137 A  
HETATM   28  C   UNL     1      -7.266  10.813  66.354  1.00  0.00    -0.138 A  
ENDBRANCH  12  20
ENDBRANCH   3   5
ENDBRANCH   2   3
TORSDOF 6
ENDMDL
MODEL       38
REMARK 921   NORMALIZED FREE ENERGY PREDICTED BY IDOCK:   -5.54 KCAL/MOL
REMARK 922        TOTAL FREE ENERGY PREDICTED BY IDOCK:   -8.09 KCAL/MOL
REMARK 923 INTER-LIGAND FREE ENERGY PREDICTED BY IDOCK:   -6.62 KCAL/MOL
REMARK 924 INTRA-LIGAND FREE ENERGY PREDICTED BY IDOCK:   -1.47 KCAL/MOL
REMARK 927      BINDING AFFINITY PREDICTED BY RF-SCORE:    0.00 PKD
ROOT
HETATM    1  C   UNL     1     -11.795  13.868  68.399  1.00  0.00    -0.374 C  
HETATM    2  O   UNL     1     -11.079  12.782  68.999  1.00  0.00    -0.251 OA 
ENDROOT
BRANCH   2   3
HETATM    3  C   UNL     1     -11.409  11.560  68.526  1.00  0.00    -0.277 C  
HETATM    4  O   UNL     1     -11.990  11.363  67.465  1.00  0.00    -0.626 OA 
BRANCH   3   5
HETATM    5  C   UNL     1     -11.043  10.488  69.494  1.00  0.00    -0.320 C  
HETATM    6  C   UNL     1     -11.624  10.474  70.717  1.00  0.00    -0.338 C  
HETATM    7  C   UNL     1     -12.734  11.381  71.207  1.00  0.00    -0.498 C  
HETATM    8  N   UNL     1     -11.175   9.582  71.673  1.00  0.00    -0.366 NA 
HETATM    9  C   UNL     1     -10.033   8.811  71.570  1.00  0.00    -0.300 C  
HETATM   10  C   UNL     1      -9.613   8.143  72.860  1.00  0.00    -0.345 C  
HETATM   11  C   UNL     1      -9.367   8.728  70.389  1.00  0.00    -0.205 C  
HETATM   12  C   UNL     1      -9.876   9.511  69.154  1.00  0.00    -0.176 C  
BRANCH  11  13
HETATM   13  C   UNL     1      -8.096   7.944  70.333  1.00  0.00    -0.114 C  
HETATM   14  O   UNL     1      -7.060   8.295  70.882  1.00  0.00    -0.047 OA 
BRANCH  13  15
HETATM   15  O   UNL     1      -8.194   6.849  69.535  1.00  0.00    -0.127 OA 
BRANCH  15  16
HETATM   16  C   UNL     1      -8.723   5.680  70.193  1.00  0.00    -0.137 C  
HETATM   17  C   UNL     1     -11.125   5.989  69.377  1.00  0.00    -0.445 C  
HETATM   18  C   UNL     1      -9.930   5.044  69.489  1.00  0.00    -0.302 C  
HETATM   19  C   UNL     1      -9.561   4.496  68.112  1.00  0.00    -0.203 C  
ENDBRANCH  15  16
ENDBRANCH  13  15
ENDBRANCH  11  13
BRANCH  12  20
HETATM   20  C   UNL     1      -8.750  10.287  68.455  1.00  0.00    -0.130 A  
HETATM   21  O   UNL     1     -10.138   8.938  66.131  1.00  0.00    -0.291 OA 
HETATM   22  C   UNL     1      -8.083  11.295  69.184  1.00  0.00     0.019 A  
HETATM   23  O   UNL     1      -8.077   8.315  65.711  1.00  0.00    -0.097 OA 
HETATM   24  C   UNL     1      -7.151  12.134  68.570  1.00  0.00    -0.099 A  
HETATM   25  N   UNL     1      -8.913   9.039  66.268  1.00  0.00    -0.152 N  
HETATM   26  C   UNL     1      -8.390  10.121  67.099  1.00  0.00    -0.125 A  
HETATM   27  C   UNL     1      -6.859  11.991  67.217  1.00  0.00    -0.150 A  
HETATM   28  C   UNL     1      -7.466  10.979  66.479  1.00  0.00    -0.145 A  
ENDBRANCH  12  20
ENDBRANCH   3   5
ENDBRANCH   2   3
TORSDOF 6
ENDMDL
MODEL       39
REMARK 921   NORMALIZED FREE ENERGY PREDICTED BY IDOCK:   -5.54 KCAL/MOL
REMARK 922        TOTAL FREE ENERGY PREDICTED BY IDOCK:   -8.08 KCAL/MOL
REMARK 923 INTER-LIGAND FREE ENERGY PREDICTED BY IDOCK:   -6.13 KCAL/MOL
REMARK 924 INTRA-LIGAND FREE ENERGY PREDICTED BY IDOCK:   -1.95 KCAL/MOL
REMARK 927      BINDING AFFINITY PREDICTED BY RF-SCORE:    0.00 PKD
ROOT
HETATM    1  C   UNL     1     -10.495  14.195  65.054  1.00  0.00    -0.425 C  
HETATM    2  O   UNL     1     -11.180  13.492  66.098  1.00  0.00    -0.291 OA 
ENDROOT
BRANCH   2   3
HETATM    3  C   UNL     1     -10.573  13.546  67.304  1.00  0.00    -0.263 C  
HETATM    4  O   UNL     1      -9.698  14.350  67.603  1.00  0.00    -0.215 OA 
BRANCH   3   5
HETATM    5  C   UNL     1     -11.052  12.455  68.199  1.00  0.00    -0.288 C  
HETATM    6  C   UNL     1     -11.761  12.772  69.308  1.00  0.00    -0.319 C  
HETATM    7  C   UNL     1     -12.253  14.146  69.712  1.00  0.00    -0.397 C  
HETATM    8  N   UNL     1     -12.070  11.783  70.223  1.00  0.00    -0.351 NA 
HETATM    9  C   UNL     1     -11.550  10.501  70.219  1.00  0.00    -0.332 C  
HETATM   10  C   UNL     1     -11.822   9.714  71.481  1.00  0.00    -0.483 C  
HETATM   11  C   UNL     1     -10.833  10.057  69.154  1.00  0.00    -0.253 C  
HETATM   12  C   UNL     1     -10.581  10.990  67.945  1.00  0.00    -0.244 C  
BRANCH  11  13
HETATM   13  C   UNL     1     -10.224   8.694  69.215  1.00  0.00    -0.211 C  
HETATM   14  O   UNL     1     -10.721   7.707  68.689  1.00  0.00    -0.163 OA 
BRANCH  13  15
HETATM   15  O   UNL     1      -9.109   8.656  69.990  1.00  0.00    -0.148 OA 
BRANCH  15  16
HETATM   16  C   UNL     1      -8.436   7.380  70.001  1.00  0.00    -0.138 C  
HETATM   17  C   UNL     1      -7.334   7.649  67.711  1.00  0.00    -0.099 C  
HETATM   18  C   UNL     1      -7.131   7.341  69.194  1.00  0.00    -0.080 C  
HETATM   19  C   UNL     1      -6.070   8.267  69.784  1.00  0.00    -0.029 C  
ENDBRANCH  15  16
ENDBRANCH  13  15
ENDBRANCH  11  13
BRANCH  12  20
HETATM   20  C   UNL     1      -9.106  10.996  67.516  1.00  0.00    -0.138 A  
HETATM   21  O   UNL     1     -10.536  10.551  64.889  1.00  0.00    -0.301 OA 
HETATM   22  C   UNL     1      -8.149  11.498  68.425  1.00  0.00    -0.149 A  
HETATM   23  O   UNL     1      -9.111   8.886  64.793  1.00  0.00    -0.118 OA 
HETATM   24  C   UNL     1      -6.815  11.667  68.050  1.00  0.00    -0.072 A  
HETATM   25  N   UNL     1      -9.506   9.968  65.246  1.00  0.00    -0.241 N  
HETATM   26  C   UNL     1      -8.646  10.614  66.236  1.00  0.00    -0.153 A  
HETATM   27  C   UNL     1      -6.399  11.341  66.763  1.00  0.00    -0.139 A  
HETATM   28  C   UNL     1      -7.307  10.803  65.855  1.00  0.00    -0.094 A  
ENDBRANCH  12  20
ENDBRANCH   3   5
ENDBRANCH   2   3
TORSDOF 6
ENDMDL
MODEL       40
REMARK 921   NORMALIZED FREE ENERGY PREDICTED BY IDOCK:   -5.53 KCAL/MOL
REMARK 922        TOTAL FREE ENERGY PREDICTED BY IDOCK:   -8.07 KCAL/MOL
REMARK 923 INTER-LIGAND FREE ENERGY PREDICTED BY IDOCK:   -6.17 KCAL/MOL
REMARK 924 INTRA-LIGAND FREE ENERGY PREDICTED BY IDOCK:   -1.90 KCAL/MOL
REMARK 927      BINDING AFFINITY PREDICTED BY RF-SCORE:    0.00 PKD
ROOT
HETATM    1  C   UNL     1     -11.998  14.162  68.482  1.00  0.00    -0.332 C  
HETATM    2  O   UNL     1     -10.963  13.335  67.938  1.00  0.00    -0.238 OA 
ENDROOT
BRANCH   2   3
HETATM    3  C   UNL     1     -11.387  12.145  67.457  1.00  0.00    -0.326 C  
HETATM    4  O   UNL     1     -12.193  11.417  68.025  1.00  0.00    -0.607 OA 
BRANCH   3   5
HETATM    5  C   UNL     1     -10.692  11.797  66.186  1.00  0.00    -0.320 C  
HETATM    6  C   UNL     1     -11.319  12.021  65.006  1.00  0.00    -0.310 C  
HETATM    7  C   UNL     1     -12.646  12.719  64.800  1.00  0.00    -0.518 C  
HETATM    8  N   UNL     1     -10.750  11.557  63.836  1.00  0.00    -0.365 NA 
HETATM    9  C   UNL     1      -9.672  10.694  63.759  1.00  0.00    -0.327 C  
HETATM   10  C   UNL     1      -9.431  10.116  62.383  1.00  0.00    -0.244 C  
HETATM   11  C   UNL     1      -8.950  10.401  64.872  1.00  0.00    -0.225 C  
HETATM   12  C   UNL     1      -9.340  11.021  66.236  1.00  0.00    -0.206 C  
BRANCH  11  13
HETATM   13  C   UNL     1      -7.837   9.408  64.768  1.00  0.00    -0.118 C  
HETATM   14  O   UNL     1      -6.668   9.719  64.587  1.00  0.00    -0.100 OA 
BRANCH  13  15
HETATM   15  O   UNL     1      -8.280   8.125  64.809  1.00  0.00    -0.149 OA 
BRANCH  15  16
HETATM   16  C   UNL     1      -7.233   7.134  64.792  1.00  0.00    -0.072 C  
HETATM   17  C   UNL     1      -6.690   7.287  67.284  1.00  0.00    -0.068 C  
HETATM   18  C   UNL     1      -7.052   6.374  66.113  1.00  0.00    -0.067 C  
HETATM   19  C   UNL     1      -8.279   5.535  66.459  1.00  0.00    -0.105 C  
ENDBRANCH  15  16
ENDBRANCH  13  15
ENDBRANCH  11  13
BRANCH  12  20
HETATM   20  C   UNL     1      -9.397   9.970  67.355  1.00  0.00    -0.167 A  
HETATM   21  O   UNL     1      -7.907  12.242  68.684  1.00  0.00    -0.123 OA 
HETATM   22  C   UNL     1     -10.297   8.893  67.213  1.00  0.00    -0.350 A  
HETATM   23  O   UNL     1      -6.511  10.609  69.126  1.00  0.00    -0.049 OA 
HETATM   24  C   UNL     1     -10.505   7.983  68.251  1.00  0.00    -0.210 A  
HETATM   25  N   UNL     1      -7.621  11.045  68.790  1.00  0.00    -0.119 N  
HETATM   26  C   UNL     1      -8.670  10.053  68.564  1.00  0.00    -0.123 A  
HETATM   27  C   UNL     1      -9.823   8.121  69.456  1.00  0.00    -0.181 A  
HETATM   28  C   UNL     1      -8.895   9.147  69.614  1.00  0.00    -0.152 A  
ENDBRANCH  12  20
ENDBRANCH   3   5
ENDBRANCH   2   3
TORSDOF 6
ENDMDL
MODEL       41
REMARK 921   NORMALIZED FREE ENERGY PREDICTED BY IDOCK:   -5.51 KCAL/MOL
REMARK 922        TOTAL FREE ENERGY PREDICTED BY IDOCK:   -8.05 KCAL/MOL
REMARK 923 INTER-LIGAND FREE ENERGY PREDICTED BY IDOCK:   -6.22 KCAL/MOL
REMARK 924 INTRA-LIGAND FREE ENERGY PREDICTED BY IDOCK:   -1.84 KCAL/MOL
REMARK 927      BINDING AFFINITY PREDICTED BY RF-SCORE:    0.00 PKD
ROOT
HETATM    1  C   UNL     1     -10.591   6.889  68.560  1.00  0.00    -0.212 C  
HETATM    2  O   UNL     1     -10.760   8.249  68.141  1.00  0.00    -0.151 OA 
ENDROOT
BRANCH   2   3
HETATM    3  C   UNL     1     -10.657   9.161  69.133  1.00  0.00    -0.208 C  
HETATM    4  O   UNL     1     -11.592   9.524  69.837  1.00  0.00    -0.135 OA 
BRANCH   3   5
HETATM    5  C   UNL     1      -9.280   9.723  69.211  1.00  0.00    -0.197 C  
HETATM    6  C   UNL     1      -8.532   9.492  70.316  1.00  0.00    -0.207 C  
HETATM    7  C   UNL     1      -8.888   8.598  71.484  1.00  0.00    -0.285 C  
HETATM    8  N   UNL     1      -7.320  10.139  70.463  1.00  0.00    -0.286 NA 
HETATM    9  C   UNL     1      -6.866  11.175  69.668  1.00  0.00    -0.117 C  
HETATM   10  C   UNL     1      -5.653  11.895  70.213  1.00  0.00    -0.145 C  
HETATM   11  C   UNL     1      -7.521  11.495  68.521  1.00  0.00    -0.115 C  
HETATM   12  C   UNL     1      -8.789  10.709  68.107  1.00  0.00    -0.134 C  
BRANCH  11  13
HETATM   13  C   UNL     1      -7.046  12.667  67.724  1.00  0.00    -0.126 C  
HETATM   14  O   UNL     1      -6.196  12.590  66.847  1.00  0.00    -0.216 OA 
BRANCH  13  15
HETATM   15  O   UNL     1      -7.598  13.837  68.140  1.00  0.00    -0.103 OA 
BRANCH  15  16
HETATM   16  C   UNL     1      -7.196  14.989  67.373  1.00  0.00    -0.194 C  
HETATM   17  C   UNL     1      -9.324  15.118  65.965  1.00  0.00    -0.326 C  
HETATM   18  C   UNL     1      -8.357  15.865  66.882  1.00  0.00    -0.281 C  
HETATM   19  C   UNL     1      -9.118  16.503  68.042  1.00  0.00    -0.209 C  
ENDBRANCH  15  16
ENDBRANCH  13  15
ENDBRANCH  11  13
BRANCH  12  20
HETATM   20  C   UNL     1      -9.943  11.642  67.707  1.00  0.00    -0.191 A  
HETATM   21  O   UNL     1      -9.898   9.660  65.423  1.00  0.00    -0.315 OA 
HETATM   22  C   UNL     1     -10.473  12.505  68.689  1.00  0.00    -0.220 A  
HETATM   23  O   UNL     1      -9.841  11.522  64.266  1.00  0.00    -0.240 OA 
HETATM   24  C   UNL     1     -11.611  13.273  68.439  1.00  0.00    -0.372 A  
HETATM   25  N   UNL     1     -10.051  10.881  65.304  1.00  0.00    -0.264 N  
HETATM   26  C   UNL     1     -10.573  11.634  66.442  1.00  0.00    -0.258 A  
HETATM   27  C   UNL     1     -12.251  13.202  67.204  1.00  0.00    -0.250 A  
HETATM   28  C   UNL     1     -11.729  12.393  66.198  1.00  0.00    -0.460 A  
ENDBRANCH  12  20
ENDBRANCH   3   5
ENDBRANCH   2   3
TORSDOF 6
ENDMDL
MODEL       42
REMARK 921   NORMALIZED FREE ENERGY PREDICTED BY IDOCK:   -5.49 KCAL/MOL
REMARK 922        TOTAL FREE ENERGY PREDICTED BY IDOCK:   -8.02 KCAL/MOL
REMARK 923 INTER-LIGAND FREE ENERGY PREDICTED BY IDOCK:   -6.56 KCAL/MOL
REMARK 924 INTRA-LIGAND FREE ENERGY PREDICTED BY IDOCK:   -1.46 KCAL/MOL
REMARK 927      BINDING AFFINITY PREDICTED BY RF-SCORE:    0.00 PKD
ROOT
HETATM    1  C   UNL     1     -10.943  16.404  68.942  1.00  0.00    -0.332 C  
HETATM    2  O   UNL     1      -9.652  15.801  69.091  1.00  0.00    -0.220 OA 
ENDROOT
BRANCH   2   3
HETATM    3  C   UNL     1      -8.893  15.811  67.973  1.00  0.00    -0.176 C  
HETATM    4  O   UNL     1      -8.869  16.729  67.162  1.00  0.00    -0.193 OA 
BRANCH   3   5
HETATM    5  C   UNL     1      -8.147  14.531  67.814  1.00  0.00    -0.166 C  
HETATM    6  C   UNL     1      -6.807  14.566  67.623  1.00  0.00    -0.182 C  
HETATM    7  C   UNL     1      -5.913  15.787  67.668  1.00  0.00    -0.172 C  
HETATM    8  N   UNL     1      -6.133  13.398  67.317  1.00  0.00    -0.286 NA 
HETATM    9  C   UNL     1      -6.731  12.195  66.987  1.00  0.00    -0.071 C  
HETATM   10  C   UNL     1      -5.783  11.163  66.419  1.00  0.00    -0.146 C  
HETATM   11  C   UNL     1      -8.069  12.029  67.151  1.00  0.00    -0.177 C  
HETATM   12  C   UNL     1      -8.936  13.191  67.693  1.00  0.00    -0.192 C  
BRANCH  11  13
HETATM   13  C   UNL     1      -8.692  10.742  66.716  1.00  0.00    -0.143 C  
HETATM   14  O   UNL     1      -9.131  10.549  65.590  1.00  0.00    -0.167 OA 
BRANCH  13  15
HETATM   15  O   UNL     1      -8.797   9.844  67.730  1.00  0.00    -0.128 OA 
BRANCH  15  16
HETATM   16  C   UNL     1     -10.111   9.273  67.886  1.00  0.00    -0.200 C  
HETATM   17  C   UNL     1      -9.399   7.419  69.494  1.00  0.00    -0.156 C  
HETATM   18  C   UNL     1     -10.352   8.586  69.238  1.00  0.00    -0.227 C  
HETATM   19  C   UNL     1     -10.294   9.577  70.398  1.00  0.00    -0.334 C  
ENDBRANCH  15  16
ENDBRANCH  13  15
ENDBRANCH  11  13
BRANCH  12  20
HETATM   20  C   UNL     1     -10.197  13.417  66.845  1.00  0.00    -0.252 A  
HETATM   21  O   UNL     1     -11.353  12.913  69.594  1.00  0.00    -0.201 OA 
HETATM   22  C   UNL     1     -10.046  13.998  65.568  1.00  0.00    -0.343 A  
HETATM   23  O   UNL     1     -12.535  11.462  68.451  1.00  0.00    -0.379 OA 
HETATM   24  C   UNL     1     -11.156  14.364  64.805  1.00  0.00    -0.402 A  
HETATM   25  N   UNL     1     -11.804  12.458  68.538  1.00  0.00    -0.323 N  
HETATM   26  C   UNL     1     -11.514  13.164  67.291  1.00  0.00    -0.331 A  
HETATM   27  C   UNL     1     -12.444  14.161  65.292  1.00  0.00    -0.474 A  
HETATM   28  C   UNL     1     -12.629  13.550  66.530  1.00  0.00    -0.181 A  
ENDBRANCH  12  20
ENDBRANCH   3   5
ENDBRANCH   2   3
TORSDOF 6
ENDMDL
MODEL       43
REMARK 921   NORMALIZED FREE ENERGY PREDICTED BY IDOCK:   -5.48 KCAL/MOL
REMARK 922        TOTAL FREE ENERGY PREDICTED BY IDOCK:   -8.00 KCAL/MOL
REMARK 923 INTER-LIGAND FREE ENERGY PREDICTED BY IDOCK:   -6.25 KCAL/MOL
REMARK 924 INTRA-LIGAND FREE ENERGY PREDICTED BY IDOCK:   -1.75 KCAL/MOL
REMARK 927      BINDING AFFINITY PREDICTED BY RF-SCORE:    0.00 PKD
ROOT
HETATM    1  C   UNL     1     -11.264   6.552  70.698  1.00  0.00    -0.329 C  
HETATM    2  O   UNL     1     -11.685   7.920  70.764  1.00  0.00    -0.284 OA 
ENDROOT
BRANCH   2   3
HETATM    3  C   UNL     1     -10.742   8.778  71.213  1.00  0.00    -0.269 C  
HETATM    4  O   UNL     1      -9.965   8.534  72.129  1.00  0.00    -0.269 OA 
BRANCH   3   5
HETATM    5  C   UNL     1     -10.818  10.085  70.503  1.00  0.00    -0.380 C  
HETATM    6  C   UNL     1     -11.875  10.901  70.729  1.00  0.00    -0.319 C  
HETATM    7  C   UNL     1     -12.980  10.698  71.744  1.00  0.00    -0.577 C  
HETATM    8  N   UNL     1     -12.033  12.038  69.959  1.00  0.00    -0.339 NA 
HETATM    9  C   UNL     1     -11.308  12.338  68.820  1.00  0.00    -0.289 C  
HETATM   10  C   UNL     1     -11.866  13.485  68.009  1.00  0.00    -0.400 C  
HETATM   11  C   UNL     1     -10.213  11.603  68.493  1.00  0.00    -0.216 C  
HETATM   12  C   UNL     1      -9.780  10.415  69.386  1.00  0.00    -0.222 C  
BRANCH  11  13
HETATM   13  C   UNL     1      -9.496  11.908  67.218  1.00  0.00    -0.175 C  
HETATM   14  O   UNL     1      -9.804  11.425  66.136  1.00  0.00    -0.208 OA 
BRANCH  13  15
HETATM   15  O   UNL     1      -8.416  12.710  67.406  1.00  0.00    -0.168 OA 
BRANCH  15  16
HETATM   16  C   UNL     1      -7.147  12.036  67.286  1.00  0.00    -0.149 C  
HETATM   17  C   UNL     1      -5.718  14.062  67.905  1.00  0.00    -0.116 C  
HETATM   18  C   UNL     1      -6.040  12.596  68.190  1.00  0.00    -0.080 C  
HETATM   19  C   UNL     1      -6.363  12.405  69.669  1.00  0.00    -0.107 C  
ENDBRANCH  15  16
ENDBRANCH  13  15
ENDBRANCH  11  13
BRANCH  12  20
HETATM   20  C   UNL     1      -9.496   9.147  68.566  1.00  0.00    -0.151 A  
HETATM   21  O   UNL     1      -7.218   9.149  70.556  1.00  0.00    -0.071 OA 
HETATM   22  C   UNL     1     -10.525   8.639  67.745  1.00  0.00    -0.287 A  
HETATM   23  O   UNL     1      -6.061   8.923  68.707  1.00  0.00    -0.044 OA 
HETATM   24  C   UNL     1     -10.387   7.416  67.086  1.00  0.00    -0.377 A  
HETATM   25  N   UNL     1      -7.114   8.874  69.356  1.00  0.00    -0.056 N  
HETATM   26  C   UNL     1      -8.298   8.400  68.642  1.00  0.00    -0.120 A  
HETATM   27  C   UNL     1      -9.221   6.669  67.226  1.00  0.00    -0.129 A  
HETATM   28  C   UNL     1      -8.169   7.162  67.993  1.00  0.00    -0.120 A  
ENDBRANCH  12  20
ENDBRANCH   3   5
ENDBRANCH   2   3
TORSDOF 6
ENDMDL
MODEL       44
REMARK 921   NORMALIZED FREE ENERGY PREDICTED BY IDOCK:   -5.45 KCAL/MOL
REMARK 922        TOTAL FREE ENERGY PREDICTED BY IDOCK:   -7.97 KCAL/MOL
REMARK 923 INTER-LIGAND FREE ENERGY PREDICTED BY IDOCK:   -6.80 KCAL/MOL
REMARK 924 INTRA-LIGAND FREE ENERGY PREDICTED BY IDOCK:   -1.17 KCAL/MOL
REMARK 927      BINDING AFFINITY PREDICTED BY RF-SCORE:    0.00 PKD
ROOT
HETATM    1  C   UNL     1      -7.758  20.078  67.611  1.00  0.00    -0.294 C  
HETATM    2  O   UNL     1      -8.153  18.752  67.980  1.00  0.00    -0.268 OA 
ENDROOT
BRANCH   2   3
HETATM    3  C   UNL     1      -9.489  18.547  68.002  1.00  0.00    -0.303 C  
HETATM    4  O   UNL     1     -10.239  18.969  68.874  1.00  0.00    -0.370 OA 
BRANCH   3   5
HETATM    5  C   UNL     1      -9.922  17.681  66.870  1.00  0.00    -0.323 C  
HETATM    6  C   UNL     1     -10.513  18.246  65.791  1.00  0.00    -0.213 C  
HETATM    7  C   UNL     1     -10.694  19.725  65.525  1.00  0.00    -0.329 C  
HETATM    8  N   UNL     1     -11.059  17.437  64.813  1.00  0.00    -0.883 NA 
HETATM    9  C   UNL     1     -11.239  16.069  64.916  1.00  0.00    -0.312 C  
HETATM   10  C   UNL     1     -12.113  15.471  63.837  1.00  0.00     0.210 C  
HETATM   11  C   UNL     1     -10.679  15.382  65.946  1.00  0.00    -0.343 C  
HETATM   12  C   UNL     1      -9.850  16.130  67.019  1.00  0.00    -0.248 C  
BRANCH  11  13
HETATM   13  C   UNL     1     -10.955  13.918  66.068  1.00  0.00    -0.285 C  
HETATM   14  O   UNL     1     -11.859  13.454  66.750  1.00  0.00    -0.365 OA 
BRANCH  13  15
HETATM   15  O   UNL     1     -10.040  13.160  65.410  1.00  0.00    -0.289 OA 
BRANCH  15  16
HETATM   16  C   UNL     1     -10.342  11.750  65.388  1.00  0.00    -0.268 C  
HETATM   17  C   UNL     1     -12.033  11.877  63.476  1.00  0.00    -0.567 C  
HETATM   18  C   UNL     1     -10.769  11.210  64.015  1.00  0.00    -0.409 C  
HETATM   19  C   UNL     1      -9.642  11.312  62.990  1.00  0.00    -0.397 C  
ENDBRANCH  15  16
ENDBRANCH  13  15
ENDBRANCH  11  13
BRANCH  12  20
HETATM   20  C   UNL     1     -10.260  15.735  68.446  1.00  0.00    -0.223 A  
HETATM   21  O   UNL     1      -7.242  15.777  68.633  1.00  0.00    -0.124 OA 
HETATM   22  C   UNL     1     -11.604  15.926  68.830  1.00  0.00    -0.392 A  
HETATM   23  O   UNL     1      -7.612  13.785  69.471  1.00  0.00     0.196 OA 
HETATM   24  C   UNL     1     -12.014  15.726  70.150  1.00  0.00    -0.364 A  
HETATM   25  N   UNL     1      -7.974  14.921  69.141  1.00  0.00    -0.170 N  
HETATM   26  C   UNL     1      -9.362  15.275  69.435  1.00  0.00    -0.228 A  
HETATM   27  C   UNL     1     -11.097  15.331  71.120  1.00  0.00    -0.328 A  
HETATM   28  C   UNL     1      -9.772  15.093  70.766  1.00  0.00     1.094 A  
ENDBRANCH  12  20
ENDBRANCH   3   5
ENDBRANCH   2   3
TORSDOF 6
ENDMDL
MODEL       45
REMARK 921   NORMALIZED FREE ENERGY PREDICTED BY IDOCK:   -5.41 KCAL/MOL
REMARK 922        TOTAL FREE ENERGY PREDICTED BY IDOCK:   -7.92 KCAL/MOL
REMARK 923 INTER-LIGAND FREE ENERGY PREDICTED BY IDOCK:   -6.61 KCAL/MOL
REMARK 924 INTRA-LIGAND FREE ENERGY PREDICTED BY IDOCK:   -1.31 KCAL/MOL
REMARK 927      BINDING AFFINITY PREDICTED BY RF-SCORE:    0.00 PKD
ROOT
HETATM    1  C   UNL     1     -12.681   9.829  71.869  1.00  0.00    -0.410 C  
HETATM    2  O   UNL     1     -11.457  10.167  71.206  1.00  0.00    -0.353 OA 
ENDROOT
BRANCH   2   3
HETATM    3  C   UNL     1     -10.574   9.149  71.100  1.00  0.00    -0.309 C  
HETATM    4  O   UNL     1      -9.695   8.909  71.919  1.00  0.00    -0.307 OA 
BRANCH   3   5
HETATM    5  C   UNL     1     -10.758   8.403  69.824  1.00  0.00    -0.211 C  
HETATM    6  C   UNL     1     -11.187   7.119  69.864  1.00  0.00    -0.208 C  
HETATM    7  C   UNL     1     -11.635   6.347  71.087  1.00  0.00    -0.378 C  
HETATM    8  N   UNL     1     -11.208   6.373  68.700  1.00  0.00    -0.314 NA 
HETATM    9  C   UNL     1     -10.638   6.753  67.498  1.00  0.00    -0.279 C  
HETATM   10  C   UNL     1     -10.547   5.645  66.473  1.00  0.00    -0.320 C  
HETATM   11  C   UNL     1     -10.184   8.022  67.327  1.00  0.00    -0.345 C  
HETATM   12  C   UNL     1     -10.288   9.046  68.483  1.00  0.00    -0.233 C  
BRANCH  11  13
HETATM   13  C   UNL     1      -9.508   8.377  66.042  1.00  0.00    -0.154 C  
HETATM   14  O   UNL     1      -8.546   7.768  65.593  1.00  0.00    -0.144 OA 
BRANCH  13  15
HETATM   15  O   UNL     1     -10.023   9.499  65.475  1.00  0.00    -0.304 OA 
BRANCH  15  16
HETATM   16  C   UNL     1      -9.034  10.422  64.978  1.00  0.00    -0.195 C  
HETATM   17  C   UNL     1      -9.141   9.632  62.550  1.00  0.00    -0.283 C  
HETATM   18  C   UNL     1      -9.217  10.821  63.507  1.00  0.00    -0.275 C  
HETATM   19  C   UNL     1     -10.514  11.593  63.285  1.00  0.00    -0.438 C  
ENDBRANCH  15  16
ENDBRANCH  13  15
ENDBRANCH  11  13
BRANCH  12  20
HETATM   20  C   UNL     1      -8.967   9.796  68.713  1.00  0.00    -0.133 A  
HETATM   21  O   UNL     1     -10.988  12.046  68.701  1.00  0.00    -0.216 OA 
HETATM   22  C   UNL     1      -7.834   9.048  69.097  1.00  0.00    -0.093 A  
HETATM   23  O   UNL     1      -9.573  12.846  67.230  1.00  0.00    -0.209 OA 
HETATM   24  C   UNL     1      -6.642   9.677  69.462  1.00  0.00    -0.049 A  
HETATM   25  N   UNL     1      -9.882  12.080  68.152  1.00  0.00    -0.196 N  
HETATM   26  C   UNL     1      -8.826  11.201  68.652  1.00  0.00    -0.155 A  
HETATM   27  C   UNL     1      -6.547  11.065  69.452  1.00  0.00    -0.104 A  
HETATM   28  C   UNL     1      -7.632  11.832  69.036  1.00  0.00     0.004 A  
ENDBRANCH  12  20
ENDBRANCH   3   5
ENDBRANCH   2   3
TORSDOF 6
ENDMDL
MODEL       46
REMARK 921   NORMALIZED FREE ENERGY PREDICTED BY IDOCK:   -5.35 KCAL/MOL
REMARK 922        TOTAL FREE ENERGY PREDICTED BY IDOCK:   -7.83 KCAL/MOL
REMARK 923 INTER-LIGAND FREE ENERGY PREDICTED BY IDOCK:   -6.39 KCAL/MOL
REMARK 924 INTRA-LIGAND FREE ENERGY PREDICTED BY IDOCK:   -1.44 KCAL/MOL
REMARK 927      BINDING AFFINITY PREDICTED BY RF-SCORE:    0.00 PKD
ROOT
HETATM    1  C   UNL     1      -9.736  10.120  64.990  1.00  0.00    -0.318 C  
HETATM    2  O   UNL     1     -10.262   9.109  65.858  1.00  0.00    -0.209 OA 
ENDROOT
BRANCH   2   3
HETATM    3  C   UNL     1      -9.327   8.335  66.451  1.00  0.00    -0.213 C  
HETATM    4  O   UNL     1      -8.245   8.051  65.951  1.00  0.00    -0.112 OA 
BRANCH   3   5
HETATM    5  C   UNL     1      -9.811   7.808  67.758  1.00  0.00    -0.200 C  
HETATM    6  C   UNL     1     -10.549   6.672  67.782  1.00  0.00    -0.252 C  
HETATM    7  C   UNL     1     -10.861   5.766  66.611  1.00  0.00    -0.290 C  
HETATM    8  N   UNL     1     -11.133   6.266  68.967  1.00  0.00    -0.371 NA 
HETATM    9  C   UNL     1     -11.204   7.023  70.123  1.00  0.00    -0.284 C  
HETATM   10  C   UNL     1     -12.139   6.470  71.174  1.00  0.00    -0.318 C  
HETATM   11  C   UNL     1     -10.494   8.177  70.229  1.00  0.00    -0.219 C  
HETATM   12  C   UNL     1      -9.615   8.659  69.050  1.00  0.00    -0.163 C  
BRANCH  11  13
HETATM   13  C   UNL     1     -10.652   9.006  71.462  1.00  0.00    -0.345 C  
HETATM   14  O   UNL     1     -11.656   9.659  71.716  1.00  0.00    -0.378 OA 
BRANCH  13  15
HETATM   15  O   UNL     1      -9.527   9.025  72.224  1.00  0.00    -0.315 OA 
BRANCH  15  16
HETATM   16  C   UNL     1      -9.453   7.968  73.202  1.00  0.00    -0.280 C  
HETATM   17  C   UNL     1      -7.833   6.502  71.876  1.00  0.00    -0.103 C  
HETATM   18  C   UNL     1      -8.127   7.195  73.206  1.00  0.00    -0.119 C  
HETATM   19  C   UNL     1      -6.953   8.084  73.608  1.00  0.00    -0.147 C  
ENDBRANCH  15  16
ENDBRANCH  13  15
ENDBRANCH  11  13
BRANCH  12  20
HETATM   20  C   UNL     1      -9.847  10.142  68.723  1.00  0.00    -0.180 A  
HETATM   21  O   UNL     1      -6.859   9.863  68.351  1.00  0.00    -0.062 OA 
HETATM   22  C   UNL     1     -11.169  10.572  68.478  1.00  0.00    -0.332 A  
HETATM   23  O   UNL     1      -6.879  11.595  69.697  1.00  0.00    -0.099 OA 
HETATM   24  C   UNL     1     -11.438  11.868  68.035  1.00  0.00    -0.389 A  
HETATM   25  N   UNL     1      -7.422  10.815  68.903  1.00  0.00    -0.107 N  
HETATM   26  C   UNL     1      -8.816  11.095  68.564  1.00  0.00    -0.161 A  
HETATM   27  C   UNL     1     -10.398  12.770  67.826  1.00  0.00    -0.222 A  
HETATM   28  C   UNL     1      -9.086  12.393  68.100  1.00  0.00    -0.200 A  
ENDBRANCH  12  20
ENDBRANCH   3   5
ENDBRANCH   2   3
TORSDOF 6
ENDMDL
MODEL       47
REMARK 921   NORMALIZED FREE ENERGY PREDICTED BY IDOCK:   -5.33 KCAL/MOL
REMARK 922        TOTAL FREE ENERGY PREDICTED BY IDOCK:   -7.81 KCAL/MOL
REMARK 923 INTER-LIGAND FREE ENERGY PREDICTED BY IDOCK:   -6.07 KCAL/MOL
REMARK 924 INTRA-LIGAND FREE ENERGY PREDICTED BY IDOCK:   -1.74 KCAL/MOL
REMARK 927      BINDING AFFINITY PREDICTED BY RF-SCORE:    0.00 PKD
ROOT
HETATM    1  C   UNL     1     -11.891   6.006  72.049  1.00  0.00    -0.224 C  
HETATM    2  O   UNL     1     -12.099   7.370  71.662  1.00  0.00    -0.289 OA 
ENDROOT
BRANCH   2   3
HETATM    3  C   UNL     1     -11.133   8.224  72.067  1.00  0.00    -0.311 C  
HETATM    4  O   UNL     1     -10.408   8.038  73.037  1.00  0.00    -0.329 OA 
BRANCH   3   5
HETATM    5  C   UNL     1     -11.114   9.455  71.229  1.00  0.00    -0.446 C  
HETATM    6  C   UNL     1     -12.235  10.209  71.133  1.00  0.00    -0.389 C  
HETATM    7  C   UNL     1     -13.529  10.015  71.895  1.00  0.00    -0.449 C  
HETATM    8  N   UNL     1     -12.273  11.260  70.236  1.00  0.00    -0.337 NA 
HETATM    9  C   UNL     1     -11.326  11.511  69.260  1.00  0.00    -0.288 C  
HETATM   10  C   UNL     1     -11.745  12.539  68.233  1.00  0.00    -0.390 C  
HETATM   11  C   UNL     1     -10.149  10.832  69.258  1.00  0.00    -0.200 C  
HETATM   12  C   UNL     1      -9.869   9.761  70.340  1.00  0.00    -0.269 C  
BRANCH  11  13
HETATM   13  C   UNL     1      -9.180  11.076  68.147  1.00  0.00    -0.165 C  
HETATM   14  O   UNL     1      -8.302  11.927  68.189  1.00  0.00    -0.146 OA 
BRANCH  13  15
HETATM   15  O   UNL     1      -9.437  10.310  67.054  1.00  0.00    -0.159 OA 
BRANCH  15  16
HETATM   16  C   UNL     1      -8.468  10.441  65.995  1.00  0.00    -0.146 C  
HETATM   17  C   UNL     1      -6.770   8.813  66.994  1.00  0.00    -0.066 C  
HETATM   18  C   UNL     1      -7.598   9.197  65.768  1.00  0.00    -0.091 C  
HETATM   19  C   UNL     1      -8.426   8.004  65.297  1.00  0.00    -0.133 C  
ENDBRANCH  15  16
ENDBRANCH  13  15
ENDBRANCH  11  13
BRANCH  12  20
HETATM   20  C   UNL     1      -9.342   8.451  69.735  1.00  0.00    -0.158 A  
HETATM   21  O   UNL     1      -7.422   8.919  72.024  1.00  0.00    -0.314 OA 
HETATM   22  C   UNL     1     -10.176   7.746  68.841  1.00  0.00    -0.220 A  
HETATM   23  O   UNL     1      -5.968   8.623  70.410  1.00  0.00    -0.027 OA 
HETATM   24  C   UNL     1      -9.822   6.481  68.367  1.00  0.00    -0.137 A  
HETATM   25  N   UNL     1      -7.102   8.529  70.896  1.00  0.00    -0.056 N  
HETATM   26  C   UNL     1      -8.109   7.853  70.080  1.00  0.00    -0.117 A  
HETATM   27  C   UNL     1      -8.630   5.886  68.770  1.00  0.00    -0.110 A  
HETATM   28  C   UNL     1      -7.763   6.573  69.617  1.00  0.00    -0.103 A  
ENDBRANCH  12  20
ENDBRANCH   3   5
ENDBRANCH   2   3
TORSDOF 6
ENDMDL
MODEL       48
REMARK 921   NORMALIZED FREE ENERGY PREDICTED BY IDOCK:   -5.32 KCAL/MOL
REMARK 922        TOTAL FREE ENERGY PREDICTED BY IDOCK:   -7.79 KCAL/MOL
REMARK 923 INTER-LIGAND FREE ENERGY PREDICTED BY IDOCK:   -6.44 KCAL/MOL
REMARK 924 INTRA-LIGAND FREE ENERGY PREDICTED BY IDOCK:   -1.35 KCAL/MOL
REMARK 927      BINDING AFFINITY PREDICTED BY RF-SCORE:    0.00 PKD
ROOT
HETATM    1  C   UNL     1      -5.385  11.053  70.127  1.00  0.00    -0.063 C  
HETATM    2  O   UNL     1      -6.278  12.147  69.890  1.00  0.00    -0.141 OA 
ENDROOT
BRANCH   2   3
HETATM    3  C   UNL     1      -6.486  12.432  68.585  1.00  0.00    -0.077 C  
HETATM    4  O   UNL     1      -5.643  12.298  67.706  1.00  0.00    -0.069 OA 
BRANCH   3   5
HETATM    5  C   UNL     1      -7.846  12.999  68.364  1.00  0.00    -0.134 C  
HETATM    6  C   UNL     1      -8.143  14.220  68.869  1.00  0.00    -0.063 C  
HETATM    7  C   UNL     1      -7.193  15.175  69.559  1.00  0.00    -0.204 C  
HETATM    8  N   UNL     1      -9.444  14.683  68.806  1.00  0.00    -0.206 NA 
HETATM    9  C   UNL     1     -10.544  13.927  68.443  1.00  0.00    -0.255 C  
HETATM   10  C   UNL     1     -11.875  14.582  68.734  1.00  0.00    -0.350 C  
HETATM   11  C   UNL     1     -10.376  12.690  67.908  1.00  0.00    -0.221 C  
HETATM   12  C   UNL     1      -8.953  12.113  67.715  1.00  0.00    -0.179 C  
BRANCH  11  13
HETATM   13  C   UNL     1     -11.587  11.871  67.596  1.00  0.00    -0.312 C  
HETATM   14  O   UNL     1     -12.094  11.084  68.384  1.00  0.00    -0.594 OA 
BRANCH  13  15
HETATM   15  O   UNL     1     -12.009  12.033  66.315  1.00  0.00    -0.596 OA 
BRANCH  15  16
HETATM   16  C   UNL     1     -11.005  11.754  65.318  1.00  0.00    -0.295 C  
HETATM   17  C   UNL     1     -12.272  12.816  63.370  1.00  0.00    -0.594 C  
HETATM   18  C   UNL     1     -10.963  12.757  64.157  1.00  0.00    -0.435 C  
HETATM   19  C   UNL     1     -10.568  14.154  64.627  1.00  0.00    -0.391 C  
ENDBRANCH  15  16
ENDBRANCH  13  15
ENDBRANCH  11  13
BRANCH  12  20
HETATM   20  C   UNL     1      -8.833  10.677  68.248  1.00  0.00    -0.139 A  
HETATM   21  O   UNL     1      -7.537  10.461  65.524  1.00  0.00    -0.146 OA 
HETATM   22  C   UNL     1      -9.041  10.457  69.626  1.00  0.00    -0.074 A  
HETATM   23  O   UNL     1      -8.958   8.798  65.363  1.00  0.00    -0.197 OA 
HETATM   24  C   UNL     1      -8.808   9.208  70.203  1.00  0.00    -0.215 A  
HETATM   25  N   UNL     1      -8.310   9.629  66.012  1.00  0.00    -0.118 N  
HETATM   26  C   UNL     1      -8.440   9.567  67.467  1.00  0.00    -0.126 A  
HETATM   27  C   UNL     1      -8.362   8.145  69.423  1.00  0.00    -0.123 A  
HETATM   28  C   UNL     1      -8.188   8.315  68.052  1.00  0.00    -0.128 A  
ENDBRANCH  12  20
ENDBRANCH   3   5
ENDBRANCH   2   3
TORSDOF 6
ENDMDL
MODEL       49
REMARK 921   NORMALIZED FREE ENERGY PREDICTED BY IDOCK:   -5.31 KCAL/MOL
REMARK 922        TOTAL FREE ENERGY PREDICTED BY IDOCK:   -7.77 KCAL/MOL
REMARK 923 INTER-LIGAND FREE ENERGY PREDICTED BY IDOCK:   -6.38 KCAL/MOL
REMARK 924 INTRA-LIGAND FREE ENERGY PREDICTED BY IDOCK:   -1.40 KCAL/MOL
REMARK 927      BINDING AFFINITY PREDICTED BY RF-SCORE:    0.00 PKD
ROOT
HETATM    1  C   UNL     1     -11.209   5.218  72.677  1.00  0.00    -0.248 C  
HETATM    2  O   UNL     1     -11.744   6.516  72.392  1.00  0.00    -0.281 OA 
ENDROOT
BRANCH   2   3
HETATM    3  C   UNL     1     -11.051   7.542  72.934  1.00  0.00    -0.375 C  
HETATM    4  O   UNL     1     -10.553   7.525  74.053  1.00  0.00    -0.211 OA 
BRANCH   3   5
HETATM    5  C   UNL     1     -11.035   8.723  72.026  1.00  0.00    -0.438 C  
HETATM    6  C   UNL     1     -12.191   9.383  71.777  1.00  0.00    -0.390 C  
HETATM    7  C   UNL     1     -13.537   9.133  72.423  1.00  0.00    -0.544 C  
HETATM    8  N   UNL     1     -12.213  10.377  70.817  1.00  0.00    -0.328 NA 
HETATM    9  C   UNL     1     -11.193  10.645  69.922  1.00  0.00    -0.308 C  
HETATM   10  C   UNL     1     -11.579  11.580  68.798  1.00  0.00    -0.379 C  
HETATM   11  C   UNL     1      -9.978  10.058  70.074  1.00  0.00    -0.273 C  
HETATM   12  C   UNL     1      -9.732   9.073  71.243  1.00  0.00    -0.371 C  
BRANCH  11  13
HETATM   13  C   UNL     1      -8.922  10.313  69.048  1.00  0.00    -0.172 C  
HETATM   14  O   UNL     1      -8.017  11.124  69.194  1.00  0.00    -0.125 OA 
BRANCH  13  15
HETATM   15  O   UNL     1      -9.129   9.612  67.903  1.00  0.00    -0.126 OA 
BRANCH  15  16
HETATM   16  C   UNL     1      -7.962   9.484  67.065  1.00  0.00    -0.109 C  
HETATM   17  C   UNL     1      -8.727   7.353  65.880  1.00  0.00    -0.161 C  
HETATM   18  C   UNL     1      -8.215   8.784  65.722  1.00  0.00    -0.121 C  
HETATM   19  C   UNL     1      -9.160   9.586  64.832  1.00  0.00    -0.276 C  
ENDBRANCH  15  16
ENDBRANCH  13  15
ENDBRANCH  11  13
BRANCH  12  20
HETATM   20  C   UNL     1      -9.056   7.775  70.773  1.00  0.00    -0.149 A  
HETATM   21  O   UNL     1      -7.459   8.473  73.245  1.00  0.00    -0.306 OA 
HETATM   22  C   UNL     1      -9.731   6.977  69.826  1.00  0.00    -0.168 A  
HETATM   23  O   UNL     1      -5.805   8.203  71.830  1.00  0.00    -0.035 OA 
HETATM   24  C   UNL     1      -9.247   5.719  69.463  1.00  0.00    -0.150 A  
HETATM   25  N   UNL     1      -6.983   8.055  72.184  1.00  0.00    -0.071 N  
HETATM   26  C   UNL     1      -7.839   7.277  71.292  1.00  0.00    -0.096 A  
HETATM   27  C   UNL     1      -8.078   5.224  70.034  1.00  0.00    -0.084 A  
HETATM   28  C   UNL     1      -7.363   6.003  70.940  1.00  0.00    -0.082 A  
ENDBRANCH  12  20
ENDBRANCH   3   5
ENDBRANCH   2   3
TORSDOF 6
ENDMDL
MODEL       50
REMARK 921   NORMALIZED FREE ENERGY PREDICTED BY IDOCK:   -5.30 KCAL/MOL
REMARK 922        TOTAL FREE ENERGY PREDICTED BY IDOCK:   -7.77 KCAL/MOL
REMARK 923 INTER-LIGAND FREE ENERGY PREDICTED BY IDOCK:   -6.67 KCAL/MOL
REMARK 924 INTRA-LIGAND FREE ENERGY PREDICTED BY IDOCK:   -1.10 KCAL/MOL
REMARK 927      BINDING AFFINITY PREDICTED BY RF-SCORE:    0.00 PKD
ROOT
HETATM    1  C   UNL     1     -11.152  14.561  66.000  1.00  0.00    -0.329 C  
HETATM    2  O   UNL     1     -11.742  13.889  67.119  1.00  0.00    -0.345 OA 
ENDROOT
BRANCH   2   3
HETATM    3  C   UNL     1     -10.881  13.602  68.121  1.00  0.00    -0.246 C  
HETATM    4  O   UNL     1      -9.828  14.195  68.319  1.00  0.00    -0.221 OA 
BRANCH   3   5
HETATM    5  C   UNL     1     -11.341  12.423  68.908  1.00  0.00    -0.342 C  
HETATM    6  C   UNL     1     -12.002  12.622  70.073  1.00  0.00    -0.306 C  
HETATM    7  C   UNL     1     -12.455  13.948  70.647  1.00  0.00    -0.436 C  
HETATM    8  N   UNL     1     -12.290  11.541  70.884  1.00  0.00    -0.382 NA 
HETATM    9  C   UNL     1     -11.791  10.262  70.716  1.00  0.00    -0.365 C  
HETATM   10  C   UNL     1     -12.025   9.341  71.893  1.00  0.00    -0.433 C  
HETATM   11  C   UNL     1     -11.124   9.932  69.580  1.00  0.00    -0.279 C  
HETATM   12  C   UNL     1     -10.904  10.991  68.473  1.00  0.00    -0.254 C  
BRANCH  11  13
HETATM   13  C   UNL     1     -10.534   8.563  69.464  1.00  0.00    -0.220 C  
HETATM   14  O   UNL     1     -10.833   7.770  68.581  1.00  0.00    -0.097 OA 
BRANCH  13  15
HETATM   15  O   UNL     1      -9.699   8.267  70.493  1.00  0.00    -0.169 OA 
BRANCH  15  16
HETATM   16  C   UNL     1      -9.198   6.915  70.483  1.00  0.00    -0.156 C  
HETATM   17  C   UNL     1      -9.084   6.660  73.023  1.00  0.00    -0.140 C  
HETATM   18  C   UNL     1      -9.595   6.077  71.706  1.00  0.00    -0.168 C  
HETATM   19  C   UNL     1     -11.104   5.858  71.779  1.00  0.00    -0.324 C  
ENDBRANCH  15  16
ENDBRANCH  13  15
ENDBRANCH  11  13
BRANCH  12  20
HETATM   20  C   UNL     1      -9.447  11.028  67.988  1.00  0.00    -0.169 A  
HETATM   21  O   UNL     1     -10.992  11.256  65.398  1.00  0.00    -0.230 OA 
HETATM   22  C   UNL     1      -8.433  11.267  68.940  1.00  0.00    -0.062 A  
HETATM   23  O   UNL     1      -9.664   9.595  64.862  1.00  0.00    -0.267 OA 
HETATM   24  C   UNL     1      -7.106  11.457  68.551  1.00  0.00    -0.085 A  
HETATM   25  N   UNL     1      -9.983  10.562  65.566  1.00  0.00    -0.262 N  
HETATM   26  C   UNL     1      -9.054  10.927  66.634  1.00  0.00    -0.162 A  
HETATM   27  C   UNL     1      -6.754  11.413  67.205  1.00  0.00    -0.121 A  
HETATM   28  C   UNL     1      -7.722  11.137  66.243  1.00  0.00    -0.097 A  
ENDBRANCH  12  20
ENDBRANCH   3   5
ENDBRANCH   2   3
TORSDOF 6
ENDMDL
MODEL       51
REMARK 921   NORMALIZED FREE ENERGY PREDICTED BY IDOCK:   -5.30 KCAL/MOL
REMARK 922        TOTAL FREE ENERGY PREDICTED BY IDOCK:   -7.76 KCAL/MOL
REMARK 923 INTER-LIGAND FREE ENERGY PREDICTED BY IDOCK:   -6.53 KCAL/MOL
REMARK 924 INTRA-LIGAND FREE ENERGY PREDICTED BY IDOCK:   -1.23 KCAL/MOL
REMARK 927      BINDING AFFINITY PREDICTED BY RF-SCORE:    0.00 PKD
ROOT
HETATM    1  C   UNL     1      -9.099   4.361  68.794  1.00  0.00    -0.124 C  
HETATM    2  O   UNL     1      -9.514   5.392  67.891  1.00  0.00    -0.114 OA 
ENDROOT
BRANCH   2   3
HETATM    3  C   UNL     1      -8.645   6.421  67.772  1.00  0.00    -0.116 C  
HETATM    4  O   UNL     1      -7.490   6.400  68.180  1.00  0.00    -0.090 OA 
BRANCH   3   5
HETATM    5  C   UNL     1      -9.294   7.609  67.151  1.00  0.00    -0.180 C  
HETATM    6  C   UNL     1      -8.911   8.000  65.912  1.00  0.00    -0.153 C  
HETATM    7  C   UNL     1      -7.947   7.284  64.990  1.00  0.00    -0.129 C  
HETATM    8  N   UNL     1      -9.392   9.189  65.396  1.00  0.00    -0.222 NA 
HETATM    9  C   UNL     1     -10.093  10.143  66.110  1.00  0.00    -0.246 C  
HETATM   10  C   UNL     1     -10.250  11.467  65.395  1.00  0.00    -0.320 C  
HETATM   11  C   UNL     1     -10.548   9.865  67.360  1.00  0.00    -0.338 C  
HETATM   12  C   UNL     1     -10.269   8.483  67.998  1.00  0.00    -0.264 C  
BRANCH  11  13
HETATM   13  C   UNL     1     -11.238  10.944  68.130  1.00  0.00    -0.301 C  
HETATM   14  O   UNL     1     -12.393  10.861  68.526  1.00  0.00    -0.490 OA 
BRANCH  13  15
HETATM   15  O   UNL     1     -10.472  12.058  68.267  1.00  0.00    -0.192 OA 
BRANCH  15  16
HETATM   16  C   UNL     1     -11.132  13.157  68.927  1.00  0.00    -0.266 C  
HETATM   17  C   UNL     1      -9.827  14.999  67.730  1.00  0.00    -0.220 C  
HETATM   18  C   UNL     1     -11.204  14.448  68.099  1.00  0.00    -0.300 C  
HETATM   19  C   UNL     1     -12.054  14.271  66.843  1.00  0.00    -0.440 C  
ENDBRANCH  15  16
ENDBRANCH  13  15
ENDBRANCH  11  13
BRANCH  12  20
HETATM   20  C   UNL     1      -9.729   8.605  69.431  1.00  0.00    -0.176 A  
HETATM   21  O   UNL     1     -11.833   6.453  69.720  1.00  0.00    -0.357 OA 
HETATM   22  C   UNL     1      -8.509   9.287  69.628  1.00  0.00    -0.140 A  
HETATM   23  O   UNL     1     -12.479   7.786  71.337  1.00  0.00    -0.316 OA 
HETATM   24  C   UNL     1      -7.888   9.312  70.878  1.00  0.00    -0.148 A  
HETATM   25  N   UNL     1     -11.644   7.375  70.520  1.00  0.00    -0.264 N  
HETATM   26  C   UNL     1     -10.325   8.004  70.562  1.00  0.00    -0.202 A  
HETATM   27  C   UNL     1      -8.465   8.660  71.964  1.00  0.00    -0.191 A  
HETATM   28  C   UNL     1      -9.690   8.015  71.815  1.00  0.00    -0.233 A  
ENDBRANCH  12  20
ENDBRANCH   3   5
ENDBRANCH   2   3
TORSDOF 6
ENDMDL
MODEL       52
REMARK 921   NORMALIZED FREE ENERGY PREDICTED BY IDOCK:   -5.26 KCAL/MOL
REMARK 922        TOTAL FREE ENERGY PREDICTED BY IDOCK:   -7.71 KCAL/MOL
REMARK 923 INTER-LIGAND FREE ENERGY PREDICTED BY IDOCK:   -6.45 KCAL/MOL
REMARK 924 INTRA-LIGAND FREE ENERGY PREDICTED BY IDOCK:   -1.26 KCAL/MOL
REMARK 927      BINDING AFFINITY PREDICTED BY RF-SCORE:    0.00 PKD
ROOT
HETATM    1  C   UNL     1     -12.405  15.194  64.312  1.00  0.00    -0.178 C  
HETATM    2  O   UNL     1     -11.938  14.228  65.261  1.00  0.00    -0.362 OA 
ENDROOT
BRANCH   2   3
HETATM    3  C   UNL     1     -10.596  14.077  65.297  1.00  0.00    -0.363 C  
HETATM    4  O   UNL     1      -9.794  14.939  64.959  1.00  0.00    -0.263 OA 
BRANCH   3   5
HETATM    5  C   UNL     1     -10.218  12.703  65.731  1.00  0.00    -0.288 C  
HETATM    6  C   UNL     1     -10.593  11.643  64.976  1.00  0.00    -0.289 C  
HETATM    7  C   UNL     1     -11.278  11.686  63.626  1.00  0.00    -0.497 C  
HETATM    8  N   UNL     1     -10.385  10.362  65.451  1.00  0.00    -0.247 NA 
HETATM    9  C   UNL     1      -9.997  10.041  66.739  1.00  0.00    -0.210 C  
HETATM   10  C   UNL     1     -10.121   8.574  67.081  1.00  0.00    -0.331 C  
HETATM   11  C   UNL     1      -9.582  11.015  67.590  1.00  0.00    -0.181 C  
HETATM   12  C   UNL     1      -9.555  12.492  67.128  1.00  0.00    -0.208 C  
BRANCH  11  13
HETATM   13  C   UNL     1      -9.240  10.643  68.997  1.00  0.00    -0.167 C  
HETATM   14  O   UNL     1     -10.076  10.368  69.847  1.00  0.00    -0.209 OA 
BRANCH  13  15
HETATM   15  O   UNL     1      -7.908  10.729  69.249  1.00  0.00    -0.146 OA 
BRANCH  15  16
HETATM   16  C   UNL     1      -7.193   9.486  69.098  1.00  0.00    -0.067 C  
HETATM   17  C   UNL     1      -5.355  10.038  70.786  1.00  0.00    -0.060 C  
HETATM   18  C   UNL     1      -6.423   9.037  70.349  1.00  0.00    -0.046 C  
HETATM   19  C   UNL     1      -7.362   8.726  71.512  1.00  0.00    -0.109 C  
ENDBRANCH  15  16
ENDBRANCH  13  15
ENDBRANCH  11  13
BRANCH  12  20
HETATM   20  C   UNL     1     -10.214  13.431  68.150  1.00  0.00    -0.246 A  
HETATM   21  O   UNL     1      -7.723  14.965  67.381  1.00  0.00    -0.177 OA 
HETATM   22  C   UNL     1     -11.563  13.201  68.495  1.00  0.00    -0.361 A  
HETATM   23  O   UNL     1      -7.500  15.016  69.562  1.00  0.00    -0.189 OA 
HETATM   24  C   UNL     1     -12.265  14.096  69.304  1.00  0.00    -0.308 A  
HETATM   25  N   UNL     1      -8.164  14.854  68.530  1.00  0.00    -0.146 N  
HETATM   26  C   UNL     1      -9.587  14.569  68.707  1.00  0.00    -0.193 A  
HETATM   27  C   UNL     1     -11.643  15.243  69.790  1.00  0.00    -0.335 A  
HETATM   28  C   UNL     1     -10.300  15.478  69.505  1.00  0.00    -0.271 A  
ENDBRANCH  12  20
ENDBRANCH   3   5
ENDBRANCH   2   3
TORSDOF 6
ENDMDL
MODEL       53
REMARK 921   NORMALIZED FREE ENERGY PREDICTED BY IDOCK:   -5.23 KCAL/MOL
REMARK 922        TOTAL FREE ENERGY PREDICTED BY IDOCK:   -7.67 KCAL/MOL
REMARK 923 INTER-LIGAND FREE ENERGY PREDICTED BY IDOCK:   -5.71 KCAL/MOL
REMARK 924 INTRA-LIGAND FREE ENERGY PREDICTED BY IDOCK:   -1.96 KCAL/MOL
REMARK 927      BINDING AFFINITY PREDICTED BY RF-SCORE:    0.00 PKD
ROOT
HETATM    1  C   UNL     1     -11.907  12.504  68.634  1.00  0.00    -0.297 C  
HETATM    2  O   UNL     1     -11.717  11.130  68.991  1.00  0.00    -0.287 OA 
ENDROOT
BRANCH   2   3
HETATM    3  C   UNL     1     -10.746  10.497  68.295  1.00  0.00    -0.229 C  
HETATM    4  O   UNL     1     -10.926   9.909  67.236  1.00  0.00    -0.251 OA 
BRANCH   3   5
HETATM    5  C   UNL     1      -9.445  10.542  69.019  1.00  0.00    -0.211 C  
HETATM    6  C   UNL     1      -8.410  11.228  68.479  1.00  0.00    -0.155 C  
HETATM    7  C   UNL     1      -8.441  12.091  67.236  1.00  0.00    -0.175 C  
HETATM    8  N   UNL     1      -7.160  11.143  69.062  1.00  0.00    -0.104 NA 
HETATM    9  C   UNL     1      -6.801  10.251  70.057  1.00  0.00    -0.146 C  
HETATM   10  C   UNL     1      -5.314  10.167  70.313  1.00  0.00    -0.046 C  
HETATM   11  C   UNL     1      -7.752   9.514  70.689  1.00  0.00    -0.151 C  
HETATM   12  C   UNL     1      -9.240   9.658  70.288  1.00  0.00    -0.285 C  
BRANCH  11  13
HETATM   13  C   UNL     1      -7.323   8.508  71.707  1.00  0.00    -0.095 C  
HETATM   14  O   UNL     1      -7.300   8.729  72.910  1.00  0.00    -0.346 OA 
BRANCH  13  15
HETATM   15  O   UNL     1      -6.880   7.354  71.143  1.00  0.00    -0.050 OA 
BRANCH  15  16
HETATM   16  C   UNL     1      -6.490   6.340  72.092  1.00  0.00    -0.054 C  
HETATM   17  C   UNL     1      -8.853   5.468  72.523  1.00  0.00    -0.130 C  
HETATM   18  C   UNL     1      -7.417   5.117  72.135  1.00  0.00    -0.093 C  
HETATM   19  C   UNL     1      -7.401   4.346  70.818  1.00  0.00    -0.048 C  
ENDBRANCH  15  16
ENDBRANCH  13  15
ENDBRANCH  11  13
BRANCH  12  20
HETATM   20  C   UNL     1      -9.917   8.296  70.075  1.00  0.00    -0.188 A  
HETATM   21  O   UNL     1     -11.883   9.712  71.884  1.00  0.00    -0.367 OA 
HETATM   22  C   UNL     1      -9.450   7.477  69.025  1.00  0.00    -0.145 A  
HETATM   23  O   UNL     1     -11.647   7.852  73.021  1.00  0.00    -0.351 OA 
HETATM   24  C   UNL     1     -10.109   6.294  68.682  1.00  0.00    -0.185 A  
HETATM   25  N   UNL     1     -11.545   8.528  71.989  1.00  0.00    -0.336 N  
HETATM   26  C   UNL     1     -11.038   7.839  70.804  1.00  0.00    -0.257 A  
HETATM   27  C   UNL     1     -11.248   5.897  69.377  1.00  0.00    -0.277 A  
HETATM   28  C   UNL     1     -11.710   6.659  70.446  1.00  0.00    -0.446 A  
ENDBRANCH  12  20
ENDBRANCH   3   5
ENDBRANCH   2   3
TORSDOF 6
ENDMDL
MODEL       54
REMARK 921   NORMALIZED FREE ENERGY PREDICTED BY IDOCK:   -5.23 KCAL/MOL
REMARK 922        TOTAL FREE ENERGY PREDICTED BY IDOCK:   -7.67 KCAL/MOL
REMARK 923 INTER-LIGAND FREE ENERGY PREDICTED BY IDOCK:   -6.50 KCAL/MOL
REMARK 924 INTRA-LIGAND FREE ENERGY PREDICTED BY IDOCK:   -1.17 KCAL/MOL
REMARK 927      BINDING AFFINITY PREDICTED BY RF-SCORE:    0.00 PKD
ROOT
HETATM    1  C   UNL     1     -10.461   7.906  67.055  1.00  0.00    -0.349 C  
HETATM    2  O   UNL     1     -10.994   9.089  67.660  1.00  0.00    -0.152 OA 
ENDROOT
BRANCH   2   3
HETATM    3  C   UNL     1     -10.193   9.657  68.588  1.00  0.00    -0.189 C  
HETATM    4  O   UNL     1      -9.442   9.033  69.329  1.00  0.00    -0.154 OA 
BRANCH   3   5
HETATM    5  C   UNL     1     -10.394  11.132  68.647  1.00  0.00    -0.219 C  
HETATM    6  C   UNL     1     -11.458  11.629  69.322  1.00  0.00    -0.300 C  
HETATM    7  C   UNL     1     -12.449  10.848  70.159  1.00  0.00    -0.356 C  
HETATM    8  N   UNL     1     -11.739  12.980  69.248  1.00  0.00    -0.304 NA 
HETATM    9  C   UNL     1     -11.143  13.873  68.377  1.00  0.00    -0.255 C  
HETATM   10  C   UNL     1     -11.828  15.219  68.298  1.00  0.00    -0.251 C  
HETATM   11  C   UNL     1     -10.055  13.500  67.654  1.00  0.00    -0.229 C  
HETATM   12  C   UNL     1      -9.486  12.067  67.790  1.00  0.00    -0.190 C  
BRANCH  11  13
HETATM   13  C   UNL     1      -9.481  14.466  66.669  1.00  0.00    -0.283 C  
HETATM   14  O   UNL     1      -9.912  14.610  65.532  1.00  0.00    -0.344 OA 
BRANCH  13  15
HETATM   15  O   UNL     1      -8.377  15.100  67.144  1.00  0.00    -0.188 OA 
BRANCH  15  16
HETATM   16  C   UNL     1      -7.970  16.246  66.368  1.00  0.00    -0.264 C  
HETATM   17  C   UNL     1      -7.840  17.862  68.343  1.00  0.00    -0.288 C  
HETATM   18  C   UNL     1      -7.117  17.265  67.136  1.00  0.00    -0.204 C  
HETATM   19  C   UNL     1      -5.776  16.676  67.565  1.00  0.00    -0.177 C  
ENDBRANCH  15  16
ENDBRANCH  13  15
ENDBRANCH  11  13
BRANCH  12  20
HETATM   20  C   UNL     1      -9.229  11.414  66.424  1.00  0.00    -0.209 A  
HETATM   21  O   UNL     1      -6.846  10.485  68.038  1.00  0.00    -0.071 OA 
HETATM   22  C   UNL     1     -10.294  11.358  65.500  1.00  0.00    -0.317 A  
HETATM   23  O   UNL     1      -5.788  11.289  66.293  1.00  0.00    -0.145 OA 
HETATM   24  C   UNL     1     -10.175  10.654  64.301  1.00  0.00    -0.391 A  
HETATM   25  N   UNL     1      -6.804  10.871  66.865  1.00  0.00    -0.105 N  
HETATM   26  C   UNL     1      -8.018  10.783  66.057  1.00  0.00    -0.154 A  
HETATM   27  C   UNL     1      -8.992   9.989  63.989  1.00  0.00    -0.270 A  
HETATM   28  C   UNL     1      -7.907  10.060  64.858  1.00  0.00    -0.141 A  
ENDBRANCH  12  20
ENDBRANCH   3   5
ENDBRANCH   2   3
TORSDOF 6
ENDMDL
MODEL       55
REMARK 921   NORMALIZED FREE ENERGY PREDICTED BY IDOCK:   -5.21 KCAL/MOL
REMARK 922        TOTAL FREE ENERGY PREDICTED BY IDOCK:   -7.64 KCAL/MOL
REMARK 923 INTER-LIGAND FREE ENERGY PREDICTED BY IDOCK:   -5.74 KCAL/MOL
REMARK 924 INTRA-LIGAND FREE ENERGY PREDICTED BY IDOCK:   -1.91 KCAL/MOL
REMARK 927      BINDING AFFINITY PREDICTED BY RF-SCORE:    0.00 PKD
ROOT
HETATM    1  C   UNL     1     -10.786   4.818  74.045  1.00  0.00    -0.296 C  
HETATM    2  O   UNL     1     -10.755   4.096  72.808  1.00  0.00    -0.174 OA 
ENDROOT
BRANCH   2   3
HETATM    3  C   UNL     1      -9.577   4.161  72.148  1.00  0.00    -0.147 C  
HETATM    4  O   UNL     1      -8.489   4.318  72.690  1.00  0.00    -0.099 OA 
BRANCH   3   5
HETATM    5  C   UNL     1      -9.778   4.091  70.674  1.00  0.00    -0.266 C  
HETATM    6  C   UNL     1      -9.334   3.006  69.996  1.00  0.00    -0.153 C  
HETATM    7  C   UNL     1      -8.737   1.746  70.586  1.00  0.00    -0.105 C  
HETATM    8  N   UNL     1      -9.375   3.005  68.614  1.00  0.00    -0.177 NA 
HETATM    9  C   UNL     1      -9.651   4.105  67.823  1.00  0.00    -0.155 C  
HETATM   10  C   UNL     1      -9.349   3.909  66.354  1.00  0.00    -0.192 C  
HETATM   11  C   UNL     1     -10.119   5.250  68.383  1.00  0.00    -0.224 C  
HETATM   12  C   UNL     1     -10.332   5.335  69.914  1.00  0.00    -0.374 C  
BRANCH  11  13
HETATM   13  C   UNL     1     -10.337   6.442  67.508  1.00  0.00    -0.196 C  
HETATM   14  O   UNL     1     -11.400   6.691  66.954  1.00  0.00    -0.333 OA 
BRANCH  13  15
HETATM   15  O   UNL     1      -9.204   7.169  67.327  1.00  0.00    -0.126 OA 
BRANCH  15  16
HETATM   16  C   UNL     1      -9.375   8.342  66.505  1.00  0.00    -0.206 C  
HETATM   17  C   UNL     1     -10.357   9.812  68.350  1.00  0.00    -0.230 C  
HETATM   18  C   UNL     1      -9.289   9.672  67.266  1.00  0.00    -0.163 C  
HETATM   19  C   UNL     1      -7.902   9.898  67.861  1.00  0.00    -0.090 C  
ENDBRANCH  15  16
ENDBRANCH  13  15
ENDBRANCH  11  13
BRANCH  12  20
HETATM   20  C   UNL     1      -9.722   6.611  70.514  1.00  0.00    -0.187 A  
HETATM   21  O   UNL     1     -12.472   6.563  71.771  1.00  0.00    -0.345 OA 
HETATM   22  C   UNL     1      -8.327   6.797  70.409  1.00  0.00    -0.130 A  
HETATM   23  O   UNL     1     -12.488   8.610  70.985  1.00  0.00    -0.230 OA 
HETATM   24  C   UNL     1      -7.688   7.857  71.053  1.00  0.00    -0.084 A  
HETATM   25  N   UNL     1     -11.910   7.570  71.327  1.00  0.00    -0.286 N  
HETATM   26  C   UNL     1     -10.451   7.577  71.244  1.00  0.00    -0.207 A  
HETATM   27  C   UNL     1      -8.420   8.760  71.818  1.00  0.00    -0.178 A  
HETATM   28  C   UNL     1      -9.804   8.632  71.908  1.00  0.00    -0.384 A  
ENDBRANCH  12  20
ENDBRANCH   3   5
ENDBRANCH   2   3
TORSDOF 6
ENDMDL
MODEL       56
REMARK 921   NORMALIZED FREE ENERGY PREDICTED BY IDOCK:   -5.20 KCAL/MOL
REMARK 922        TOTAL FREE ENERGY PREDICTED BY IDOCK:   -7.63 KCAL/MOL
REMARK 923 INTER-LIGAND FREE ENERGY PREDICTED BY IDOCK:   -8.40 KCAL/MOL
REMARK 924 INTRA-LIGAND FREE ENERGY PREDICTED BY IDOCK:    0.77 KCAL/MOL
REMARK 927      BINDING AFFINITY PREDICTED BY RF-SCORE:    0.00 PKD
ROOT
HETATM    1  C   UNL     1      -8.853   9.487  70.312  1.00  0.00    -0.243 C  
HETATM    2  O   UNL     1      -9.304  10.494  69.398  1.00  0.00    -0.190 OA 
ENDROOT
BRANCH   2   3
HETATM    3  C   UNL     1     -10.629  10.464  69.136  1.00  0.00    -0.228 C  
HETATM    4  O   UNL     1     -11.481  10.077  69.927  1.00  0.00    -0.244 OA 
BRANCH   3   5
HETATM    5  C   UNL     1     -10.915  10.889  67.737  1.00  0.00    -0.339 C  
HETATM    6  C   UNL     1     -10.364  10.199  66.710  1.00  0.00    -0.222 C  
HETATM    7  C   UNL     1      -9.554   8.924  66.802  1.00  0.00    -0.262 C  
HETATM    8  N   UNL     1     -10.494  10.681  65.421  1.00  0.00    -0.228 NA 
HETATM    9  C   UNL     1     -10.978  11.931  65.081  1.00  0.00    -0.312 C  
HETATM   10  C   UNL     1     -10.747  12.318  63.637  1.00  0.00    -0.513 C  
HETATM   11  C   UNL     1     -11.569  12.714  66.020  1.00  0.00    -0.443 C  
HETATM   12  C   UNL     1     -11.691  12.217  67.481  1.00  0.00    -0.402 C  
BRANCH  11  13
HETATM   13  C   UNL     1     -12.014  14.088  65.635  1.00  0.00    -0.397 C  
HETATM   14  O   UNL     1     -12.931  14.309  64.855  1.00  0.00    -0.682 OA 
BRANCH  13  15
HETATM   15  O   UNL     1     -11.233  15.059  66.176  1.00  0.00    -0.342 OA 
BRANCH  15  16
HETATM   16  C   UNL     1     -10.834  16.088  65.248  1.00  0.00    -0.362 C  
HETATM   17  C   UNL     1     -10.482  17.905  67.010  1.00  0.00    -0.345 C  
HETATM   18  C   UNL     1      -9.880  17.139  65.832  1.00  0.00    -0.178 C  
HETATM   19  C   UNL     1      -8.538  16.530  66.231  1.00  0.00    -0.367 C  
ENDBRANCH  15  16
ENDBRANCH  13  15
ENDBRANCH  11  13
BRANCH  12  20
HETATM   20  C   UNL     1     -11.234  13.278  68.494  1.00  0.00    -0.304 A  
HETATM   21  O   UNL     1      -8.871  13.125  66.613  1.00  0.00    -0.174 OA 
HETATM   22  C   UNL     1     -12.204  13.852  69.343  1.00  0.00    -0.338 A  
HETATM   23  O   UNL     1      -7.814  12.862  68.516  1.00  0.00    -0.134 OA 
HETATM   24  C   UNL     1     -11.888  14.920  70.184  1.00  0.00    -0.357 A  
HETATM   25  N   UNL     1      -8.796  13.202  67.844  1.00  0.00    -0.186 N  
HETATM   26  C   UNL     1      -9.918  13.787  68.577  1.00  0.00    -0.217 A  
HETATM   27  C   UNL     1     -10.599  15.444  70.203  1.00  0.00    -0.314 A  
HETATM   28  C   UNL     1      -9.607  14.873  69.410  1.00  0.00    -0.080 A  
ENDBRANCH  12  20
ENDBRANCH   3   5
ENDBRANCH   2   3
TORSDOF 6
ENDMDL
MODEL       57
REMARK 921   NORMALIZED FREE ENERGY PREDICTED BY IDOCK:   -5.18 KCAL/MOL
REMARK 922        TOTAL FREE ENERGY PREDICTED BY IDOCK:   -7.60 KCAL/MOL
REMARK 923 INTER-LIGAND FREE ENERGY PREDICTED BY IDOCK:   -6.35 KCAL/MOL
REMARK 924 INTRA-LIGAND FREE ENERGY PREDICTED BY IDOCK:   -1.25 KCAL/MOL
REMARK 927      BINDING AFFINITY PREDICTED BY RF-SCORE:    0.00 PKD
ROOT
HETATM    1  C   UNL     1     -10.403  10.888  64.411  1.00  0.00    -0.361 C  
HETATM    2  O   UNL     1      -9.970   9.720  65.117  1.00  0.00    -0.309 OA 
ENDROOT
BRANCH   2   3
HETATM    3  C   UNL     1      -8.662   9.721  65.459  1.00  0.00    -0.149 C  
HETATM    4  O   UNL     1      -7.777  10.261  64.807  1.00  0.00    -0.146 OA 
BRANCH   3   5
HETATM    5  C   UNL     1      -8.425   8.917  66.691  1.00  0.00    -0.122 C  
HETATM    6  C   UNL     1      -8.425   7.566  66.610  1.00  0.00    -0.130 C  
HETATM    7  C   UNL     1      -8.525   6.730  65.352  1.00  0.00    -0.102 C  
HETATM    8  N   UNL     1      -8.364   6.815  67.769  1.00  0.00    -0.119 NA 
HETATM    9  C   UNL     1      -8.500   7.315  69.052  1.00  0.00    -0.129 C  
HETATM   10  C   UNL     1      -8.684   6.258  70.117  1.00  0.00    -0.138 C  
HETATM   11  C   UNL     1      -8.497   8.656  69.267  1.00  0.00    -0.123 C  
HETATM   12  C   UNL     1      -8.357   9.634  68.075  1.00  0.00    -0.117 C  
BRANCH  11  13
HETATM   13  C   UNL     1      -8.721   9.162  70.655  1.00  0.00    -0.229 C  
HETATM   14  O   UNL     1      -7.818   9.356  71.458  1.00  0.00    -0.308 OA 
BRANCH  13  15
HETATM   15  O   UNL     1     -10.039   9.300  70.954  1.00  0.00    -0.258 OA 
BRANCH  15  16
HETATM   16  C   UNL     1     -10.444   8.644  72.173  1.00  0.00    -0.340 C  
HETATM   17  C   UNL     1     -12.912   9.285  72.003  1.00  0.00    -0.504 C  
HETATM   18  C   UNL     1     -11.899   8.155  72.181  1.00  0.00    -0.417 C  
HETATM   19  C   UNL     1     -12.137   7.065  71.138  1.00  0.00    -0.412 C  
ENDBRANCH  15  16
ENDBRANCH  13  15
ENDBRANCH  11  13
BRANCH  12  20
HETATM   20  C   UNL     1      -9.405  10.756  68.119  1.00  0.00    -0.155 A  
HETATM   21  O   UNL     1      -6.926  12.229  67.207  1.00  0.00    -0.143 OA 
HETATM   22  C   UNL     1     -10.767  10.394  68.194  1.00  0.00    -0.277 A  
HETATM   23  O   UNL     1      -7.502  13.525  68.881  1.00  0.00    -0.094 OA 
HETATM   24  C   UNL     1     -11.777  11.352  68.093  1.00  0.00    -0.355 A  
HETATM   25  N   UNL     1      -7.739  12.650  68.037  1.00  0.00    -0.126 N  
HETATM   26  C   UNL     1      -9.106  12.132  68.001  1.00  0.00    -0.190 A  
HETATM   27  C   UNL     1     -11.457  12.695  67.916  1.00  0.00    -0.360 A  
HETATM   28  C   UNL     1     -10.123  13.092  67.881  1.00  0.00    -0.232 A  
ENDBRANCH  12  20
ENDBRANCH   3   5
ENDBRANCH   2   3
TORSDOF 6
ENDMDL
MODEL       58
REMARK 921   NORMALIZED FREE ENERGY PREDICTED BY IDOCK:   -5.17 KCAL/MOL
REMARK 922        TOTAL FREE ENERGY PREDICTED BY IDOCK:   -7.59 KCAL/MOL
REMARK 923 INTER-LIGAND FREE ENERGY PREDICTED BY IDOCK:   -5.73 KCAL/MOL
REMARK 924 INTRA-LIGAND FREE ENERGY PREDICTED BY IDOCK:   -1.86 KCAL/MOL
REMARK 927      BINDING AFFINITY PREDICTED BY RF-SCORE:    0.00 PKD
ROOT
HETATM    1  C   UNL     1      -7.099  19.918  66.257  1.00  0.00    -0.255 C  
HETATM    2  O   UNL     1      -7.331  18.695  66.966  1.00  0.00    -0.207 OA 
ENDROOT
BRANCH   2   3
HETATM    3  C   UNL     1      -8.611  18.506  67.358  1.00  0.00    -0.258 C  
HETATM    4  O   UNL     1      -9.067  18.877  68.432  1.00  0.00    -0.319 OA 
BRANCH   3   5
HETATM    5  C   UNL     1      -9.376  17.721  66.348  1.00  0.00    -0.264 C  
HETATM    6  C   UNL     1     -10.343  18.335  65.626  1.00  0.00    -0.035 C  
HETATM    7  C   UNL     1     -10.683  19.811  65.631  1.00  0.00    -0.418 C  
HETATM    8  N   UNL     1     -11.160  17.582  64.805  1.00  0.00    -0.812 NA 
HETATM    9  C   UNL     1     -11.220  16.200  64.789  1.00  0.00    -0.304 C  
HETATM   10  C   UNL     1     -12.391  15.636  64.016  1.00  0.00     0.235 C  
HETATM   11  C   UNL     1     -10.295  15.468  65.461  1.00  0.00    -0.419 C  
HETATM   12  C   UNL     1      -9.176  16.177  66.262  1.00  0.00    -0.366 C  
BRANCH  11  13
HETATM   13  C   UNL     1     -10.433  13.980  65.483  1.00  0.00    -0.327 C  
HETATM   14  O   UNL     1      -9.924  13.240  64.651  1.00  0.00    -0.251 OA 
BRANCH  13  15
HETATM   15  O   UNL     1     -11.255  13.548  66.475  1.00  0.00    -0.297 OA 
BRANCH  15  16
HETATM   16  C   UNL     1     -11.362  12.113  66.576  1.00  0.00    -0.350 C  
HETATM   17  C   UNL     1      -9.365  11.813  68.141  1.00  0.00    -0.190 C  
HETATM   18  C   UNL     1     -10.846  11.526  67.897  1.00  0.00    -0.257 C  
HETATM   19  C   UNL     1     -11.677  11.994  69.089  1.00  0.00    -0.389 C  
ENDBRANCH  15  16
ENDBRANCH  13  15
ENDBRANCH  11  13
BRANCH  12  20
HETATM   20  C   UNL     1      -9.026  15.603  67.680  1.00  0.00    -0.183 A  
HETATM   21  O   UNL     1      -6.149  15.868  66.787  1.00  0.00    -0.234 OA 
HETATM   22  C   UNL     1     -10.147  15.644  68.537  1.00  0.00    -0.211 A  
HETATM   23  O   UNL     1      -6.116  13.775  67.441  1.00  0.00    -0.344 OA 
HETATM   24  C   UNL     1     -10.044  15.274  69.879  1.00  0.00    -0.204 A  
HETATM   25  N   UNL     1      -6.616  14.907  67.409  1.00  0.00    -0.101 N  
HETATM   26  C   UNL     1      -7.815  15.115  68.219  1.00  0.00    -0.124 A  
HETATM   27  C   UNL     1      -8.824  14.855  70.402  1.00  0.00     1.220 A  
HETATM   28  C   UNL     1      -7.709  14.762  69.574  1.00  0.00    -0.068 A  
ENDBRANCH  12  20
ENDBRANCH   3   5
ENDBRANCH   2   3
TORSDOF 6
ENDMDL
MODEL       59
REMARK 921   NORMALIZED FREE ENERGY PREDICTED BY IDOCK:   -5.12 KCAL/MOL
REMARK 922        TOTAL FREE ENERGY PREDICTED BY IDOCK:   -7.52 KCAL/MOL
REMARK 923 INTER-LIGAND FREE ENERGY PREDICTED BY IDOCK:   -6.49 KCAL/MOL
REMARK 924 INTRA-LIGAND FREE ENERGY PREDICTED BY IDOCK:   -1.03 KCAL/MOL
REMARK 927      BINDING AFFINITY PREDICTED BY RF-SCORE:    0.00 PKD
ROOT
HETATM    1  C   UNL     1     -11.856   8.618  70.591  1.00  0.00    -0.102 C  
HETATM    2  O   UNL     1     -10.994   9.762  70.581  1.00  0.00    -0.282 OA 
ENDROOT
BRANCH   2   3
HETATM    3  C   UNL     1      -9.708   9.495  70.264  1.00  0.00    -0.263 C  
HETATM    4  O   UNL     1      -8.749   9.771  70.974  1.00  0.00    -0.097 OA 
BRANCH   3   5
HETATM    5  C   UNL     1      -9.599   8.891  68.906  1.00  0.00    -0.160 C  
HETATM    6  C   UNL     1      -9.095   7.641  68.776  1.00  0.00    -0.139 C  
HETATM    7  C   UNL     1      -8.719   6.691  69.894  1.00  0.00    -0.141 C  
HETATM    8  N   UNL     1      -8.845   7.137  67.514  1.00  0.00    -0.120 NA 
HETATM    9  C   UNL     1      -8.876   7.869  66.341  1.00  0.00    -0.158 C  
HETATM   10  C   UNL     1      -8.286   7.156  65.145  1.00  0.00    -0.114 C  
HETATM   11  C   UNL     1      -9.376   9.132  66.337  1.00  0.00    -0.261 C  
HETATM   12  C   UNL     1      -9.899   9.765  67.650  1.00  0.00    -0.202 C  
BRANCH  11  13
HETATM   13  C   UNL     1      -9.326   9.921  65.068  1.00  0.00    -0.264 C  
HETATM   14  O   UNL     1      -8.291  10.169  64.466  1.00  0.00    -0.155 OA 
BRANCH  13  15
HETATM   15  O   UNL     1     -10.544  10.403  64.708  1.00  0.00    -0.185 OA 
BRANCH  15  16
HETATM   16  C   UNL     1     -10.534  11.205  63.510  1.00  0.00    -0.358 C  
HETATM   17  C   UNL     1     -12.712  12.446  64.011  1.00  0.00    -0.450 C  
HETATM   18  C   UNL     1     -11.233  12.566  63.647  1.00  0.00    -0.545 C  
HETATM   19  C   UNL     1     -10.517  13.473  64.645  1.00  0.00    -0.439 C  
ENDBRANCH  15  16
ENDBRANCH  13  15
ENDBRANCH  11  13
BRANCH  12  20
HETATM   20  C   UNL     1      -9.345  11.181  67.870  1.00  0.00    -0.161 A  
HETATM   21  O   UNL     1     -12.256  11.503  68.627  1.00  0.00    -0.492 OA 
HETATM   22  C   UNL     1      -7.946  11.348  67.927  1.00  0.00    -0.120 A  
HETATM   23  O   UNL     1     -12.083  13.163  67.204  1.00  0.00    -0.362 OA 
HETATM   24  C   UNL     1      -7.378  12.577  68.267  1.00  0.00    -0.115 A  
HETATM   25  N   UNL     1     -11.600  12.312  67.962  1.00  0.00    -0.329 N  
HETATM   26  C   UNL     1     -10.145  12.321  68.110  1.00  0.00    -0.211 A  
HETATM   27  C   UNL     1      -8.188  13.671  68.559  1.00  0.00    -0.112 A  
HETATM   28  C   UNL     1      -9.572  13.552  68.470  1.00  0.00    -0.151 A  
ENDBRANCH  12  20
ENDBRANCH   3   5
ENDBRANCH   2   3
TORSDOF 6
ENDMDL
MODEL       60
REMARK 921   NORMALIZED FREE ENERGY PREDICTED BY IDOCK:   -5.10 KCAL/MOL
REMARK 922        TOTAL FREE ENERGY PREDICTED BY IDOCK:   -7.49 KCAL/MOL
REMARK 923 INTER-LIGAND FREE ENERGY PREDICTED BY IDOCK:   -7.49 KCAL/MOL
REMARK 924 INTRA-LIGAND FREE ENERGY PREDICTED BY IDOCK:   -0.01 KCAL/MOL
REMARK 927      BINDING AFFINITY PREDICTED BY RF-SCORE:    0.00 PKD
ROOT
HETATM    1  C   UNL     1      -6.262  16.099  69.700  1.00  0.00    -0.191 C  
HETATM    2  O   UNL     1      -7.068  15.359  68.776  1.00  0.00    -0.115 OA 
ENDROOT
BRANCH   2   3
HETATM    3  C   UNL     1      -8.393  15.615  68.853  1.00  0.00    -0.210 C  
HETATM    4  O   UNL     1      -9.007  15.766  69.902  1.00  0.00    -0.083 OA 
BRANCH   3   5
HETATM    5  C   UNL     1      -9.023  15.617  67.503  1.00  0.00    -0.199 C  
HETATM    6  C   UNL     1      -9.497  16.779  66.995  1.00  0.00    -0.232 C  
HETATM    7  C   UNL     1      -9.356  18.160  67.599  1.00  0.00    -0.260 C  
HETATM    8  N   UNL     1     -10.222  16.761  65.818  1.00  0.00    -0.530 NA 
HETATM    9  C   UNL     1     -10.693  15.623  65.188  1.00  0.00    -0.443 C  
HETATM   10  C   UNL     1     -11.695  15.889  64.087  1.00  0.00    -0.028 C  
HETATM   11  C   UNL     1     -10.279  14.395  65.595  1.00  0.00    -0.371 C  
HETATM   12  C   UNL     1      -9.288  14.262  66.777  1.00  0.00    -0.290 C  
BRANCH  11  13
HETATM   13  C   UNL     1     -10.864  13.185  64.941  1.00  0.00    -0.332 C  
HETATM   14  O   UNL     1     -11.884  12.632  65.330  1.00  0.00    -0.380 OA 
BRANCH  13  15
HETATM   15  O   UNL     1     -10.094  12.719  63.924  1.00  0.00    -0.358 OA 
BRANCH  15  16
HETATM   16  C   UNL     1     -10.546  11.472  63.359  1.00  0.00    -0.395 C  
HETATM   17  C   UNL     1      -8.269  10.764  62.440  1.00  0.00    -0.264 C  
HETATM   18  C   UNL     1      -9.473  10.375  63.295  1.00  0.00    -0.361 C  
HETATM   19  C   UNL     1      -9.015   9.947  64.687  1.00  0.00    -0.260 C  
ENDBRANCH  15  16
ENDBRANCH  13  15
ENDBRANCH  11  13
BRANCH  12  20
HETATM   20  C   UNL     1      -9.749  13.216  67.804  1.00  0.00    -0.218 A  
HETATM   21  O   UNL     1     -12.241  14.887  67.428  1.00  0.00    -0.150 OA 
HETATM   22  C   UNL     1      -8.952  12.066  67.988  1.00  0.00    -0.187 A  
HETATM   23  O   UNL     1     -12.116  14.942  69.616  1.00  0.00    -0.300 OA 
HETATM   24  C   UNL     1      -9.381  11.010  68.795  1.00  0.00    -0.185 A  
HETATM   25  N   UNL     1     -11.824  14.465  68.512  1.00  0.00    -0.338 N  
HETATM   26  C   UNL     1     -10.967  13.281  68.518  1.00  0.00    -0.266 A  
HETATM   27  C   UNL     1     -10.613  11.072  69.439  1.00  0.00    -0.212 A  
HETATM   28  C   UNL     1     -11.405  12.211  69.314  1.00  0.00    -0.327 A  
ENDBRANCH  12  20
ENDBRANCH   3   5
ENDBRANCH   2   3
TORSDOF 6
ENDMDL
MODEL       61
REMARK 921   NORMALIZED FREE ENERGY PREDICTED BY IDOCK:   -5.10 KCAL/MOL
REMARK 922        TOTAL FREE ENERGY PREDICTED BY IDOCK:   -7.49 KCAL/MOL
REMARK 923 INTER-LIGAND FREE ENERGY PREDICTED BY IDOCK:   -8.18 KCAL/MOL
REMARK 924 INTRA-LIGAND FREE ENERGY PREDICTED BY IDOCK:    0.69 KCAL/MOL
REMARK 927      BINDING AFFINITY PREDICTED BY RF-SCORE:    0.00 PKD
ROOT
HETATM    1  C   UNL     1      -7.697  10.146  64.794  1.00  0.00    -0.141 C  
HETATM    2  O   UNL     1      -8.663  10.613  65.742  1.00  0.00    -0.170 OA 
ENDROOT
BRANCH   2   3
HETATM    3  C   UNL     1      -8.140  11.266  66.804  1.00  0.00    -0.159 C  
HETATM    4  O   UNL     1      -6.984  11.665  66.869  1.00  0.00    -0.140 OA 
BRANCH   3   5
HETATM    5  C   UNL     1      -9.128  11.372  67.914  1.00  0.00    -0.164 C  
HETATM    6  C   UNL     1      -9.646  10.241  68.449  1.00  0.00    -0.149 C  
HETATM    7  C   UNL     1      -9.246   8.817  68.129  1.00  0.00    -0.145 C  
HETATM    8  N   UNL     1     -10.676  10.333  69.366  1.00  0.00    -0.225 NA 
HETATM    9  C   UNL     1     -11.384  11.485  69.660  1.00  0.00    -0.256 C  
HETATM   10  C   UNL     1     -12.637  11.258  70.474  1.00  0.00    -0.331 C  
HETATM   11  C   UNL     1     -10.955  12.688  69.195  1.00  0.00    -0.195 C  
HETATM   12  C   UNL     1      -9.680  12.773  68.321  1.00  0.00    -0.216 C  
BRANCH  11  13
HETATM   13  C   UNL     1     -11.783  13.901  69.469  1.00  0.00    -0.313 C  
HETATM   14  O   UNL     1     -12.469  14.458  68.622  1.00  0.00    -0.115 OA 
BRANCH  13  15
HETATM   15  O   UNL     1     -11.621  14.367  70.735  1.00  0.00    -0.264 OA 
BRANCH  15  16
HETATM   16  C   UNL     1     -12.314  15.602  71.007  1.00  0.00    -0.428 C  
HETATM   17  C   UNL     1     -14.405  14.514  71.993  1.00  0.00    -0.639 C  
HETATM   18  C   UNL     1     -13.289  15.539  72.191  1.00  0.00    -0.561 C  
HETATM   19  C   UNL     1     -12.566  15.281  73.510  1.00  0.00    -0.681 C  
ENDBRANCH  15  16
ENDBRANCH  13  15
ENDBRANCH  11  13
BRANCH  12  20
HETATM   20  C   UNL     1      -9.899  13.620  67.059  1.00  0.00    -0.251 A  
HETATM   21  O   UNL     1     -12.157  11.615  66.886  1.00  0.00    -0.512 OA 
HETATM   22  C   UNL     1      -9.229  14.858  66.962  1.00  0.00    -0.249 A  
HETATM   23  O   UNL     1     -11.313  11.358  64.879  1.00  0.00    -0.176 OA 
HETATM   24  C   UNL     1      -9.492  15.742  65.914  1.00  0.00    -0.377 A  
HETATM   25  N   UNL     1     -11.460  11.986  65.935  1.00  0.00    -0.353 N  
HETATM   26  C   UNL     1     -10.797  13.286  66.020  1.00  0.00    -0.273 A  
HETATM   27  C   UNL     1     -10.427  15.417  64.935  1.00  0.00    -0.323 A  
HETATM   28  C   UNL     1     -11.073  14.184  64.977  1.00  0.00    -0.372 A  
ENDBRANCH  12  20
ENDBRANCH   3   5
ENDBRANCH   2   3
TORSDOF 6
ENDMDL
MODEL       62
REMARK 921   NORMALIZED FREE ENERGY PREDICTED BY IDOCK:   -4.98 KCAL/MOL
REMARK 922        TOTAL FREE ENERGY PREDICTED BY IDOCK:   -7.34 KCAL/MOL
REMARK 923 INTER-LIGAND FREE ENERGY PREDICTED BY IDOCK:   -5.59 KCAL/MOL
REMARK 924 INTRA-LIGAND FREE ENERGY PREDICTED BY IDOCK:   -1.74 KCAL/MOL
REMARK 927      BINDING AFFINITY PREDICTED BY RF-SCORE:    0.00 PKD
ROOT
HETATM    1  C   UNL     1     -10.900  11.657  66.133  1.00  0.00    -0.294 C  
HETATM    2  O   UNL     1     -11.669  11.409  67.315  1.00  0.00    -0.577 OA 
ENDROOT
BRANCH   2   3
HETATM    3  C   UNL     1     -11.002  11.610  68.473  1.00  0.00    -0.220 C  
HETATM    4  O   UNL     1     -10.258  12.560  68.687  1.00  0.00    -0.220 OA 
BRANCH   3   5
HETATM    5  C   UNL     1     -11.227  10.490  69.429  1.00  0.00    -0.327 C  
HETATM    6  C   UNL     1     -11.948  10.713  70.553  1.00  0.00    -0.352 C  
HETATM    7  C   UNL     1     -12.686  11.983  70.923  1.00  0.00    -0.291 C  
HETATM    8  N   UNL     1     -12.027   9.727  71.518  1.00  0.00    -0.395 NA 
HETATM    9  C   UNL     1     -11.266   8.572  71.543  1.00  0.00    -0.279 C  
HETATM   10  C   UNL     1     -11.336   7.806  72.845  1.00  0.00    -0.406 C  
HETATM   11  C   UNL     1     -10.511   8.227  70.467  1.00  0.00    -0.225 C  
HETATM   12  C   UNL     1     -10.486   9.134  69.213  1.00  0.00    -0.231 C  
BRANCH  11  13
HETATM   13  C   UNL     1      -9.645   7.013  70.557  1.00  0.00    -0.169 C  
HETATM   14  O   UNL     1      -9.924   5.942  70.034  1.00  0.00    -0.167 OA 
BRANCH  13  15
HETATM   15  O   UNL     1      -8.560   7.204  71.352  1.00  0.00    -0.116 OA 
BRANCH  15  16
HETATM   16  C   UNL     1      -7.673   6.070  71.430  1.00  0.00    -0.104 C  
HETATM   17  C   UNL     1      -5.969   6.957  69.745  1.00  0.00    -0.023 C  
HETATM   18  C   UNL     1      -6.199   6.393  71.146  1.00  0.00    -0.040 C  
HETATM   19  C   UNL     1      -5.610   7.332  72.196  1.00  0.00    -0.037 C  
ENDBRANCH  15  16
ENDBRANCH  13  15
ENDBRANCH  11  13
BRANCH  12  20
HETATM   20  C   UNL     1      -9.056   9.407  68.724  1.00  0.00    -0.132 A  
HETATM   21  O   UNL     1     -10.410   8.399  66.215  1.00  0.00    -0.154 OA 
HETATM   22  C   UNL     1      -8.211  10.192  69.539  1.00  0.00    -0.176 A  
HETATM   23  O   UNL     1      -8.664   7.072  66.222  1.00  0.00    -0.135 OA 
HETATM   24  C   UNL     1      -6.953  10.599  69.094  1.00  0.00    -0.085 A  
HETATM   25  N   UNL     1      -9.272   8.088  66.584  1.00  0.00    -0.169 N  
HETATM   26  C   UNL     1      -8.551   9.000  67.469  1.00  0.00    -0.120 A  
HETATM   27  C   UNL     1      -6.502  10.236  67.827  1.00  0.00    -0.062 A  
HETATM   28  C   UNL     1      -7.292   9.427  67.015  1.00  0.00    -0.087 A  
ENDBRANCH  12  20
ENDBRANCH   3   5
ENDBRANCH   2   3
TORSDOF 6
ENDMDL
MODEL       63
REMARK 921   NORMALIZED FREE ENERGY PREDICTED BY IDOCK:   -4.98 KCAL/MOL
REMARK 922        TOTAL FREE ENERGY PREDICTED BY IDOCK:   -7.33 KCAL/MOL
REMARK 923 INTER-LIGAND FREE ENERGY PREDICTED BY IDOCK:   -6.33 KCAL/MOL
REMARK 924 INTRA-LIGAND FREE ENERGY PREDICTED BY IDOCK:   -1.00 KCAL/MOL
REMARK 927      BINDING AFFINITY PREDICTED BY RF-SCORE:    0.00 PKD
ROOT
HETATM    1  C   UNL     1     -10.338   5.442  68.966  1.00  0.00    -0.212 C  
HETATM    2  O   UNL     1      -9.535   6.391  68.255  1.00  0.00    -0.123 OA 
ENDROOT
BRANCH   2   3
HETATM    3  C   UNL     1     -10.231   7.231  67.457  1.00  0.00    -0.221 C  
HETATM    4  O   UNL     1     -11.386   7.043  67.095  1.00  0.00    -0.240 OA 
BRANCH   3   5
HETATM    5  C   UNL     1      -9.389   8.377  67.013  1.00  0.00    -0.202 C  
HETATM    6  C   UNL     1      -8.397   8.162  66.116  1.00  0.00    -0.126 C  
HETATM    7  C   UNL     1      -8.096   6.871  65.386  1.00  0.00    -0.133 C  
HETATM    8  N   UNL     1      -7.514   9.184  65.821  1.00  0.00    -0.090 NA 
HETATM    9  C   UNL     1      -7.418  10.379  66.510  1.00  0.00    -0.119 C  
HETATM   10  C   UNL     1      -6.190  11.196  66.174  1.00  0.00    -0.071 C  
HETATM   11  C   UNL     1      -8.362  10.719  67.425  1.00  0.00    -0.119 C  
HETATM   12  C   UNL     1      -9.544   9.762  67.714  1.00  0.00    -0.157 C  
BRANCH  11  13
HETATM   13  C   UNL     1      -8.188  11.984  68.203  1.00  0.00    -0.163 C  
HETATM   14  O   UNL     1      -7.193  12.237  68.869  1.00  0.00    -0.109 OA 
BRANCH  13  15
HETATM   15  O   UNL     1      -9.289  12.778  68.159  1.00  0.00    -0.206 OA 
BRANCH  15  16
HETATM   16  C   UNL     1      -9.357  13.636  67.002  1.00  0.00    -0.248 C  
HETATM   17  C   UNL     1     -11.013  12.187  65.702  1.00  0.00    -0.337 C  
HETATM   18  C   UNL     1     -10.690  13.580  66.243  1.00  0.00    -0.288 C  
HETATM   19  C   UNL     1     -11.849  14.096  67.092  1.00  0.00    -0.454 C  
ENDBRANCH  15  16
ENDBRANCH  13  15
ENDBRANCH  11  13
BRANCH  12  20
HETATM   20  C   UNL     1      -9.761   9.549  69.220  1.00  0.00    -0.180 A  
HETATM   21  O   UNL     1     -12.397  10.753  68.355  1.00  0.00    -0.396 OA 
HETATM   22  C   UNL     1      -8.863   8.707  69.911  1.00  0.00    -0.144 A  
HETATM   23  O   UNL     1     -11.937  12.095  70.027  1.00  0.00    -0.329 OA 
HETATM   24  C   UNL     1      -9.083   8.355  71.244  1.00  0.00    -0.226 A  
HETATM   25  N   UNL     1     -11.787  11.045  69.389  1.00  0.00    -0.312 N  
HETATM   26  C   UNL     1     -10.855  10.068  69.949  1.00  0.00    -0.285 A  
HETATM   27  C   UNL     1     -10.201   8.831  71.923  1.00  0.00    -0.415 A  
HETATM   28  C   UNL     1     -11.084   9.697  71.284  1.00  0.00    -0.426 A  
ENDBRANCH  12  20
ENDBRANCH   3   5
ENDBRANCH   2   3
TORSDOF 6
ENDMDL
MODEL       64
REMARK 921   NORMALIZED FREE ENERGY PREDICTED BY IDOCK:   -4.94 KCAL/MOL
REMARK 922        TOTAL FREE ENERGY PREDICTED BY IDOCK:   -7.28 KCAL/MOL
REMARK 923 INTER-LIGAND FREE ENERGY PREDICTED BY IDOCK:   -6.27 KCAL/MOL
REMARK 924 INTRA-LIGAND FREE ENERGY PREDICTED BY IDOCK:   -1.01 KCAL/MOL
REMARK 927      BINDING AFFINITY PREDICTED BY RF-SCORE:    0.00 PKD
ROOT
HETATM    1  C   UNL     1     -11.801  15.351  69.118  1.00  0.00    -0.335 C  
HETATM    2  O   UNL     1     -11.503  14.521  67.990  1.00  0.00    -0.290 OA 
ENDROOT
BRANCH   2   3
HETATM    3  C   UNL     1     -10.194  14.215  67.846  1.00  0.00    -0.235 C  
HETATM    4  O   UNL     1      -9.306  14.608  68.593  1.00  0.00    -0.199 OA 
BRANCH   3   5
HETATM    5  C   UNL     1      -9.960  13.401  66.620  1.00  0.00    -0.277 C  
HETATM    6  C   UNL     1     -10.360  13.883  65.419  1.00  0.00    -0.348 C  
HETATM    7  C   UNL     1     -10.935  15.254  65.136  1.00  0.00    -0.428 C  
HETATM    8  N   UNL     1     -10.291  13.070  64.304  1.00  0.00    -0.402 NA 
HETATM    9  C   UNL     1     -10.028  11.712  64.320  1.00  0.00    -0.267 C  
HETATM   10  C   UNL     1     -10.294  11.009  63.008  1.00  0.00    -0.162 C  
HETATM   11  C   UNL     1      -9.602  11.112  65.462  1.00  0.00    -0.263 C  
HETATM   12  C   UNL     1      -9.424  11.943  66.756  1.00  0.00    -0.207 C  
BRANCH  11  13
HETATM   13  C   UNL     1      -9.399   9.632  65.464  1.00  0.00    -0.248 C  
HETATM   14  O   UNL     1     -10.152   8.845  66.021  1.00  0.00    -0.260 OA 
BRANCH  13  15
HETATM   15  O   UNL     1      -8.242   9.265  64.854  1.00  0.00    -0.129 OA 
BRANCH  15  16
HETATM   16  C   UNL     1      -7.205   8.830  65.757  1.00  0.00    -0.084 C  
HETATM   17  C   UNL     1      -5.302   8.975  64.058  1.00  0.00    -0.060 C  
HETATM   18  C   UNL     1      -5.809   9.384  65.440  1.00  0.00    -0.058 C  
HETATM   19  C   UNL     1      -5.751  10.901  65.595  1.00  0.00    -0.099 C  
ENDBRANCH  15  16
ENDBRANCH  13  15
ENDBRANCH  11  13
BRANCH  12  20
HETATM   20  C   UNL     1     -10.081  11.270  67.971  1.00  0.00    -0.192 A  
HETATM   21  O   UNL     1      -7.166  11.344  68.776  1.00  0.00    -0.092 OA 
HETATM   22  C   UNL     1     -11.484  11.352  68.101  1.00  0.00    -0.375 A  
HETATM   23  O   UNL     1      -7.571   9.218  69.136  1.00  0.00    -0.071 OA 
HETATM   24  C   UNL     1     -12.132  10.891  69.248  1.00  0.00    -0.332 A  
HETATM   25  N   UNL     1      -7.930  10.389  68.955  1.00  0.00    -0.121 N  
HETATM   26  C   UNL     1      -9.368  10.647  69.020  1.00  0.00    -0.180 A  
HETATM   27  C   UNL     1     -11.400  10.337  70.295  1.00  0.00    -0.398 A  
HETATM   28  C   UNL     1     -10.019  10.201  70.181  1.00  0.00    -0.154 A  
ENDBRANCH  12  20
ENDBRANCH   3   5
ENDBRANCH   2   3
TORSDOF 6
ENDMDL
MODEL       65
REMARK 921   NORMALIZED FREE ENERGY PREDICTED BY IDOCK:   -4.86 KCAL/MOL
REMARK 922        TOTAL FREE ENERGY PREDICTED BY IDOCK:   -7.17 KCAL/MOL
REMARK 923 INTER-LIGAND FREE ENERGY PREDICTED BY IDOCK:   -5.39 KCAL/MOL
REMARK 924 INTRA-LIGAND FREE ENERGY PREDICTED BY IDOCK:   -1.78 KCAL/MOL
REMARK 927      BINDING AFFINITY PREDICTED BY RF-SCORE:    0.00 PKD
ROOT
HETATM    1  C   UNL     1     -12.191  10.867  69.189  1.00  0.00    -0.110 C  
HETATM    2  O   UNL     1     -10.814  10.552  69.421  1.00  0.00    -0.216 OA 
ENDROOT
BRANCH   2   3
HETATM    3  C   UNL     1     -10.058  10.471  68.304  1.00  0.00    -0.160 C  
HETATM    4  O   UNL     1     -10.379   9.855  67.295  1.00  0.00    -0.214 OA 
BRANCH   3   5
HETATM    5  C   UNL     1      -8.751  11.164  68.484  1.00  0.00    -0.161 C  
HETATM    6  C   UNL     1      -7.843  10.650  69.346  1.00  0.00    -0.121 C  
HETATM    7  C   UNL     1      -7.942   9.340  70.098  1.00  0.00    -0.143 C  
HETATM    8  N   UNL     1      -6.699  11.369  69.636  1.00  0.00    -0.126 NA 
HETATM    9  C   UNL     1      -6.469  12.685  69.275  1.00  0.00    -0.106 C  
HETATM   10  C   UNL     1      -5.279  13.321  69.957  1.00  0.00    -0.092 C  
HETATM   11  C   UNL     1      -7.301  13.309  68.401  1.00  0.00    -0.112 C  
HETATM   12  C   UNL     1      -8.521  12.555  67.817  1.00  0.00    -0.171 C  
BRANCH  11  13
HETATM   13  C   UNL     1      -7.066  14.751  68.089  1.00  0.00    -0.121 C  
HETATM   14  O   UNL     1      -6.355  15.139  67.172  1.00  0.00    -0.280 OA 
BRANCH  13  15
HETATM   15  O   UNL     1      -7.658  15.581  68.988  1.00  0.00    -0.149 OA 
BRANCH  15  16
HETATM   16  C   UNL     1      -7.511  16.984  68.689  1.00  0.00    -0.229 C  
HETATM   17  C   UNL     1      -9.243  17.031  66.810  1.00  0.00    -0.270 C  
HETATM   18  C   UNL     1      -8.773  17.652  68.125  1.00  0.00    -0.265 C  
HETATM   19  C   UNL     1      -9.913  17.660  69.140  1.00  0.00    -0.192 C  
ENDBRANCH  15  16
ENDBRANCH  13  15
ENDBRANCH  11  13
BRANCH  12  20
HETATM   20  C   UNL     1      -9.811  13.383  67.908  1.00  0.00    -0.237 A  
HETATM   21  O   UNL     1      -9.970  12.254  65.107  1.00  0.00    -0.261 OA 
HETATM   22  C   UNL     1     -10.246  13.804  69.183  1.00  0.00     0.061 A  
HETATM   23  O   UNL     1     -10.294  14.373  64.643  1.00  0.00    -0.397 OA 
HETATM   24  C   UNL     1     -11.479  14.433  69.356  1.00  0.00    -0.330 A  
HETATM   25  N   UNL     1     -10.259  13.413  65.424  1.00  0.00    -0.307 N  
HETATM   26  C   UNL     1     -10.647  13.682  66.807  1.00  0.00    -0.273 A  
HETATM   27  C   UNL     1     -12.312  14.661  68.264  1.00  0.00     0.041 A  
HETATM   28  C   UNL     1     -11.896  14.299  66.986  1.00  0.00    -0.455 A  
ENDBRANCH  12  20
ENDBRANCH   3   5
ENDBRANCH   2   3
TORSDOF 6
ENDMDL
MODEL       66
REMARK 921   NORMALIZED FREE ENERGY PREDICTED BY IDOCK:   -4.86 KCAL/MOL
REMARK 922        TOTAL FREE ENERGY PREDICTED BY IDOCK:   -7.17 KCAL/MOL
REMARK 923 INTER-LIGAND FREE ENERGY PREDICTED BY IDOCK:   -5.68 KCAL/MOL
REMARK 924 INTRA-LIGAND FREE ENERGY PREDICTED BY IDOCK:   -1.49 KCAL/MOL
REMARK 927      BINDING AFFINITY PREDICTED BY RF-SCORE:    0.00 PKD
ROOT
HETATM    1  C   UNL     1     -10.141   4.449  71.037  1.00  0.00    -0.125 C  
HETATM    2  O   UNL     1     -10.430   4.908  69.712  1.00  0.00    -0.232 OA 
ENDROOT
BRANCH   2   3
HETATM    3  C   UNL     1      -9.365   5.400  69.041  1.00  0.00    -0.127 C  
HETATM    4  O   UNL     1      -8.211   5.022  69.203  1.00  0.00    -0.082 OA 
BRANCH   3   5
HETATM    5  C   UNL     1      -9.763   6.514  68.135  1.00  0.00    -0.126 C  
HETATM    6  C   UNL     1      -9.421   6.457  66.826  1.00  0.00    -0.150 C  
HETATM    7  C   UNL     1      -8.756   5.301  66.109  1.00  0.00    -0.129 C  
HETATM    8  N   UNL     1      -9.647   7.554  66.017  1.00  0.00     0.020 NA 
HETATM    9  C   UNL     1     -10.021   8.810  66.459  1.00  0.00    -0.290 C  
HETATM   10  C   UNL     1      -9.920   9.896  65.413  1.00  0.00    -0.349 C  
HETATM   11  C   UNL     1     -10.404   8.994  67.750  1.00  0.00    -0.304 C  
HETATM   12  C   UNL     1     -10.408   7.801  68.736  1.00  0.00    -0.219 C  
BRANCH  11  13
HETATM   13  C   UNL     1     -10.731  10.377  68.213  1.00  0.00    -0.235 C  
HETATM   14  O   UNL     1     -11.812  10.917  68.021  1.00  0.00    -0.585 OA 
BRANCH  13  15
HETATM   15  O   UNL     1      -9.669  10.997  68.791  1.00  0.00    -0.188 OA 
BRANCH  15  16
HETATM   16  C   UNL     1      -9.002  11.950  67.940  1.00  0.00    -0.179 C  
HETATM   17  C   UNL     1      -6.841  12.043  69.301  1.00  0.00    -0.066 C  
HETATM   18  C   UNL     1      -7.471  11.830  67.925  1.00  0.00    -0.108 C  
HETATM   19  C   UNL     1      -7.012  10.499  67.336  1.00  0.00    -0.085 C  
ENDBRANCH  15  16
ENDBRANCH  13  15
ENDBRANCH  11  13
BRANCH  12  20
HETATM   20  C   UNL     1      -9.716   8.145  70.064  1.00  0.00    -0.172 A  
HETATM   21  O   UNL     1     -12.407   7.121  70.990  1.00  0.00    -0.352 OA 
HETATM   22  C   UNL     1      -8.320   8.352  70.054  1.00  0.00    -0.123 A  
HETATM   23  O   UNL     1     -12.366   9.023  72.082  1.00  0.00    -0.368 OA 
HETATM   24  C   UNL     1      -7.606   8.525  71.241  1.00  0.00    -0.115 A  
HETATM   25  N   UNL     1     -11.821   8.105  71.455  1.00  0.00    -0.283 N  
HETATM   26  C   UNL     1     -10.368   8.182  71.317  1.00  0.00    -0.199 A  
HETATM   27  C   UNL     1      -8.263   8.497  72.468  1.00  0.00    -0.144 A  
HETATM   28  C   UNL     1      -9.645   8.338  72.511  1.00  0.00    -0.365 A  
ENDBRANCH  12  20
ENDBRANCH   3   5
ENDBRANCH   2   3
TORSDOF 6
ENDMDL
MODEL       67
REMARK 921   NORMALIZED FREE ENERGY PREDICTED BY IDOCK:   -4.81 KCAL/MOL
REMARK 922        TOTAL FREE ENERGY PREDICTED BY IDOCK:   -7.11 KCAL/MOL
REMARK 923 INTER-LIGAND FREE ENERGY PREDICTED BY IDOCK:   -5.39 KCAL/MOL
REMARK 924 INTRA-LIGAND FREE ENERGY PREDICTED BY IDOCK:   -1.72 KCAL/MOL
REMARK 927      BINDING AFFINITY PREDICTED BY RF-SCORE:    0.00 PKD
ROOT
HETATM    1  C   UNL     1      -9.251   2.162  69.437  1.00  0.00    -0.118 C  
HETATM    2  O   UNL     1      -9.759   3.491  69.274  1.00  0.00    -0.143 OA 
ENDROOT
BRANCH   2   3
HETATM    3  C   UNL     1      -8.923   4.339  68.635  1.00  0.00    -0.114 C  
HETATM    4  O   UNL     1      -7.748   4.096  68.386  1.00  0.00    -0.069 OA 
BRANCH   3   5
HETATM    5  C   UNL     1      -9.592   5.637  68.338  1.00  0.00    -0.152 C  
HETATM    6  C   UNL     1      -9.899   5.946  67.056  1.00  0.00    -0.149 C  
HETATM    7  C   UNL     1      -9.748   5.051  65.844  1.00  0.00    -0.182 C  
HETATM    8  N   UNL     1     -10.372   7.209  66.756  1.00  0.00    -0.250 NA 
HETATM    9  C   UNL     1     -10.383   8.285  67.625  1.00  0.00    -0.248 C  
HETATM   10  C   UNL     1     -10.679   9.615  66.968  1.00  0.00    -0.225 C  
HETATM   11  C   UNL     1     -10.109   8.102  68.943  1.00  0.00    -0.211 C  
HETATM   12  C   UNL     1      -9.766   6.690  69.476  1.00  0.00    -0.156 C  
BRANCH  11  13
HETATM   13  C   UNL     1     -10.058   9.297  69.839  1.00  0.00    -0.209 C  
HETATM   14  O   UNL     1      -9.046   9.960  70.027  1.00  0.00    -0.225 OA 
BRANCH  13  15
HETATM   15  O   UNL     1     -11.232   9.512  70.488  1.00  0.00    -0.252 OA 
BRANCH  15  16
HETATM   16  C   UNL     1     -11.272   8.993  71.832  1.00  0.00    -0.368 C  
HETATM   17  C   UNL     1     -13.780   9.351  72.173  1.00  0.00    -0.490 C  
HETATM   18  C   UNL     1     -12.615   8.364  72.233  1.00  0.00    -0.401 C  
HETATM   19  C   UNL     1     -12.932   7.124  71.402  1.00  0.00    -0.419 C  
ENDBRANCH  15  16
ENDBRANCH  13  15
ENDBRANCH  11  13
BRANCH  12  20
HETATM   20  C   UNL     1      -8.511   6.695  70.362  1.00  0.00    -0.135 A  
HETATM   21  O   UNL     1     -10.395   4.921  71.927  1.00  0.00    -0.200 OA 
HETATM   22  C   UNL     1      -7.301   7.158  69.802  1.00  0.00    -0.085 A  
HETATM   23  O   UNL     1      -9.827   6.315  73.522  1.00  0.00    -0.159 OA 
HETATM   24  C   UNL     1      -6.096   7.057  70.499  1.00  0.00    -0.027 A  
HETATM   25  N   UNL     1      -9.659   5.784  72.417  1.00  0.00    -0.149 N  
HETATM   26  C   UNL     1      -8.462   6.182  71.678  1.00  0.00    -0.130 A  
HETATM   27  C   UNL     1      -6.064   6.492  71.771  1.00  0.00    -0.038 A  
HETATM   28  C   UNL     1      -7.246   6.064  72.370  1.00  0.00    -0.086 A  
ENDBRANCH  12  20
ENDBRANCH   3   5
ENDBRANCH   2   3
TORSDOF 6
ENDMDL
MODEL       68
REMARK 921   NORMALIZED FREE ENERGY PREDICTED BY IDOCK:   -4.79 KCAL/MOL
REMARK 922        TOTAL FREE ENERGY PREDICTED BY IDOCK:   -7.07 KCAL/MOL
REMARK 923 INTER-LIGAND FREE ENERGY PREDICTED BY IDOCK:   -5.21 KCAL/MOL
REMARK 924 INTRA-LIGAND FREE ENERGY PREDICTED BY IDOCK:   -1.86 KCAL/MOL
REMARK 927      BINDING AFFINITY PREDICTED BY RF-SCORE:    0.00 PKD
ROOT
HETATM    1  C   UNL     1      -8.865  10.211  67.055  1.00  0.00    -0.135 C  
HETATM    2  O   UNL     1      -8.919   9.310  68.167  1.00  0.00    -0.129 OA 
ENDROOT
BRANCH   2   3
HETATM    3  C   UNL     1      -9.621   8.178  67.941  1.00  0.00    -0.155 C  
HETATM    4  O   UNL     1     -10.777   8.149  67.536  1.00  0.00    -0.242 OA 
BRANCH   3   5
HETATM    5  C   UNL     1      -8.834   6.970  68.318  1.00  0.00    -0.126 C  
HETATM    6  C   UNL     1      -8.496   6.074  67.360  1.00  0.00    -0.104 C  
HETATM    7  C   UNL     1      -8.723   6.208  65.870  1.00  0.00    -0.158 C  
HETATM    8  N   UNL     1      -7.907   4.878  67.726  1.00  0.00    -0.093 NA 
HETATM    9  C   UNL     1      -7.799   4.404  69.020  1.00  0.00    -0.069 C  
HETATM   10  C   UNL     1      -7.380   2.955  69.121  1.00  0.00    -0.044 C  
HETATM   11  C   UNL     1      -8.094   5.213  70.071  1.00  0.00    -0.082 C  
HETATM   12  C   UNL     1      -8.568   6.666  69.824  1.00  0.00    -0.136 C  
BRANCH  11  13
HETATM   13  C   UNL     1      -8.038   4.646  71.453  1.00  0.00    -0.101 C  
HETATM   14  O   UNL     1      -7.081   4.785  72.204  1.00  0.00    -0.058 OA 
BRANCH  13  15
HETATM   15  O   UNL     1      -9.125   3.887  71.749  1.00  0.00    -0.110 OA 
BRANCH  15  16
HETATM   16  C   UNL     1      -9.129   3.350  73.087  1.00  0.00    -0.097 C  
HETATM   17  C   UNL     1     -10.195   5.396  74.186  1.00  0.00    -0.282 C  
HETATM   18  C   UNL     1     -10.254   3.882  73.986  1.00  0.00    -0.222 C  
HETATM   19  C   UNL     1     -11.632   3.472  73.473  1.00  0.00    -0.059 C  
ENDBRANCH  15  16
ENDBRANCH  13  15
ENDBRANCH  11  13
BRANCH  12  20
HETATM   20  C   UNL     1      -9.820   7.013  70.644  1.00  0.00    -0.187 A  
HETATM   21  O   UNL     1      -7.926   9.251  71.385  1.00  0.00    -0.335 OA 
HETATM   22  C   UNL     1     -11.033   6.372  70.313  1.00  0.00    -0.378 A  
HETATM   23  O   UNL     1      -8.492   8.597  73.400  1.00  0.00    -0.385 OA 
HETATM   24  C   UNL     1     -12.235   6.743  70.916  1.00  0.00    -0.386 A  
HETATM   25  N   UNL     1      -8.663   8.652  72.175  1.00  0.00    -0.186 N  
HETATM   26  C   UNL     1      -9.864   8.001  71.654  1.00  0.00    -0.170 A  
HETATM   27  C   UNL     1     -12.262   7.762  71.865  1.00  0.00    -0.341 A  
HETATM   28  C   UNL     1     -11.077   8.386  72.246  1.00  0.00    -0.438 A  
ENDBRANCH  12  20
ENDBRANCH   3   5
ENDBRANCH   2   3
TORSDOF 6
ENDMDL
MODEL       69
REMARK 921   NORMALIZED FREE ENERGY PREDICTED BY IDOCK:   -4.79 KCAL/MOL
REMARK 922        TOTAL FREE ENERGY PREDICTED BY IDOCK:   -7.07 KCAL/MOL
REMARK 923 INTER-LIGAND FREE ENERGY PREDICTED BY IDOCK:   -6.21 KCAL/MOL
REMARK 924 INTRA-LIGAND FREE ENERGY PREDICTED BY IDOCK:   -0.86 KCAL/MOL
REMARK 927      BINDING AFFINITY PREDICTED BY RF-SCORE:    0.00 PKD
ROOT
HETATM    1  C   UNL     1      -8.529   8.077  73.605  1.00  0.00    -0.256 C  
HETATM    2  O   UNL     1      -7.929   8.894  72.594  1.00  0.00    -0.377 OA 
ENDROOT
BRANCH   2   3
HETATM    3  C   UNL     1      -7.641   8.247  71.443  1.00  0.00    -0.088 C  
HETATM    4  O   UNL     1      -7.383   7.051  71.369  1.00  0.00    -0.078 OA 
BRANCH   3   5
HETATM    5  C   UNL     1      -7.603   9.187  70.288  1.00  0.00    -0.108 C  
HETATM    6  C   UNL     1      -6.708  10.203  70.290  1.00  0.00    -0.143 C  
HETATM    7  C   UNL     1      -5.613  10.449  71.307  1.00  0.00    -0.012 C  
HETATM    8  N   UNL     1      -6.773  11.168  69.303  1.00  0.00    -0.092 NA 
HETATM    9  C   UNL     1      -7.807  11.315  68.396  1.00  0.00    -0.136 C  
HETATM   10  C   UNL     1      -7.776  12.611  67.619  1.00  0.00    -0.155 C  
HETATM   11  C   UNL     1      -8.761  10.353  68.286  1.00  0.00    -0.128 C  
HETATM   12  C   UNL     1      -8.703   9.095  69.186  1.00  0.00    -0.138 C  
BRANCH  11  13
HETATM   13  C   UNL     1      -9.903  10.578  67.349  1.00  0.00    -0.174 C  
HETATM   14  O   UNL     1     -10.234   9.781  66.481  1.00  0.00    -0.232 OA 
BRANCH  13  15
HETATM   15  O   UNL     1     -10.477  11.799  67.510  1.00  0.00    -0.196 OA 
BRANCH  15  16
HETATM   16  C   UNL     1     -11.707  11.979  66.780  1.00  0.00    -0.264 C  
HETATM   17  C   UNL     1     -11.831  14.511  67.104  1.00  0.00    -0.412 C  
HETATM   18  C   UNL     1     -11.855  13.352  66.109  1.00  0.00    -0.427 C  
HETATM   19  C   UNL     1     -10.805  13.568  65.022  1.00  0.00    -0.348 C  
ENDBRANCH  15  16
ENDBRANCH  13  15
ENDBRANCH  11  13
BRANCH  12  20
HETATM   20  C   UNL     1     -10.058   8.792  69.844  1.00  0.00    -0.197 A  
HETATM   21  O   UNL     1      -9.118   6.041  69.009  1.00  0.00    -0.123 OA 
HETATM   22  C   UNL     1     -10.652   9.793  70.642  1.00  0.00    -0.382 A  
HETATM   23  O   UNL     1     -11.120   6.008  68.113  1.00  0.00    -0.306 OA 
HETATM   24  C   UNL     1     -11.806   9.537  71.383  1.00  0.00    -0.464 A  
HETATM   25  N   UNL     1     -10.274   6.463  68.894  1.00  0.00    -0.171 N  
HETATM   26  C   UNL     1     -10.715   7.542  69.777  1.00  0.00    -0.242 A  
HETATM   27  C   UNL     1     -12.400   8.278  71.349  1.00  0.00    -0.326 A  
HETATM   28  C   UNL     1     -11.866   7.280  70.538  1.00  0.00    -0.237 A  
ENDBRANCH  12  20
ENDBRANCH   3   5
ENDBRANCH   2   3
TORSDOF 6
ENDMDL
MODEL       70
REMARK 921   NORMALIZED FREE ENERGY PREDICTED BY IDOCK:   -4.78 KCAL/MOL
REMARK 922        TOTAL FREE ENERGY PREDICTED BY IDOCK:   -7.07 KCAL/MOL
REMARK 923 INTER-LIGAND FREE ENERGY PREDICTED BY IDOCK:   -5.66 KCAL/MOL
REMARK 924 INTRA-LIGAND FREE ENERGY PREDICTED BY IDOCK:   -1.41 KCAL/MOL
REMARK 927      BINDING AFFINITY PREDICTED BY RF-SCORE:    0.00 PKD
ROOT
HETATM    1  C   UNL     1     -11.894  13.531  69.246  1.00  0.00    -0.341 C  
HETATM    2  O   UNL     1     -11.009  12.425  69.453  1.00  0.00    -0.144 OA 
ENDROOT
BRANCH   2   3
HETATM    3  C   UNL     1     -11.107  11.444  68.529  1.00  0.00    -0.235 C  
HETATM    4  O   UNL     1     -12.147  11.132  67.960  1.00  0.00    -0.635 OA 
BRANCH   3   5
HETATM    5  C   UNL     1      -9.807  10.741  68.345  1.00  0.00    -0.177 C  
HETATM    6  C   UNL     1      -9.341   9.940  69.333  1.00  0.00    -0.214 C  
HETATM    7  C   UNL     1     -10.061   9.560  70.610  1.00  0.00    -0.353 C  
HETATM    8  N   UNL     1      -8.067   9.413  69.237  1.00  0.00    -0.100 NA 
HETATM    9  C   UNL     1      -7.118   9.783  68.302  1.00  0.00    -0.077 C  
HETATM   10  C   UNL     1      -5.725   9.273  68.591  1.00  0.00    -0.041 C  
HETATM   11  C   UNL     1      -7.465  10.571  67.251  1.00  0.00    -0.095 C  
HETATM   12  C   UNL     1      -8.923  11.072  67.104  1.00  0.00    -0.145 C  
BRANCH  11  13
HETATM   13  C   UNL     1      -6.400  11.012  66.300  1.00  0.00    -0.119 C  
HETATM   14  O   UNL     1      -5.560  11.860  66.570  1.00  0.00    -0.289 OA 
BRANCH  13  15
HETATM   15  O   UNL     1      -6.521  10.433  65.077  1.00  0.00    -0.127 OA 
BRANCH  15  16
HETATM   16  C   UNL     1      -5.967   9.104  64.991  1.00  0.00    -0.063 C  
HETATM   17  C   UNL     1      -8.046   8.021  63.975  1.00  0.00    -0.102 C  
HETATM   18  C   UNL     1      -6.540   8.246  63.854  1.00  0.00    -0.071 C  
HETATM   19  C   UNL     1      -6.201   8.823  62.482  1.00  0.00    -0.095 C  
ENDBRANCH  15  16
ENDBRANCH  13  15
ENDBRANCH  11  13
BRANCH  12  20
HETATM   20  C   UNL     1      -8.990  12.581  66.819  1.00  0.00    -0.198 A  
HETATM   21  O   UNL     1     -11.024  11.469  64.876  1.00  0.00    -0.298 OA 
HETATM   22  C   UNL     1      -8.412  13.463  67.756  1.00  0.00    -0.181 A  
HETATM   23  O   UNL     1      -9.835  12.672  63.480  1.00  0.00    -0.297 OA 
HETATM   24  C   UNL     1      -8.562  14.846  67.636  1.00  0.00    -0.181 A  
HETATM   25  N   UNL     1     -10.207  12.360  64.619  1.00  0.00    -0.296 N  
HETATM   26  C   UNL     1      -9.671  13.155  65.721  1.00  0.00    -0.138 A  
HETATM   27  C   UNL     1      -9.290  15.385  66.579  1.00  0.00    -0.311 A  
HETATM   28  C   UNL     1      -9.836  14.546  65.612  1.00  0.00    -0.337 A  
ENDBRANCH  12  20
ENDBRANCH   3   5
ENDBRANCH   2   3
TORSDOF 6
ENDMDL
MODEL       71
REMARK 921   NORMALIZED FREE ENERGY PREDICTED BY IDOCK:   -4.77 KCAL/MOL
REMARK 922        TOTAL FREE ENERGY PREDICTED BY IDOCK:   -7.04 KCAL/MOL
REMARK 923 INTER-LIGAND FREE ENERGY PREDICTED BY IDOCK:   -5.41 KCAL/MOL
REMARK 924 INTRA-LIGAND FREE ENERGY PREDICTED BY IDOCK:   -1.64 KCAL/MOL
REMARK 927      BINDING AFFINITY PREDICTED BY RF-SCORE:    0.00 PKD
ROOT
HETATM    1  C   UNL     1     -13.800   8.760  71.956  1.00  0.00    -0.451 C  
HETATM    2  O   UNL     1     -12.370   8.740  72.021  1.00  0.00    -0.327 OA 
ENDROOT
BRANCH   2   3
HETATM    3  C   UNL     1     -11.781   7.837  71.206  1.00  0.00    -0.288 C  
HETATM    4  O   UNL     1     -12.390   7.019  70.526  1.00  0.00    -0.267 OA 
BRANCH   3   5
HETATM    5  C   UNL     1     -10.296   7.913  71.296  1.00  0.00    -0.222 C  
HETATM    6  C   UNL     1      -9.693   7.678  72.485  1.00  0.00    -0.184 C  
HETATM    7  C   UNL     1     -10.354   7.213  73.765  1.00  0.00    -0.390 C  
HETATM    8  N   UNL     1      -8.335   7.901  72.614  1.00  0.00    -0.132 NA 
HETATM    9  C   UNL     1      -7.539   8.541  71.682  1.00  0.00    -0.108 C  
HETATM   10  C   UNL     1      -6.162   8.912  72.186  1.00  0.00    -0.049 C  
HETATM   11  C   UNL     1      -8.024   8.818  70.443  1.00  0.00    -0.113 C  
HETATM   12  C   UNL     1      -9.477   8.431  70.075  1.00  0.00    -0.164 C  
BRANCH  11  13
HETATM   13  C   UNL     1      -7.163   9.576  69.486  1.00  0.00    -0.074 C  
HETATM   14  O   UNL     1      -6.487   9.043  68.615  1.00  0.00    -0.052 OA 
BRANCH  13  15
HETATM   15  O   UNL     1      -7.145  10.909  69.745  1.00  0.00    -0.141 OA 
BRANCH  15  16
HETATM   16  C   UNL     1      -6.311  11.677  68.854  1.00  0.00    -0.062 C  
HETATM   17  C   UNL     1      -8.147  12.181  67.150  1.00  0.00    -0.175 C  
HETATM   18  C   UNL     1      -7.056  12.754  68.053  1.00  0.00    -0.111 C  
HETATM   19  C   UNL     1      -7.636  13.837  68.959  1.00  0.00     0.022 C  
ENDBRANCH  15  16
ENDBRANCH  13  15
ENDBRANCH  11  13
BRANCH  12  20
HETATM   20  C   UNL     1     -10.234   9.591  69.410  1.00  0.00    -0.215 A  
HETATM   21  O   UNL     1     -10.581   7.361  67.397  1.00  0.00    -0.264 OA 
HETATM   22  C   UNL     1     -10.564  10.713  70.200  1.00  0.00    -0.065 A  
HETATM   23  O   UNL     1      -9.826   8.922  66.055  1.00  0.00    -0.272 OA 
HETATM   24  C   UNL     1     -11.373  11.736  69.703  1.00  0.00    -0.287 A  
HETATM   25  N   UNL     1     -10.331   8.538  67.118  1.00  0.00    -0.289 N  
HETATM   26  C   UNL     1     -10.703   9.578  68.076  1.00  0.00    -0.212 A  
HETATM   27  C   UNL     1     -11.873  11.669  68.406  1.00  0.00    -0.346 A  
HETATM   28  C   UNL     1     -11.532  10.599  67.584  1.00  0.00    -0.169 A  
ENDBRANCH  12  20
ENDBRANCH   3   5
ENDBRANCH   2   3
TORSDOF 6
ENDMDL
MODEL       72
REMARK 921   NORMALIZED FREE ENERGY PREDICTED BY IDOCK:   -4.72 KCAL/MOL
REMARK 922        TOTAL FREE ENERGY PREDICTED BY IDOCK:   -6.99 KCAL/MOL
REMARK 923 INTER-LIGAND FREE ENERGY PREDICTED BY IDOCK:   -5.51 KCAL/MOL
REMARK 924 INTRA-LIGAND FREE ENERGY PREDICTED BY IDOCK:   -1.48 KCAL/MOL
REMARK 927      BINDING AFFINITY PREDICTED BY RF-SCORE:    0.00 PKD
ROOT
HETATM    1  C   UNL     1     -11.638  11.107  69.605  1.00  0.00    -0.326 C  
HETATM    2  O   UNL     1     -11.089  10.310  68.550  1.00  0.00    -0.248 OA 
ENDROOT
BRANCH   2   3
HETATM    3  C   UNL     1      -9.738  10.258  68.528  1.00  0.00    -0.161 C  
HETATM    4  O   UNL     1      -9.006  11.191  68.834  1.00  0.00    -0.156 OA 
BRANCH   3   5
HETATM    5  C   UNL     1      -9.255   8.947  68.012  1.00  0.00    -0.147 C  
HETATM    6  C   UNL     1      -9.383   8.667  66.693  1.00  0.00    -0.192 C  
HETATM    7  C   UNL     1      -9.870   9.603  65.607  1.00  0.00    -0.369 C  
HETATM    8  N   UNL     1      -9.084   7.397  66.236  1.00  0.00    -0.169 NA 
HETATM    9  C   UNL     1      -8.845   6.296  67.037  1.00  0.00    -0.108 C  
HETATM   10  C   UNL     1      -8.831   4.977  66.297  1.00  0.00    -0.118 C  
HETATM   11  C   UNL     1      -8.681   6.448  68.377  1.00  0.00    -0.113 C  
HETATM   12  C   UNL     1      -8.776   7.854  69.016  1.00  0.00    -0.138 C  
BRANCH  11  13
HETATM   13  C   UNL     1      -8.497   5.229  69.222  1.00  0.00    -0.101 C  
HETATM   14  O   UNL     1      -7.427   4.650  69.352  1.00  0.00    -0.052 OA 
BRANCH  13  15
HETATM   15  O   UNL     1      -9.665   4.787  69.758  1.00  0.00    -0.163 OA 
BRANCH  15  16
HETATM   16  C   UNL     1      -9.530   3.623  70.599  1.00  0.00    -0.172 C  
HETATM   17  C   UNL     1      -8.419   4.842  72.551  1.00  0.00    -0.116 C  
HETATM   18  C   UNL     1      -9.552   3.919  72.105  1.00  0.00    -0.209 C  
HETATM   19  C   UNL     1     -10.898   4.482  72.554  1.00  0.00    -0.145 C  
ENDBRANCH  15  16
ENDBRANCH  13  15
ENDBRANCH  11  13
BRANCH  12  20
HETATM   20  C   UNL     1      -9.685   7.867  70.255  1.00  0.00    -0.183 A  
HETATM   21  O   UNL     1      -7.297   9.468  71.195  1.00  0.00    -0.318 OA 
HETATM   22  C   UNL     1     -11.036   7.491  70.094  1.00  0.00    -0.267 A  
HETATM   23  O   UNL     1      -7.417   8.026  72.843  1.00  0.00    -0.104 OA 
HETATM   24  C   UNL     1     -11.951   7.617  71.141  1.00  0.00    -0.319 A  
HETATM   25  N   UNL     1      -7.893   8.618  71.866  1.00  0.00    -0.106 N  
HETATM   26  C   UNL     1      -9.284   8.316  71.534  1.00  0.00    -0.177 A  
HETATM   27  C   UNL     1     -11.545   8.120  72.374  1.00  0.00    -0.463 A  
HETATM   28  C   UNL     1     -10.210   8.459  72.580  1.00  0.00    -0.369 A  
ENDBRANCH  12  20
ENDBRANCH   3   5
ENDBRANCH   2   3
TORSDOF 6
ENDMDL
MODEL       73
REMARK 921   NORMALIZED FREE ENERGY PREDICTED BY IDOCK:   -4.69 KCAL/MOL
REMARK 922        TOTAL FREE ENERGY PREDICTED BY IDOCK:   -6.94 KCAL/MOL
REMARK 923 INTER-LIGAND FREE ENERGY PREDICTED BY IDOCK:   -5.16 KCAL/MOL
REMARK 924 INTRA-LIGAND FREE ENERGY PREDICTED BY IDOCK:   -1.77 KCAL/MOL
REMARK 927      BINDING AFFINITY PREDICTED BY RF-SCORE:    0.00 PKD
ROOT
HETATM    1  C   UNL     1     -12.382  10.955  71.272  1.00  0.00    -0.343 C  
HETATM    2  O   UNL     1     -12.290   9.660  70.668  1.00  0.00    -0.236 OA 
ENDROOT
BRANCH   2   3
HETATM    3  C   UNL     1     -11.212   8.938  71.046  1.00  0.00    -0.281 C  
HETATM    4  O   UNL     1     -10.470   9.238  71.974  1.00  0.00    -0.250 OA 
BRANCH   3   5
HETATM    5  C   UNL     1     -10.998   7.772  70.144  1.00  0.00    -0.246 C  
HETATM    6  C   UNL     1     -11.180   6.520  70.625  1.00  0.00    -0.329 C  
HETATM    7  C   UNL     1     -11.709   6.139  71.992  1.00  0.00    -0.354 C  
HETATM    8  N   UNL     1     -10.832   5.434  69.845  1.00  0.00    -0.235 NA 
HETATM    9  C   UNL     1     -10.117   5.497  68.662  1.00  0.00    -0.183 C  
HETATM   10  C   UNL     1      -9.621   4.160  68.161  1.00  0.00    -0.195 C  
HETATM   11  C   UNL     1      -9.882   6.696  68.069  1.00  0.00    -0.140 C  
HETATM   12  C   UNL     1     -10.401   8.000  68.721  1.00  0.00    -0.223 C  
BRANCH  11  13
HETATM   13  C   UNL     1      -9.044   6.735  66.832  1.00  0.00    -0.137 C  
HETATM   14  O   UNL     1      -9.483   6.521  65.710  1.00  0.00     0.044 OA 
BRANCH  13  15
HETATM   15  O   UNL     1      -7.729   6.946  67.101  1.00  0.00    -0.104 OA 
BRANCH  15  16
HETATM   16  C   UNL     1      -6.888   7.024  65.932  1.00  0.00    -0.057 C  
HETATM   17  C   UNL     1      -7.306   9.505  65.479  1.00  0.00    -0.094 C  
HETATM   18  C   UNL     1      -6.264   8.406  65.686  1.00  0.00    -0.048 C  
HETATM   19  C   UNL     1      -5.299   8.799  66.801  1.00  0.00    -0.039 C  
ENDBRANCH  15  16
ENDBRANCH  13  15
ENDBRANCH  11  13
BRANCH  12  20
HETATM   20  C   UNL     1      -9.315   9.084  68.793  1.00  0.00    -0.140 A  
HETATM   21  O   UNL     1     -11.701  10.635  67.771  1.00  0.00    -0.503 OA 
HETATM   22  C   UNL     1      -8.144   8.807  69.531  1.00  0.00    -0.105 A  
HETATM   23  O   UNL     1     -10.230  11.228  66.256  1.00  0.00    -0.221 OA 
HETATM   24  C   UNL     1      -7.182   9.793  69.758  1.00  0.00    -0.105 A  
HETATM   25  N   UNL     1     -10.543  10.758  67.358  1.00  0.00    -0.226 N  
HETATM   26  C   UNL     1      -9.442  10.380  68.242  1.00  0.00    -0.148 A  
HETATM   27  C   UNL     1      -7.360  11.079  69.257  1.00  0.00    -0.113 A  
HETATM   28  C   UNL     1      -8.483  11.375  68.488  1.00  0.00    -0.152 A  
ENDBRANCH  12  20
ENDBRANCH   3   5
ENDBRANCH   2   3
TORSDOF 6
ENDMDL
MODEL       74
REMARK 921   NORMALIZED FREE ENERGY PREDICTED BY IDOCK:   -4.64 KCAL/MOL
REMARK 922        TOTAL FREE ENERGY PREDICTED BY IDOCK:   -6.88 KCAL/MOL
REMARK 923 INTER-LIGAND FREE ENERGY PREDICTED BY IDOCK:   -5.59 KCAL/MOL
REMARK 924 INTRA-LIGAND FREE ENERGY PREDICTED BY IDOCK:   -1.29 KCAL/MOL
REMARK 927      BINDING AFFINITY PREDICTED BY RF-SCORE:    0.00 PKD
ROOT
HETATM    1  C   UNL     1      -7.517   4.103  69.939  1.00  0.00    -0.049 C  
HETATM    2  O   UNL     1      -8.293   4.859  69.002  1.00  0.00    -0.082 OA 
ENDROOT
BRANCH   2   3
HETATM    3  C   UNL     1      -9.555   5.129  69.403  1.00  0.00    -0.161 C  
HETATM    4  O   UNL     1     -10.234   4.384  70.098  1.00  0.00    -0.180 OA 
BRANCH   3   5
HETATM    5  C   UNL     1     -10.041   6.416  68.830  1.00  0.00    -0.182 C  
HETATM    6  C   UNL     1     -10.424   6.459  67.532  1.00  0.00    -0.233 C  
HETATM    7  C   UNL     1     -10.537   5.289  66.577  1.00  0.00    -0.348 C  
HETATM    8  N   UNL     1     -10.724   7.677  66.952  1.00  0.00    -0.314 NA 
HETATM    9  C   UNL     1     -10.481   8.914  67.521  1.00  0.00    -0.269 C  
HETATM   10  C   UNL     1     -10.632  10.080  66.570  1.00  0.00    -0.165 C  
HETATM   11  C   UNL     1     -10.107   9.005  68.824  1.00  0.00    -0.214 C  
HETATM   12  C   UNL     1      -9.934   7.723  69.674  1.00  0.00    -0.190 C  
BRANCH  11  13
HETATM   13  C   UNL     1      -9.781  10.351  69.387  1.00  0.00    -0.200 C  
HETATM   14  O   UNL     1      -8.771  10.978  69.100  1.00  0.00    -0.108 OA 
BRANCH  13  15
HETATM   15  O   UNL     1     -10.685  10.760  70.315  1.00  0.00    -0.137 OA 
BRANCH  15  16
HETATM   16  C   UNL     1     -12.062  10.601  69.914  1.00  0.00    -0.299 C  
HETATM   17  C   UNL     1     -12.764   9.217  71.944  1.00  0.00    -0.474 C  
HETATM   18  C   UNL     1     -13.050  10.443  71.078  1.00  0.00    -0.450 C  
HETATM   19  C   UNL     1     -13.113  11.698  71.945  1.00  0.00    -0.490 C  
ENDBRANCH  15  16
ENDBRANCH  13  15
ENDBRANCH  11  13
BRANCH  12  20
HETATM   20  C   UNL     1      -8.611   7.719  70.454  1.00  0.00    -0.137 A  
HETATM   21  O   UNL     1     -10.507   6.390  72.400  1.00  0.00    -0.192 OA 
HETATM   22  C   UNL     1      -7.417   7.969  69.744  1.00  0.00    -0.089 A  
HETATM   23  O   UNL     1      -9.672   7.926  73.725  1.00  0.00    -0.225 OA 
HETATM   24  C   UNL     1      -6.170   7.839  70.358  1.00  0.00    -0.037 A  
HETATM   25  N   UNL     1      -9.653   7.231  72.701  1.00  0.00    -0.147 N  
HETATM   26  C   UNL     1      -8.494   7.393  71.825  1.00  0.00    -0.107 A  
HETATM   27  C   UNL     1      -6.079   7.457  71.693  1.00  0.00    -0.036 A  
HETATM   28  C   UNL     1      -7.238   7.245  72.435  1.00  0.00    -0.071 A  
ENDBRANCH  12  20
ENDBRANCH   3   5
ENDBRANCH   2   3
TORSDOF 6
ENDMDL
MODEL       75
REMARK 921   NORMALIZED FREE ENERGY PREDICTED BY IDOCK:   -4.62 KCAL/MOL
REMARK 922        TOTAL FREE ENERGY PREDICTED BY IDOCK:   -6.84 KCAL/MOL
REMARK 923 INTER-LIGAND FREE ENERGY PREDICTED BY IDOCK:   -5.32 KCAL/MOL
REMARK 924 INTRA-LIGAND FREE ENERGY PREDICTED BY IDOCK:   -1.52 KCAL/MOL
REMARK 927      BINDING AFFINITY PREDICTED BY RF-SCORE:    0.00 PKD
ROOT
HETATM    1  C   UNL     1      -9.530   9.129  66.490  1.00  0.00    -0.208 C  
HETATM    2  O   UNL     1      -9.181   7.780  66.821  1.00  0.00    -0.146 OA 
ENDROOT
BRANCH   2   3
HETATM    3  C   UNL     1     -10.211   7.024  67.262  1.00  0.00    -0.234 C  
HETATM    4  O   UNL     1     -11.391   7.338  67.162  1.00  0.00    -0.075 OA 
BRANCH   3   5
HETATM    5  C   UNL     1      -9.725   5.796  67.951  1.00  0.00    -0.134 C  
HETATM    6  C   UNL     1      -9.781   4.607  67.304  1.00  0.00    -0.185 C  
HETATM    7  C   UNL     1     -10.184   4.374  65.864  1.00  0.00    -0.252 C  
HETATM    8  N   UNL     1      -9.481   3.446  67.990  1.00  0.00    -0.182 NA 
HETATM    9  C   UNL     1      -9.312   3.348  69.359  1.00  0.00    -0.166 C  
HETATM   10  C   UNL     1      -9.280   1.930  69.885  1.00  0.00    -0.172 C  
HETATM   11  C   UNL     1      -9.223   4.471  70.119  1.00  0.00    -0.197 C  
HETATM   12  C   UNL     1      -9.327   5.866  69.458  1.00  0.00    -0.156 C  
BRANCH  11  13
HETATM   13  C   UNL     1      -9.115   4.328  71.603  1.00  0.00    -0.123 C  
HETATM   14  O   UNL     1      -9.992   3.839  72.302  1.00  0.00    -0.156 OA 
BRANCH  13  15
HETATM   15  O   UNL     1      -7.975   4.880  72.097  1.00  0.00    -0.105 OA 
BRANCH  15  16
HETATM   16  C   UNL     1      -7.769   4.656  73.506  1.00  0.00    -0.091 C  
HETATM   17  C   UNL     1      -6.452   6.807  73.920  1.00  0.00    -0.068 C  
HETATM   18  C   UNL     1      -7.635   5.936  74.343  1.00  0.00    -0.090 C  
HETATM   19  C   UNL     1      -8.922   6.757  74.335  1.00  0.00    -0.220 C  
ENDBRANCH  15  16
ENDBRANCH  13  15
ENDBRANCH  11  13
BRANCH  12  20
HETATM   20  C   UNL     1     -10.307   6.787  70.200  1.00  0.00    -0.228 A  
HETATM   21  O   UNL     1      -7.981   8.639  69.646  1.00  0.00    -0.092 OA 
HETATM   22  C   UNL     1     -11.646   6.363  70.340  1.00  0.00    -0.440 A  
HETATM   23  O   UNL     1      -8.195   8.989  71.800  1.00  0.00    -0.351 OA 
HETATM   24  C   UNL     1     -12.621   7.208  70.874  1.00  0.00    -0.268 A  
HETATM   25  N   UNL     1      -8.614   8.589  70.706  1.00  0.00    -0.141 N  
HETATM   26  C   UNL     1      -9.983   8.077  70.679  1.00  0.00    -0.189 A  
HETATM   27  C   UNL     1     -12.288   8.496  71.282  1.00  0.00    -0.301 A  
HETATM   28  C   UNL     1     -10.968   8.932  71.198  1.00  0.00    -0.356 A  
ENDBRANCH  12  20
ENDBRANCH   3   5
ENDBRANCH   2   3
TORSDOF 6
ENDMDL
MODEL       76
REMARK 921   NORMALIZED FREE ENERGY PREDICTED BY IDOCK:   -4.61 KCAL/MOL
REMARK 922        TOTAL FREE ENERGY PREDICTED BY IDOCK:   -6.83 KCAL/MOL
REMARK 923 INTER-LIGAND FREE ENERGY PREDICTED BY IDOCK:   -5.40 KCAL/MOL
REMARK 924 INTRA-LIGAND FREE ENERGY PREDICTED BY IDOCK:   -1.43 KCAL/MOL
REMARK 927      BINDING AFFINITY PREDICTED BY RF-SCORE:    0.00 PKD
ROOT
HETATM    1  C   UNL     1      -9.833  13.679  67.239  1.00  0.00    -0.241 C  
HETATM    2  O   UNL     1      -9.873  12.459  67.989  1.00  0.00    -0.194 OA 
ENDROOT
BRANCH   2   3
HETATM    3  C   UNL     1     -10.573  11.461  67.405  1.00  0.00    -0.218 C  
HETATM    4  O   UNL     1     -11.776  11.285  67.550  1.00  0.00    -0.574 OA 
BRANCH   3   5
HETATM    5  C   UNL     1      -9.680  10.559  66.625  1.00  0.00    -0.232 C  
HETATM    6  C   UNL     1      -9.900  10.395  65.299  1.00  0.00    -0.297 C  
HETATM    7  C   UNL     1     -10.910  11.134  64.447  1.00  0.00    -0.340 C  
HETATM    8  N   UNL     1      -9.180   9.443  64.603  1.00  0.00    -0.187 NA 
HETATM    9  C   UNL     1      -8.370   8.479  65.175  1.00  0.00    -0.169 C  
HETATM   10  C   UNL     1      -7.930   7.388  64.224  1.00  0.00    -0.097 C  
HETATM   11  C   UNL     1      -8.060   8.543  66.496  1.00  0.00    -0.103 C  
HETATM   12  C   UNL     1      -8.625   9.687  67.372  1.00  0.00    -0.125 C  
BRANCH  11  13
HETATM   13  C   UNL     1      -7.243   7.445  67.097  1.00  0.00    -0.089 C  
HETATM   14  O   UNL     1      -6.199   7.634  67.708  1.00  0.00    -0.046 OA 
BRANCH  13  15
HETATM   15  O   UNL     1      -7.739   6.212  66.815  1.00  0.00    -0.100 OA 
BRANCH  15  16
HETATM   16  C   UNL     1      -8.490   5.613  67.891  1.00  0.00    -0.102 C  
HETATM   17  C   UNL     1     -10.727   5.573  66.655  1.00  0.00    -0.332 C  
HETATM   18  C   UNL     1      -9.690   4.769  67.439  1.00  0.00    -0.209 C  
HETATM   19  C   UNL     1      -9.254   3.547  66.635  1.00  0.00    -0.192 C  
ENDBRANCH  15  16
ENDBRANCH  13  15
ENDBRANCH  11  13
BRANCH  12  20
HETATM   20  C   UNL     1      -9.232   9.166  68.684  1.00  0.00    -0.136 A  
HETATM   21  O   UNL     1      -7.276  11.253  69.666  1.00  0.00    -0.087 OA 
HETATM   22  C   UNL     1     -10.418   8.405  68.614  1.00  0.00    -0.197 A  
HETATM   23  O   UNL     1      -6.640   9.568  70.917  1.00  0.00    -0.093 OA 
HETATM   24  C   UNL     1     -11.102   8.023  69.770  1.00  0.00    -0.067 A  
HETATM   25  N   UNL     1      -7.452  10.144  70.183  1.00  0.00    -0.166 N  
HETATM   26  C   UNL     1      -8.732   9.471  69.971  1.00  0.00    -0.221 A  
HETATM   27  C   UNL     1     -10.622   8.388  71.024  1.00  0.00    -0.258 A  
HETATM   28  C   UNL     1      -9.431   9.102  71.131  1.00  0.00    -0.331 A  
ENDBRANCH  12  20
ENDBRANCH   3   5
ENDBRANCH   2   3
TORSDOF 6
ENDMDL
MODEL       77
REMARK 921   NORMALIZED FREE ENERGY PREDICTED BY IDOCK:   -4.61 KCAL/MOL
REMARK 922        TOTAL FREE ENERGY PREDICTED BY IDOCK:   -6.83 KCAL/MOL
REMARK 923 INTER-LIGAND FREE ENERGY PREDICTED BY IDOCK:   -6.79 KCAL/MOL
REMARK 924 INTRA-LIGAND FREE ENERGY PREDICTED BY IDOCK:   -0.04 KCAL/MOL
REMARK 927      BINDING AFFINITY PREDICTED BY RF-SCORE:    0.00 PKD
ROOT
HETATM    1  C   UNL     1      -5.534  10.120  65.167  1.00  0.00    -0.086 C  
HETATM    2  O   UNL     1      -6.789  10.308  65.829  1.00  0.00    -0.114 OA 
ENDROOT
BRANCH   2   3
HETATM    3  C   UNL     1      -6.796  11.293  66.755  1.00  0.00    -0.140 C  
HETATM    4  O   UNL     1      -6.059  12.272  66.729  1.00  0.00    -0.222 OA 
BRANCH   3   5
HETATM    5  C   UNL     1      -7.760  10.998  67.852  1.00  0.00    -0.104 C  
HETATM    6  C   UNL     1      -7.570   9.902  68.624  1.00  0.00    -0.080 C  
HETATM    7  C   UNL     1      -6.386   8.959  68.589  1.00  0.00    -0.053 C  
HETATM    8  N   UNL     1      -8.541   9.536  69.536  1.00  0.00    -0.154 NA 
HETATM    9  C   UNL     1      -9.811  10.078  69.611  1.00  0.00    -0.235 C  
HETATM   10  C   UNL     1     -10.767   9.310  70.495  1.00  0.00    -0.313 C  
HETATM   11  C   UNL     1     -10.122  11.191  68.896  1.00  0.00    -0.199 C  
HETATM   12  C   UNL     1      -9.061  11.849  67.982  1.00  0.00    -0.189 C  
BRANCH  11  13
HETATM   13  C   UNL     1     -11.524  11.707  68.943  1.00  0.00    -0.287 C  
HETATM   14  O   UNL     1     -12.430  11.271  68.245  1.00  0.00    -0.317 OA 
BRANCH  13  15
HETATM   15  O   UNL     1     -11.661  12.768  69.780  1.00  0.00    -0.278 OA 
BRANCH  15  16
HETATM   16  C   UNL     1     -12.043  13.996  69.127  1.00  0.00    -0.337 C  
HETATM   17  C   UNL     1     -11.548  15.515  71.121  1.00  0.00    -0.446 C  
HETATM   18  C   UNL     1     -11.310  15.245  69.636  1.00  0.00    -0.304 C  
HETATM   19  C   UNL     1      -9.813  15.182  69.346  1.00  0.00    -0.216 C  
ENDBRANCH  15  16
ENDBRANCH  13  15
ENDBRANCH  11  13
BRANCH  12  20
HETATM   20  C   UNL     1      -9.611  12.153  66.580  1.00  0.00    -0.226 A  
HETATM   21  O   UNL     1     -10.388   9.255  66.960  1.00  0.00    -0.243 OA 
HETATM   22  C   UNL     1      -9.722  13.504  66.186  1.00  0.00    -0.264 A  
HETATM   23  O   UNL     1      -9.393   9.093  65.012  1.00  0.00    -0.195 OA 
HETATM   24  C   UNL     1     -10.345  13.858  64.988  1.00  0.00    -0.418 A  
HETATM   25  N   UNL     1      -9.938   9.740  65.917  1.00  0.00    -0.282 N  
HETATM   26  C   UNL     1     -10.100  11.174  65.686  1.00  0.00    -0.253 A  
HETATM   27  C   UNL     1     -10.874  12.879  64.153  1.00  0.00    -0.445 A  
HETATM   28  C   UNL     1     -10.744  11.534  64.491  1.00  0.00    -0.390 A  
ENDBRANCH  12  20
ENDBRANCH   3   5
ENDBRANCH   2   3
TORSDOF 6
ENDMDL
MODEL       78
REMARK 921   NORMALIZED FREE ENERGY PREDICTED BY IDOCK:   -4.60 KCAL/MOL
REMARK 922        TOTAL FREE ENERGY PREDICTED BY IDOCK:   -6.83 KCAL/MOL
REMARK 923 INTER-LIGAND FREE ENERGY PREDICTED BY IDOCK:   -5.82 KCAL/MOL
REMARK 924 INTRA-LIGAND FREE ENERGY PREDICTED BY IDOCK:   -1.01 KCAL/MOL
REMARK 927      BINDING AFFINITY PREDICTED BY RF-SCORE:    0.00 PKD
ROOT
HETATM    1  C   UNL     1     -12.616  13.840  65.993  1.00  0.00    -0.408 C  
HETATM    2  O   UNL     1     -11.818  15.027  66.069  1.00  0.00    -0.190 OA 
ENDROOT
BRANCH   2   3
HETATM    3  C   UNL     1     -11.188  15.207  67.252  1.00  0.00    -0.324 C  
HETATM    4  O   UNL     1     -11.754  15.496  68.299  1.00  0.00    -0.360 OA 
BRANCH   3   5
HETATM    5  C   UNL     1      -9.711  15.084  67.102  1.00  0.00    -0.228 C  
HETATM    6  C   UNL     1      -9.100  13.937  67.483  1.00  0.00    -0.201 C  
HETATM    7  C   UNL     1      -9.770  12.664  67.954  1.00  0.00    -0.216 C  
HETATM    8  N   UNL     1      -7.720  13.875  67.497  1.00  0.00    -0.175 NA 
HETATM    9  C   UNL     1      -6.870  14.954  67.341  1.00  0.00    -0.090 C  
HETATM   10  C   UNL     1      -5.425  14.666  67.682  1.00  0.00     0.050 C  
HETATM   11  C   UNL     1      -7.359  16.158  66.944  1.00  0.00    -0.255 C  
HETATM   12  C   UNL     1      -8.875  16.331  66.680  1.00  0.00    -0.289 C  
BRANCH  11  13
HETATM   13  C   UNL     1      -6.425  17.321  66.857  1.00  0.00    -0.192 C  
HETATM   14  O   UNL     1      -5.995  17.767  65.801  1.00  0.00    -0.193 OA 
BRANCH  13  15
HETATM   15  O   UNL     1      -6.039  17.772  68.079  1.00  0.00    -0.160 OA 
BRANCH  15  16
HETATM   16  C   UNL     1      -5.221  18.959  68.044  1.00  0.00    -0.173 C  
HETATM   17  C   UNL     1      -7.163  20.604  67.808  1.00  0.00    -0.306 C  
HETATM   18  C   UNL     1      -5.906  20.221  68.588  1.00  0.00    -0.319 C  
HETATM   19  C   UNL     1      -6.226  20.097  70.075  1.00  0.00    -0.384 C  
ENDBRANCH  15  16
ENDBRANCH  13  15
ENDBRANCH  11  13
BRANCH  12  20
HETATM   20  C   UNL     1      -9.443  17.582  67.367  1.00  0.00    -0.255 A  
HETATM   21  O   UNL     1     -11.174  17.365  64.897  1.00  0.00    -0.744 OA 
HETATM   22  C   UNL     1      -9.099  17.817  68.716  1.00  0.00    -0.208 A  
HETATM   23  O   UNL     1     -10.553  19.459  64.700  1.00  0.00     0.562 OA 
HETATM   24  C   UNL     1      -9.691  18.851  69.444  1.00  0.00    -0.034 A  
HETATM   25  N   UNL     1     -10.709  18.416  65.349  1.00  0.00    -0.051 N  
HETATM   26  C   UNL     1     -10.362  18.474  66.768  1.00  0.00    -0.401 A  
HETATM   27  C   UNL     1     -10.639  19.677  68.849  1.00  0.00     0.116 A  
HETATM   28  C   UNL     1     -10.970  19.501  67.508  1.00  0.00    -0.392 A  
ENDBRANCH  12  20
ENDBRANCH   3   5
ENDBRANCH   2   3
TORSDOF 6
ENDMDL
MODEL       79
REMARK 921   NORMALIZED FREE ENERGY PREDICTED BY IDOCK:   -4.56 KCAL/MOL
REMARK 922        TOTAL FREE ENERGY PREDICTED BY IDOCK:   -6.76 KCAL/MOL
REMARK 923 INTER-LIGAND FREE ENERGY PREDICTED BY IDOCK:   -5.48 KCAL/MOL
REMARK 924 INTRA-LIGAND FREE ENERGY PREDICTED BY IDOCK:   -1.29 KCAL/MOL
REMARK 927      BINDING AFFINITY PREDICTED BY RF-SCORE:    0.00 PKD
ROOT
HETATM    1  C   UNL     1     -12.556  10.406  71.538  1.00  0.00    -0.439 C  
HETATM    2  O   UNL     1     -11.261  10.326  70.932  1.00  0.00    -0.336 OA 
ENDROOT
BRANCH   2   3
HETATM    3  C   UNL     1     -10.591   9.179  71.183  1.00  0.00    -0.309 C  
HETATM    4  O   UNL     1     -10.009   8.934  72.233  1.00  0.00    -0.292 OA 
BRANCH   3   5
HETATM    5  C   UNL     1     -10.589   8.283  69.993  1.00  0.00    -0.235 C  
HETATM    6  C   UNL     1     -11.340   7.156  70.012  1.00  0.00    -0.206 C  
HETATM    7  C   UNL     1     -12.316   6.731  71.088  1.00  0.00    -0.386 C  
HETATM    8  N   UNL     1     -11.220   6.243  68.981  1.00  0.00    -0.387 NA 
HETATM    9  C   UNL     1     -10.245   6.268  68.001  1.00  0.00    -0.172 C  
HETATM   10  C   UNL     1     -10.161   5.007  67.171  1.00  0.00    -0.234 C  
HETATM   11  C   UNL     1      -9.437   7.352  67.868  1.00  0.00    -0.150 C  
HETATM   12  C   UNL     1      -9.594   8.559  68.825  1.00  0.00    -0.150 C  
BRANCH  11  13
HETATM   13  C   UNL     1      -8.346   7.315  66.847  1.00  0.00    -0.118 C  
HETATM   14  O   UNL     1      -7.209   6.929  67.085  1.00  0.00    -0.080 OA 
BRANCH  13  15
HETATM   15  O   UNL     1      -8.732   7.838  65.654  1.00  0.00    -0.154 OA 
BRANCH  15  16
HETATM   16  C   UNL     1      -9.058   9.242  65.698  1.00  0.00    -0.216 C  
HETATM   17  C   UNL     1      -6.928  10.040  64.533  1.00  0.00    -0.136 C  
HETATM   18  C   UNL     1      -8.456  10.073  64.557  1.00  0.00    -0.180 C  
HETATM   19  C   UNL     1      -9.012   9.658  63.197  1.00  0.00    -0.253 C  
ENDBRANCH  15  16
ENDBRANCH  13  15
ENDBRANCH  11  13
BRANCH  12  20
HETATM   20  C   UNL     1      -8.246   9.020  69.402  1.00  0.00    -0.117 A  
HETATM   21  O   UNL     1      -9.485  11.628  68.502  1.00  0.00    -0.195 OA 
HETATM   22  C   UNL     1      -7.523   8.117  70.210  1.00  0.00    -0.067 A  
HETATM   23  O   UNL     1      -7.539  11.809  67.508  1.00  0.00    -0.118 OA 
HETATM   24  C   UNL     1      -6.367   8.515  70.882  1.00  0.00    -0.041 A  
HETATM   25  N   UNL     1      -8.300  11.313  68.348  1.00  0.00    -0.145 N  
HETATM   26  C   UNL     1      -7.718  10.322  69.251  1.00  0.00    -0.130 A  
HETATM   27  C   UNL     1      -5.900   9.821  70.767  1.00  0.00    -0.080 A  
HETATM   28  C   UNL     1      -6.564  10.726  69.944  1.00  0.00    -0.149 A  
ENDBRANCH  12  20
ENDBRANCH   3   5
ENDBRANCH   2   3
TORSDOF 6
ENDMDL
MODEL       80
REMARK 921   NORMALIZED FREE ENERGY PREDICTED BY IDOCK:   -4.55 KCAL/MOL
REMARK 922        TOTAL FREE ENERGY PREDICTED BY IDOCK:   -6.75 KCAL/MOL
REMARK 923 INTER-LIGAND FREE ENERGY PREDICTED BY IDOCK:   -5.72 KCAL/MOL
REMARK 924 INTRA-LIGAND FREE ENERGY PREDICTED BY IDOCK:   -1.03 KCAL/MOL
REMARK 927      BINDING AFFINITY PREDICTED BY RF-SCORE:    0.00 PKD
ROOT
HETATM    1  C   UNL     1     -11.900  12.886  69.289  1.00  0.00    -0.309 C  
HETATM    2  O   UNL     1     -11.189  11.747  69.788  1.00  0.00    -0.202 OA 
ENDROOT
BRANCH   2   3
HETATM    3  C   UNL     1     -11.524  10.574  69.206  1.00  0.00    -0.256 C  
HETATM    4  O   UNL     1     -11.927  10.464  68.054  1.00  0.00    -0.218 OA 
BRANCH   3   5
HETATM    5  C   UNL     1     -11.414   9.442  70.168  1.00  0.00    -0.175 C  
HETATM    6  C   UNL     1     -12.089   9.501  71.340  1.00  0.00    -0.378 C  
HETATM    7  C   UNL     1     -13.079  10.565  71.767  1.00  0.00    -0.570 C  
HETATM    8  N   UNL     1     -11.868   8.533  72.302  1.00  0.00    -0.379 NA 
HETATM    9  C   UNL     1     -10.856   7.591  72.268  1.00  0.00    -0.258 C  
HETATM   10  C   UNL     1     -10.656   6.843  73.566  1.00  0.00    -0.378 C  
HETATM   11  C   UNL     1     -10.116   7.423  71.141  1.00  0.00    -0.189 C  
HETATM   12  C   UNL     1     -10.391   8.297  69.893  1.00  0.00    -0.218 C  
BRANCH  11  13
HETATM   13  C   UNL     1      -8.984   6.447  71.162  1.00  0.00    -0.146 C  
HETATM   14  O   UNL     1      -7.865   6.718  71.577  1.00  0.00    -0.099 OA 
BRANCH  13  15
HETATM   15  O   UNL     1      -9.310   5.258  70.592  1.00  0.00    -0.152 OA 
BRANCH  15  16
HETATM   16  C   UNL     1      -8.282   4.252  70.685  1.00  0.00    -0.070 C  
HETATM   17  C   UNL     1      -9.323   2.658  68.980  1.00  0.00    -0.212 C  
HETATM   18  C   UNL     1      -8.075   3.431  69.404  1.00  0.00    -0.064 C  
HETATM   19  C   UNL     1      -7.573   4.295  68.251  1.00  0.00    -0.067 C  
ENDBRANCH  15  16
ENDBRANCH  13  15
ENDBRANCH  11  13
BRANCH  12  20
HETATM   20  C   UNL     1      -9.102   8.894  69.309  1.00  0.00    -0.145 A  
HETATM   21  O   UNL     1     -10.510   7.867  66.838  1.00  0.00    -0.325 OA 
HETATM   22  C   UNL     1      -8.337   9.755  70.125  1.00  0.00    -0.201 A  
HETATM   23  O   UNL     1      -8.554   6.922  66.538  1.00  0.00    -0.119 OA 
HETATM   24  C   UNL     1      -7.236  10.445  69.615  1.00  0.00    -0.148 A  
HETATM   25  N   UNL     1      -9.301   7.758  67.065  1.00  0.00    -0.149 N  
HETATM   26  C   UNL     1      -8.671   8.712  67.975  1.00  0.00    -0.141 A  
HETATM   27  C   UNL     1      -6.868  10.296  68.281  1.00  0.00    -0.065 A  
HETATM   28  C   UNL     1      -7.575   9.422  67.459  1.00  0.00    -0.091 A  
ENDBRANCH  12  20
ENDBRANCH   3   5
ENDBRANCH   2   3
TORSDOF 6
ENDMDL
MODEL       81
REMARK 921   NORMALIZED FREE ENERGY PREDICTED BY IDOCK:   -4.55 KCAL/MOL
REMARK 922        TOTAL FREE ENERGY PREDICTED BY IDOCK:   -6.75 KCAL/MOL
REMARK 923 INTER-LIGAND FREE ENERGY PREDICTED BY IDOCK:   -6.59 KCAL/MOL
REMARK 924 INTRA-LIGAND FREE ENERGY PREDICTED BY IDOCK:   -0.15 KCAL/MOL
REMARK 927      BINDING AFFINITY PREDICTED BY RF-SCORE:    0.00 PKD
ROOT
HETATM    1  C   UNL     1     -12.921   9.769  71.787  1.00  0.00    -0.438 C  
HETATM    2  O   UNL     1     -11.629  10.166  71.315  1.00  0.00    -0.364 OA 
ENDROOT
BRANCH   2   3
HETATM    3  C   UNL     1     -10.733   9.159  71.211  1.00  0.00    -0.331 C  
HETATM    4  O   UNL     1      -9.876   8.908  72.050  1.00  0.00    -0.325 OA 
BRANCH   3   5
HETATM    5  C   UNL     1     -10.872   8.442  69.913  1.00  0.00    -0.207 C  
HETATM    6  C   UNL     1     -11.191   7.126  69.915  1.00  0.00    -0.208 C  
HETATM    7  C   UNL     1     -11.555   6.280  71.117  1.00  0.00    -0.339 C  
HETATM    8  N   UNL     1     -11.166   6.419  68.728  1.00  0.00    -0.326 NA 
HETATM    9  C   UNL     1     -10.647   6.883  67.533  1.00  0.00    -0.281 C  
HETATM   10  C   UNL     1     -10.479   5.820  66.470  1.00  0.00    -0.280 C  
HETATM   11  C   UNL     1     -10.304   8.191  67.399  1.00  0.00    -0.351 C  
HETATM   12  C   UNL     1     -10.477   9.165  68.589  1.00  0.00    -0.235 C  
BRANCH  11  13
HETATM   13  C   UNL     1      -9.678   8.643  66.119  1.00  0.00    -0.222 C  
HETATM   14  O   UNL     1      -8.590   8.249  65.721  1.00  0.00    -0.145 OA 
BRANCH  13  15
HETATM   15  O   UNL     1     -10.409   9.601  65.492  1.00  0.00    -0.130 OA 
BRANCH  15  16
HETATM   16  C   UNL     1      -9.676  10.804  65.187  1.00  0.00    -0.265 C  
HETATM   17  C   UNL     1     -11.411  11.765  63.576  1.00  0.00    -0.489 C  
HETATM   18  C   UNL     1     -10.552  12.009  64.816  1.00  0.00    -0.340 C  
HETATM   19  C   UNL     1     -11.428  12.455  65.984  1.00  0.00    -0.431 C  
ENDBRANCH  15  16
ENDBRANCH  13  15
ENDBRANCH  11  13
BRANCH  12  20
HETATM   20  C   UNL     1      -9.220  10.016  68.829  1.00  0.00    -0.159 A  
HETATM   21  O   UNL     1      -8.094   7.209  68.764  1.00  0.00    -0.118 OA 
HETATM   22  C   UNL     1      -9.301  11.406  68.600  1.00  0.00    -0.155 A  
HETATM   23  O   UNL     1      -7.218   7.889  70.656  1.00  0.00    -0.052 OA 
HETATM   24  C   UNL     1      -8.166  12.216  68.658  1.00  0.00    -0.033 A  
HETATM   25  N   UNL     1      -7.759   8.092  69.561  1.00  0.00    -0.100 N  
HETATM   26  C   UNL     1      -7.956   9.489  69.180  1.00  0.00    -0.094 A  
HETATM   27  C   UNL     1      -6.921  11.664  68.945  1.00  0.00    -0.109 A  
HETATM   28  C   UNL     1      -6.812  10.303  69.219  1.00  0.00    -0.068 A  
ENDBRANCH  12  20
ENDBRANCH   3   5
ENDBRANCH   2   3
TORSDOF 6
ENDMDL
MODEL       82
REMARK 921   NORMALIZED FREE ENERGY PREDICTED BY IDOCK:   -4.54 KCAL/MOL
REMARK 922        TOTAL FREE ENERGY PREDICTED BY IDOCK:   -6.74 KCAL/MOL
REMARK 923 INTER-LIGAND FREE ENERGY PREDICTED BY IDOCK:   -5.77 KCAL/MOL
REMARK 924 INTRA-LIGAND FREE ENERGY PREDICTED BY IDOCK:   -0.97 KCAL/MOL
REMARK 927      BINDING AFFINITY PREDICTED BY RF-SCORE:    0.00 PKD
ROOT
HETATM    1  C   UNL     1      -7.402   7.511  64.022  1.00  0.00    -0.095 C  
HETATM    2  O   UNL     1      -8.644   8.224  64.037  1.00  0.00    -0.015 OA 
ENDROOT
BRANCH   2   3
HETATM    3  C   UNL     1      -8.528   9.552  64.258  1.00  0.00    -0.184 C  
HETATM    4  O   UNL     1      -7.697  10.273  63.719  1.00  0.00    -0.147 OA 
BRANCH   3   5
HETATM    5  C   UNL     1      -9.492  10.014  65.296  1.00  0.00    -0.323 C  
HETATM    6  C   UNL     1     -10.304  11.063  65.026  1.00  0.00    -0.295 C  
HETATM    7  C   UNL     1     -10.446  11.786  63.704  1.00  0.00    -0.490 C  
HETATM    8  N   UNL     1     -11.084  11.596  66.035  1.00  0.00    -0.295 NA 
HETATM    9  C   UNL     1     -10.977  11.283  67.378  1.00  0.00    -0.282 C  
HETATM   10  C   UNL     1     -11.740  12.209  68.298  1.00  0.00    -0.401 C  
HETATM   11  C   UNL     1     -10.205  10.238  67.776  1.00  0.00    -0.225 C  
HETATM   12  C   UNL     1      -9.429   9.402  66.730  1.00  0.00    -0.217 C  
BRANCH  11  13
HETATM   13  C   UNL     1     -10.053   9.974  69.239  1.00  0.00    -0.213 C  
HETATM   14  O   UNL     1      -9.159  10.452  69.925  1.00  0.00    -0.075 OA 
BRANCH  13  15
HETATM   15  O   UNL     1     -10.962   9.077  69.704  1.00  0.00    -0.220 OA 
BRANCH  15  16
HETATM   16  C   UNL     1     -11.656   9.497  70.896  1.00  0.00    -0.326 C  
HETATM   17  C   UNL     1     -12.356   7.150  71.627  1.00  0.00    -0.398 C  
HETATM   18  C   UNL     1     -11.670   8.456  72.025  1.00  0.00    -0.417 C  
HETATM   19  C   UNL     1     -10.267   8.174  72.555  1.00  0.00    -0.383 C  
ENDBRANCH  15  16
ENDBRANCH  13  15
ENDBRANCH  11  13
BRANCH  12  20
HETATM   20  C   UNL     1      -7.960   9.193  67.130  1.00  0.00    -0.106 A  
HETATM   21  O   UNL     1      -9.109   6.411  67.426  1.00  0.00    -0.113 OA 
HETATM   22  C   UNL     1      -7.030  10.205  66.808  1.00  0.00    -0.091 A  
HETATM   23  O   UNL     1      -8.165   6.607  69.397  1.00  0.00    -0.120 OA 
HETATM   24  C   UNL     1      -5.662  10.021  67.011  1.00  0.00    -0.046 A  
HETATM   25  N   UNL     1      -8.320   6.944  68.215  1.00  0.00    -0.122 N  
HETATM   26  C   UNL     1      -7.455   8.014  67.723  1.00  0.00    -0.094 A  
HETATM   27  C   UNL     1      -5.183   8.825  67.540  1.00  0.00    -0.034 A  
HETATM   28  C   UNL     1      -6.076   7.823  67.909  1.00  0.00    -0.045 A  
ENDBRANCH  12  20
ENDBRANCH   3   5
ENDBRANCH   2   3
TORSDOF 6
ENDMDL
MODEL       83
REMARK 921   NORMALIZED FREE ENERGY PREDICTED BY IDOCK:   -4.53 KCAL/MOL
REMARK 922        TOTAL FREE ENERGY PREDICTED BY IDOCK:   -6.73 KCAL/MOL
REMARK 923 INTER-LIGAND FREE ENERGY PREDICTED BY IDOCK:   -6.30 KCAL/MOL
REMARK 924 INTRA-LIGAND FREE ENERGY PREDICTED BY IDOCK:   -0.43 KCAL/MOL
REMARK 927      BINDING AFFINITY PREDICTED BY RF-SCORE:    0.00 PKD
ROOT
HETATM    1  C   UNL     1     -12.284  14.038  69.907  1.00  0.00    -0.340 C  
HETATM    2  O   UNL     1     -11.801  13.393  68.723  1.00  0.00    -0.318 OA 
ENDROOT
BRANCH   2   3
HETATM    3  C   UNL     1     -10.477  13.548  68.498  1.00  0.00    -0.244 C  
HETATM    4  O   UNL     1      -9.740  14.260  69.170  1.00  0.00    -0.098 OA 
BRANCH   3   5
HETATM    5  C   UNL     1     -10.044  12.803  67.283  1.00  0.00    -0.226 C  
HETATM    6  C   UNL     1     -10.528  13.170  66.073  1.00  0.00    -0.284 C  
HETATM    7  C   UNL     1     -11.402  14.368  65.769  1.00  0.00    -0.330 C  
HETATM    8  N   UNL     1     -10.257  12.387  64.967  1.00  0.00    -0.286 NA 
HETATM    9  C   UNL     1      -9.686  11.128  65.000  1.00  0.00    -0.253 C  
HETATM   10  C   UNL     1      -9.763  10.373  63.692  1.00  0.00    -0.338 C  
HETATM   11  C   UNL     1      -9.148  10.651  66.153  1.00  0.00    -0.190 C  
HETATM   12  C   UNL     1      -9.186  11.509  67.440  1.00  0.00    -0.166 C  
BRANCH  11  13
HETATM   13  C   UNL     1      -8.607   9.258  66.172  1.00  0.00    -0.134 C  
HETATM   14  O   UNL     1      -7.424   8.994  66.344  1.00  0.00    -0.090 OA 
BRANCH  13  15
HETATM   15  O   UNL     1      -9.554   8.327  65.889  1.00  0.00    -0.137 OA 
BRANCH  15  16
HETATM   16  C   UNL     1     -10.526   8.131  66.937  1.00  0.00    -0.309 C  
HETATM   17  C   UNL     1     -10.634   5.587  66.717  1.00  0.00    -0.360 C  
HETATM   18  C   UNL     1     -10.427   6.777  67.653  1.00  0.00    -0.287 C  
HETATM   19  C   UNL     1      -9.108   6.629  68.408  1.00  0.00    -0.124 C  
ENDBRANCH  15  16
ENDBRANCH  13  15
ENDBRANCH  11  13
BRANCH  12  20
HETATM   20  C   UNL     1      -9.685  10.711  68.654  1.00  0.00    -0.178 A  
HETATM   21  O   UNL     1      -6.759  11.108  69.307  1.00  0.00    -0.081 OA 
HETATM   22  C   UNL     1     -11.078  10.614  68.862  1.00  0.00    -0.314 A  
HETATM   23  O   UNL     1      -6.883   8.936  69.584  1.00  0.00    -0.048 OA 
HETATM   24  C   UNL     1     -11.598  10.030  70.018  1.00  0.00    -0.279 A  
HETATM   25  N   UNL     1      -7.391  10.060  69.480  1.00  0.00    -0.097 N  
HETATM   26  C   UNL     1      -8.843  10.137  69.633  1.00  0.00    -0.164 A  
HETATM   27  C   UNL     1     -10.746   9.526  70.996  1.00  0.00    -0.411 A  
HETATM   28  C   UNL     1      -9.367   9.566  70.804  1.00  0.00    -0.218 A  
ENDBRANCH  12  20
ENDBRANCH   3   5
ENDBRANCH   2   3
TORSDOF 6
ENDMDL
MODEL       84
REMARK 921   NORMALIZED FREE ENERGY PREDICTED BY IDOCK:   -4.53 KCAL/MOL
REMARK 922        TOTAL FREE ENERGY PREDICTED BY IDOCK:   -6.73 KCAL/MOL
REMARK 923 INTER-LIGAND FREE ENERGY PREDICTED BY IDOCK:   -5.09 KCAL/MOL
REMARK 924 INTRA-LIGAND FREE ENERGY PREDICTED BY IDOCK:   -1.64 KCAL/MOL
REMARK 927      BINDING AFFINITY PREDICTED BY RF-SCORE:    0.00 PKD
ROOT
HETATM    1  C   UNL     1      -9.355   3.611  67.425  1.00  0.00    -0.203 C  
HETATM    2  O   UNL     1      -9.647   3.709  68.824  1.00  0.00    -0.163 OA 
ENDROOT
BRANCH   2   3
HETATM    3  C   UNL     1      -8.560   3.795  69.622  1.00  0.00    -0.069 C  
HETATM    4  O   UNL     1      -8.152   2.886  70.336  1.00  0.00    -0.042 OA 
BRANCH   3   5
HETATM    5  C   UNL     1      -7.964   5.160  69.579  1.00  0.00    -0.079 C  
HETATM    6  C   UNL     1      -6.693   5.314  69.138  1.00  0.00    -0.053 C  
HETATM    7  C   UNL     1      -5.800   4.245  68.546  1.00  0.00    -0.025 C  
HETATM    8  N   UNL     1      -6.082   6.549  69.244  1.00  0.00    -0.025 NA 
HETATM    9  C   UNL     1      -6.580   7.628  69.951  1.00  0.00    -0.041 C  
HETATM   10  C   UNL     1      -5.591   8.755  70.150  1.00  0.00    -0.027 C  
HETATM   11  C   UNL     1      -7.851   7.603  70.433  1.00  0.00    -0.092 C  
HETATM   12  C   UNL     1      -8.742   6.358  70.205  1.00  0.00    -0.143 C  
BRANCH  11  13
HETATM   13  C   UNL     1      -8.331   8.754  71.255  1.00  0.00    -0.176 C  
HETATM   14  O   UNL     1      -7.885   9.030  72.360  1.00  0.00    -0.345 OA 
BRANCH  13  15
HETATM   15  O   UNL     1      -9.375   9.406  70.679  1.00  0.00    -0.248 OA 
BRANCH  15  16
HETATM   16  C   UNL     1      -9.015  10.220  69.545  1.00  0.00    -0.157 C  
HETATM   17  C   UNL     1     -10.127   8.731  67.791  1.00  0.00    -0.261 C  
HETATM   18  C   UNL     1      -9.994  10.141  68.365  1.00  0.00    -0.173 C  
HETATM   19  C   UNL     1     -11.369  10.693  68.730  1.00  0.00    -0.339 C  
ENDBRANCH  15  16
ENDBRANCH  13  15
ENDBRANCH  11  13
BRANCH  12  20
HETATM   20  C   UNL     1      -9.433   5.897  71.498  1.00  0.00    -0.171 A  
HETATM   21  O   UNL     1     -11.762   6.170  69.587  1.00  0.00    -0.331 OA 
HETATM   22  C   UNL     1      -8.632   5.356  72.526  1.00  0.00    -0.118 A  
HETATM   23  O   UNL     1     -12.537   7.371  71.250  1.00  0.00    -0.343 OA 
HETATM   24  C   UNL     1      -9.204   4.787  73.665  1.00  0.00    -0.121 A  
HETATM   25  N   UNL     1     -11.764   6.532  70.768  1.00  0.00    -0.378 N  
HETATM   26  C   UNL     1     -10.833   5.895  71.697  1.00  0.00    -0.263 A  
HETATM   27  C   UNL     1     -10.588   4.741  73.810  1.00  0.00    -0.330 A  
HETATM   28  C   UNL     1     -11.407   5.304  72.834  1.00  0.00    -0.368 A  
ENDBRANCH  12  20
ENDBRANCH   3   5
ENDBRANCH   2   3
TORSDOF 6
ENDMDL
MODEL       85
REMARK 921   NORMALIZED FREE ENERGY PREDICTED BY IDOCK:   -4.47 KCAL/MOL
REMARK 922        TOTAL FREE ENERGY PREDICTED BY IDOCK:   -6.64 KCAL/MOL
REMARK 923 INTER-LIGAND FREE ENERGY PREDICTED BY IDOCK:   -6.67 KCAL/MOL
REMARK 924 INTRA-LIGAND FREE ENERGY PREDICTED BY IDOCK:    0.03 KCAL/MOL
REMARK 927      BINDING AFFINITY PREDICTED BY RF-SCORE:    0.00 PKD
ROOT
HETATM    1  C   UNL     1     -12.242  10.263  70.945  1.00  0.00    -0.365 C  
HETATM    2  O   UNL     1     -11.608   9.210  70.211  1.00  0.00    -0.210 OA 
ENDROOT
BRANCH   2   3
HETATM    3  C   UNL     1     -10.330   9.463  69.852  1.00  0.00    -0.227 C  
HETATM    4  O   UNL     1      -9.475   9.908  70.608  1.00  0.00    -0.103 OA 
BRANCH   3   5
HETATM    5  C   UNL     1     -10.114   9.203  68.401  1.00  0.00    -0.220 C  
HETATM    6  C   UNL     1      -9.301   8.187  68.025  1.00  0.00    -0.135 C  
HETATM    7  C   UNL     1      -8.646   7.164  68.928  1.00  0.00    -0.129 C  
HETATM    8  N   UNL     1      -8.970   8.040  66.691  1.00  0.00    -0.142 NA 
HETATM    9  C   UNL     1      -9.237   8.963  65.695  1.00  0.00    -0.204 C  
HETATM   10  C   UNL     1      -8.522   8.697  64.390  1.00  0.00    -0.113 C  
HETATM   11  C   UNL     1     -10.054  10.020  65.944  1.00  0.00    -0.319 C  
HETATM   12  C   UNL     1     -10.679  10.205  67.348  1.00  0.00    -0.336 C  
BRANCH  11  13
HETATM   13  C   UNL     1     -10.261  11.037  64.869  1.00  0.00    -0.311 C  
HETATM   14  O   UNL     1      -9.365  11.448  64.143  1.00  0.00    -0.162 OA 
BRANCH  13  15
HETATM   15  O   UNL     1     -11.532  11.517  64.844  1.00  0.00    -0.187 OA 
BRANCH  15  16
HETATM   16  C   UNL     1     -11.793  12.454  63.780  1.00  0.00    -0.502 C  
HETATM   17  C   UNL     1     -13.128  14.101  65.207  1.00  0.00    -0.123 C  
HETATM   18  C   UNL     1     -11.961  13.910  64.239  1.00  0.00    -0.477 C  
HETATM   19  C   UNL     1     -10.676  14.466  64.846  1.00  0.00    -0.444 C  
ENDBRANCH  15  16
ENDBRANCH  13  15
ENDBRANCH  11  13
BRANCH  12  20
HETATM   20  C   UNL     1     -10.514  11.640  67.871  1.00  0.00    -0.217 A  
HETATM   21  O   UNL     1      -7.707  10.956  66.975  1.00  0.00    -0.117 OA 
HETATM   22  C   UNL     1     -11.677  12.412  68.078  1.00  0.00    -0.414 A  
HETATM   23  O   UNL     1      -7.262  11.651  69.007  1.00  0.00    -0.110 OA 
HETATM   24  C   UNL     1     -11.597  13.764  68.413  1.00  0.00    -0.369 A  
HETATM   25  N   UNL     1      -7.996  11.560  68.014  1.00  0.00    -0.123 N  
HETATM   26  C   UNL     1      -9.269  12.276  68.076  1.00  0.00    -0.195 A  
HETATM   27  C   UNL     1     -10.358  14.384  68.549  1.00  0.00    -0.248 A  
HETATM   28  C   UNL     1      -9.190  13.641  68.394  1.00  0.00    -0.169 A  
ENDBRANCH  12  20
ENDBRANCH   3   5
ENDBRANCH   2   3
TORSDOF 6
ENDMDL
MODEL       86
REMARK 921   NORMALIZED FREE ENERGY PREDICTED BY IDOCK:   -4.46 KCAL/MOL
REMARK 922        TOTAL FREE ENERGY PREDICTED BY IDOCK:   -6.63 KCAL/MOL
REMARK 923 INTER-LIGAND FREE ENERGY PREDICTED BY IDOCK:   -5.09 KCAL/MOL
REMARK 924 INTRA-LIGAND FREE ENERGY PREDICTED BY IDOCK:   -1.54 KCAL/MOL
REMARK 927      BINDING AFFINITY PREDICTED BY RF-SCORE:    0.00 PKD
ROOT
HETATM    1  C   UNL     1     -12.385  12.733  64.420  1.00  0.00    -0.424 C  
HETATM    2  O   UNL     1     -11.593  12.219  65.498  1.00  0.00    -0.354 OA 
ENDROOT
BRANCH   2   3
HETATM    3  C   UNL     1     -10.263  12.201  65.260  1.00  0.00    -0.274 C  
HETATM    4  O   UNL     1      -9.756  11.898  64.187  1.00  0.00    -0.215 OA 
BRANCH   3   5
HETATM    5  C   UNL     1      -9.489  12.525  66.492  1.00  0.00    -0.240 C  
HETATM    6  C   UNL     1      -9.151  13.812  66.742  1.00  0.00    -0.221 C  
HETATM    7  C   UNL     1      -9.577  15.034  65.956  1.00  0.00    -0.359 C  
HETATM    8  N   UNL     1      -8.301  14.099  67.794  1.00  0.00    -0.160 NA 
HETATM    9  C   UNL     1      -7.587  13.165  68.521  1.00  0.00    -0.122 C  
HETATM   10  C   UNL     1      -6.520  13.754  69.416  1.00  0.00    -0.111 C  
HETATM   11  C   UNL     1      -7.845  11.840  68.372  1.00  0.00    -0.141 C  
HETATM   12  C   UNL     1      -8.932  11.367  67.376  1.00  0.00    -0.154 C  
BRANCH  11  13
HETATM   13  C   UNL     1      -7.005  10.855  69.119  1.00  0.00    -0.096 C  
HETATM   14  O   UNL     1      -5.887  10.510  68.760  1.00  0.00    -0.041 OA 
BRANCH  13  15
HETATM   15  O   UNL     1      -7.652  10.322  70.187  1.00  0.00    -0.157 OA 
BRANCH  15  16
HETATM   16  C   UNL     1      -8.260   9.039  69.935  1.00  0.00    -0.124 C  
HETATM   17  C   UNL     1      -9.182   8.721  72.297  1.00  0.00    -0.195 C  
HETATM   18  C   UNL     1      -9.491   8.736  70.801  1.00  0.00    -0.253 C  
HETATM   19  C   UNL     1     -10.641   9.697  70.510  1.00  0.00    -0.369 C  
ENDBRANCH  15  16
ENDBRANCH  13  15
ENDBRANCH  11  13
BRANCH  12  20
HETATM   20  C   UNL     1      -8.432  10.231  66.471  1.00  0.00    -0.126 A  
HETATM   21  O   UNL     1     -11.280   9.390  67.045  1.00  0.00     0.149 OA 
HETATM   22  C   UNL     1      -7.243  10.435  65.738  1.00  0.00    -0.143 A  
HETATM   23  O   UNL     1     -10.254   7.530  67.591  1.00  0.00    -0.182 OA 
HETATM   24  C   UNL     1      -6.809   9.507  64.790  1.00  0.00    -0.103 A  
HETATM   25  N   UNL     1     -10.303   8.632  67.030  1.00  0.00    -0.293 N  
HETATM   26  C   UNL     1      -9.129   9.021  66.251  1.00  0.00    -0.179 A  
HETATM   27  C   UNL     1      -7.547   8.352  64.547  1.00  0.00    -0.106 A  
HETATM   28  C   UNL     1      -8.701   8.098  65.283  1.00  0.00    -0.093 A  
ENDBRANCH  12  20
ENDBRANCH   3   5
ENDBRANCH   2   3
TORSDOF 6
ENDMDL
MODEL       87
REMARK 921   NORMALIZED FREE ENERGY PREDICTED BY IDOCK:   -4.44 KCAL/MOL
REMARK 922        TOTAL FREE ENERGY PREDICTED BY IDOCK:   -6.60 KCAL/MOL
REMARK 923 INTER-LIGAND FREE ENERGY PREDICTED BY IDOCK:   -4.75 KCAL/MOL
REMARK 924 INTRA-LIGAND FREE ENERGY PREDICTED BY IDOCK:   -1.85 KCAL/MOL
REMARK 927      BINDING AFFINITY PREDICTED BY RF-SCORE:    0.00 PKD
ROOT
HETATM    1  C   UNL     1      -5.862   6.862  66.543  1.00  0.00    -0.029 C  
HETATM    2  O   UNL     1      -6.902   7.845  66.599  1.00  0.00    -0.067 OA 
ENDROOT
BRANCH   2   3
HETATM    3  C   UNL     1      -8.115   7.404  66.198  1.00  0.00    -0.117 C  
HETATM    4  O   UNL     1      -8.295   6.622  65.271  1.00  0.00    -0.139 OA 
BRANCH   3   5
HETATM    5  C   UNL     1      -9.210   8.048  66.977  1.00  0.00    -0.181 C  
HETATM    6  C   UNL     1      -9.569   9.321  66.686  1.00  0.00    -0.204 C  
HETATM    7  C   UNL     1      -9.057  10.172  65.544  1.00  0.00    -0.216 C  
HETATM    8  N   UNL     1     -10.469   9.976  67.505  1.00  0.00    -0.236 NA 
HETATM    9  C   UNL     1     -10.909   9.521  68.734  1.00  0.00    -0.142 C  
HETATM   10  C   UNL     1     -11.658  10.550  69.550  1.00  0.00    -0.332 C  
HETATM   11  C   UNL     1     -10.628   8.253  69.134  1.00  0.00    -0.179 C  
HETATM   12  C   UNL     1      -9.800   7.316  68.221  1.00  0.00    -0.165 C  
BRANCH  11  13
HETATM   13  C   UNL     1     -11.055   7.818  70.499  1.00  0.00    -0.257 C  
HETATM   14  O   UNL     1     -12.026   7.104  70.709  1.00  0.00    -0.332 OA 
BRANCH  13  15
HETATM   15  O   UNL     1     -10.300   8.373  71.482  1.00  0.00    -0.200 OA 
BRANCH  15  16
HETATM   16  C   UNL     1     -10.640   7.934  72.813  1.00  0.00    -0.353 C  
HETATM   17  C   UNL     1      -9.208   5.818  72.761  1.00  0.00    -0.136 C  
HETATM   18  C   UNL     1      -9.551   7.106  73.509  1.00  0.00    -0.266 C  
HETATM   19  C   UNL     1      -8.286   7.924  73.757  1.00  0.00    -0.292 C  
ENDBRANCH  15  16
ENDBRANCH  13  15
ENDBRANCH  11  13
BRANCH  12  20
HETATM   20  C   UNL     1      -8.666   6.616  68.986  1.00  0.00    -0.129 A  
HETATM   21  O   UNL     1      -9.689   4.408  67.191  1.00  0.00    -0.185 OA 
HETATM   22  C   UNL     1      -7.742   7.418  69.689  1.00  0.00    -0.107 A  
HETATM   23  O   UNL     1      -9.756   3.351  69.111  1.00  0.00    -0.122 OA 
HETATM   24  C   UNL     1      -6.608   6.862  70.284  1.00  0.00    -0.048 A  
HETATM   25  N   UNL     1      -9.372   4.271  68.377  1.00  0.00    -0.143 N  
HETATM   26  C   UNL     1      -8.431   5.223  68.964  1.00  0.00    -0.095 A  
HETATM   27  C   UNL     1      -6.366   5.494  70.195  1.00  0.00    -0.030 A  
HETATM   28  C   UNL     1      -7.280   4.668  69.547  1.00  0.00    -0.051 A  
ENDBRANCH  12  20
ENDBRANCH   3   5
ENDBRANCH   2   3
TORSDOF 6
ENDMDL
MODEL       88
REMARK 921   NORMALIZED FREE ENERGY PREDICTED BY IDOCK:   -4.44 KCAL/MOL
REMARK 922        TOTAL FREE ENERGY PREDICTED BY IDOCK:   -6.60 KCAL/MOL
REMARK 923 INTER-LIGAND FREE ENERGY PREDICTED BY IDOCK:   -6.69 KCAL/MOL
REMARK 924 INTRA-LIGAND FREE ENERGY PREDICTED BY IDOCK:    0.10 KCAL/MOL
REMARK 927      BINDING AFFINITY PREDICTED BY RF-SCORE:    0.00 PKD
ROOT
HETATM    1  C   UNL     1     -11.163   2.920  73.490  1.00  0.00    -0.198 C  
HETATM    2  O   UNL     1     -11.520   4.304  73.409  1.00  0.00    -0.280 OA 
ENDROOT
BRANCH   2   3
HETATM    3  C   UNL     1     -10.471   5.151  73.313  1.00  0.00    -0.218 C  
HETATM    4  O   UNL     1     -10.056   5.845  74.234  1.00  0.00    -0.226 OA 
BRANCH   3   5
HETATM    5  C   UNL     1      -9.931   5.189  71.925  1.00  0.00    -0.239 C  
HETATM    6  C   UNL     1      -8.641   4.840  71.707  1.00  0.00    -0.122 C  
HETATM    7  C   UNL     1      -7.666   4.281  72.721  1.00  0.00    -0.081 C  
HETATM    8  N   UNL     1      -8.090   5.024  70.452  1.00  0.00    -0.084 NA 
HETATM    9  C   UNL     1      -8.679   5.726  69.417  1.00  0.00    -0.111 C  
HETATM   10  C   UNL     1      -7.754   6.024  68.259  1.00  0.00    -0.102 C  
HETATM   11  C   UNL     1      -9.977   6.118  69.508  1.00  0.00    -0.207 C  
HETATM   12  C   UNL     1     -10.799   5.794  70.779  1.00  0.00    -0.330 C  
BRANCH  11  13
HETATM   13  C   UNL     1     -10.560   6.937  68.402  1.00  0.00    -0.210 C  
HETATM   14  O   UNL     1     -11.212   6.465  67.481  1.00  0.00    -0.347 OA 
BRANCH  13  15
HETATM   15  O   UNL     1     -10.213   8.248  68.487  1.00  0.00    -0.200 OA 
BRANCH  15  16
HETATM   16  C   UNL     1     -10.550   9.029  67.323  1.00  0.00    -0.231 C  
HETATM   17  C   UNL     1     -11.799  10.862  68.592  1.00  0.00    -0.269 C  
HETATM   18  C   UNL     1     -10.697  10.535  67.585  1.00  0.00    -0.324 C  
HETATM   19  C   UNL     1      -9.378  11.166  68.023  1.00  0.00    -0.166 C  
ENDBRANCH  15  16
ENDBRANCH  13  15
ENDBRANCH  11  13
BRANCH  12  20
HETATM   20  C   UNL     1     -11.556   7.022  71.308  1.00  0.00    -0.342 A  
HETATM   21  O   UNL     1      -8.736   8.078  71.026  1.00  0.00    -0.127 OA 
HETATM   22  C   UNL     1     -12.966   7.008  71.259  1.00  0.00    -0.357 A  
HETATM   23  O   UNL     1      -9.126   8.682  73.098  1.00  0.00    -0.270 OA 
HETATM   24  C   UNL     1     -13.712   8.141  71.586  1.00  0.00    -0.403 A  
HETATM   25  N   UNL     1      -9.492   8.313  71.975  1.00  0.00    -0.210 N  
HETATM   26  C   UNL     1     -10.934   8.207  71.761  1.00  0.00    -0.261 A  
HETATM   27  C   UNL     1     -13.074   9.317  71.971  1.00  0.00    -0.512 A  
HETATM   28  C   UNL     1     -11.686   9.352  72.072  1.00  0.00    -0.269 A  
ENDBRANCH  12  20
ENDBRANCH   3   5
ENDBRANCH   2   3
TORSDOF 6
ENDMDL
MODEL       89
REMARK 921   NORMALIZED FREE ENERGY PREDICTED BY IDOCK:   -4.43 KCAL/MOL
REMARK 922        TOTAL FREE ENERGY PREDICTED BY IDOCK:   -6.60 KCAL/MOL
REMARK 923 INTER-LIGAND FREE ENERGY PREDICTED BY IDOCK:   -4.90 KCAL/MOL
REMARK 924 INTRA-LIGAND FREE ENERGY PREDICTED BY IDOCK:   -1.70 KCAL/MOL
REMARK 927      BINDING AFFINITY PREDICTED BY RF-SCORE:    0.00 PKD
ROOT
HETATM    1  C   UNL     1     -10.033   6.502  74.480  1.00  0.00    -0.334 C  
HETATM    2  O   UNL     1      -8.931   7.212  73.903  1.00  0.00    -0.166 OA 
ENDROOT
BRANCH   2   3
HETATM    3  C   UNL     1      -8.414   6.643  72.792  1.00  0.00    -0.119 C  
HETATM    4  O   UNL     1      -8.499   5.450  72.523  1.00  0.00    -0.117 OA 
BRANCH   3   5
HETATM    5  C   UNL     1      -7.663   7.636  71.974  1.00  0.00    -0.096 C  
HETATM    6  C   UNL     1      -6.567   8.233  72.500  1.00  0.00    -0.087 C  
HETATM    7  C   UNL     1      -5.910   7.921  73.827  1.00  0.00    -0.067 C  
HETATM    8  N   UNL     1      -5.960   9.267  71.811  1.00  0.00    -0.153 NA 
HETATM    9  C   UNL     1      -6.485   9.902  70.701  1.00  0.00    -0.106 C  
HETATM   10  C   UNL     1      -5.770  11.179  70.316  1.00  0.00    -0.128 C  
HETATM   11  C   UNL     1      -7.575   9.391  70.072  1.00  0.00    -0.113 C  
HETATM   12  C   UNL     1      -8.246   8.102  70.605  1.00  0.00    -0.114 C  
BRANCH  11  13
HETATM   13  C   UNL     1      -8.159  10.143  68.919  1.00  0.00    -0.117 C  
HETATM   14  O   UNL     1      -8.076   9.771  67.756  1.00  0.00    -0.111 OA 
BRANCH  13  15
HETATM   15  O   UNL     1      -8.714  11.324  69.296  1.00  0.00     0.051 OA 
BRANCH  15  16
HETATM   16  C   UNL     1      -9.400  12.023  68.238  1.00  0.00    -0.197 C  
HETATM   17  C   UNL     1     -11.453  10.501  68.211  1.00  0.00    -0.272 C  
HETATM   18  C   UNL     1     -10.932  11.935  68.304  1.00  0.00    -0.273 C  
HETATM   19  C   UNL     1     -11.487  12.618  69.551  1.00  0.00    -0.294 C  
ENDBRANCH  15  16
ENDBRANCH  13  15
ENDBRANCH  11  13
BRANCH  12  20
HETATM   20  C   UNL     1      -9.770   8.250  70.724  1.00  0.00    -0.197 A  
HETATM   21  O   UNL     1      -9.483   5.469  69.570  1.00  0.00    -0.131 OA 
HETATM   22  C   UNL     1     -10.279   9.296  71.523  1.00  0.00    -0.338 A  
HETATM   23  O   UNL     1     -10.914   6.294  68.129  1.00  0.00    -0.302 OA 
HETATM   24  C   UNL     1     -11.644   9.403  71.792  1.00  0.00    -0.433 A  
HETATM   25  N   UNL     1     -10.323   6.303  69.216  1.00  0.00    -0.198 N  
HETATM   26  C   UNL     1     -10.705   7.353  70.158  1.00  0.00    -0.242 A  
HETATM   27  C   UNL     1     -12.539   8.471  71.273  1.00  0.00    -0.248 A  
HETATM   28  C   UNL     1     -12.076   7.451  70.446  1.00  0.00     0.006 A  
ENDBRANCH  12  20
ENDBRANCH   3   5
ENDBRANCH   2   3
TORSDOF 6
ENDMDL
MODEL       90
REMARK 921   NORMALIZED FREE ENERGY PREDICTED BY IDOCK:   -4.42 KCAL/MOL
REMARK 922        TOTAL FREE ENERGY PREDICTED BY IDOCK:   -6.58 KCAL/MOL
REMARK 923 INTER-LIGAND FREE ENERGY PREDICTED BY IDOCK:   -5.05 KCAL/MOL
REMARK 924 INTRA-LIGAND FREE ENERGY PREDICTED BY IDOCK:   -1.53 KCAL/MOL
REMARK 927      BINDING AFFINITY PREDICTED BY RF-SCORE:    0.00 PKD
ROOT
HETATM    1  C   UNL     1     -12.874   9.373  71.977  1.00  0.00    -0.414 C  
HETATM    2  O   UNL     1     -11.776   8.530  72.343  1.00  0.00    -0.375 OA 
ENDROOT
BRANCH   2   3
HETATM    3  C   UNL     1     -11.663   7.401  71.609  1.00  0.00    -0.279 C  
HETATM    4  O   UNL     1     -12.599   6.847  71.045  1.00  0.00    -0.374 OA 
BRANCH   3   5
HETATM    5  C   UNL     1     -10.269   6.876  71.634  1.00  0.00    -0.205 C  
HETATM    6  C   UNL     1      -9.717   6.518  72.818  1.00  0.00    -0.157 C  
HETATM    7  C   UNL     1     -10.406   6.472  74.165  1.00  0.00    -0.351 C  
HETATM    8  N   UNL     1      -8.378   6.182  72.869  1.00  0.00    -0.116 NA 
HETATM    9  C   UNL     1      -7.469   6.364  71.843  1.00  0.00    -0.094 C  
HETATM   10  C   UNL     1      -6.024   6.186  72.250  1.00  0.00    -0.037 C  
HETATM   11  C   UNL     1      -7.900   6.707  70.601  1.00  0.00    -0.106 C  
HETATM   12  C   UNL     1      -9.410   6.912  70.332  1.00  0.00    -0.159 C  
BRANCH  11  13
HETATM   13  C   UNL     1      -6.886   6.966  69.534  1.00  0.00    -0.051 C  
HETATM   14  O   UNL     1      -6.056   7.865  69.592  1.00  0.00    -0.032 OA 
BRANCH  13  15
HETATM   15  O   UNL     1      -7.043   6.153  68.458  1.00  0.00    -0.077 OA 
BRANCH  15  16
HETATM   16  C   UNL     1      -6.547   4.812  68.648  1.00  0.00    -0.045 C  
HETATM   17  C   UNL     1      -8.846   3.709  68.824  1.00  0.00    -0.160 C  
HETATM   18  C   UNL     1      -7.482   3.708  68.135  1.00  0.00    -0.061 C  
HETATM   19  C   UNL     1      -7.658   3.771  66.620  1.00  0.00    -0.081 C  
ENDBRANCH  15  16
ENDBRANCH  13  15
ENDBRANCH  11  13
BRANCH  12  20
HETATM   20  C   UNL     1      -9.691   8.219  69.574  1.00  0.00    -0.174 A  
HETATM   21  O   UNL     1     -11.284   6.198  67.984  1.00  0.00    -0.310 OA 
HETATM   22  C   UNL     1      -9.374   9.439  70.207  1.00  0.00    -0.294 A  
HETATM   23  O   UNL     1     -10.158   7.118  66.342  1.00  0.00    -0.122 OA 
HETATM   24  C   UNL     1      -9.733  10.663  69.639  1.00  0.00    -0.009 A  
HETATM   25  N   UNL     1     -10.600   7.106  67.499  1.00  0.00    -0.257 N  
HETATM   26  C   UNL     1     -10.329   8.288  68.314  1.00  0.00    -0.198 A  
HETATM   27  C   UNL     1     -10.416  10.703  68.427  1.00  0.00    -0.212 A  
HETATM   28  C   UNL     1     -10.705   9.520  67.754  1.00  0.00    -0.302 A  
ENDBRANCH  12  20
ENDBRANCH   3   5
ENDBRANCH   2   3
TORSDOF 6
ENDMDL
MODEL       91
REMARK 921   NORMALIZED FREE ENERGY PREDICTED BY IDOCK:   -4.42 KCAL/MOL
REMARK 922        TOTAL FREE ENERGY PREDICTED BY IDOCK:   -6.57 KCAL/MOL
REMARK 923 INTER-LIGAND FREE ENERGY PREDICTED BY IDOCK:   -5.00 KCAL/MOL
REMARK 924 INTRA-LIGAND FREE ENERGY PREDICTED BY IDOCK:   -1.58 KCAL/MOL
REMARK 927      BINDING AFFINITY PREDICTED BY RF-SCORE:    0.00 PKD
ROOT
HETATM    1  C   UNL     1     -12.004  11.208  68.727  1.00  0.00    -0.268 C  
HETATM    2  O   UNL     1     -11.276  10.476  67.734  1.00  0.00    -0.303 OA 
ENDROOT
BRANCH   2   3
HETATM    3  C   UNL     1      -9.936  10.639  67.784  1.00  0.00    -0.167 C  
HETATM    4  O   UNL     1      -9.336  11.145  68.725  1.00  0.00    -0.181 OA 
BRANCH   3   5
HETATM    5  C   UNL     1      -9.288  10.194  66.518  1.00  0.00    -0.200 C  
HETATM    6  C   UNL     1      -9.576  10.841  65.365  1.00  0.00    -0.223 C  
HETATM    7  C   UNL     1     -10.418  12.089  65.208  1.00  0.00    -0.323 C  
HETATM    8  N   UNL     1      -9.105  10.337  64.167  1.00  0.00    -0.227 NA 
HETATM    9  C   UNL     1      -8.515   9.098  63.999  1.00  0.00    -0.184 C  
HETATM   10  C   UNL     1      -8.356   8.672  62.557  1.00  0.00    -0.195 C  
HETATM   11  C   UNL     1      -8.163   8.356  65.082  1.00  0.00    -0.158 C  
HETATM   12  C   UNL     1      -8.435   8.889  66.509  1.00  0.00    -0.124 C  
BRANCH  11  13
HETATM   13  C   UNL     1      -7.595   6.990  64.864  1.00  0.00    -0.106 C  
HETATM   14  O   UNL     1      -6.414   6.715  65.023  1.00  0.00    -0.040 OA 
BRANCH  13  15
HETATM   15  O   UNL     1      -8.517   6.113  64.389  1.00  0.00    -0.056 OA 
BRANCH  15  16
HETATM   16  C   UNL     1      -8.027   4.768  64.221  1.00  0.00    -0.101 C  
HETATM   17  C   UNL     1      -9.006   3.861  66.400  1.00  0.00    -0.133 C  
HETATM   18  C   UNL     1      -8.889   3.686  64.886  1.00  0.00    -0.121 C  
HETATM   19  C   UNL     1     -10.278   3.601  64.258  1.00  0.00    -0.223 C  
ENDBRANCH  15  16
ENDBRANCH  13  15
ENDBRANCH  11  13
BRANCH  12  20
HETATM   20  C   UNL     1      -9.107   7.834  67.402  1.00  0.00    -0.138 A  
HETATM   21  O   UNL     1      -6.958   8.940  69.221  1.00  0.00    -0.056 OA 
HETATM   22  C   UNL     1     -10.364   7.330  67.008  1.00  0.00    -0.376 A  
HETATM   23  O   UNL     1      -6.512   6.802  69.420  1.00  0.00    -0.040 OA 
HETATM   24  C   UNL     1     -11.096   6.481  67.840  1.00  0.00    -0.352 A  
HETATM   25  N   UNL     1      -7.253   7.745  69.113  1.00  0.00    -0.080 N  
HETATM   26  C   UNL     1      -8.593   7.396  68.644  1.00  0.00    -0.129 A  
HETATM   27  C   UNL     1     -10.596   6.112  69.085  1.00  0.00    -0.345 A  
HETATM   28  C   UNL     1      -9.339   6.557  69.487  1.00  0.00    -0.148 A  
ENDBRANCH  12  20
ENDBRANCH   3   5
ENDBRANCH   2   3
TORSDOF 6
ENDMDL
MODEL       92
REMARK 921   NORMALIZED FREE ENERGY PREDICTED BY IDOCK:   -4.40 KCAL/MOL
REMARK 922        TOTAL FREE ENERGY PREDICTED BY IDOCK:   -6.55 KCAL/MOL
REMARK 923 INTER-LIGAND FREE ENERGY PREDICTED BY IDOCK:   -4.85 KCAL/MOL
REMARK 924 INTRA-LIGAND FREE ENERGY PREDICTED BY IDOCK:   -1.70 KCAL/MOL
REMARK 927      BINDING AFFINITY PREDICTED BY RF-SCORE:    0.00 PKD
ROOT
HETATM    1  C   UNL     1     -11.904   8.942  72.059  1.00  0.00    -0.368 C  
HETATM    2  O   UNL     1     -11.472   7.600  72.310  1.00  0.00    -0.281 OA 
ENDROOT
BRANCH   2   3
HETATM    3  C   UNL     1     -11.704   6.735  71.298  1.00  0.00    -0.336 C  
HETATM    4  O   UNL     1     -12.723   6.724  70.618  1.00  0.00    -0.206 OA 
BRANCH   3   5
HETATM    5  C   UNL     1     -10.596   5.747  71.165  1.00  0.00    -0.315 C  
HETATM    6  C   UNL     1     -10.385   4.851  72.158  1.00  0.00    -0.200 C  
HETATM    7  C   UNL     1     -11.241   4.639  73.389  1.00  0.00    -0.423 C  
HETATM    8  N   UNL     1      -9.266   4.041  72.115  1.00  0.00    -0.119 NA 
HETATM    9  C   UNL     1      -8.208   4.186  71.237  1.00  0.00    -0.077 C  
HETATM   10  C   UNL     1      -6.990   3.360  71.585  1.00  0.00    -0.031 C  
HETATM   11  C   UNL     1      -8.304   5.043  70.187  1.00  0.00    -0.085 C  
HETATM   12  C   UNL     1      -9.593   5.874  69.978  1.00  0.00    -0.200 C  
BRANCH  11  13
HETATM   13  C   UNL     1      -7.115   5.230  69.301  1.00  0.00    -0.057 C  
HETATM   14  O   UNL     1      -6.263   6.090  69.484  1.00  0.00    -0.027 OA 
BRANCH  13  15
HETATM   15  O   UNL     1      -7.131   4.400  68.226  1.00  0.00    -0.058 OA 
BRANCH  15  16
HETATM   16  C   UNL     1      -7.549   5.028  66.997  1.00  0.00    -0.088 C  
HETATM   17  C   UNL     1      -7.847   2.855  65.685  1.00  0.00    -0.085 C  
HETATM   18  C   UNL     1      -8.482   4.172  66.129  1.00  0.00    -0.109 C  
HETATM   19  C   UNL     1      -9.816   3.906  66.821  1.00  0.00    -0.112 C  
ENDBRANCH  15  16
ENDBRANCH  13  15
ENDBRANCH  11  13
BRANCH  12  20
HETATM   20  C   UNL     1      -9.290   7.358  69.722  1.00  0.00    -0.146 A  
HETATM   21  O   UNL     1     -11.325   6.738  67.572  1.00  0.00    -0.242 OA 
HETATM   22  C   UNL     1      -8.622   8.085  70.730  1.00  0.00    -0.129 A  
HETATM   23  O   UNL     1      -9.766   7.641  66.322  1.00  0.00    -0.161 OA 
HETATM   24  C   UNL     1      -8.443   9.466  70.627  1.00  0.00    -0.239 A  
HETATM   25  N   UNL     1     -10.307   7.421  67.413  1.00  0.00    -0.241 N  
HETATM   26  C   UNL     1      -9.714   8.073  68.579  1.00  0.00    -0.159 A  
HETATM   27  C   UNL     1      -8.924  10.158  69.519  1.00  0.00    -0.205 A  
HETATM   28  C   UNL     1      -9.550   9.465  68.486  1.00  0.00    -0.154 A  
ENDBRANCH  12  20
ENDBRANCH   3   5
ENDBRANCH   2   3
TORSDOF 6
ENDMDL
MODEL       93
REMARK 921   NORMALIZED FREE ENERGY PREDICTED BY IDOCK:   -4.40 KCAL/MOL
REMARK 922        TOTAL FREE ENERGY PREDICTED BY IDOCK:   -6.54 KCAL/MOL
REMARK 923 INTER-LIGAND FREE ENERGY PREDICTED BY IDOCK:   -6.66 KCAL/MOL
REMARK 924 INTRA-LIGAND FREE ENERGY PREDICTED BY IDOCK:    0.12 KCAL/MOL
REMARK 927      BINDING AFFINITY PREDICTED BY RF-SCORE:    0.00 PKD
ROOT
HETATM    1  C   UNL     1      -7.158  14.901  69.665  1.00  0.00    -0.179 C  
HETATM    2  O   UNL     1      -7.566  14.407  68.384  1.00  0.00    -0.107 OA 
ENDROOT
BRANCH   2   3
HETATM    3  C   UNL     1      -8.884  14.551  68.119  1.00  0.00    -0.177 C  
HETATM    4  O   UNL     1      -9.692  15.058  68.888  1.00  0.00    -0.210 OA 
BRANCH   3   5
HETATM    5  C   UNL     1      -9.241  13.946  66.805  1.00  0.00    -0.267 C  
HETATM    6  C   UNL     1      -9.909  14.691  65.893  1.00  0.00    -0.330 C  
HETATM    7  C   UNL     1     -10.252  16.162  65.996  1.00  0.00    -0.374 C  
HETATM    8  N   UNL     1     -10.381  14.092  64.741  1.00  0.00    -0.421 NA 
HETATM    9  C   UNL     1     -10.412  12.730  64.504  1.00  0.00    -0.368 C  
HETATM   10  C   UNL     1     -11.235  12.324  63.302  1.00  0.00    -0.399 C  
HETATM   11  C   UNL     1      -9.764  11.876  65.339  1.00  0.00    -0.228 C  
HETATM   12  C   UNL     1      -9.001  12.423  66.570  1.00  0.00    -0.145 C  
BRANCH  11  13
HETATM   13  C   UNL     1      -9.879  10.406  65.095  1.00  0.00    -0.313 C  
HETATM   14  O   UNL     1     -10.587   9.663  65.761  1.00  0.00     0.017 OA 
BRANCH  13  15
HETATM   15  O   UNL     1      -9.047   9.975  64.112  1.00  0.00    -0.217 OA 
BRANCH  15  16
HETATM   16  C   UNL     1      -8.165   8.904  64.506  1.00  0.00    -0.166 C  
HETATM   17  C   UNL     1      -6.240   9.571  62.963  1.00  0.00    -0.101 C  
HETATM   18  C   UNL     1      -6.670   9.233  64.390  1.00  0.00    -0.086 C  
HETATM   19  C   UNL     1      -6.259  10.352  65.344  1.00  0.00    -0.127 C  
ENDBRANCH  15  16
ENDBRANCH  13  15
ENDBRANCH  11  13
BRANCH  12  20
HETATM   20  C   UNL     1      -9.341  11.649  67.852  1.00  0.00    -0.174 A  
HETATM   21  O   UNL     1     -12.071  12.523  66.887  1.00  0.00    -0.537 OA 
HETATM   22  C   UNL     1      -8.348  10.817  68.413  1.00  0.00    -0.132 A  
HETATM   23  O   UNL     1     -12.188  13.246  68.954  1.00  0.00    -0.275 OA 
HETATM   24  C   UNL     1      -8.632   9.977  69.491  1.00  0.00    -0.197 A  
HETATM   25  N   UNL     1     -11.691  12.545  68.063  1.00  0.00    -0.346 N  
HETATM   26  C   UNL     1     -10.614  11.643  68.466  1.00  0.00    -0.215 A  
HETATM   27  C   UNL     1      -9.911   9.944  70.039  1.00  0.00    -0.302 A  
HETATM   28  C   UNL     1     -10.903  10.784  69.539  1.00  0.00    -0.288 A  
ENDBRANCH  12  20
ENDBRANCH   3   5
ENDBRANCH   2   3
TORSDOF 6
ENDMDL
MODEL       94
REMARK 921   NORMALIZED FREE ENERGY PREDICTED BY IDOCK:   -4.40 KCAL/MOL
REMARK 922        TOTAL FREE ENERGY PREDICTED BY IDOCK:   -6.54 KCAL/MOL
REMARK 923 INTER-LIGAND FREE ENERGY PREDICTED BY IDOCK:   -6.41 KCAL/MOL
REMARK 924 INTRA-LIGAND FREE ENERGY PREDICTED BY IDOCK:   -0.13 KCAL/MOL
REMARK 927      BINDING AFFINITY PREDICTED BY RF-SCORE:    0.00 PKD
ROOT
HETATM    1  C   UNL     1     -12.786  13.599  65.344  1.00  0.00    -0.453 C  
HETATM    2  O   UNL     1     -11.968  12.469  65.669  1.00  0.00    -0.423 OA 
ENDROOT
BRANCH   2   3
HETATM    3  C   UNL     1     -11.112  12.670  66.696  1.00  0.00    -0.274 C  
HETATM    4  O   UNL     1     -10.267  13.557  66.728  1.00  0.00    -0.256 OA 
BRANCH   3   5
HETATM    5  C   UNL     1     -11.277  11.629  67.749  1.00  0.00    -0.333 C  
HETATM    6  C   UNL     1     -11.667  12.001  68.991  1.00  0.00    -0.325 C  
HETATM    7  C   UNL     1     -12.089  13.385  69.436  1.00  0.00    -0.321 C  
HETATM    8  N   UNL     1     -11.669  11.067  70.011  1.00  0.00    -0.324 NA 
HETATM    9  C   UNL     1     -11.115   9.803  69.936  1.00  0.00    -0.254 C  
HETATM   10  C   UNL     1     -10.994   9.095  71.267  1.00  0.00    -0.400 C  
HETATM   11  C   UNL     1     -10.700   9.308  68.741  1.00  0.00    -0.184 C  
HETATM   12  C   UNL     1     -10.831  10.163  67.458  1.00  0.00    -0.349 C  
BRANCH  11  13
HETATM   13  C   UNL     1     -10.038   7.968  68.708  1.00  0.00    -0.195 C  
HETATM   14  O   UNL     1      -8.901   7.764  69.113  1.00  0.00    -0.138 OA 
BRANCH  13  15
HETATM   15  O   UNL     1     -10.804   7.024  68.101  1.00  0.00    -0.205 OA 
BRANCH  15  16
HETATM   16  C   UNL     1     -10.271   5.686  68.178  1.00  0.00    -0.186 C  
HETATM   17  C   UNL     1     -11.015   4.976  65.839  1.00  0.00    -0.015 C  
HETATM   18  C   UNL     1      -9.855   5.086  66.827  1.00  0.00    -0.212 C  
HETATM   19  C   UNL     1      -8.697   5.856  66.197  1.00  0.00    -0.141 C  
ENDBRANCH  15  16
ENDBRANCH  13  15
ENDBRANCH  11  13
BRANCH  12  20
HETATM   20  C   UNL     1      -9.532  10.180  66.637  1.00  0.00    -0.211 A  
HETATM   21  O   UNL     1      -8.546  10.860  69.414  1.00  0.00    -0.052 OA 
HETATM   22  C   UNL     1      -9.547   9.594  65.353  1.00  0.00    -0.361 A  
HETATM   23  O   UNL     1      -7.625  12.514  68.306  1.00  0.00    -0.113 OA 
HETATM   24  C   UNL     1      -8.373   9.445  64.613  1.00  0.00    -0.161 A  
HETATM   25  N   UNL     1      -8.163  11.401  68.371  1.00  0.00    -0.145 N  
HETATM   26  C   UNL     1      -8.294  10.665  67.114  1.00  0.00    -0.125 A  
HETATM   27  C   UNL     1      -7.155   9.875  65.131  1.00  0.00    -0.129 A  
HETATM   28  C   UNL     1      -7.111  10.497  66.376  1.00  0.00    -0.128 A  
ENDBRANCH  12  20
ENDBRANCH   3   5
ENDBRANCH   2   3
TORSDOF 6
ENDMDL
MODEL       95
REMARK 921   NORMALIZED FREE ENERGY PREDICTED BY IDOCK:   -4.39 KCAL/MOL
REMARK 922        TOTAL FREE ENERGY PREDICTED BY IDOCK:   -6.53 KCAL/MOL
REMARK 923 INTER-LIGAND FREE ENERGY PREDICTED BY IDOCK:   -4.71 KCAL/MOL
REMARK 924 INTRA-LIGAND FREE ENERGY PREDICTED BY IDOCK:   -1.82 KCAL/MOL
REMARK 927      BINDING AFFINITY PREDICTED BY RF-SCORE:    0.00 PKD
ROOT
HETATM    1  C   UNL     1      -8.780   9.363  63.836  1.00  0.00    -0.202 C  
HETATM    2  O   UNL     1      -9.013   8.644  65.052  1.00  0.00    -0.134 OA 
ENDROOT
BRANCH   2   3
HETATM    3  C   UNL     1      -7.902   8.383  65.774  1.00  0.00    -0.101 C  
HETATM    4  O   UNL     1      -6.875   9.049  65.728  1.00  0.00    -0.074 OA 
BRANCH   3   5
HETATM    5  C   UNL     1      -8.058   7.137  66.577  1.00  0.00    -0.114 C  
HETATM    6  C   UNL     1      -8.248   5.958  65.940  1.00  0.00    -0.127 C  
HETATM    7  C   UNL     1      -8.204   5.714  64.446  1.00  0.00    -0.120 C  
HETATM    8  N   UNL     1      -8.551   4.828  66.677  1.00  0.00    -0.109 NA 
HETATM    9  C   UNL     1      -8.879   4.816  68.020  1.00  0.00    -0.105 C  
HETATM   10  C   UNL     1      -9.445   3.503  68.512  1.00  0.00    -0.207 C  
HETATM   11  C   UNL     1      -8.717   5.934  68.774  1.00  0.00    -0.109 C  
HETATM   12  C   UNL     1      -8.177   7.234  68.129  1.00  0.00    -0.124 C  
BRANCH  11  13
HETATM   13  C   UNL     1      -9.151   5.906  70.204  1.00  0.00    -0.145 C  
HETATM   14  O   UNL     1      -8.388   5.699  71.139  1.00  0.00    -0.119 OA 
BRANCH  13  15
HETATM   15  O   UNL     1     -10.494   6.049  70.343  1.00  0.00    -0.213 OA 
BRANCH  15  16
HETATM   16  C   UNL     1     -10.949   6.097  71.711  1.00  0.00    -0.264 C  
HETATM   17  C   UNL     1     -10.625   8.615  72.004  1.00  0.00    -0.421 C  
HETATM   18  C   UNL     1     -11.584   7.431  72.126  1.00  0.00    -0.331 C  
HETATM   19  C   UNL     1     -12.870   7.713  71.352  1.00  0.00    -0.354 C  
ENDBRANCH  15  16
ENDBRANCH  13  15
ENDBRANCH  11  13
BRANCH  12  20
HETATM   20  C   UNL     1      -9.027   8.459  68.500  1.00  0.00    -0.136 A  
HETATM   21  O   UNL     1      -6.214   9.456  68.989  1.00  0.00    -0.042 OA 
HETATM   22  C   UNL     1     -10.378   8.482  68.093  1.00  0.00    -0.258 A  
HETATM   23  O   UNL     1      -7.111   9.992  70.918  1.00  0.00    -0.337 OA 
HETATM   24  C   UNL     1     -11.167   9.620  68.268  1.00  0.00    -0.008 A  
HETATM   25  N   UNL     1      -7.184   9.674  69.724  1.00  0.00    -0.080 N  
HETATM   26  C   UNL     1      -8.525   9.612  69.146  1.00  0.00    -0.143 A  
HETATM   27  C   UNL     1     -10.632  10.765  68.852  1.00  0.00    -0.246 A  
HETATM   28  C   UNL     1      -9.315  10.762  69.304  1.00  0.00    -0.087 A  
ENDBRANCH  12  20
ENDBRANCH   3   5
ENDBRANCH   2   3
TORSDOF 6
ENDMDL
MODEL       96
REMARK 921   NORMALIZED FREE ENERGY PREDICTED BY IDOCK:   -4.37 KCAL/MOL
REMARK 922        TOTAL FREE ENERGY PREDICTED BY IDOCK:   -6.51 KCAL/MOL
REMARK 923 INTER-LIGAND FREE ENERGY PREDICTED BY IDOCK:   -5.31 KCAL/MOL
REMARK 924 INTRA-LIGAND FREE ENERGY PREDICTED BY IDOCK:   -1.20 KCAL/MOL
REMARK 927      BINDING AFFINITY PREDICTED BY RF-SCORE:    0.00 PKD
ROOT
HETATM    1  C   UNL     1      -8.463   4.112  72.222  1.00  0.00    -0.103 C  
HETATM    2  O   UNL     1      -8.083   4.534  70.907  1.00  0.00    -0.074 OA 
ENDROOT
BRANCH   2   3
HETATM    3  C   UNL     1      -9.114   4.700  70.049  1.00  0.00    -0.106 C  
HETATM    4  O   UNL     1     -10.134   4.021  70.054  1.00  0.00    -0.113 OA 
BRANCH   3   5
HETATM    5  C   UNL     1      -8.819   5.764  69.049  1.00  0.00    -0.111 C  
HETATM    6  C   UNL     1      -7.903   5.527  68.080  1.00  0.00    -0.096 C  
HETATM    7  C   UNL     1      -7.193   4.219  67.800  1.00  0.00    -0.064 C  
HETATM    8  N   UNL     1      -7.510   6.558  67.249  1.00  0.00    -0.087 NA 
HETATM    9  C   UNL     1      -7.820   7.894  67.432  1.00  0.00    -0.121 C  
HETATM   10  C   UNL     1      -7.034   8.843  66.556  1.00  0.00    -0.080 C  
HETATM   11  C   UNL     1      -8.739   8.260  68.363  1.00  0.00    -0.133 C  
HETATM   12  C   UNL     1      -9.432   7.186  69.236  1.00  0.00    -0.152 C  
BRANCH  11  13
HETATM   13  C   UNL     1      -8.996   9.716  68.585  1.00  0.00    -0.129 C  
HETATM   14  O   UNL     1      -8.492  10.361  69.495  1.00  0.00    -0.160 OA 
BRANCH  13  15
HETATM   15  O   UNL     1      -9.916  10.220  67.722  1.00  0.00    -0.165 OA 
BRANCH  15  16
HETATM   16  C   UNL     1     -11.185  10.540  68.326  1.00  0.00    -0.291 C  
HETATM   17  C   UNL     1     -10.665  13.010  68.727  1.00  0.00    -0.250 C  
HETATM   18  C   UNL     1     -11.637  11.994  68.128  1.00  0.00    -0.403 C  
HETATM   19  C   UNL     1     -11.893  12.314  66.657  1.00  0.00    -0.362 C  
ENDBRANCH  15  16
ENDBRANCH  13  15
ENDBRANCH  11  13
BRANCH  12  20
HETATM   20  C   UNL     1      -9.418   7.554  70.727  1.00  0.00    -0.163 A  
HETATM   21  O   UNL     1     -12.240   6.535  70.343  1.00  0.00    -0.306 OA 
HETATM   22  C   UNL     1      -8.170   7.767  71.350  1.00  0.00    -0.106 A  
HETATM   23  O   UNL     1     -12.694   8.454  71.303  1.00  0.00    -0.285 OA 
HETATM   24  C   UNL     1      -8.074   7.962  72.729  1.00  0.00    -0.183 A  
HETATM   25  N   UNL     1     -11.926   7.528  71.008  1.00  0.00    -0.303 N  
HETATM   26  C   UNL     1     -10.569   7.609  71.546  1.00  0.00    -0.212 A  
HETATM   27  C   UNL     1      -9.218   7.951  73.523  1.00  0.00    -0.340 A  
HETATM   28  C   UNL     1     -10.469   7.787  72.935  1.00  0.00    -0.412 A  
ENDBRANCH  12  20
ENDBRANCH   3   5
ENDBRANCH   2   3
TORSDOF 6
ENDMDL
MODEL       97
REMARK 921   NORMALIZED FREE ENERGY PREDICTED BY IDOCK:   -4.32 KCAL/MOL
REMARK 922        TOTAL FREE ENERGY PREDICTED BY IDOCK:   -6.45 KCAL/MOL
REMARK 923 INTER-LIGAND FREE ENERGY PREDICTED BY IDOCK:   -6.23 KCAL/MOL
REMARK 924 INTRA-LIGAND FREE ENERGY PREDICTED BY IDOCK:   -0.22 KCAL/MOL
REMARK 927      BINDING AFFINITY PREDICTED BY RF-SCORE:    0.00 PKD
ROOT
HETATM    1  C   UNL     1     -13.140  12.003  63.590  1.00  0.00    -0.048 C  
HETATM    2  O   UNL     1     -12.916  12.428  64.939  1.00  0.00    -0.762 OA 
ENDROOT
BRANCH   2   3
HETATM    3  C   UNL     1     -11.615  12.504  65.297  1.00  0.00    -0.364 C  
HETATM    4  O   UNL     1     -10.786  11.630  65.078  1.00  0.00    -0.280 OA 
BRANCH   3   5
HETATM    5  C   UNL     1     -11.336  13.753  66.059  1.00  0.00    -0.319 C  
HETATM    6  C   UNL     1     -11.324  14.939  65.406  1.00  0.00    -0.346 C  
HETATM    7  C   UNL     1     -11.690  15.183  63.957  1.00  0.00     0.044 C  
HETATM    8  N   UNL     1     -10.911  16.078  66.071  1.00  0.00    -0.172 NA 
HETATM    9  C   UNL     1     -10.308  16.101  67.315  1.00  0.00    -0.287 C  
HETATM   10  C   UNL     1      -9.696  17.433  67.687  1.00  0.00    -0.270 C  
HETATM   11  C   UNL     1     -10.270  14.978  68.078  1.00  0.00    -0.228 C  
HETATM   12  C   UNL     1     -10.888  13.660  67.551  1.00  0.00    -0.275 C  
BRANCH  11  13
HETATM   13  C   UNL     1      -9.545  15.019  69.385  1.00  0.00    -0.139 C  
HETATM   14  O   UNL     1     -10.048  15.424  70.424  1.00  0.00    -0.196 OA 
BRANCH  13  15
HETATM   15  O   UNL     1      -8.245  14.642  69.271  1.00  0.00    -0.107 OA 
BRANCH  15  16
HETATM   16  C   UNL     1      -7.299  15.723  69.398  1.00  0.00    -0.217 C  
HETATM   17  C   UNL     1      -5.723  14.502  70.996  1.00  0.00    -0.164 C  
HETATM   18  C   UNL     1      -5.858  15.279  69.688  1.00  0.00    -0.118 C  
HETATM   19  C   UNL     1      -5.269  14.473  68.533  1.00  0.00    -0.103 C  
ENDBRANCH  15  16
ENDBRANCH  13  15
ENDBRANCH  11  13
BRANCH  12  20
HETATM   20  C   UNL     1      -9.939  12.465  67.724  1.00  0.00    -0.205 A  
HETATM   21  O   UNL     1     -12.582  11.325  68.651  1.00  0.00    -0.295 OA 
HETATM   22  C   UNL     1      -8.679  12.517  67.091  1.00  0.00    -0.200 A  
HETATM   23  O   UNL     1     -11.345  10.774  70.376  1.00  0.00    -0.301 OA 
HETATM   24  C   UNL     1      -7.826  11.412  67.086  1.00  0.00    -0.156 A  
HETATM   25  N   UNL     1     -11.492  11.131  69.200  1.00  0.00    -0.268 N  
HETATM   26  C   UNL     1     -10.274  11.272  68.403  1.00  0.00    -0.195 A  
HETATM   27  C   UNL     1      -8.205  10.227  67.710  1.00  0.00    -0.110 A  
HETATM   28  C   UNL     1      -9.423  10.155  68.380  1.00  0.00    -0.147 A  
ENDBRANCH  12  20
ENDBRANCH   3   5
ENDBRANCH   2   3
TORSDOF 6
ENDMDL
MODEL       98
REMARK 921   NORMALIZED FREE ENERGY PREDICTED BY IDOCK:   -4.32 KCAL/MOL
REMARK 922        TOTAL FREE ENERGY PREDICTED BY IDOCK:   -6.44 KCAL/MOL
REMARK 923 INTER-LIGAND FREE ENERGY PREDICTED BY IDOCK:   -6.39 KCAL/MOL
REMARK 924 INTRA-LIGAND FREE ENERGY PREDICTED BY IDOCK:   -0.06 KCAL/MOL
REMARK 927      BINDING AFFINITY PREDICTED BY RF-SCORE:    0.00 PKD
ROOT
HETATM    1  C   UNL     1     -11.961  16.559  72.993  1.00  0.00    -0.389 C  
HETATM    2  O   UNL     1     -11.207  15.755  72.078  1.00  0.00    -0.304 OA 
ENDROOT
BRANCH   2   3
HETATM    3  C   UNL     1     -11.443  16.015  70.773  1.00  0.00    -0.414 C  
HETATM    4  O   UNL     1     -11.529  17.141  70.298  1.00  0.00     0.620 OA 
BRANCH   3   5
HETATM    5  C   UNL     1     -11.659  14.760  70.001  1.00  0.00    -0.332 C  
HETATM    6  C   UNL     1     -12.209  13.688  70.620  1.00  0.00    -0.360 C  
HETATM    7  C   UNL     1     -12.764  13.637  72.028  1.00  0.00    -0.296 C  
HETATM    8  N   UNL     1     -12.266  12.476  69.958  1.00  0.00    -0.240 NA 
HETATM    9  C   UNL     1     -11.627  12.187  68.766  1.00  0.00    -0.327 C  
HETATM   10  C   UNL     1     -11.611  10.718  68.407  1.00  0.00    -0.311 C  
HETATM   11  C   UNL     1     -11.050  13.180  68.041  1.00  0.00    -0.290 C  
HETATM   12  C   UNL     1     -11.090  14.640  68.554  1.00  0.00    -0.273 C  
BRANCH  11  13
HETATM   13  C   UNL     1     -10.305  12.822  66.796  1.00  0.00    -0.240 C  
HETATM   14  O   UNL     1      -9.126  12.493  66.783  1.00  0.00    -0.211 OA 
BRANCH  13  15
HETATM   15  O   UNL     1     -11.055  12.986  65.675  1.00  0.00    -0.274 OA 
BRANCH  15  16
HETATM   16  C   UNL     1     -10.291  13.076  64.456  1.00  0.00    -0.364 C  
HETATM   17  C   UNL     1     -10.060  10.555  64.107  1.00  0.00    -0.351 C  
HETATM   18  C   UNL     1     -10.477  11.892  63.497  1.00  0.00    -0.505 C  
HETATM   19  C   UNL     1     -11.908  11.807  62.971  1.00  0.00    -0.003 C  
ENDBRANCH  15  16
ENDBRANCH  13  15
ENDBRANCH  11  13
BRANCH  12  20
HETATM   20  C   UNL     1      -9.711  15.314  68.491  1.00  0.00    -0.211 A  
HETATM   21  O   UNL     1     -11.479  17.337  67.101  1.00  0.00     0.412 OA 
HETATM   22  C   UNL     1      -8.686  14.815  69.321  1.00  0.00    -0.026 A  
HETATM   23  O   UNL     1      -9.910  17.148  65.581  1.00  0.00    -0.552 OA 
HETATM   24  C   UNL     1      -7.455  15.466  69.422  1.00  0.00    -0.218 A  
HETATM   25  N   UNL     1     -10.347  17.008  66.731  1.00  0.00    -0.313 N  
HETATM   26  C   UNL     1      -9.419  16.462  67.719  1.00  0.00    -0.222 A  
HETATM   27  C   UNL     1      -7.213  16.630  68.699  1.00  0.00    -0.192 A  
HETATM   28  C   UNL     1      -8.187  17.126  67.837  1.00  0.00    -0.202 A  
ENDBRANCH  12  20
ENDBRANCH   3   5
ENDBRANCH   2   3
TORSDOF 6
ENDMDL
MODEL       99
REMARK 921   NORMALIZED FREE ENERGY PREDICTED BY IDOCK:   -4.32 KCAL/MOL
REMARK 922        TOTAL FREE ENERGY PREDICTED BY IDOCK:   -6.44 KCAL/MOL
REMARK 923 INTER-LIGAND FREE ENERGY PREDICTED BY IDOCK:   -5.23 KCAL/MOL
REMARK 924 INTRA-LIGAND FREE ENERGY PREDICTED BY IDOCK:   -1.21 KCAL/MOL
REMARK 927      BINDING AFFINITY PREDICTED BY RF-SCORE:    0.00 PKD
ROOT
HETATM    1  C   UNL     1     -12.561   9.596  72.096  1.00  0.00    -0.308 C  
HETATM    2  O   UNL     1     -11.999   9.361  70.799  1.00  0.00    -0.279 OA 
ENDROOT
BRANCH   2   3
HETATM    3  C   UNL     1     -10.662   9.543  70.723  1.00  0.00    -0.321 C  
HETATM    4  O   UNL     1      -9.911   9.563  71.691  1.00  0.00    -0.142 OA 
BRANCH   3   5
HETATM    5  C   UNL     1     -10.229   9.791  69.320  1.00  0.00    -0.216 C  
HETATM    6  C   UNL     1     -10.898  10.698  68.570  1.00  0.00    -0.233 C  
HETATM    7  C   UNL     1     -12.006  11.620  69.033  1.00  0.00    -0.368 C  
HETATM    8  N   UNL     1     -10.604  10.818  67.225  1.00  0.00    -0.241 NA 
HETATM    9  C   UNL     1      -9.809   9.948  66.501  1.00  0.00    -0.215 C  
HETATM   10  C   UNL     1      -9.883  10.137  65.002  1.00  0.00    -0.392 C  
HETATM   11  C   UNL     1      -9.074   9.002  67.140  1.00  0.00    -0.158 C  
HETATM   12  C   UNL     1      -9.134   8.881  68.682  1.00  0.00    -0.137 C  
BRANCH  11  13
HETATM   13  C   UNL     1      -8.283   8.032  66.322  1.00  0.00    -0.116 C  
HETATM   14  O   UNL     1      -7.150   8.254  65.916  1.00  0.00    -0.069 OA 
BRANCH  13  15
HETATM   15  O   UNL     1      -8.993   6.917  66.006  1.00  0.00    -0.155 OA 
BRANCH  15  16
HETATM   16  C   UNL     1      -8.333   6.035  65.076  1.00  0.00    -0.121 C  
HETATM   17  C   UNL     1      -7.690   4.268  66.806  1.00  0.00    -0.093 C  
HETATM   18  C   UNL     1      -8.370   4.551  65.467  1.00  0.00    -0.116 C  
HETATM   19  C   UNL     1      -9.794   4.001  65.474  1.00  0.00    -0.186 C  
ENDBRANCH  15  16
ENDBRANCH  13  15
ENDBRANCH  11  13
BRANCH  12  20
HETATM   20  C   UNL     1      -9.345   7.431  69.141  1.00  0.00    -0.146 A  
HETATM   21  O   UNL     1      -6.732   8.154  70.481  1.00  0.00    -0.037 OA 
HETATM   22  C   UNL     1     -10.625   6.859  68.977  1.00  0.00    -0.240 A  
HETATM   23  O   UNL     1      -6.116   6.287  69.509  1.00  0.00    -0.027 OA 
HETATM   24  C   UNL     1     -10.927   5.601  69.501  1.00  0.00    -0.266 A  
HETATM   25  N   UNL     1      -6.974   7.075  69.929  1.00  0.00    -0.060 N  
HETATM   26  C   UNL     1      -8.367   6.652  69.801  1.00  0.00    -0.132 A  
HETATM   27  C   UNL     1      -9.964   4.879  70.201  1.00  0.00    -0.325 A  
HETATM   28  C   UNL     1      -8.679   5.395  70.344  1.00  0.00    -0.136 A  
ENDBRANCH  12  20
ENDBRANCH   3   5
ENDBRANCH   2   3
TORSDOF 6
ENDMDL
MODEL      100
REMARK 921   NORMALIZED FREE ENERGY PREDICTED BY IDOCK:   -4.31 KCAL/MOL
REMARK 922        TOTAL FREE ENERGY PREDICTED BY IDOCK:   -6.43 KCAL/MOL
REMARK 923 INTER-LIGAND FREE ENERGY PREDICTED BY IDOCK:   -5.22 KCAL/MOL
REMARK 924 INTRA-LIGAND FREE ENERGY PREDICTED BY IDOCK:   -1.21 KCAL/MOL
REMARK 927      BINDING AFFINITY PREDICTED BY RF-SCORE:    0.00 PKD
ROOT
HETATM    1  C   UNL     1     -12.792  14.693  65.354  1.00  0.00     0.017 C  
HETATM    2  O   UNL     1     -11.829  15.169  66.301  1.00  0.00    -0.114 OA 
ENDROOT
BRANCH   2   3
HETATM    3  C   UNL     1     -10.683  15.634  65.755  1.00  0.00    -0.341 C  
HETATM    4  O   UNL     1     -10.626  16.281  64.716  1.00  0.00    -0.658 OA 
BRANCH   3   5
HETATM    5  C   UNL     1      -9.493  15.195  66.536  1.00  0.00    -0.308 C  
HETATM    6  C   UNL     1      -8.446  16.041  66.679  1.00  0.00    -0.288 C  
HETATM    7  C   UNL     1      -8.374  17.484  66.225  1.00  0.00    -0.259 C  
HETATM    8  N   UNL     1      -7.279  15.586  67.265  1.00  0.00    -0.211 NA 
HETATM    9  C   UNL     1      -6.994  14.264  67.554  1.00  0.00    -0.155 C  
HETATM   10  C   UNL     1      -5.551  14.003  67.919  1.00  0.00    -0.099 C  
HETATM   11  C   UNL     1      -7.967  13.320  67.465  1.00  0.00    -0.186 C  
HETATM   12  C   UNL     1      -9.396  13.717  67.024  1.00  0.00    -0.249 C  
BRANCH  11  13
HETATM   13  C   UNL     1      -7.606  11.891  67.714  1.00  0.00    -0.130 C  
HETATM   14  O   UNL     1      -7.825  11.311  68.769  1.00  0.00    -0.135 OA 
BRANCH  13  15
HETATM   15  O   UNL     1      -6.933  11.335  66.673  1.00  0.00    -0.138 OA 
BRANCH  15  16
HETATM   16  C   UNL     1      -6.605   9.943  66.853  1.00  0.00    -0.067 C  
HETATM   17  C   UNL     1      -8.902   9.046  66.183  1.00  0.00    -0.195 C  
HETATM   18  C   UNL     1      -7.393   8.980  65.953  1.00  0.00    -0.093 C  
HETATM   19  C   UNL     1      -7.075   9.195  64.476  1.00  0.00    -0.091 C  
ENDBRANCH  15  16
ENDBRANCH  13  15
ENDBRANCH  11  13
BRANCH  12  20
HETATM   20  C   UNL     1      -9.945  12.784  65.933  1.00  0.00    -0.273 A  
HETATM   21  O   UNL     1     -12.008  12.491  68.126  1.00  0.00    -0.333 OA 
HETATM   22  C   UNL     1      -9.420  12.902  64.628  1.00  0.00     0.469 A  
HETATM   23  O   UNL     1     -11.579  10.370  67.769  1.00  0.00    -0.405 OA 
HETATM   24  C   UNL     1      -9.970  12.190  63.561  1.00  0.00    -0.341 A  
HETATM   25  N   UNL     1     -11.558  11.564  67.443  1.00  0.00    -0.273 N  
HETATM   26  C   UNL     1     -11.007  11.871  66.124  1.00  0.00    -0.308 A  
HETATM   27  C   UNL     1     -11.056  11.343  63.764  1.00  0.00    -0.417 A  
HETATM   28  C   UNL     1     -11.570  11.170  65.046  1.00  0.00     0.355 A  
ENDBRANCH  12  20
ENDBRANCH   3   5
ENDBRANCH   2   3
TORSDOF 6
ENDMDL
MODEL      101
REMARK 921   NORMALIZED FREE ENERGY PREDICTED BY IDOCK:   -4.31 KCAL/MOL
REMARK 922        TOTAL FREE ENERGY PREDICTED BY IDOCK:   -6.43 KCAL/MOL
REMARK 923 INTER-LIGAND FREE ENERGY PREDICTED BY IDOCK:   -4.86 KCAL/MOL
REMARK 924 INTRA-LIGAND FREE ENERGY PREDICTED BY IDOCK:   -1.56 KCAL/MOL
REMARK 927      BINDING AFFINITY PREDICTED BY RF-SCORE:    0.00 PKD
ROOT
HETATM    1  C   UNL     1      -9.002   7.938  68.709  1.00  0.00    -0.141 C  
HETATM    2  O   UNL     1      -7.899   8.493  67.984  1.00  0.00    -0.101 OA 
ENDROOT
BRANCH   2   3
HETATM    3  C   UNL     1      -8.248   9.248  66.919  1.00  0.00    -0.119 C  
HETATM    4  O   UNL     1      -8.982   8.870  66.014  1.00  0.00    -0.167 OA 
BRANCH   3   5
HETATM    5  C   UNL     1      -7.566  10.572  66.948  1.00  0.00    -0.110 C  
HETATM    6  C   UNL     1      -6.245  10.631  67.239  1.00  0.00    -0.056 C  
HETATM    7  C   UNL     1      -5.304   9.460  67.433  1.00  0.00    -0.037 C  
HETATM    8  N   UNL     1      -5.643  11.861  67.423  1.00  0.00    -0.095 NA 
HETATM    9  C   UNL     1      -6.310  13.068  67.534  1.00  0.00    -0.149 C  
HETATM   10  C   UNL     1      -5.450  14.214  68.017  1.00  0.00    -0.120 C  
HETATM   11  C   UNL     1      -7.636  13.144  67.251  1.00  0.00    -0.090 C  
HETATM   12  C   UNL     1      -8.412  11.876  66.819  1.00  0.00    -0.167 C  
BRANCH  11  13
HETATM   13  C   UNL     1      -8.341  14.447  67.452  1.00  0.00    -0.201 C  
HETATM   14  O   UNL     1      -8.502  15.273  66.564  1.00  0.00    -0.265 OA 
BRANCH  13  15
HETATM   15  O   UNL     1      -8.703  14.648  68.745  1.00  0.00    -0.174 OA 
BRANCH  15  16
HETATM   16  C   UNL     1      -9.402  15.888  68.981  1.00  0.00    -0.243 C  
HETATM   17  C   UNL     1     -11.683  15.054  68.187  1.00  0.00    -0.335 C  
HETATM   18  C   UNL     1     -10.894  15.727  69.308  1.00  0.00    -0.255 C  
HETATM   19  C   UNL     1     -11.109  14.983  70.624  1.00  0.00    -0.238 C  
ENDBRANCH  15  16
ENDBRANCH  13  15
ENDBRANCH  11  13
BRANCH  12  20
HETATM   20  C   UNL     1      -9.727  11.709  67.596  1.00  0.00    -0.186 A  
HETATM   21  O   UNL     1     -10.618  11.309  64.734  1.00  0.00    -0.303 OA 
HETATM   22  C   UNL     1      -9.656  11.510  68.992  1.00  0.00     0.045 A  
HETATM   23  O   UNL     1     -12.076  12.831  65.340  1.00  0.00    -0.413 OA 
HETATM   24  C   UNL     1     -10.796  11.208  69.738  1.00  0.00    -0.152 A  
HETATM   25  N   UNL     1     -11.233  11.958  65.587  1.00  0.00    -0.322 N  
HETATM   26  C   UNL     1     -11.006  11.651  66.997  1.00  0.00    -0.288 A  
HETATM   27  C   UNL     1     -12.036  11.096  69.115  1.00  0.00    -0.413 A  
HETATM   28  C   UNL     1     -12.149  11.329  67.747  1.00  0.00     0.230 A  
ENDBRANCH  12  20
ENDBRANCH   3   5
ENDBRANCH   2   3
TORSDOF 6
ENDMDL
MODEL      102
REMARK 921   NORMALIZED FREE ENERGY PREDICTED BY IDOCK:   -4.30 KCAL/MOL
REMARK 922        TOTAL FREE ENERGY PREDICTED BY IDOCK:   -6.41 KCAL/MOL
REMARK 923 INTER-LIGAND FREE ENERGY PREDICTED BY IDOCK:   -4.99 KCAL/MOL
REMARK 924 INTRA-LIGAND FREE ENERGY PREDICTED BY IDOCK:   -1.42 KCAL/MOL
REMARK 927      BINDING AFFINITY PREDICTED BY RF-SCORE:    0.00 PKD
ROOT
HETATM    1  C   UNL     1     -10.039   5.501  66.433  1.00  0.00    -0.182 C  
HETATM    2  O   UNL     1      -9.391   6.765  66.246  1.00  0.00    -0.161 OA 
ENDROOT
BRANCH   2   3
HETATM    3  C   UNL     1      -9.850   7.756  67.042  1.00  0.00    -0.219 C  
HETATM    4  O   UNL     1     -11.033   8.050  67.168  1.00  0.00    -0.191 OA 
BRANCH   3   5
HETATM    5  C   UNL     1      -8.729   8.495  67.688  1.00  0.00    -0.136 C  
HETATM    6  C   UNL     1      -8.374   8.183  68.957  1.00  0.00    -0.128 C  
HETATM    7  C   UNL     1      -8.918   7.049  69.800  1.00  0.00    -0.141 C  
HETATM    8  N   UNL     1      -7.446   8.967  69.615  1.00  0.00    -0.069 NA 
HETATM    9  C   UNL     1      -6.970  10.186  69.168  1.00  0.00    -0.062 C  
HETATM   10  C   UNL     1      -6.191  10.969  70.201  1.00  0.00    -0.146 C  
HETATM   11  C   UNL     1      -7.243  10.605  67.905  1.00  0.00    -0.087 C  
HETATM   12  C   UNL     1      -8.103   9.727  66.964  1.00  0.00    -0.113 C  
BRANCH  11  13
HETATM   13  C   UNL     1      -6.776  11.960  67.480  1.00  0.00    -0.111 C  
HETATM   14  O   UNL     1      -5.845  12.143  66.706  1.00  0.00    -0.265 OA 
BRANCH  13  15
HETATM   15  O   UNL     1      -7.439  12.962  68.113  1.00  0.00    -0.103 OA 
BRANCH  15  16
HETATM   16  C   UNL     1      -7.802  14.067  67.261  1.00  0.00    -0.122 C  
HETATM   17  C   UNL     1      -9.904  14.717  68.560  1.00  0.00    -0.218 C  
HETATM   18  C   UNL     1      -8.577  15.189  67.966  1.00  0.00    -0.156 C  
HETATM   19  C   UNL     1      -7.735  15.876  69.037  1.00  0.00    -0.209 C  
ENDBRANCH  15  16
ENDBRANCH  13  15
ENDBRANCH  11  13
BRANCH  12  20
HETATM   20  C   UNL     1      -9.215  10.533  66.276  1.00  0.00    -0.192 A  
HETATM   21  O   UNL     1      -8.215   8.771  64.030  1.00  0.00    -0.158 OA 
HETATM   22  C   UNL     1     -10.131  11.235  67.089  1.00  0.00    -0.223 A  
HETATM   23  O   UNL     1      -8.100  10.715  63.022  1.00  0.00    -0.142 OA 
HETATM   24  C   UNL     1     -11.247  11.868  66.540  1.00  0.00    -0.383 A  
HETATM   25  N   UNL     1      -8.505   9.967  63.921  1.00  0.00    -0.164 N  
HETATM   26  C   UNL     1      -9.441  10.550  64.881  1.00  0.00    -0.252 A  
HETATM   27  C   UNL     1     -11.481  11.818  65.168  1.00  0.00    -0.248 A  
HETATM   28  C   UNL     1     -10.575  11.171  64.333  1.00  0.00    -0.411 A  
ENDBRANCH  12  20
ENDBRANCH   3   5
ENDBRANCH   2   3
TORSDOF 6
ENDMDL
MODEL      103
REMARK 921   NORMALIZED FREE ENERGY PREDICTED BY IDOCK:   -4.29 KCAL/MOL
REMARK 922        TOTAL FREE ENERGY PREDICTED BY IDOCK:   -6.39 KCAL/MOL
REMARK 923 INTER-LIGAND FREE ENERGY PREDICTED BY IDOCK:   -6.83 KCAL/MOL
REMARK 924 INTRA-LIGAND FREE ENERGY PREDICTED BY IDOCK:    0.43 KCAL/MOL
REMARK 927      BINDING AFFINITY PREDICTED BY RF-SCORE:    0.00 PKD
ROOT
HETATM    1  C   UNL     1     -11.709  15.987  64.047  1.00  0.00     0.220 C  
HETATM    2  O   UNL     1     -10.901  14.935  64.585  1.00  0.00    -0.370 OA 
ENDROOT
BRANCH   2   3
HETATM    3  C   UNL     1     -10.227  15.262  65.711  1.00  0.00    -0.349 C  
HETATM    4  O   UNL     1      -9.132  15.812  65.725  1.00  0.00    -0.308 OA 
BRANCH   3   5
HETATM    5  C   UNL     1     -10.950  14.800  66.928  1.00  0.00    -0.328 C  
HETATM    6  C   UNL     1     -11.140  15.664  67.953  1.00  0.00    -0.324 C  
HETATM    7  C   UNL     1     -10.798  17.139  67.975  1.00  0.00    -0.317 C  
HETATM    8  N   UNL     1     -11.667  15.201  69.144  1.00  0.00    -0.311 NA 
HETATM    9  C   UNL     1     -11.847  13.870  69.473  1.00  0.00    -0.329 C  
HETATM   10  C   UNL     1     -12.165  13.625  70.931  1.00  0.00    -0.408 C  
HETATM   11  C   UNL     1     -11.702  12.906  68.527  1.00  0.00    -0.374 C  
HETATM   12  C   UNL     1     -11.319  13.292  67.078  1.00  0.00    -0.346 C  
BRANCH  11  13
HETATM   13  C   UNL     1     -11.832  11.474  68.934  1.00  0.00    -0.341 C  
HETATM   14  O   UNL     1     -12.904  10.891  69.028  1.00  0.00    -0.082 OA 
BRANCH  13  15
HETATM   15  O   UNL     1     -10.639  10.918  69.269  1.00  0.00    -0.213 OA 
BRANCH  15  16
HETATM   16  C   UNL     1     -10.615   9.477  69.206  1.00  0.00    -0.220 C  
HETATM   17  C   UNL     1      -8.463   9.194  70.555  1.00  0.00    -0.236 C  
HETATM   18  C   UNL     1      -9.931   8.798  70.401  1.00  0.00    -0.219 C  
HETATM   19  C   UNL     1     -10.684   9.048  71.705  1.00  0.00    -0.441 C  
ENDBRANCH  15  16
ENDBRANCH  13  15
ENDBRANCH  11  13
BRANCH  12  20
HETATM   20  C   UNL     1     -10.169  12.430  66.534  1.00  0.00    -0.244 A  
HETATM   21  O   UNL     1      -8.964  13.594  69.053  1.00  0.00     0.113 OA 
HETATM   22  C   UNL     1     -10.464  11.477  65.536  1.00  0.00    -0.327 A  
HETATM   23  O   UNL     1      -7.380  14.129  67.633  1.00  0.00    -0.149 OA 
HETATM   24  C   UNL     1      -9.501  10.565  65.100  1.00  0.00    -0.285 A  
HETATM   25  N   UNL     1      -8.378  13.478  67.971  1.00  0.00    -0.156 N  
HETATM   26  C   UNL     1      -8.845  12.464  67.028  1.00  0.00    -0.210 A  
HETATM   27  C   UNL     1      -8.221  10.578  65.647  1.00  0.00    -0.161 A  
HETATM   28  C   UNL     1      -7.884  11.533  66.602  1.00  0.00    -0.112 A  
ENDBRANCH  12  20
ENDBRANCH   3   5
ENDBRANCH   2   3
TORSDOF 6
ENDMDL
MODEL      104
REMARK 921   NORMALIZED FREE ENERGY PREDICTED BY IDOCK:   -4.27 KCAL/MOL
REMARK 922        TOTAL FREE ENERGY PREDICTED BY IDOCK:   -6.37 KCAL/MOL
REMARK 923 INTER-LIGAND FREE ENERGY PREDICTED BY IDOCK:   -5.08 KCAL/MOL
REMARK 924 INTRA-LIGAND FREE ENERGY PREDICTED BY IDOCK:   -1.28 KCAL/MOL
REMARK 927      BINDING AFFINITY PREDICTED BY RF-SCORE:    0.00 PKD
ROOT
HETATM    1  C   UNL     1      -8.591  18.360  66.449  1.00  0.00    -0.247 C  
HETATM    2  O   UNL     1      -9.098  17.162  65.850  1.00  0.00    -0.513 OA 
ENDROOT
BRANCH   2   3
HETATM    3  C   UNL     1     -10.299  16.761  66.321  1.00  0.00    -0.310 C  
HETATM    4  O   UNL     1     -10.977  17.399  67.118  1.00  0.00    -0.151 OA 
BRANCH   3   5
HETATM    5  C   UNL     1     -10.659  15.411  65.806  1.00  0.00    -0.361 C  
HETATM    6  C   UNL     1     -11.474  15.308  64.729  1.00  0.00    -0.363 C  
HETATM    7  C   UNL     1     -11.996  16.442  63.872  1.00  0.00     1.235 C  
HETATM    8  N   UNL     1     -11.939  14.065  64.344  1.00  0.00    -0.441 NA 
HETATM    9  C   UNL     1     -11.809  12.901  65.080  1.00  0.00    -0.380 C  
HETATM   10  C   UNL     1     -12.649  11.748  64.578  1.00  0.00     0.149 C  
HETATM   11  C   UNL     1     -11.005  12.871  66.175  1.00  0.00    -0.304 C  
HETATM   12  C   UNL     1     -10.242  14.143  66.614  1.00  0.00    -0.270 C  
BRANCH  11  13
HETATM   13  C   UNL     1     -10.946  11.618  66.989  1.00  0.00    -0.288 C  
HETATM   14  O   UNL     1     -11.796  11.306  67.813  1.00  0.00    -0.610 OA 
BRANCH  13  15
HETATM   15  O   UNL     1      -9.805  10.913  66.777  1.00  0.00    -0.186 OA 
BRANCH  15  16
HETATM   16  C   UNL     1      -9.998   9.666  66.079  1.00  0.00    -0.274 C  
HETATM   17  C   UNL     1      -8.572  10.281  64.050  1.00  0.00    -0.194 C  
HETATM   18  C   UNL     1      -8.837   9.263  65.159  1.00  0.00    -0.238 C  
HETATM   19  C   UNL     1      -7.556   8.995  65.944  1.00  0.00    -0.094 C  
ENDBRANCH  15  16
ENDBRANCH  13  15
ENDBRANCH  11  13
BRANCH  12  20
HETATM   20  C   UNL     1     -10.397  14.423  68.116  1.00  0.00    -0.231 A  
HETATM   21  O   UNL     1      -7.518  15.203  67.612  1.00  0.00    -0.145 OA 
HETATM   22  C   UNL     1     -11.701  14.482  68.652  1.00  0.00    -0.364 A  
HETATM   23  O   UNL     1      -7.217  13.852  69.314  1.00  0.00    -0.081 OA 
HETATM   24  C   UNL     1     -11.922  14.873  69.974  1.00  0.00    -0.377 A  
HETATM   25  N   UNL     1      -7.923  14.571  68.594  1.00  0.00    -0.141 N  
HETATM   26  C   UNL     1      -9.323  14.714  68.989  1.00  0.00    -0.118 A  
HETATM   27  C   UNL     1     -10.852  15.214  70.796  1.00  0.00    -0.193 A  
HETATM   28  C   UNL     1      -9.550  15.125  70.312  1.00  0.00     0.406 A  
ENDBRANCH  12  20
ENDBRANCH   3   5
ENDBRANCH   2   3
TORSDOF 6
ENDMDL
MODEL      105
REMARK 921   NORMALIZED FREE ENERGY PREDICTED BY IDOCK:   -4.26 KCAL/MOL
REMARK 922        TOTAL FREE ENERGY PREDICTED BY IDOCK:   -6.36 KCAL/MOL
REMARK 923 INTER-LIGAND FREE ENERGY PREDICTED BY IDOCK:   -5.11 KCAL/MOL
REMARK 924 INTRA-LIGAND FREE ENERGY PREDICTED BY IDOCK:   -1.24 KCAL/MOL
REMARK 927      BINDING AFFINITY PREDICTED BY RF-SCORE:    0.00 PKD
ROOT
HETATM    1  C   UNL     1     -12.039  10.910  70.627  1.00  0.00    -0.371 C  
HETATM    2  O   UNL     1     -11.970   9.521  70.285  1.00  0.00    -0.142 OA 
ENDROOT
BRANCH   2   3
HETATM    3  C   UNL     1     -11.113   8.797  71.038  1.00  0.00    -0.270 C  
HETATM    4  O   UNL     1     -10.595   9.197  72.073  1.00  0.00    -0.333 OA 
BRANCH   3   5
HETATM    5  C   UNL     1     -10.821   7.478  70.409  1.00  0.00    -0.255 C  
HETATM    6  C   UNL     1     -11.088   6.343  71.098  1.00  0.00    -0.291 C  
HETATM    7  C   UNL     1     -11.784   6.234  72.438  1.00  0.00    -0.301 C  
HETATM    8  N   UNL     1     -10.675   5.126  70.588  1.00  0.00    -0.141 NA 
HETATM    9  C   UNL     1      -9.824   4.959  69.511  1.00  0.00    -0.217 C  
HETATM   10  C   UNL     1      -9.303   3.550  69.339  1.00  0.00    -0.243 C  
HETATM   11  C   UNL     1      -9.493   6.021  68.730  1.00  0.00    -0.137 C  
HETATM   12  C   UNL     1     -10.055   7.427  69.052  1.00  0.00    -0.193 C  
BRANCH  11  13
HETATM   13  C   UNL     1      -8.513   5.819  67.619  1.00  0.00    -0.103 C  
HETATM   14  O   UNL     1      -7.310   5.677  67.795  1.00  0.00    -0.074 OA 
BRANCH  13  15
HETATM   15  O   UNL     1      -9.093   5.898  66.393  1.00  0.00    -0.140 OA 
BRANCH  15  16
HETATM   16  C   UNL     1     -10.088   4.885  66.140  1.00  0.00    -0.254 C  
HETATM   17  C   UNL     1      -9.276   4.308  63.787  1.00  0.00    -0.139 C  
HETATM   18  C   UNL     1      -9.641   3.780  65.173  1.00  0.00    -0.177 C  
HETATM   19  C   UNL     1      -8.488   2.958  65.744  1.00  0.00    -0.107 C  
ENDBRANCH  15  16
ENDBRANCH  13  15
ENDBRANCH  11  13
BRANCH  12  20
HETATM   20  C   UNL     1      -8.959   8.504  69.044  1.00  0.00    -0.146 A  
HETATM   21  O   UNL     1     -11.031   9.683  67.183  1.00  0.00    -0.190 OA 
HETATM   22  C   UNL     1      -7.970   8.455  70.049  1.00  0.00    -0.109 A  
HETATM   23  O   UNL     1      -9.267   9.859  65.892  1.00  0.00    -0.156 OA 
HETATM   24  C   UNL     1      -7.031   9.479  70.190  1.00  0.00    -0.092 A  
HETATM   25  N   UNL     1      -9.810   9.704  66.994  1.00  0.00    -0.183 N  
HETATM   26  C   UNL     1      -8.922   9.597  68.150  1.00  0.00    -0.123 A  
HETATM   27  C   UNL     1      -7.053  10.577  69.334  1.00  0.00    -0.110 A  
HETATM   28  C   UNL     1      -7.989  10.635  68.305  1.00  0.00    -0.116 A  
ENDBRANCH  12  20
ENDBRANCH   3   5
ENDBRANCH   2   3
TORSDOF 6
ENDMDL
MODEL      106
REMARK 921   NORMALIZED FREE ENERGY PREDICTED BY IDOCK:   -4.23 KCAL/MOL
REMARK 922        TOTAL FREE ENERGY PREDICTED BY IDOCK:   -6.31 KCAL/MOL
REMARK 923 INTER-LIGAND FREE ENERGY PREDICTED BY IDOCK:   -4.78 KCAL/MOL
REMARK 924 INTRA-LIGAND FREE ENERGY PREDICTED BY IDOCK:   -1.53 KCAL/MOL
REMARK 927      BINDING AFFINITY PREDICTED BY RF-SCORE:    0.00 PKD
ROOT
HETATM    1  C   UNL     1     -10.389  10.182  67.111  1.00  0.00    -0.238 C  
HETATM    2  O   UNL     1     -11.025   9.288  68.031  1.00  0.00    -0.155 OA 
ENDROOT
BRANCH   2   3
HETATM    3  C   UNL     1     -10.544   9.341  69.292  1.00  0.00    -0.222 C  
HETATM    4  O   UNL     1      -9.880  10.269  69.741  1.00  0.00    -0.224 OA 
BRANCH   3   5
HETATM    5  C   UNL     1     -10.859   8.095  70.045  1.00  0.00    -0.233 C  
HETATM    6  C   UNL     1     -11.653   8.165  71.140  1.00  0.00    -0.279 C  
HETATM    7  C   UNL     1     -12.389   9.384  71.652  1.00  0.00    -0.465 C  
HETATM    8  N   UNL     1     -11.820   7.044  71.931  1.00  0.00    -0.292 NA 
HETATM    9  C   UNL     1     -11.086   5.876  71.827  1.00  0.00    -0.265 C  
HETATM   10  C   UNL     1     -11.264   4.922  72.986  1.00  0.00    -0.367 C  
HETATM   11  C   UNL     1     -10.264   5.678  70.763  1.00  0.00    -0.291 C  
HETATM   12  C   UNL     1     -10.133   6.766  69.670  1.00  0.00    -0.197 C  
BRANCH  11  13
HETATM   13  C   UNL     1      -9.431   4.438  70.720  1.00  0.00    -0.173 C  
HETATM   14  O   UNL     1      -9.874   3.335  70.426  1.00  0.00    -0.121 OA 
BRANCH  13  15
HETATM   15  O   UNL     1      -8.153   4.655  71.126  1.00  0.00    -0.084 OA 
BRANCH  15  16
HETATM   16  C   UNL     1      -7.823   4.057  72.395  1.00  0.00    -0.081 C  
HETATM   17  C   UNL     1      -5.810   5.557  72.873  1.00  0.00    -0.024 C  
HETATM   18  C   UNL     1      -7.138   5.006  73.389  1.00  0.00    -0.077 C  
HETATM   19  C   UNL     1      -8.058   6.151  73.805  1.00  0.00    -0.107 C  
ENDBRANCH  15  16
ENDBRANCH  13  15
ENDBRANCH  11  13
BRANCH  12  20
HETATM   20  C   UNL     1      -8.666   7.067  69.326  1.00  0.00    -0.136 A  
HETATM   21  O   UNL     1      -9.899   6.676  66.592  1.00  0.00    -0.173 OA 
HETATM   22  C   UNL     1      -7.845   7.621  70.332  1.00  0.00    -0.092 A  
HETATM   23  O   UNL     1      -8.205   5.294  66.408  1.00  0.00    -0.108 OA 
HETATM   24  C   UNL     1      -6.548   8.052  70.051  1.00  0.00    -0.040 A  
HETATM   25  N   UNL     1      -8.798   6.239  66.946  1.00  0.00    -0.113 N  
HETATM   26  C   UNL     1      -8.099   6.909  68.041  1.00  0.00    -0.115 A  
HETATM   27  C   UNL     1      -6.034   7.942  68.762  1.00  0.00    -0.035 A  
HETATM   28  C   UNL     1      -6.801   7.361  67.756  1.00  0.00    -0.074 A  
ENDBRANCH  12  20
ENDBRANCH   3   5
ENDBRANCH   2   3
TORSDOF 6
ENDMDL
MODEL      107
REMARK 921   NORMALIZED FREE ENERGY PREDICTED BY IDOCK:   -4.19 KCAL/MOL
REMARK 922        TOTAL FREE ENERGY PREDICTED BY IDOCK:   -6.27 KCAL/MOL
REMARK 923 INTER-LIGAND FREE ENERGY PREDICTED BY IDOCK:   -4.99 KCAL/MOL
REMARK 924 INTRA-LIGAND FREE ENERGY PREDICTED BY IDOCK:   -1.28 KCAL/MOL
REMARK 927      BINDING AFFINITY PREDICTED BY RF-SCORE:    0.00 PKD
ROOT
HETATM    1  C   UNL     1      -9.791   4.760  70.049  1.00  0.00    -0.227 C  
HETATM    2  O   UNL     1      -9.823   5.238  68.699  1.00  0.00    -0.136 OA 
ENDROOT
BRANCH   2   3
HETATM    3  C   UNL     1      -8.653   5.747  68.254  1.00  0.00    -0.112 C  
HETATM    4  O   UNL     1      -7.556   5.471  68.723  1.00  0.00    -0.081 OA 
BRANCH   3   5
HETATM    5  C   UNL     1      -8.875   6.743  67.168  1.00  0.00    -0.119 C  
HETATM    6  C   UNL     1      -8.550   6.418  65.895  1.00  0.00    -0.148 C  
HETATM    7  C   UNL     1      -8.077   5.071  65.392  1.00  0.00    -0.116 C  
HETATM    8  N   UNL     1      -8.603   7.388  64.911  1.00  0.00     0.068 NA 
HETATM    9  C   UNL     1      -8.775   8.742  65.133  1.00  0.00    -0.167 C  
HETATM   10  C   UNL     1      -8.508   9.611  63.925  1.00  0.00    -0.190 C  
HETATM   11  C   UNL     1      -9.120   9.194  66.367  1.00  0.00    -0.211 C  
HETATM   12  C   UNL     1      -9.308   8.196  67.535  1.00  0.00    -0.165 C  
BRANCH  11  13
HETATM   13  C   UNL     1      -9.225  10.668  66.590  1.00  0.00    -0.164 C  
HETATM   14  O   UNL     1      -8.292  11.364  66.967  1.00  0.00    -0.148 OA 
BRANCH  13  15
HETATM   15  O   UNL     1     -10.489  11.133  66.411  1.00  0.00    -0.244 OA 
BRANCH  15  16
HETATM   16  C   UNL     1     -10.595  12.571  66.381  1.00  0.00    -0.247 C  
HETATM   17  C   UNL     1     -10.382  12.792  63.844  1.00  0.00    -0.352 C  
HETATM   18  C   UNL     1     -11.199  13.138  65.088  1.00  0.00    -0.317 C  
HETATM   19  C   UNL     1     -12.651  12.707  64.902  1.00  0.00    -0.525 C  
ENDBRANCH  15  16
ENDBRANCH  13  15
ENDBRANCH  11  13
BRANCH  12  20
HETATM   20  C   UNL     1      -8.566   8.643  68.804  1.00  0.00    -0.130 A  
HETATM   21  O   UNL     1     -11.242   7.759  69.903  1.00  0.00    -0.190 OA 
HETATM   22  C   UNL     1      -7.168   8.821  68.732  1.00  0.00    -0.075 A  
HETATM   23  O   UNL     1     -11.133   9.749  70.818  1.00  0.00    -0.293 OA 
HETATM   24  C   UNL     1      -6.413   9.085  69.875  1.00  0.00    -0.038 A  
HETATM   25  N   UNL     1     -10.625   8.768  70.259  1.00  0.00    -0.210 N  
HETATM   26  C   UNL     1      -9.176   8.805  70.069  1.00  0.00    -0.168 A  
HETATM   27  C   UNL     1      -7.029   9.179  71.120  1.00  0.00    -0.089 A  
HETATM   28  C   UNL     1      -8.412   9.052  71.221  1.00  0.00    -0.196 A  
ENDBRANCH  12  20
ENDBRANCH   3   5
ENDBRANCH   2   3
TORSDOF 6
ENDMDL
MODEL      108
REMARK 921   NORMALIZED FREE ENERGY PREDICTED BY IDOCK:   -4.19 KCAL/MOL
REMARK 922        TOTAL FREE ENERGY PREDICTED BY IDOCK:   -6.26 KCAL/MOL
REMARK 923 INTER-LIGAND FREE ENERGY PREDICTED BY IDOCK:   -6.60 KCAL/MOL
REMARK 924 INTRA-LIGAND FREE ENERGY PREDICTED BY IDOCK:    0.34 KCAL/MOL
REMARK 927      BINDING AFFINITY PREDICTED BY RF-SCORE:    0.00 PKD
ROOT
HETATM    1  C   UNL     1      -8.209   6.416  65.106  1.00  0.00    -0.134 C  
HETATM    2  O   UNL     1      -8.996   7.455  65.700  1.00  0.00    -0.089 OA 
ENDROOT
BRANCH   2   3
HETATM    3  C   UNL     1      -8.566   8.708  65.434  1.00  0.00    -0.181 C  
HETATM    4  O   UNL     1      -7.404   9.000  65.176  1.00  0.00    -0.093 OA 
BRANCH   3   5
HETATM    5  C   UNL     1      -9.670   9.699  65.571  1.00  0.00    -0.372 C  
HETATM    6  C   UNL     1      -9.986  10.488  64.517  1.00  0.00    -0.345 C  
HETATM    7  C   UNL     1      -9.413  10.408  63.117  1.00  0.00    -0.362 C  
HETATM    8  N   UNL     1     -10.896  11.514  64.684  1.00  0.00    -0.317 NA 
HETATM    9  C   UNL     1     -11.390  11.954  65.899  1.00  0.00    -0.308 C  
HETATM   10  C   UNL     1     -12.140  13.265  65.831  1.00  0.00    -0.493 C  
HETATM   11  C   UNL     1     -11.155  11.239  67.031  1.00  0.00    -0.356 C  
HETATM   12  C   UNL     1     -10.321   9.937  66.968  1.00  0.00    -0.303 C  
BRANCH  11  13
HETATM   13  C   UNL     1     -11.640  11.781  68.337  1.00  0.00    -0.318 C  
HETATM   14  O   UNL     1     -12.570  11.296  68.967  1.00  0.00    -0.332 OA 
BRANCH  13  15
HETATM   15  O   UNL     1     -10.993  12.919  68.701  1.00  0.00    -0.244 OA 
BRANCH  15  16
HETATM   16  C   UNL     1     -11.751  13.781  69.572  1.00  0.00    -0.323 C  
HETATM   17  C   UNL     1      -9.893  15.502  69.914  1.00  0.00    -0.207 C  
HETATM   18  C   UNL     1     -11.348  15.262  69.513  1.00  0.00    -0.299 C  
HETATM   19  C   UNL     1     -11.623  15.871  68.141  1.00  0.00    -0.224 C  
ENDBRANCH  15  16
ENDBRANCH  13  15
ENDBRANCH  11  13
BRANCH  12  20
HETATM   20  C   UNL     1      -9.232   9.894  68.051  1.00  0.00    -0.129 A  
HETATM   21  O   UNL     1      -8.745  12.584  66.757  1.00  0.00    -0.200 OA 
HETATM   22  C   UNL     1      -9.346   8.927  69.073  1.00  0.00    -0.144 A  
HETATM   23  O   UNL     1      -6.709  11.774  66.648  1.00  0.00    -0.093 OA 
HETATM   24  C   UNL     1      -8.476   8.923  70.165  1.00  0.00    -0.150 A  
HETATM   25  N   UNL     1      -7.863  11.787  67.097  1.00  0.00    -0.160 N  
HETATM   26  C   UNL     1      -8.166  10.816  68.147  1.00  0.00    -0.119 A  
HETATM   27  C   UNL     1      -7.471   9.881  70.268  1.00  0.00    -0.173 A  
HETATM   28  C   UNL     1      -7.303  10.822  69.256  1.00  0.00    -0.129 A  
ENDBRANCH  12  20
ENDBRANCH   3   5
ENDBRANCH   2   3
TORSDOF 6
ENDMDL
MODEL      109
REMARK 921   NORMALIZED FREE ENERGY PREDICTED BY IDOCK:   -4.19 KCAL/MOL
REMARK 922        TOTAL FREE ENERGY PREDICTED BY IDOCK:   -6.26 KCAL/MOL
REMARK 923 INTER-LIGAND FREE ENERGY PREDICTED BY IDOCK:   -4.38 KCAL/MOL
REMARK 924 INTRA-LIGAND FREE ENERGY PREDICTED BY IDOCK:   -1.88 KCAL/MOL
REMARK 927      BINDING AFFINITY PREDICTED BY RF-SCORE:    0.00 PKD
ROOT
HETATM    1  C   UNL     1      -6.823   9.802  66.539  1.00  0.00    -0.084 C  
HETATM    2  O   UNL     1      -8.025  10.251  67.175  1.00  0.00    -0.112 OA 
ENDROOT
BRANCH   2   3
HETATM    3  C   UNL     1      -9.138   9.573  66.818  1.00  0.00    -0.146 C  
HETATM    4  O   UNL     1      -9.422   9.268  65.666  1.00  0.00    -0.242 OA 
BRANCH   3   5
HETATM    5  C   UNL     1     -10.013   9.311  67.996  1.00  0.00    -0.216 C  
HETATM    6  C   UNL     1     -10.652  10.346  68.590  1.00  0.00    -0.209 C  
HETATM    7  C   UNL     1     -10.686  11.785  68.119  1.00  0.00    -0.247 C  
HETATM    8  N   UNL     1     -11.334  10.135  69.773  1.00  0.00    -0.257 NA 
HETATM    9  C   UNL     1     -11.271   8.984  70.537  1.00  0.00    -0.260 C  
HETATM   10  C   UNL     1     -11.875   9.116  71.916  1.00  0.00    -0.439 C  
HETATM   11  C   UNL     1     -10.670   7.869  70.045  1.00  0.00    -0.244 C  
HETATM   12  C   UNL     1     -10.039   7.887  68.631  1.00  0.00    -0.210 C  
BRANCH  11  13
HETATM   13  C   UNL     1     -10.554   6.667  70.925  1.00  0.00    -0.224 C  
HETATM   14  O   UNL     1     -11.296   5.697  70.847  1.00  0.00    -0.142 OA 
BRANCH  13  15
HETATM   15  O   UNL     1      -9.592   6.807  71.874  1.00  0.00    -0.151 OA 
BRANCH  15  16
HETATM   16  C   UNL     1      -9.370   5.628  72.674  1.00  0.00    -0.140 C  
HETATM   17  C   UNL     1      -8.146   4.310  70.859  1.00  0.00    -0.071 C  
HETATM   18  C   UNL     1      -8.116   4.828  72.297  1.00  0.00    -0.107 C  
HETATM   19  C   UNL     1      -6.838   5.626  72.542  1.00  0.00    -0.077 C  
ENDBRANCH  15  16
ENDBRANCH  13  15
ENDBRANCH  11  13
BRANCH  12  20
HETATM   20  C   UNL     1      -8.619   7.300  68.624  1.00  0.00    -0.128 A  
HETATM   21  O   UNL     1      -9.850   6.034  66.168  1.00  0.00    -0.102 OA 
HETATM   22  C   UNL     1      -7.642   7.907  69.440  1.00  0.00    -0.103 A  
HETATM   23  O   UNL     1      -9.092   4.223  67.146  1.00  0.00    -0.121 OA 
HETATM   24  C   UNL     1      -6.302   7.519  69.376  1.00  0.00    -0.032 A  
HETATM   25  N   UNL     1      -9.128   5.450  66.983  1.00  0.00    -0.112 N  
HETATM   26  C   UNL     1      -8.197   6.242  67.785  1.00  0.00    -0.118 A  
HETATM   27  C   UNL     1      -5.901   6.517  68.497  1.00  0.00    -0.021 A  
HETATM   28  C   UNL     1      -6.847   5.866  67.708  1.00  0.00    -0.060 A  
ENDBRANCH  12  20
ENDBRANCH   3   5
ENDBRANCH   2   3
TORSDOF 6
ENDMDL
MODEL      110
REMARK 921   NORMALIZED FREE ENERGY PREDICTED BY IDOCK:   -4.16 KCAL/MOL
REMARK 922        TOTAL FREE ENERGY PREDICTED BY IDOCK:   -6.23 KCAL/MOL
REMARK 923 INTER-LIGAND FREE ENERGY PREDICTED BY IDOCK:   -6.54 KCAL/MOL
REMARK 924 INTRA-LIGAND FREE ENERGY PREDICTED BY IDOCK:    0.31 KCAL/MOL
REMARK 927      BINDING AFFINITY PREDICTED BY RF-SCORE:    0.00 PKD
ROOT
HETATM    1  C   UNL     1     -12.555  14.045  65.107  1.00  0.00    -0.428 C  
HETATM    2  O   UNL     1     -12.313  12.870  65.889  1.00  0.00    -0.493 OA 
ENDROOT
BRANCH   2   3
HETATM    3  C   UNL     1     -11.379  13.019  66.854  1.00  0.00    -0.311 C  
HETATM    4  O   UNL     1     -10.532  13.904  66.867  1.00  0.00    -0.272 OA 
BRANCH   3   5
HETATM    5  C   UNL     1     -11.462  11.924  67.861  1.00  0.00    -0.385 C  
HETATM    6  C   UNL     1     -11.758  12.227  69.147  1.00  0.00    -0.323 C  
HETATM    7  C   UNL     1     -12.147  13.584  69.694  1.00  0.00    -0.365 C  
HETATM    8  N   UNL     1     -11.681  11.242  70.113  1.00  0.00    -0.333 NA 
HETATM    9  C   UNL     1     -11.130   9.986  69.931  1.00  0.00    -0.288 C  
HETATM   10  C   UNL     1     -10.908   9.211  71.210  1.00  0.00    -0.402 C  
HETATM   11  C   UNL     1     -10.806   9.557  68.684  1.00  0.00    -0.177 C  
HETATM   12  C   UNL     1     -11.035  10.478  67.461  1.00  0.00    -0.365 C  
BRANCH  11  13
HETATM   13  C   UNL     1     -10.145   8.225  68.531  1.00  0.00    -0.197 C  
HETATM   14  O   UNL     1     -10.703   7.243  68.058  1.00  0.00    -0.200 OA 
BRANCH  13  15
HETATM   15  O   UNL     1      -8.892   8.202  69.055  1.00  0.00    -0.143 OA 
BRANCH  15  16
HETATM   16  C   UNL     1      -8.313   6.885  69.154  1.00  0.00    -0.125 C  
HETATM   17  C   UNL     1      -6.583   7.496  70.933  1.00  0.00    -0.042 C  
HETATM   18  C   UNL     1      -7.715   6.553  70.529  1.00  0.00    -0.105 C  
HETATM   19  C   UNL     1      -8.784   6.516  71.619  1.00  0.00    -0.132 C  
ENDBRANCH  15  16
ENDBRANCH  13  15
ENDBRANCH  11  13
BRANCH  12  20
HETATM   20  C   UNL     1      -9.802  10.545  66.547  1.00  0.00    -0.255 A  
HETATM   21  O   UNL     1      -8.639  11.251  69.248  1.00  0.00     0.038 OA 
HETATM   22  C   UNL     1      -9.890   9.963  65.264  1.00  0.00    -0.373 A  
HETATM   23  O   UNL     1      -7.864  12.942  68.085  1.00  0.00    -0.127 OA 
HETATM   24  C   UNL     1      -8.769   9.860  64.439  1.00  0.00    -0.223 A  
HETATM   25  N   UNL     1      -8.354  11.809  68.183  1.00  0.00    -0.149 N  
HETATM   26  C   UNL     1      -8.550  11.074  66.935  1.00  0.00    -0.143 A  
HETATM   27  C   UNL     1      -7.533  10.334  64.868  1.00  0.00    -0.114 A  
HETATM   28  C   UNL     1      -7.420  10.952  66.110  1.00  0.00    -0.107 A  
ENDBRANCH  12  20
ENDBRANCH   3   5
ENDBRANCH   2   3
TORSDOF 6
ENDMDL
MODEL      111
REMARK 921   NORMALIZED FREE ENERGY PREDICTED BY IDOCK:   -4.16 KCAL/MOL
REMARK 922        TOTAL FREE ENERGY PREDICTED BY IDOCK:   -6.22 KCAL/MOL
REMARK 923 INTER-LIGAND FREE ENERGY PREDICTED BY IDOCK:   -4.48 KCAL/MOL
REMARK 924 INTRA-LIGAND FREE ENERGY PREDICTED BY IDOCK:   -1.74 KCAL/MOL
REMARK 927      BINDING AFFINITY PREDICTED BY RF-SCORE:    0.00 PKD
ROOT
HETATM    1  C   UNL     1     -11.002  11.486  66.309  1.00  0.00    -0.275 C  
HETATM    2  O   UNL     1     -10.344  10.217  66.220  1.00  0.00    -0.226 OA 
ENDROOT
BRANCH   2   3
HETATM    3  C   UNL     1      -9.002  10.267  66.366  1.00  0.00    -0.148 C  
HETATM    4  O   UNL     1      -8.217  10.527  65.462  1.00  0.00    -0.159 OA 
BRANCH   3   5
HETATM    5  C   UNL     1      -8.594   9.891  67.749  1.00  0.00    -0.121 C  
HETATM    6  C   UNL     1      -8.063  10.835  68.562  1.00  0.00    -0.133 C  
HETATM    7  C   UNL     1      -7.933  12.316  68.273  1.00  0.00    -0.163 C  
HETATM    8  N   UNL     1      -7.538  10.462  69.785  1.00  0.00    -0.155 NA 
HETATM    9  C   UNL     1      -7.317   9.160  70.195  1.00  0.00    -0.077 C  
HETATM   10  C   UNL     1      -6.474   9.033  71.443  1.00  0.00    -0.079 C  
HETATM   11  C   UNL     1      -7.814   8.122  69.472  1.00  0.00    -0.104 C  
HETATM   12  C   UNL     1      -8.617   8.392  68.177  1.00  0.00    -0.139 C  
BRANCH  11  13
HETATM   13  C   UNL     1      -7.495   6.727  69.904  1.00  0.00    -0.095 C  
HETATM   14  O   UNL     1      -6.578   6.066  69.434  1.00  0.00    -0.040 OA 
BRANCH  13  15
HETATM   15  O   UNL     1      -8.385   6.245  70.809  1.00  0.00    -0.123 OA 
BRANCH  15  16
HETATM   16  C   UNL     1      -9.399   5.387  70.248  1.00  0.00    -0.154 C  
HETATM   17  C   UNL     1     -10.958   5.469  72.271  1.00  0.00    -0.296 C  
HETATM   18  C   UNL     1     -10.820   5.658  70.761  1.00  0.00    -0.294 C  
HETATM   19  C   UNL     1     -11.315   7.044  70.356  1.00  0.00    -0.354 C  
ENDBRANCH  15  16
ENDBRANCH  13  15
ENDBRANCH  11  13
BRANCH  12  20
HETATM   20  C   UNL     1      -8.137   7.520  67.006  1.00  0.00    -0.117 A  
HETATM   21  O   UNL     1     -11.132   7.105  66.930  1.00  0.00    -0.327 OA 
HETATM   22  C   UNL     1      -6.823   7.710  66.528  1.00  0.00    -0.062 A  
HETATM   23  O   UNL     1     -10.493   5.007  66.932  1.00  0.00    -0.234 OA 
HETATM   24  C   UNL     1      -6.370   7.059  65.380  1.00  0.00    -0.040 A  
HETATM   25  N   UNL     1     -10.287   6.218  66.774  1.00  0.00    -0.219 N  
HETATM   26  C   UNL     1      -8.952   6.597  66.312  1.00  0.00    -0.152 A  
HETATM   27  C   UNL     1      -7.213   6.201  64.679  1.00  0.00    -0.064 A  
HETATM   28  C   UNL     1      -8.501   5.957  65.147  1.00  0.00    -0.130 A  
ENDBRANCH  12  20
ENDBRANCH   3   5
ENDBRANCH   2   3
TORSDOF 6
ENDMDL
MODEL      112
REMARK 921   NORMALIZED FREE ENERGY PREDICTED BY IDOCK:   -4.15 KCAL/MOL
REMARK 922        TOTAL FREE ENERGY PREDICTED BY IDOCK:   -6.22 KCAL/MOL
REMARK 923 INTER-LIGAND FREE ENERGY PREDICTED BY IDOCK:   -5.53 KCAL/MOL
REMARK 924 INTRA-LIGAND FREE ENERGY PREDICTED BY IDOCK:   -0.69 KCAL/MOL
REMARK 927      BINDING AFFINITY PREDICTED BY RF-SCORE:    0.00 PKD
ROOT
HETATM    1  C   UNL     1      -6.451  18.621  68.181  1.00  0.00    -0.213 C  
HETATM    2  O   UNL     1      -7.476  17.646  67.960  1.00  0.00    -0.211 OA 
ENDROOT
BRANCH   2   3
HETATM    3  C   UNL     1      -7.181  16.722  67.019  1.00  0.00    -0.201 C  
HETATM    4  O   UNL     1      -6.097  16.630  66.456  1.00  0.00    -0.303 OA 
BRANCH   3   5
HETATM    5  C   UNL     1      -8.367  15.877  66.700  1.00  0.00    -0.328 C  
HETATM    6  C   UNL     1      -9.509  16.471  66.282  1.00  0.00    -0.310 C  
HETATM    7  C   UNL     1      -9.711  17.939  65.971  1.00  0.00    -0.142 C  
HETATM    8  N   UNL     1     -10.656  15.712  66.137  1.00  0.00    -0.313 NA 
HETATM    9  C   UNL     1     -10.811  14.409  66.573  1.00  0.00    -0.310 C  
HETATM   10  C   UNL     1     -12.238  13.911  66.555  1.00  0.00    -0.482 C  
HETATM   11  C   UNL     1      -9.735  13.699  67.002  1.00  0.00    -0.251 C  
HETATM   12  C   UNL     1      -8.331  14.351  67.020  1.00  0.00    -0.172 C  
BRANCH  11  13
HETATM   13  C   UNL     1      -9.950  12.319  67.534  1.00  0.00    -0.199 C  
HETATM   14  O   UNL     1     -10.431  12.085  68.635  1.00  0.00    -0.223 OA 
BRANCH  13  15
HETATM   15  O   UNL     1      -9.473  11.359  66.699  1.00  0.00    -0.181 OA 
BRANCH  15  16
HETATM   16  C   UNL     1     -10.491  10.650  65.964  1.00  0.00    -0.183 C  
HETATM   17  C   UNL     1     -10.322  12.074  63.849  1.00  0.00    -0.433 C  
HETATM   18  C   UNL     1     -10.305  10.665  64.440  1.00  0.00    -0.347 C  
HETATM   19  C   UNL     1      -9.036   9.931  64.016  1.00  0.00    -0.276 C  
ENDBRANCH  15  16
ENDBRANCH  13  15
ENDBRANCH  11  13
BRANCH  12  20
HETATM   20  C   UNL     1      -7.607  14.128  68.356  1.00  0.00    -0.130 A  
HETATM   21  O   UNL     1      -6.125  12.254  66.501  1.00  0.00    -0.069 OA 
HETATM   22  C   UNL     1      -7.810  15.066  69.391  1.00  0.00    -0.179 A  
HETATM   23  O   UNL     1      -6.593  10.844  68.115  1.00  0.00    -0.061 OA 
HETATM   24  C   UNL     1      -7.076  15.006  70.576  1.00  0.00     0.448 A  
HETATM   25  N   UNL     1      -6.464  11.988  67.660  1.00  0.00    -0.094 N  
HETATM   26  C   UNL     1      -6.677  13.090  68.596  1.00  0.00    -0.096 A  
HETATM   27  C   UNL     1      -6.121  14.010  70.763  1.00  0.00    -0.141 A  
HETATM   28  C   UNL     1      -5.926  13.043  69.781  1.00  0.00    -0.130 A  
ENDBRANCH  12  20
ENDBRANCH   3   5
ENDBRANCH   2   3
TORSDOF 6
ENDMDL
MODEL      113
REMARK 921   NORMALIZED FREE ENERGY PREDICTED BY IDOCK:   -4.14 KCAL/MOL
REMARK 922        TOTAL FREE ENERGY PREDICTED BY IDOCK:   -6.20 KCAL/MOL
REMARK 923 INTER-LIGAND FREE ENERGY PREDICTED BY IDOCK:   -4.90 KCAL/MOL
REMARK 924 INTRA-LIGAND FREE ENERGY PREDICTED BY IDOCK:   -1.30 KCAL/MOL
REMARK 927      BINDING AFFINITY PREDICTED BY RF-SCORE:    0.00 PKD
ROOT
HETATM    1  C   UNL     1      -5.979   7.112  66.612  1.00  0.00    -0.035 C  
HETATM    2  O   UNL     1      -7.120   7.976  66.560  1.00  0.00    -0.072 OA 
ENDROOT
BRANCH   2   3
HETATM    3  C   UNL     1      -8.310   7.344  66.663  1.00  0.00    -0.124 C  
HETATM    4  O   UNL     1      -9.150   7.301  65.772  1.00  0.00    -0.086 OA 
BRANCH   3   5
HETATM    5  C   UNL     1      -8.503   6.772  68.025  1.00  0.00    -0.120 C  
HETATM    6  C   UNL     1      -8.915   5.488  68.152  1.00  0.00    -0.108 C  
HETATM    7  C   UNL     1      -9.101   4.479  67.039  1.00  0.00    -0.133 C  
HETATM    8  N   UNL     1      -9.247   5.001  69.402  1.00  0.00    -0.102 NA 
HETATM    9  C   UNL     1      -9.391   5.766  70.545  1.00  0.00    -0.162 C  
HETATM   10  C   UNL     1     -10.036   5.042  71.704  1.00  0.00    -0.260 C  
HETATM   11  C   UNL     1      -8.997   7.067  70.551  1.00  0.00    -0.155 C  
HETATM   12  C   UNL     1      -8.400   7.703  69.272  1.00  0.00    -0.134 C  
BRANCH  11  13
HETATM   13  C   UNL     1      -9.235   7.884  71.779  1.00  0.00    -0.150 C  
HETATM   14  O   UNL     1      -8.556   7.794  72.794  1.00  0.00    -0.126 OA 
BRANCH  13  15
HETATM   15  O   UNL     1     -10.336   8.672  71.675  1.00  0.00    -0.241 OA 
BRANCH  15  16
HETATM   16  C   UNL     1     -11.350   8.411  72.667  1.00  0.00    -0.276 C  
HETATM   17  C   UNL     1     -13.206   9.715  71.489  1.00  0.00    -0.484 C  
HETATM   18  C   UNL     1     -12.785   8.389  72.121  1.00  0.00    -0.399 C  
HETATM   19  C   UNL     1     -13.000   7.243  71.135  1.00  0.00    -0.313 C  
ENDBRANCH  15  16
ENDBRANCH  13  15
ENDBRANCH  11  13
BRANCH  12  20
HETATM   20  C   UNL     1      -9.041   9.061  68.948  1.00  0.00    -0.140 A  
HETATM   21  O   UNL     1      -6.092   9.732  68.969  1.00  0.00    -0.041 OA 
HETATM   22  C   UNL     1     -10.391   9.080  68.538  1.00  0.00    -0.233 A  
HETATM   23  O   UNL     1      -6.811  11.290  70.336  1.00  0.00    -0.110 OA 
HETATM   24  C   UNL     1     -10.995  10.257  68.091  1.00  0.00    -0.328 A  
HETATM   25  N   UNL     1      -6.985  10.431  69.461  1.00  0.00    -0.086 N  
HETATM   26  C   UNL     1      -8.346  10.292  68.946  1.00  0.00    -0.136 A  
HETATM   27  C   UNL     1     -10.270  11.444  68.040  1.00  0.00    -0.201 A  
HETATM   28  C   UNL     1      -8.949  11.470  68.478  1.00  0.00    -0.146 A  
ENDBRANCH  12  20
ENDBRANCH   3   5
ENDBRANCH   2   3
TORSDOF 6
ENDMDL
MODEL      114
REMARK 921   NORMALIZED FREE ENERGY PREDICTED BY IDOCK:   -4.14 KCAL/MOL
REMARK 922        TOTAL FREE ENERGY PREDICTED BY IDOCK:   -6.20 KCAL/MOL
REMARK 923 INTER-LIGAND FREE ENERGY PREDICTED BY IDOCK:   -5.61 KCAL/MOL
REMARK 924 INTRA-LIGAND FREE ENERGY PREDICTED BY IDOCK:   -0.59 KCAL/MOL
REMARK 927      BINDING AFFINITY PREDICTED BY RF-SCORE:    0.00 PKD
ROOT
HETATM    1  C   UNL     1     -12.452  15.618  70.687  1.00  0.00    -0.417 C  
HETATM    2  O   UNL     1     -11.836  14.354  70.415  1.00  0.00    -0.286 OA 
ENDROOT
BRANCH   2   3
HETATM    3  C   UNL     1     -12.086  13.859  69.182  1.00  0.00    -0.338 C  
HETATM    4  O   UNL     1     -12.734  14.443  68.321  1.00  0.00     0.289 OA 
BRANCH   3   5
HETATM    5  C   UNL     1     -11.538  12.483  69.030  1.00  0.00    -0.365 C  
HETATM    6  C   UNL     1     -11.712  11.586  70.030  1.00  0.00    -0.332 C  
HETATM    7  C   UNL     1     -12.530  11.777  71.290  1.00  0.00    -0.351 C  
HETATM    8  N   UNL     1     -11.072  10.363  69.965  1.00  0.00    -0.294 NA 
HETATM    9  C   UNL     1     -10.091  10.022  69.052  1.00  0.00    -0.200 C  
HETATM   10  C   UNL     1      -9.356   8.741  69.375  1.00  0.00    -0.157 C  
HETATM   11  C   UNL     1      -9.832  10.832  67.992  1.00  0.00    -0.180 C  
HETATM   12  C   UNL     1     -10.625  12.149  67.810  1.00  0.00    -0.229 C  
BRANCH  11  13
HETATM   13  C   UNL     1      -8.716  10.471  67.066  1.00  0.00    -0.130 C  
HETATM   14  O   UNL     1      -7.678  11.112  66.975  1.00  0.00    -0.124 OA 
BRANCH  13  15
HETATM   15  O   UNL     1      -9.017   9.406  66.278  1.00  0.00    -0.143 OA 
BRANCH  15  16
HETATM   16  C   UNL     1      -7.956   9.007  65.387  1.00  0.00    -0.111 C  
HETATM   17  C   UNL     1      -6.863   7.360  67.007  1.00  0.00    -0.074 C  
HETATM   18  C   UNL     1      -7.441   7.578  65.609  1.00  0.00    -0.083 C  
HETATM   19  C   UNL     1      -8.515   6.534  65.314  1.00  0.00    -0.091 C  
ENDBRANCH  15  16
ENDBRANCH  13  15
ENDBRANCH  11  13
BRANCH  12  20
HETATM   20  C   UNL     1      -9.703  13.344  67.522  1.00  0.00    -0.224 A  
HETATM   21  O   UNL     1     -11.670  13.482  65.228  1.00  0.00    -0.307 OA 
HETATM   22  C   UNL     1      -8.853  13.795  68.554  1.00  0.00    -0.116 A  
HETATM   23  O   UNL     1      -9.800  13.548  64.084  1.00  0.00    -0.087 OA 
HETATM   24  C   UNL     1      -8.097  14.959  68.411  1.00  0.00    -0.137 A  
HETATM   25  N   UNL     1     -10.450  13.658  65.131  1.00  0.00    -0.353 N  
HETATM   26  C   UNL     1      -9.710  14.084  66.318  1.00  0.00    -0.295 A  
HETATM   27  C   UNL     1      -8.167  15.705  67.238  1.00  0.00    -0.218 A  
HETATM   28  C   UNL     1      -8.963  15.266  66.183  1.00  0.00    -0.251 A  
ENDBRANCH  12  20
ENDBRANCH   3   5
ENDBRANCH   2   3
TORSDOF 6
ENDMDL
MODEL      115
REMARK 921   NORMALIZED FREE ENERGY PREDICTED BY IDOCK:   -4.11 KCAL/MOL
REMARK 922        TOTAL FREE ENERGY PREDICTED BY IDOCK:   -6.16 KCAL/MOL
REMARK 923 INTER-LIGAND FREE ENERGY PREDICTED BY IDOCK:   -6.56 KCAL/MOL
REMARK 924 INTRA-LIGAND FREE ENERGY PREDICTED BY IDOCK:    0.40 KCAL/MOL
REMARK 927      BINDING AFFINITY PREDICTED BY RF-SCORE:    0.00 PKD
ROOT
HETATM    1  C   UNL     1     -12.201  13.412  63.606  1.00  0.00    -0.414 C  
HETATM    2  O   UNL     1     -11.435  12.256  63.967  1.00  0.00    -0.347 OA 
ENDROOT
BRANCH   2   3
HETATM    3  C   UNL     1     -11.324  12.047  65.298  1.00  0.00    -0.312 C  
HETATM    4  O   UNL     1     -12.275  11.975  66.068  1.00  0.00    -0.546 OA 
BRANCH   3   5
HETATM    5  C   UNL     1      -9.897  11.990  65.719  1.00  0.00    -0.263 C  
HETATM    6  C   UNL     1      -9.241  10.806  65.678  1.00  0.00    -0.199 C  
HETATM    7  C   UNL     1      -9.762   9.497  65.124  1.00  0.00    -0.207 C  
HETATM    8  N   UNL     1      -7.971  10.713  66.215  1.00  0.00    -0.144 NA 
HETATM    9  C   UNL     1      -7.357  11.685  66.985  1.00  0.00    -0.143 C  
HETATM   10  C   UNL     1      -6.098  11.223  67.684  1.00  0.00    -0.051 C  
HETATM   11  C   UNL     1      -7.907  12.922  67.091  1.00  0.00    -0.084 C  
HETATM   12  C   UNL     1      -9.235  13.247  66.364  1.00  0.00    -0.133 C  
BRANCH  11  13
HETATM   13  C   UNL     1      -7.257  13.924  67.989  1.00  0.00    -0.141 C  
HETATM   14  O   UNL     1      -7.232  13.825  69.209  1.00  0.00    -0.069 OA 
BRANCH  13  15
HETATM   15  O   UNL     1      -6.774  14.997  67.310  1.00  0.00    -0.278 OA 
BRANCH  15  16
HETATM   16  C   UNL     1      -6.828  16.238  68.042  1.00  0.00    -0.131 C  
HETATM   17  C   UNL     1      -5.311  17.542  66.452  1.00  0.00    -0.229 C  
HETATM   18  C   UNL     1      -6.654  17.496  67.178  1.00  0.00    -0.194 C  
HETATM   19  C   UNL     1      -7.798  17.663  66.181  1.00  0.00    -0.269 C  
ENDBRANCH  15  16
ENDBRANCH  13  15
ENDBRANCH  11  13
BRANCH  12  20
HETATM   20  C   UNL     1     -10.248  13.937  67.289  1.00  0.00    -0.249 A  
HETATM   21  O   UNL     1      -9.522  11.461  68.867  1.00  0.00    -0.155 OA 
HETATM   22  C   UNL     1     -10.571  15.287  67.036  1.00  0.00    -0.306 A  
HETATM   23  O   UNL     1     -11.706  11.275  68.919  1.00  0.00    -0.289 OA 
HETATM   24  C   UNL     1     -11.370  16.018  67.917  1.00  0.00    -0.218 A  
HETATM   25  N   UNL     1     -10.663  11.919  68.747  1.00  0.00    -0.225 N  
HETATM   26  C   UNL     1     -10.817  13.339  68.437  1.00  0.00    -0.258 A  
HETATM   27  C   UNL     1     -11.868  15.424  69.072  1.00  0.00    -0.357 A  
HETATM   28  C   UNL     1     -11.605  14.081  69.331  1.00  0.00    -0.349 A  
ENDBRANCH  12  20
ENDBRANCH   3   5
ENDBRANCH   2   3
TORSDOF 6
ENDMDL
MODEL      116
REMARK 921   NORMALIZED FREE ENERGY PREDICTED BY IDOCK:   -4.08 KCAL/MOL
REMARK 922        TOTAL FREE ENERGY PREDICTED BY IDOCK:   -6.12 KCAL/MOL
REMARK 923 INTER-LIGAND FREE ENERGY PREDICTED BY IDOCK:   -6.51 KCAL/MOL
REMARK 924 INTRA-LIGAND FREE ENERGY PREDICTED BY IDOCK:    0.39 KCAL/MOL
REMARK 927      BINDING AFFINITY PREDICTED BY RF-SCORE:    0.00 PKD
ROOT
HETATM    1  C   UNL     1     -11.730  14.876  69.669  1.00  0.00    -0.320 C  
HETATM    2  O   UNL     1     -11.315  13.845  68.765  1.00  0.00    -0.244 OA 
ENDROOT
BRANCH   2   3
HETATM    3  C   UNL     1     -10.025  13.928  68.371  1.00  0.00    -0.233 C  
HETATM    4  O   UNL     1      -9.154  14.540  68.977  1.00  0.00    -0.155 OA 
BRANCH   3   5
HETATM    5  C   UNL     1      -9.813  13.242  67.065  1.00  0.00    -0.242 C  
HETATM    6  C   UNL     1     -10.623  13.540  66.022  1.00  0.00    -0.285 C  
HETATM    7  C   UNL     1     -11.689  14.614  65.975  1.00  0.00    -0.306 C  
HETATM    8  N   UNL     1     -10.535  12.797  64.860  1.00  0.00    -0.309 NA 
HETATM    9  C   UNL     1      -9.820  11.622  64.715  1.00  0.00    -0.229 C  
HETATM   10  C   UNL     1     -10.121  10.860  63.444  1.00  0.00    -0.398 C  
HETATM   11  C   UNL     1      -8.960  11.222  65.687  1.00  0.00    -0.173 C  
HETATM   12  C   UNL     1      -8.787  12.071  66.970  1.00  0.00    -0.197 C  
BRANCH  11  13
HETATM   13  C   UNL     1      -8.259   9.911  65.532  1.00  0.00    -0.136 C  
HETATM   14  O   UNL     1      -7.094   9.804  65.171  1.00  0.00    -0.108 OA 
BRANCH  13  15
HETATM   15  O   UNL     1      -9.081   8.851  65.750  1.00  0.00    -0.197 OA 
BRANCH  15  16
HETATM   16  C   UNL     1      -8.619   7.941  66.769  1.00  0.00    -0.131 C  
HETATM   17  C   UNL     1     -10.854   6.739  67.073  1.00  0.00    -0.453 C  
HETATM   18  C   UNL     1      -9.357   6.595  66.803  1.00  0.00    -0.184 C  
HETATM   19  C   UNL     1      -9.127   5.789  65.526  1.00  0.00    -0.040 C  
ENDBRANCH  15  16
ENDBRANCH  13  15
ENDBRANCH  11  13
BRANCH  12  20
HETATM   20  C   UNL     1      -8.868  11.218  68.245  1.00  0.00    -0.158 A  
HETATM   21  O   UNL     1     -11.462  10.533  66.848  1.00  0.00    -0.175 OA 
HETATM   22  C   UNL     1      -7.689  11.027  68.996  1.00  0.00    -0.132 A  
HETATM   23  O   UNL     1     -12.261  11.059  68.822  1.00  0.00    -0.546 OA 
HETATM   24  C   UNL     1      -7.656  10.150  70.081  1.00  0.00    -0.119 A  
HETATM   25  N   UNL     1     -11.339  10.737  68.061  1.00  0.00    -0.317 N  
HETATM   26  C   UNL     1     -10.028  10.533  68.674  1.00  0.00    -0.181 A  
HETATM   27  C   UNL     1      -8.796   9.440  70.447  1.00  0.00    -0.290 A  
HETATM   28  C   UNL     1      -9.988   9.637  69.755  1.00  0.00    -0.252 A  
ENDBRANCH  12  20
ENDBRANCH   3   5
ENDBRANCH   2   3
TORSDOF 6
ENDMDL
MODEL      117
REMARK 921   NORMALIZED FREE ENERGY PREDICTED BY IDOCK:   -4.03 KCAL/MOL
REMARK 922        TOTAL FREE ENERGY PREDICTED BY IDOCK:   -6.05 KCAL/MOL
REMARK 923 INTER-LIGAND FREE ENERGY PREDICTED BY IDOCK:   -5.84 KCAL/MOL
REMARK 924 INTRA-LIGAND FREE ENERGY PREDICTED BY IDOCK:   -0.21 KCAL/MOL
REMARK 927      BINDING AFFINITY PREDICTED BY RF-SCORE:    0.00 PKD
ROOT
HETATM    1  C   UNL     1      -5.639  18.569  68.085  1.00  0.00    -0.177 C  
HETATM    2  O   UNL     1      -6.380  17.366  68.316  1.00  0.00    -0.163 OA 
ENDROOT
BRANCH   2   3
HETATM    3  C   UNL     1      -6.210  16.411  67.375  1.00  0.00    -0.168 C  
HETATM    4  O   UNL     1      -5.138  16.146  66.844  1.00  0.00    -0.332 OA 
BRANCH   3   5
HETATM    5  C   UNL     1      -7.507  15.773  67.011  1.00  0.00    -0.242 C  
HETATM    6  C   UNL     1      -8.549  16.554  66.643  1.00  0.00    -0.254 C  
HETATM    7  C   UNL     1      -8.531  18.054  66.431  1.00  0.00    -0.262 C  
HETATM    8  N   UNL     1      -9.794  15.984  66.458  1.00  0.00    -0.252 NA 
HETATM    9  C   UNL     1     -10.140  14.692  66.808  1.00  0.00    -0.265 C  
HETATM   10  C   UNL     1     -11.626  14.411  66.770  1.00  0.00    -0.399 C  
HETATM   11  C   UNL     1      -9.181  13.804  67.180  1.00  0.00    -0.245 C  
HETATM   12  C   UNL     1      -7.697  14.240  67.229  1.00  0.00    -0.145 C  
BRANCH  11  13
HETATM   13  C   UNL     1      -9.598  12.438  67.621  1.00  0.00    -0.193 C  
HETATM   14  O   UNL     1      -9.287  11.412  67.031  1.00  0.00    -0.170 OA 
BRANCH  13  15
HETATM   15  O   UNL     1     -10.428  12.469  68.696  1.00  0.00    -0.230 OA 
BRANCH  15  16
HETATM   16  C   UNL     1     -11.616  11.665  68.553  1.00  0.00    -0.317 C  
HETATM   17  C   UNL     1     -10.988   9.954  70.344  1.00  0.00    -0.379 C  
HETATM   18  C   UNL     1     -12.046  10.929  69.830  1.00  0.00    -0.428 C  
HETATM   19  C   UNL     1     -12.449  11.901  70.936  1.00  0.00    -0.397 C  
ENDBRANCH  15  16
ENDBRANCH  13  15
ENDBRANCH  11  13
BRANCH  12  20
HETATM   20  C   UNL     1      -7.015  13.824  68.541  1.00  0.00    -0.103 A  
HETATM   21  O   UNL     1      -5.514  12.185  66.490  1.00  0.00    -0.305 OA 
HETATM   22  C   UNL     1      -7.230  14.619  69.687  1.00  0.00    -0.098 A  
HETATM   23  O   UNL     1      -6.053  10.581  67.886  1.00  0.00    -0.047 OA 
HETATM   24  C   UNL     1      -6.531  14.385  70.872  1.00  0.00     0.143 A  
HETATM   25  N   UNL     1      -5.890  11.773  67.592  1.00  0.00    -0.058 N  
HETATM   26  C   UNL     1      -6.111  12.744  68.663  1.00  0.00    -0.068 A  
HETATM   27  C   UNL     1      -5.600  13.353  70.948  1.00  0.00    -0.197 A  
HETATM   28  C   UNL     1      -5.395  12.522  69.850  1.00  0.00    -0.091 A  
ENDBRANCH  12  20
ENDBRANCH   3   5
ENDBRANCH   2   3
TORSDOF 6
ENDMDL
MODEL      118
REMARK 921   NORMALIZED FREE ENERGY PREDICTED BY IDOCK:   -4.02 KCAL/MOL
REMARK 922        TOTAL FREE ENERGY PREDICTED BY IDOCK:   -6.03 KCAL/MOL
REMARK 923 INTER-LIGAND FREE ENERGY PREDICTED BY IDOCK:   -4.73 KCAL/MOL
REMARK 924 INTRA-LIGAND FREE ENERGY PREDICTED BY IDOCK:   -1.30 KCAL/MOL
REMARK 927      BINDING AFFINITY PREDICTED BY RF-SCORE:    0.00 PKD
ROOT
HETATM    1  C   UNL     1      -7.323   6.159  68.751  1.00  0.00    -0.086 C  
HETATM    2  O   UNL     1      -7.707   7.536  68.836  1.00  0.00    -0.109 OA 
ENDROOT
BRANCH   2   3
HETATM    3  C   UNL     1      -8.905   7.821  68.281  1.00  0.00    -0.129 C  
HETATM    4  O   UNL     1      -9.447   7.142  67.417  1.00  0.00    -0.127 OA 
BRANCH   3   5
HETATM    5  C   UNL     1      -9.450   9.107  68.801  1.00  0.00    -0.147 C  
HETATM    6  C   UNL     1     -10.489   9.084  69.668  1.00  0.00    -0.222 C  
HETATM    7  C   UNL     1     -11.122   7.861  70.297  1.00  0.00    -0.232 C  
HETATM    8  N   UNL     1     -11.099  10.270  70.030  1.00  0.00    -0.289 NA 
HETATM    9  C   UNL     1     -10.877  11.497  69.432  1.00  0.00    -0.126 C  
HETATM   10  C   UNL     1     -11.873  12.568  69.814  1.00  0.00    -0.380 C  
HETATM   11  C   UNL     1      -9.852  11.654  68.554  1.00  0.00    -0.196 C  
HETATM   12  C   UNL     1      -8.936  10.455  68.207  1.00  0.00    -0.135 C  
BRANCH  11  13
HETATM   13  C   UNL     1      -9.685  12.973  67.871  1.00  0.00    -0.218 C  
HETATM   14  O   UNL     1     -10.396  13.353  66.950  1.00  0.00    -0.253 OA 
BRANCH  13  15
HETATM   15  O   UNL     1      -8.606  13.662  68.325  1.00  0.00    -0.164 OA 
BRANCH  15  16
HETATM   16  C   UNL     1      -7.502  13.716  67.399  1.00  0.00    -0.123 C  
HETATM   17  C   UNL     1      -6.962  16.184  67.783  1.00  0.00    -0.161 C  
HETATM   18  C   UNL     1      -6.426  14.754  67.749  1.00  0.00    -0.183 C  
HETATM   19  C   UNL     1      -5.724  14.423  69.063  1.00  0.00    -0.088 C  
ENDBRANCH  15  16
ENDBRANCH  13  15
ENDBRANCH  11  13
BRANCH  12  20
HETATM   20  C   UNL     1      -8.735  10.300  66.691  1.00  0.00    -0.134 A  
HETATM   21  O   UNL     1      -5.951   9.801  67.763  1.00  0.00    -0.050 OA 
HETATM   22  C   UNL     1      -9.879  10.146  65.879  1.00  0.00    -0.308 A  
HETATM   23  O   UNL     1      -5.475  11.328  66.262  1.00  0.00    -0.134 OA 
HETATM   24  C   UNL     1      -9.766   9.857  64.518  1.00  0.00    -0.223 A  
HETATM   25  N   UNL     1      -6.218  10.472  66.760  1.00  0.00    -0.065 N  
HETATM   26  C   UNL     1      -7.474  10.211  66.059  1.00  0.00    -0.118 A  
HETATM   27  C   UNL     1      -8.512   9.714  63.931  1.00  0.00    -0.190 A  
HETATM   28  C   UNL     1      -7.363   9.902  64.694  1.00  0.00    -0.140 A  
ENDBRANCH  12  20
ENDBRANCH   3   5
ENDBRANCH   2   3
TORSDOF 6
ENDMDL
MODEL      119
REMARK 921   NORMALIZED FREE ENERGY PREDICTED BY IDOCK:   -4.01 KCAL/MOL
REMARK 922        TOTAL FREE ENERGY PREDICTED BY IDOCK:   -6.03 KCAL/MOL
REMARK 923 INTER-LIGAND FREE ENERGY PREDICTED BY IDOCK:   -5.36 KCAL/MOL
REMARK 924 INTRA-LIGAND FREE ENERGY PREDICTED BY IDOCK:   -0.67 KCAL/MOL
REMARK 927      BINDING AFFINITY PREDICTED BY RF-SCORE:    0.00 PKD
ROOT
HETATM    1  C   UNL     1      -9.139  19.010  66.669  1.00  0.00    -0.329 C  
HETATM    2  O   UNL     1      -9.129  17.627  66.296  1.00  0.00    -0.383 OA 
ENDROOT
BRANCH   2   3
HETATM    3  C   UNL     1     -10.276  16.963  66.564  1.00  0.00    -0.318 C  
HETATM    4  O   UNL     1     -11.236  17.450  67.150  1.00  0.00     0.087 OA 
BRANCH   3   5
HETATM    5  C   UNL     1     -10.195  15.543  66.122  1.00  0.00    -0.322 C  
HETATM    6  C   UNL     1     -10.765  15.182  64.947  1.00  0.00    -0.398 C  
HETATM    7  C   UNL     1     -11.401  16.099  63.925  1.00  0.00     0.673 C  
HETATM    8  N   UNL     1     -10.832  13.843  64.608  1.00  0.00    -0.409 NA 
HETATM    9  C   UNL     1     -10.543  12.789  65.455  1.00  0.00    -0.281 C  
HETATM   10  C   UNL     1     -10.971  11.435  64.936  1.00  0.00    -0.284 C  
HETATM   11  C   UNL     1      -9.953  13.021  66.658  1.00  0.00    -0.250 C  
HETATM   12  C   UNL     1      -9.617  14.468  67.092  1.00  0.00    -0.233 C  
BRANCH  11  13
HETATM   13  C   UNL     1      -9.722  11.867  67.579  1.00  0.00    -0.181 C  
HETATM   14  O   UNL     1      -8.936  10.959  67.343  1.00  0.00    -0.136 OA 
BRANCH  13  15
HETATM   15  O   UNL     1     -10.542  11.892  68.662  1.00  0.00    -0.223 OA 
BRANCH  15  16
HETATM   16  C   UNL     1     -11.604  10.918  68.626  1.00  0.00    -0.303 C  
HETATM   17  C   UNL     1     -10.907   9.698  70.761  1.00  0.00    -0.400 C  
HETATM   18  C   UNL     1     -12.036  10.395  70.004  1.00  0.00    -0.297 C  
HETATM   19  C   UNL     1     -12.644  11.500  70.865  1.00  0.00    -0.438 C  
ENDBRANCH  15  16
ENDBRANCH  13  15
ENDBRANCH  11  13
BRANCH  12  20
HETATM   20  C   UNL     1     -10.088  14.767  68.523  1.00  0.00    -0.230 A  
HETATM   21  O   UNL     1      -7.353  16.056  68.466  1.00  0.00    -0.135 OA 
HETATM   22  C   UNL     1     -11.457  14.598  68.824  1.00  0.00    -0.322 A  
HETATM   23  O   UNL     1      -7.127  14.849  70.282  1.00  0.00    -0.077 OA 
HETATM   24  C   UNL     1     -11.980  14.988  70.058  1.00  0.00    -0.375 A  
HETATM   25  N   UNL     1      -7.809  15.396  69.405  1.00  0.00    -0.226 N  
HETATM   26  C   UNL     1      -9.260  15.286  69.544  1.00  0.00    -0.194 A  
HETATM   27  C   UNL     1     -11.154  15.554  71.025  1.00  0.00    -0.387 A  
HETATM   28  C   UNL     1      -9.791  15.695  70.778  1.00  0.00     1.016 A  
ENDBRANCH  12  20
ENDBRANCH   3   5
ENDBRANCH   2   3
TORSDOF 6
ENDMDL
MODEL      120
REMARK 921   NORMALIZED FREE ENERGY PREDICTED BY IDOCK:   -4.00 KCAL/MOL
REMARK 922        TOTAL FREE ENERGY PREDICTED BY IDOCK:   -6.01 KCAL/MOL
REMARK 923 INTER-LIGAND FREE ENERGY PREDICTED BY IDOCK:   -4.78 KCAL/MOL
REMARK 924 INTRA-LIGAND FREE ENERGY PREDICTED BY IDOCK:   -1.23 KCAL/MOL
REMARK 927      BINDING AFFINITY PREDICTED BY RF-SCORE:    0.00 PKD
ROOT
HETATM    1  C   UNL     1     -13.036   9.193  72.305  1.00  0.00    -0.438 C  
HETATM    2  O   UNL     1     -11.821   8.435  72.339  1.00  0.00    -0.372 OA 
ENDROOT
BRANCH   2   3
HETATM    3  C   UNL     1     -11.855   7.284  71.632  1.00  0.00    -0.298 C  
HETATM    4  O   UNL     1     -12.868   6.810  71.131  1.00  0.00    -0.312 OA 
BRANCH   3   5
HETATM    5  C   UNL     1     -10.519   6.626  71.603  1.00  0.00    -0.232 C  
HETATM    6  C   UNL     1      -9.979   6.173  72.759  1.00  0.00    -0.172 C  
HETATM    7  C   UNL     1     -10.640   6.142  74.121  1.00  0.00    -0.141 C  
HETATM    8  N   UNL     1      -8.678   5.707  72.765  1.00  0.00    -0.120 NA 
HETATM    9  C   UNL     1      -7.778   5.839  71.723  1.00  0.00    -0.101 C  
HETATM   10  C   UNL     1      -6.348   5.508  72.088  1.00  0.00    -0.047 C  
HETATM   11  C   UNL     1      -8.200   6.269  70.506  1.00  0.00    -0.118 C  
HETATM   12  C   UNL     1      -9.689   6.629  70.283  1.00  0.00    -0.182 C  
BRANCH  11  13
HETATM   13  C   UNL     1      -7.189   6.470  69.424  1.00  0.00    -0.086 C  
HETATM   14  O   UNL     1      -6.725   5.557  68.753  1.00  0.00    -0.049 OA 
BRANCH  13  15
HETATM   15  O   UNL     1      -6.779   7.761  69.327  1.00  0.00    -0.042 OA 
BRANCH  15  16
HETATM   16  C   UNL     1      -5.472   8.013  69.884  1.00  0.00    -0.023 C  
HETATM   17  C   UNL     1      -5.707  10.557  69.954  1.00  0.00    -0.053 C  
HETATM   18  C   UNL     1      -5.377   9.287  70.736  1.00  0.00    -0.030 C  
HETATM   19  C   UNL     1      -6.246   9.198  71.988  1.00  0.00     0.018 C  
ENDBRANCH  15  16
ENDBRANCH  13  15
ENDBRANCH  11  13
BRANCH  12  20
HETATM   20  C   UNL     1      -9.857   7.984  69.578  1.00  0.00    -0.181 A  
HETATM   21  O   UNL     1     -11.160   6.078  67.624  1.00  0.00    -0.297 OA 
HETATM   22  C   UNL     1      -9.656   9.158  70.334  1.00  0.00    -0.268 A  
HETATM   23  O   UNL     1      -9.797   7.105  66.247  1.00  0.00    -0.094 OA 
HETATM   24  C   UNL     1      -9.931  10.418  69.800  1.00  0.00    -0.167 A  
HETATM   25  N   UNL     1     -10.416   7.015  67.316  1.00  0.00    -0.257 N  
HETATM   26  C   UNL     1     -10.288   8.139  68.241  1.00  0.00    -0.197 A  
HETATM   27  C   UNL     1     -10.414  10.542  68.500  1.00  0.00    -0.210 A  
HETATM   28  C   UNL     1     -10.582   9.406  67.712  1.00  0.00    -0.317 A  
ENDBRANCH  12  20
ENDBRANCH   3   5
ENDBRANCH   2   3
TORSDOF 6
ENDMDL
MODEL      121
REMARK 921   NORMALIZED FREE ENERGY PREDICTED BY IDOCK:   -4.00 KCAL/MOL
REMARK 922        TOTAL FREE ENERGY PREDICTED BY IDOCK:   -6.00 KCAL/MOL
REMARK 923 INTER-LIGAND FREE ENERGY PREDICTED BY IDOCK:   -7.38 KCAL/MOL
REMARK 924 INTRA-LIGAND FREE ENERGY PREDICTED BY IDOCK:    1.38 KCAL/MOL
REMARK 927      BINDING AFFINITY PREDICTED BY RF-SCORE:    0.00 PKD
ROOT
HETATM    1  C   UNL     1     -12.913  11.816  63.647  1.00  0.00    -0.094 C  
HETATM    2  O   UNL     1     -12.934  12.365  64.970  1.00  0.00    -0.705 OA 
ENDROOT
BRANCH   2   3
HETATM    3  C   UNL     1     -11.717  12.509  65.539  1.00  0.00    -0.409 C  
HETATM    4  O   UNL     1     -10.815  11.683  65.460  1.00  0.00    -0.282 OA 
BRANCH   3   5
HETATM    5  C   UNL     1     -11.638  13.764  66.338  1.00  0.00    -0.380 C  
HETATM    6  C   UNL     1     -11.410  14.938  65.704  1.00  0.00    -0.325 C  
HETATM    7  C   UNL     1     -11.337  15.166  64.209  1.00  0.00    -0.092 C  
HETATM    8  N   UNL     1     -11.178  16.079  66.450  1.00  0.00     0.044 NA 
HETATM    9  C   UNL     1     -10.958  16.110  67.815  1.00  0.00    -0.293 C  
HETATM   10  C   UNL     1     -10.447  17.434  68.335  1.00  0.00    -0.384 C  
HETATM   11  C   UNL     1     -11.169  14.997  68.566  1.00  0.00    -0.298 C  
HETATM   12  C   UNL     1     -11.642  13.685  67.896  1.00  0.00    -0.376 C  
BRANCH  11  13
HETATM   13  C   UNL     1     -10.851  15.045  70.026  1.00  0.00    -0.219 C  
HETATM   14  O   UNL     1      -9.910  15.673  70.494  1.00  0.00     0.125 OA 
BRANCH  13  15
HETATM   15  O   UNL     1     -11.666  14.246  70.763  1.00  0.00    -0.288 OA 
BRANCH  15  16
HETATM   16  C   UNL     1     -13.062  14.602  70.700  1.00  0.00    -0.271 C  
HETATM   17  C   UNL     1     -13.862  12.799  72.325  1.00  0.00    -0.395 C  
HETATM   18  C   UNL     1     -13.858  14.286  71.974  1.00  0.00    -0.564 C  
HETATM   19  C   UNL     1     -13.373  15.108  73.166  1.00  0.00    -0.558 C  
ENDBRANCH  15  16
ENDBRANCH  13  15
ENDBRANCH  11  13
BRANCH  12  20
HETATM   20  C   UNL     1     -10.812  12.473  68.346  1.00  0.00    -0.266 A  
HETATM   21  O   UNL     1      -8.672  14.501  67.670  1.00  0.00    -0.166 OA 
HETATM   22  C   UNL     1     -11.469  11.437  69.044  1.00  0.00    -0.366 A  
HETATM   23  O   UNL     1      -7.931  12.809  66.487  1.00  0.00     0.197 OA 
HETATM   24  C   UNL     1     -10.755  10.378  69.607  1.00  0.00    -0.304 A  
HETATM   25  N   UNL     1      -8.630  13.299  67.384  1.00  0.00    -0.194 N  
HETATM   26  C   UNL     1      -9.412  12.361  68.187  1.00  0.00    -0.214 A  
HETATM   27  C   UNL     1      -9.369  10.323  69.490  1.00  0.00    -0.200 A  
HETATM   28  C   UNL     1      -8.693  11.305  68.771  1.00  0.00    -0.105 A  
ENDBRANCH  12  20
ENDBRANCH   3   5
ENDBRANCH   2   3
TORSDOF 6
ENDMDL
MODEL      122
REMARK 921   NORMALIZED FREE ENERGY PREDICTED BY IDOCK:   -3.99 KCAL/MOL
REMARK 922        TOTAL FREE ENERGY PREDICTED BY IDOCK:   -6.00 KCAL/MOL
REMARK 923 INTER-LIGAND FREE ENERGY PREDICTED BY IDOCK:   -6.19 KCAL/MOL
REMARK 924 INTRA-LIGAND FREE ENERGY PREDICTED BY IDOCK:    0.19 KCAL/MOL
REMARK 927      BINDING AFFINITY PREDICTED BY RF-SCORE:    0.00 PKD
ROOT
HETATM    1  C   UNL     1     -12.580  11.940  63.384  1.00  0.00    -0.431 C  
HETATM    2  O   UNL     1     -12.041  13.145  63.939  1.00  0.00    -0.430 OA 
ENDROOT
BRANCH   2   3
HETATM    3  C   UNL     1     -12.215  13.278  65.273  1.00  0.00    -0.448 C  
HETATM    4  O   UNL     1     -13.203  12.887  65.883  1.00  0.00     0.223 OA 
BRANCH   3   5
HETATM    5  C   UNL     1     -11.088  14.029  65.893  1.00  0.00    -0.301 C  
HETATM    6  C   UNL     1     -10.778  15.263  65.429  1.00  0.00    -0.391 C  
HETATM    7  C   UNL     1     -11.539  16.061  64.391  1.00  0.00    -0.212 C  
HETATM    8  N   UNL     1      -9.640  15.896  65.890  1.00  0.00    -0.337 NA 
HETATM    9  C   UNL     1      -8.651  15.305  66.655  1.00  0.00    -0.270 C  
HETATM   10  C   UNL     1      -7.386  16.123  66.780  1.00  0.00    -0.220 C  
HETATM   11  C   UNL     1      -8.848  14.074  67.193  1.00  0.00    -0.239 C  
HETATM   12  C   UNL     1     -10.175  13.318  66.940  1.00  0.00    -0.250 C  
BRANCH  11  13
HETATM   13  C   UNL     1      -7.731  13.434  67.953  1.00  0.00    -0.153 C  
HETATM   14  O   UNL     1      -7.333  12.296  67.741  1.00  0.00    -0.097 OA 
BRANCH  13  15
HETATM   15  O   UNL     1      -7.268  14.221  68.959  1.00  0.00    -0.115 OA 
BRANCH  15  16
HETATM   16  C   UNL     1      -5.841  14.151  69.159  1.00  0.00    -0.087 C  
HETATM   17  C   UNL     1      -5.590  16.529  70.062  1.00  0.00    -0.207 C  
HETATM   18  C   UNL     1      -5.312  15.043  70.291  1.00  0.00    -0.120 C  
HETATM   19  C   UNL     1      -5.848  14.611  71.653  1.00  0.00     0.082 C  
ENDBRANCH  15  16
ENDBRANCH  13  15
ENDBRANCH  11  13
BRANCH  12  20
HETATM   20  C   UNL     1      -9.940  11.864  66.506  1.00  0.00    -0.225 A  
HETATM   21  O   UNL     1     -11.334  11.521  69.168  1.00  0.00    -0.239 OA 
HETATM   22  C   UNL     1      -9.597  11.617  65.159  1.00  0.00    -0.206 A  
HETATM   23  O   UNL     1      -9.595  10.232  69.520  1.00  0.00    -0.224 OA 
HETATM   24  C   UNL     1      -9.509  10.315  64.662  1.00  0.00    -0.351 A  
HETATM   25  N   UNL     1     -10.366  10.857  68.781  1.00  0.00    -0.189 N  
HETATM   26  C   UNL     1     -10.129  10.741  67.343  1.00  0.00    -0.193 A  
HETATM   27  C   UNL     1      -9.761   9.226  65.492  1.00  0.00    -0.247 A  
HETATM   28  C   UNL     1     -10.059   9.433  66.836  1.00  0.00    -0.314 A  
ENDBRANCH  12  20
ENDBRANCH   3   5
ENDBRANCH   2   3
TORSDOF 6
ENDMDL
MODEL      123
REMARK 921   NORMALIZED FREE ENERGY PREDICTED BY IDOCK:   -3.99 KCAL/MOL
REMARK 922        TOTAL FREE ENERGY PREDICTED BY IDOCK:   -6.00 KCAL/MOL
REMARK 923 INTER-LIGAND FREE ENERGY PREDICTED BY IDOCK:   -6.27 KCAL/MOL
REMARK 924 INTRA-LIGAND FREE ENERGY PREDICTED BY IDOCK:    0.27 KCAL/MOL
REMARK 927      BINDING AFFINITY PREDICTED BY RF-SCORE:    0.00 PKD
ROOT
HETATM    1  C   UNL     1      -9.727   6.557  74.254  1.00  0.00    -0.287 C  
HETATM    2  O   UNL     1     -10.028   7.762  73.541  1.00  0.00    -0.317 OA 
ENDROOT
BRANCH   2   3
HETATM    3  C   UNL     1     -10.842   7.597  72.475  1.00  0.00    -0.314 C  
HETATM    4  O   UNL     1     -11.440   6.559  72.216  1.00  0.00    -0.267 OA 
BRANCH   3   5
HETATM    5  C   UNL     1     -10.862   8.813  71.615  1.00  0.00    -0.399 C  
HETATM    6  C   UNL     1     -12.043   9.422  71.355  1.00  0.00    -0.363 C  
HETATM    7  C   UNL     1     -13.393   9.078  71.947  1.00  0.00    -0.474 C  
HETATM    8  N   UNL     1     -12.089  10.451  70.434  1.00  0.00    -0.301 NA 
HETATM    9  C   UNL     1     -11.059  10.808  69.583  1.00  0.00    -0.279 C  
HETATM   10  C   UNL     1     -11.460  11.766  68.484  1.00  0.00    -0.353 C  
HETATM   11  C   UNL     1      -9.819  10.279  69.751  1.00  0.00    -0.201 C  
HETATM   12  C   UNL     1      -9.556   9.261  70.888  1.00  0.00    -0.339 C  
BRANCH  11  13
HETATM   13  C   UNL     1      -8.747  10.629  68.770  1.00  0.00    -0.157 C  
HETATM   14  O   UNL     1      -7.788  11.339  69.040  1.00  0.00    -0.135 OA 
BRANCH  13  15
HETATM   15  O   UNL     1      -9.003  10.146  67.526  1.00  0.00    -0.131 OA 
BRANCH  15  16
HETATM   16  C   UNL     1      -8.423  10.920  66.457  1.00  0.00    -0.159 C  
HETATM   17  C   UNL     1      -8.789   9.164  64.637  1.00  0.00    -0.183 C  
HETATM   18  C   UNL     1      -8.996  10.616  65.065  1.00  0.00    -0.218 C  
HETATM   19  C   UNL     1     -10.473  10.989  64.965  1.00  0.00    -0.344 C  
ENDBRANCH  15  16
ENDBRANCH  13  15
ENDBRANCH  11  13
BRANCH  12  20
HETATM   20  C   UNL     1      -8.799   8.020  70.391  1.00  0.00    -0.141 A  
HETATM   21  O   UNL     1     -11.101   8.194  68.436  1.00  0.00     0.149 OA 
HETATM   22  C   UNL     1      -7.486   7.808  70.860  1.00  0.00    -0.073 A  
HETATM   23  O   UNL     1     -11.321   6.098  69.043  1.00  0.00    -0.390 OA 
HETATM   24  C   UNL     1      -6.689   6.785  70.342  1.00  0.00    -0.057 A  
HETATM   25  N   UNL     1     -10.677   7.151  68.945  1.00  0.00    -0.201 N  
HETATM   26  C   UNL     1      -9.296   7.117  69.423  1.00  0.00    -0.147 A  
HETATM   27  C   UNL     1      -7.180   5.947  69.345  1.00  0.00    -0.067 A  
HETATM   28  C   UNL     1      -8.487   6.101  68.890  1.00  0.00    -0.118 A  
ENDBRANCH  12  20
ENDBRANCH   3   5
ENDBRANCH   2   3
TORSDOF 6
ENDMDL
MODEL      124
REMARK 921   NORMALIZED FREE ENERGY PREDICTED BY IDOCK:   -3.96 KCAL/MOL
REMARK 922        TOTAL FREE ENERGY PREDICTED BY IDOCK:   -5.96 KCAL/MOL
REMARK 923 INTER-LIGAND FREE ENERGY PREDICTED BY IDOCK:   -4.42 KCAL/MOL
REMARK 924 INTRA-LIGAND FREE ENERGY PREDICTED BY IDOCK:   -1.54 KCAL/MOL
REMARK 927      BINDING AFFINITY PREDICTED BY RF-SCORE:    0.00 PKD
ROOT
HETATM    1  C   UNL     1      -7.905   2.924  67.601  1.00  0.00    -0.068 C  
HETATM    2  O   UNL     1      -7.833   4.149  66.862  1.00  0.00    -0.095 OA 
ENDROOT
BRANCH   2   3
HETATM    3  C   UNL     1      -9.006   4.812  66.757  1.00  0.00    -0.111 C  
HETATM    4  O   UNL     1     -10.108   4.282  66.823  1.00  0.00    -0.210 OA 
BRANCH   3   5
HETATM    5  C   UNL     1      -8.786   6.258  66.474  1.00  0.00    -0.131 C  
HETATM    6  C   UNL     1      -8.253   6.627  65.285  1.00  0.00    -0.133 C  
HETATM    7  C   UNL     1      -7.946   5.726  64.108  1.00  0.00    -0.122 C  
HETATM    8  N   UNL     1      -7.900   7.947  65.079  1.00  0.00    -0.113 NA 
HETATM    9  C   UNL     1      -7.855   8.924  66.057  1.00  0.00    -0.102 C  
HETATM   10  C   UNL     1      -7.165  10.201  65.633  1.00  0.00    -0.137 C  
HETATM   11  C   UNL     1      -8.373   8.682  67.289  1.00  0.00    -0.108 C  
HETATM   12  C   UNL     1      -9.004   7.305  67.609  1.00  0.00    -0.126 C  
BRANCH  11  13
HETATM   13  C   UNL     1      -8.242   9.733  68.344  1.00  0.00    -0.105 C  
HETATM   14  O   UNL     1      -7.210   9.941  68.967  1.00  0.00    -0.071 OA 
BRANCH  13  15
HETATM   15  O   UNL     1      -9.416  10.370  68.593  1.00  0.00    -0.152 OA 
BRANCH  15  16
HETATM   16  C   UNL     1      -9.402  11.780  68.295  1.00  0.00    -0.193 C  
HETATM   17  C   UNL     1     -10.843  11.614  66.191  1.00  0.00    -0.343 C  
HETATM   18  C   UNL     1     -10.645  12.286  67.549  1.00  0.00    -0.242 C  
HETATM   19  C   UNL     1     -11.909  12.151  68.393  1.00  0.00    -0.360 C  
ENDBRANCH  15  16
ENDBRANCH  13  15
ENDBRANCH  11  13
BRANCH  12  20
HETATM   20  C   UNL     1      -8.492   6.729  68.939  1.00  0.00    -0.120 A  
HETATM   21  O   UNL     1     -11.472   6.247  69.135  1.00  0.00    -0.394 OA 
HETATM   22  C   UNL     1      -7.109   6.484  69.071  1.00  0.00    -0.085 A  
HETATM   23  O   UNL     1     -11.159   7.257  71.056  1.00  0.00    -0.248 OA 
HETATM   24  C   UNL     1      -6.594   5.831  70.192  1.00  0.00    -0.047 A  
HETATM   25  N   UNL     1     -10.754   6.648  70.057  1.00  0.00    -0.222 N  
HETATM   26  C   UNL     1      -9.325   6.343  70.014  1.00  0.00    -0.156 A  
HETATM   27  C   UNL     1      -7.443   5.405  71.210  1.00  0.00    -0.093 A  
HETATM   28  C   UNL     1      -8.807   5.669  71.132  1.00  0.00    -0.141 A  
ENDBRANCH  12  20
ENDBRANCH   3   5
ENDBRANCH   2   3
TORSDOF 6
ENDMDL
MODEL      125
REMARK 921   NORMALIZED FREE ENERGY PREDICTED BY IDOCK:   -3.94 KCAL/MOL
REMARK 922        TOTAL FREE ENERGY PREDICTED BY IDOCK:   -5.92 KCAL/MOL
REMARK 923 INTER-LIGAND FREE ENERGY PREDICTED BY IDOCK:   -4.72 KCAL/MOL
REMARK 924 INTRA-LIGAND FREE ENERGY PREDICTED BY IDOCK:   -1.20 KCAL/MOL
REMARK 927      BINDING AFFINITY PREDICTED BY RF-SCORE:    0.00 PKD
ROOT
HETATM    1  C   UNL     1      -7.513   8.377  71.983  1.00  0.00    -0.105 C  
HETATM    2  O   UNL     1      -7.233   9.624  71.338  1.00  0.00    -0.315 OA 
ENDROOT
BRANCH   2   3
HETATM    3  C   UNL     1      -6.385   9.538  70.289  1.00  0.00    -0.066 C  
HETATM    4  O   UNL     1      -5.473   8.724  70.202  1.00  0.00    -0.027 OA 
BRANCH   3   5
HETATM    5  C   UNL     1      -6.654  10.607  69.287  1.00  0.00    -0.068 C  
HETATM    6  C   UNL     1      -6.304  11.884  69.572  1.00  0.00    -0.122 C  
HETATM    7  C   UNL     1      -5.536  12.369  70.783  1.00  0.00    -0.168 C  
HETATM    8  N   UNL     1      -6.692  12.901  68.719  1.00  0.00    -0.088 NA 
HETATM    9  C   UNL     1      -7.590  12.770  67.676  1.00  0.00    -0.152 C  
HETATM   10  C   UNL     1      -8.059  14.081  67.087  1.00  0.00    -0.121 C  
HETATM   11  C   UNL     1      -8.005  11.537  67.283  1.00  0.00    -0.153 C  
HETATM   12  C   UNL     1      -7.487  10.274  68.012  1.00  0.00    -0.087 C  
BRANCH  11  13
HETATM   13  C   UNL     1      -9.032  11.435  66.201  1.00  0.00    -0.201 C  
HETATM   14  O   UNL     1      -8.999  10.593  65.314  1.00  0.00    -0.179 OA 
BRANCH  13  15
HETATM   15  O   UNL     1      -9.953  12.432  66.263  1.00  0.00    -0.235 OA 
BRANCH  15  16
HETATM   16  C   UNL     1     -11.273  11.998  66.649  1.00  0.00    -0.327 C  
HETATM   17  C   UNL     1     -11.181  12.964  69.013  1.00  0.00    -0.320 C  
HETATM   18  C   UNL     1     -11.955  12.888  67.698  1.00  0.00    -0.344 C  
HETATM   19  C   UNL     1     -12.224  14.292  67.163  1.00  0.00    -0.312 C  
ENDBRANCH  15  16
ENDBRANCH  13  15
ENDBRANCH  11  13
BRANCH  12  20
HETATM   20  C   UNL     1      -8.625   9.312  68.384  1.00  0.00    -0.124 A  
HETATM   21  O   UNL     1      -6.507   7.424  67.337  1.00  0.00    -0.055 OA 
HETATM   22  C   UNL     1      -9.666   9.796  69.206  1.00  0.00    -0.204 A  
HETATM   23  O   UNL     1      -8.204   6.746  66.124  1.00  0.00    -0.113 OA 
HETATM   24  C   UNL     1     -10.653   8.943  69.700  1.00  0.00    -0.230 A  
HETATM   25  N   UNL     1      -7.716   7.344  67.092  1.00  0.00    -0.113 N  
HETATM   26  C   UNL     1      -8.660   7.943  68.033  1.00  0.00    -0.126 A  
HETATM   27  C   UNL     1     -10.631   7.586  69.390  1.00  0.00    -0.225 A  
HETATM   28  C   UNL     1      -9.644   7.083  68.547  1.00  0.00    -0.137 A  
ENDBRANCH  12  20
ENDBRANCH   3   5
ENDBRANCH   2   3
TORSDOF 6
ENDMDL
MODEL      126
REMARK 921   NORMALIZED FREE ENERGY PREDICTED BY IDOCK:   -3.92 KCAL/MOL
REMARK 922        TOTAL FREE ENERGY PREDICTED BY IDOCK:   -5.90 KCAL/MOL
REMARK 923 INTER-LIGAND FREE ENERGY PREDICTED BY IDOCK:   -5.26 KCAL/MOL
REMARK 924 INTRA-LIGAND FREE ENERGY PREDICTED BY IDOCK:   -0.64 KCAL/MOL
REMARK 927      BINDING AFFINITY PREDICTED BY RF-SCORE:    0.00 PKD
ROOT
HETATM    1  C   UNL     1      -8.006   4.819  66.011  1.00  0.00    -0.103 C  
HETATM    2  O   UNL     1      -8.280   6.220  66.124  1.00  0.00    -0.111 OA 
ENDROOT
BRANCH   2   3
HETATM    3  C   UNL     1      -9.540   6.518  66.511  1.00  0.00    -0.140 C  
HETATM    4  O   UNL     1     -10.514   5.805  66.303  1.00  0.00    -0.164 OA 
BRANCH   3   5
HETATM    5  C   UNL     1      -9.604   7.858  67.158  1.00  0.00    -0.222 C  
HETATM    6  C   UNL     1      -9.365   8.965  66.414  1.00  0.00    -0.204 C  
HETATM    7  C   UNL     1      -9.145   9.024  64.918  1.00  0.00    -0.132 C  
HETATM    8  N   UNL     1      -9.267  10.194  67.038  1.00  0.00    -0.145 NA 
HETATM    9  C   UNL     1      -9.194  10.393  68.404  1.00  0.00    -0.147 C  
HETATM   10  C   UNL     1      -8.803  11.796  68.811  1.00  0.00     0.018 C  
HETATM   11  C   UNL     1      -9.431   9.364  69.258  1.00  0.00    -0.164 C  
HETATM   12  C   UNL     1      -9.769   7.958  68.706  1.00  0.00    -0.159 C  
BRANCH  11  13
HETATM   13  C   UNL     1      -9.272   9.596  70.726  1.00  0.00     0.009 C  
HETATM   14  O   UNL     1      -8.187   9.695  71.283  1.00  0.00    -0.186 OA 
BRANCH  13  15
HETATM   15  O   UNL     1     -10.461   9.598  71.385  1.00  0.00    -0.272 OA 
BRANCH  15  16
HETATM   16  C   UNL     1     -11.617   9.533  70.526  1.00  0.00    -0.254 C  
HETATM   17  C   UNL     1     -13.301   9.072  72.392  1.00  0.00    -0.516 C  
HETATM   18  C   UNL     1     -12.934   9.949  71.195  1.00  0.00    -0.456 C  
HETATM   19  C   UNL     1     -12.923  11.420  71.604  1.00  0.00    -0.523 C  
ENDBRANCH  15  16
ENDBRANCH  13  15
ENDBRANCH  11  13
BRANCH  12  20
HETATM   20  C   UNL     1      -8.937   6.856  69.379  1.00  0.00    -0.138 A  
HETATM   21  O   UNL     1     -11.768   5.970  69.965  1.00  0.00    -0.221 OA 
HETATM   22  C   UNL     1      -7.570   6.755  69.044  1.00  0.00    -0.101 A  
HETATM   23  O   UNL     1     -10.954   5.893  72.000  1.00  0.00    -0.245 OA 
HETATM   24  C   UNL     1      -6.789   5.693  69.505  1.00  0.00    -0.061 A  
HETATM   25  N   UNL     1     -10.830   5.934  70.769  1.00  0.00    -0.282 N  
HETATM   26  C   UNL     1      -9.466   5.875  70.248  1.00  0.00    -0.162 A  
HETATM   27  C   UNL     1      -7.349   4.705  70.310  1.00  0.00    -0.050 A  
HETATM   28  C   UNL     1      -8.684   4.798  70.695  1.00  0.00    -0.134 A  
ENDBRANCH  12  20
ENDBRANCH   3   5
ENDBRANCH   2   3
TORSDOF 6
ENDMDL
MODEL      127
REMARK 921   NORMALIZED FREE ENERGY PREDICTED BY IDOCK:   -3.88 KCAL/MOL
REMARK 922        TOTAL FREE ENERGY PREDICTED BY IDOCK:   -5.84 KCAL/MOL
REMARK 923 INTER-LIGAND FREE ENERGY PREDICTED BY IDOCK:   -5.76 KCAL/MOL
REMARK 924 INTRA-LIGAND FREE ENERGY PREDICTED BY IDOCK:   -0.09 KCAL/MOL
REMARK 927      BINDING AFFINITY PREDICTED BY RF-SCORE:    0.00 PKD
ROOT
HETATM    1  C   UNL     1     -10.917  11.599  65.604  1.00  0.00    -0.266 C  
HETATM    2  O   UNL     1     -11.627  11.536  66.846  1.00  0.00    -0.503 OA 
ENDROOT
BRANCH   2   3
HETATM    3  C   UNL     1     -10.848  11.634  67.946  1.00  0.00    -0.210 C  
HETATM    4  O   UNL     1      -9.882  12.382  68.045  1.00  0.00    -0.194 OA 
BRANCH   3   5
HETATM    5  C   UNL     1     -11.267  10.663  68.994  1.00  0.00    -0.324 C  
HETATM    6  C   UNL     1     -11.702  11.126  70.190  1.00  0.00    -0.353 C  
HETATM    7  C   UNL     1     -11.937  12.571  70.575  1.00  0.00    -0.277 C  
HETATM    8  N   UNL     1     -11.941  10.233  71.218  1.00  0.00    -0.373 NA 
HETATM    9  C   UNL     1     -11.588   8.896  71.213  1.00  0.00    -0.304 C  
HETATM   10  C   UNL     1     -11.698   8.217  72.559  1.00  0.00    -0.457 C  
HETATM   11  C   UNL     1     -11.152   8.309  70.068  1.00  0.00    -0.147 C  
HETATM   12  C   UNL     1     -11.034   9.137  68.767  1.00  0.00    -0.011 C  
BRANCH  11  13
HETATM   13  C   UNL     1     -10.710   6.882  70.116  1.00  0.00    -0.237 C  
HETATM   14  O   UNL     1     -11.422   5.941  69.790  1.00  0.00    -0.307 OA 
BRANCH  13  15
HETATM   15  O   UNL     1      -9.465   6.740  70.642  1.00  0.00    -0.168 OA 
BRANCH  15  16
HETATM   16  C   UNL     1      -9.012   5.374  70.737  1.00  0.00    -0.137 C  
HETATM   17  C   UNL     1      -8.691   5.032  68.225  1.00  0.00    -0.106 C  
HETATM   18  C   UNL     1      -8.061   4.938  69.613  1.00  0.00    -0.073 C  
HETATM   19  C   UNL     1      -6.747   5.714  69.649  1.00  0.00    -0.055 C  
ENDBRANCH  15  16
ENDBRANCH  13  15
ENDBRANCH  11  13
BRANCH  12  20
HETATM   20  C   UNL     1      -9.681   8.928  68.068  1.00  0.00    -0.181 A  
HETATM   21  O   UNL     1      -8.849   9.530  70.913  1.00  0.00    -0.229 OA 
HETATM   22  C   UNL     1      -9.675   8.314  66.798  1.00  0.00    -0.307 A  
HETATM   23  O   UNL     1      -7.586  10.987  69.868  1.00  0.00     0.069 OA 
HETATM   24  C   UNL     1      -8.478   7.963  66.171  1.00  0.00    -0.139 A  
HETATM   25  N   UNL     1      -8.296   9.973  69.901  1.00  0.00    -0.178 N  
HETATM   26  C   UNL     1      -8.428   9.229  68.649  1.00  0.00    -0.123 A  
HETATM   27  C   UNL     1      -7.258   8.214  66.791  1.00  0.00    -0.082 A  
HETATM   28  C   UNL     1      -7.226   8.858  68.025  1.00  0.00    -0.083 A  
ENDBRANCH  12  20
ENDBRANCH   3   5
ENDBRANCH   2   3
TORSDOF 6
ENDMDL
MODEL      128
REMARK 921   NORMALIZED FREE ENERGY PREDICTED BY IDOCK:   -3.87 KCAL/MOL
REMARK 922        TOTAL FREE ENERGY PREDICTED BY IDOCK:   -5.83 KCAL/MOL
REMARK 923 INTER-LIGAND FREE ENERGY PREDICTED BY IDOCK:   -6.25 KCAL/MOL
REMARK 924 INTRA-LIGAND FREE ENERGY PREDICTED BY IDOCK:    0.42 KCAL/MOL
REMARK 927      BINDING AFFINITY PREDICTED BY RF-SCORE:    0.00 PKD
ROOT
HETATM    1  C   UNL     1     -10.829  16.612  65.472  1.00  0.00    -0.163 C  
HETATM    2  O   UNL     1     -10.747  15.428  64.670  1.00  0.00    -0.367 OA 
ENDROOT
BRANCH   2   3
HETATM    3  C   UNL     1     -11.456  14.378  65.141  1.00  0.00    -0.362 C  
HETATM    4  O   UNL     1     -12.601  14.455  65.572  1.00  0.00    -0.413 OA 
BRANCH   3   5
HETATM    5  C   UNL     1     -10.642  13.130  65.139  1.00  0.00    -0.332 C  
HETATM    6  C   UNL     1     -11.044  12.079  64.385  1.00  0.00    -0.342 C  
HETATM    7  C   UNL     1     -12.202  12.049  63.411  1.00  0.00    -0.627 C  
HETATM    8  N   UNL     1     -10.385  10.870  64.501  1.00  0.00    -0.345 NA 
HETATM    9  C   UNL     1      -9.454  10.557  65.474  1.00  0.00    -0.216 C  
HETATM   10  C   UNL     1      -9.103   9.089  65.553  1.00  0.00    -0.271 C  
HETATM   11  C   UNL     1      -8.960  11.529  66.284  1.00  0.00    -0.199 C  
HETATM   12  C   UNL     1      -9.448  12.990  66.132  1.00  0.00    -0.159 C  
BRANCH  11  13
HETATM   13  C   UNL     1      -8.010  11.144  67.373  1.00  0.00    -0.125 C  
HETATM   14  O   UNL     1      -7.418  11.955  68.073  1.00  0.00    -0.093 OA 
BRANCH  13  15
HETATM   15  O   UNL     1      -7.813   9.802  67.440  1.00  0.00    -0.098 OA 
BRANCH  15  16
HETATM   16  C   UNL     1      -6.477   9.416  67.824  1.00  0.00    -0.059 C  
HETATM   17  C   UNL     1      -6.174   7.670  65.983  1.00  0.00    -0.042 C  
HETATM   18  C   UNL     1      -5.603   8.911  66.668  1.00  0.00    -0.040 C  
HETATM   19  C   UNL     1      -5.336  10.005  65.637  1.00  0.00    -0.055 C  
ENDBRANCH  15  16
ENDBRANCH  13  15
ENDBRANCH  11  13
BRANCH  12  20
HETATM   20  C   UNL     1      -9.832  13.615  67.482  1.00  0.00    -0.227 A  
HETATM   21  O   UNL     1      -7.879  15.639  66.369  1.00  0.00    -0.111 OA 
HETATM   22  C   UNL     1     -10.971  13.116  68.149  1.00  0.00    -0.275 A  
HETATM   23  O   UNL     1      -6.976  15.338  68.345  1.00  0.00    -0.105 OA 
HETATM   24  C   UNL     1     -11.461  13.729  69.303  1.00  0.00    -0.344 A  
HETATM   25  N   UNL     1      -7.917  15.258  67.544  1.00  0.00    -0.160 N  
HETATM   26  C   UNL     1      -9.173  14.722  68.065  1.00  0.00    -0.194 A  
HETATM   27  C   UNL     1     -10.829  14.855  69.823  1.00  0.00    -0.255 A  
HETATM   28  C   UNL     1      -9.678  15.349  69.215  1.00  0.00    -0.268 A  
ENDBRANCH  12  20
ENDBRANCH   3   5
ENDBRANCH   2   3
TORSDOF 6
ENDMDL
MODEL      129
REMARK 921   NORMALIZED FREE ENERGY PREDICTED BY IDOCK:   -3.83 KCAL/MOL
REMARK 922        TOTAL FREE ENERGY PREDICTED BY IDOCK:   -5.78 KCAL/MOL
REMARK 923 INTER-LIGAND FREE ENERGY PREDICTED BY IDOCK:   -5.82 KCAL/MOL
REMARK 924 INTRA-LIGAND FREE ENERGY PREDICTED BY IDOCK:    0.04 KCAL/MOL
REMARK 927      BINDING AFFINITY PREDICTED BY RF-SCORE:    0.00 PKD
ROOT
HETATM    1  C   UNL     1     -13.975   9.028  71.850  1.00  0.00    -0.387 C  
HETATM    2  O   UNL     1     -13.276   7.898  71.316  1.00  0.00    -0.270 OA 
ENDROOT
BRANCH   2   3
HETATM    3  C   UNL     1     -12.037   7.711  71.824  1.00  0.00    -0.305 C  
HETATM    4  O   UNL     1     -11.549   8.386  72.723  1.00  0.00    -0.358 OA 
BRANCH   3   5
HETATM    5  C   UNL     1     -11.313   6.629  71.100  1.00  0.00    -0.355 C  
HETATM    6  C   UNL     1     -10.919   5.526  71.780  1.00  0.00    -0.182 C  
HETATM    7  C   UNL     1     -11.236   5.184  73.220  1.00  0.00    -0.389 C  
HETATM    8  N   UNL     1     -10.112   4.594  71.155  1.00  0.00    -0.194 NA 
HETATM    9  C   UNL     1      -9.488   4.770  69.933  1.00  0.00    -0.161 C  
HETATM   10  C   UNL     1      -8.440   3.729  69.612  1.00  0.00    -0.092 C  
HETATM   11  C   UNL     1      -9.810   5.830  69.148  1.00  0.00    -0.211 C  
HETATM   12  C   UNL     1     -10.866   6.857  69.623  1.00  0.00    -0.294 C  
BRANCH  11  13
HETATM   13  C   UNL     1      -9.064   6.030  67.868  1.00  0.00    -0.117 C  
HETATM   14  O   UNL     1      -7.971   6.575  67.799  1.00  0.00    -0.112 OA 
BRANCH  13  15
HETATM   15  O   UNL     1      -9.772   5.618  66.783  1.00  0.00    -0.136 OA 
BRANCH  15  16
HETATM   16  C   UNL     1      -8.966   5.326  65.624  1.00  0.00    -0.158 C  
HETATM   17  C   UNL     1      -8.961   2.791  65.943  1.00  0.00    -0.142 C  
HETATM   18  C   UNL     1      -9.234   3.954  64.990  1.00  0.00    -0.150 C  
HETATM   19  C   UNL     1     -10.650   3.854  64.428  1.00  0.00    -0.224 C  
ENDBRANCH  15  16
ENDBRANCH  13  15
ENDBRANCH  11  13
BRANCH  12  20
HETATM   20  C   UNL     1     -10.382   8.305  69.456  1.00  0.00    -0.219 A  
HETATM   21  O   UNL     1      -8.107   7.042  70.997  1.00  0.00    -0.103 OA 
HETATM   22  C   UNL     1     -11.034   9.122  68.508  1.00  0.00     0.003 A  
HETATM   23  O   UNL     1      -8.469   8.783  72.281  1.00  0.00    -0.375 OA 
HETATM   24  C   UNL     1     -10.557  10.397  68.201  1.00  0.00    -0.246 A  
HETATM   25  N   UNL     1      -8.577   8.164  71.214  1.00  0.00    -0.128 N  
HETATM   26  C   UNL     1      -9.265   8.855  70.126  1.00  0.00    -0.180 A  
HETATM   27  C   UNL     1      -9.419  10.893  68.831  1.00  0.00    -0.182 A  
HETATM   28  C   UNL     1      -8.776  10.131  69.803  1.00  0.00    -0.148 A  
ENDBRANCH  12  20
ENDBRANCH   3   5
ENDBRANCH   2   3
TORSDOF 6
ENDMDL
MODEL      130
REMARK 921   NORMALIZED FREE ENERGY PREDICTED BY IDOCK:   -3.83 KCAL/MOL
REMARK 922        TOTAL FREE ENERGY PREDICTED BY IDOCK:   -5.77 KCAL/MOL
REMARK 923 INTER-LIGAND FREE ENERGY PREDICTED BY IDOCK:   -4.26 KCAL/MOL
REMARK 924 INTRA-LIGAND FREE ENERGY PREDICTED BY IDOCK:   -1.52 KCAL/MOL
REMARK 927      BINDING AFFINITY PREDICTED BY RF-SCORE:    0.00 PKD
ROOT
HETATM    1  C   UNL     1     -11.178   4.894  73.520  1.00  0.00    -0.298 C  
HETATM    2  O   UNL     1     -10.937   4.601  72.139  1.00  0.00    -0.048 OA 
ENDROOT
BRANCH   2   3
HETATM    3  C   UNL     1      -9.772   3.962  71.894  1.00  0.00    -0.169 C  
HETATM    4  O   UNL     1      -9.161   3.297  72.722  1.00  0.00    -0.087 OA 
BRANCH   3   5
HETATM    5  C   UNL     1      -9.288   4.232  70.511  1.00  0.00    -0.216 C  
HETATM    6  C   UNL     1      -9.138   3.199  69.649  1.00  0.00    -0.136 C  
HETATM    7  C   UNL     1      -9.527   1.755  69.883  1.00  0.00    -0.128 C  
HETATM    8  N   UNL     1      -8.541   3.420  68.422  1.00  0.00    -0.088 NA 
HETATM    9  C   UNL     1      -7.887   4.580  68.048  1.00  0.00    -0.081 C  
HETATM   10  C   UNL     1      -7.079   4.460  66.776  1.00  0.00    -0.067 C  
HETATM   11  C   UNL     1      -7.975   5.693  68.822  1.00  0.00    -0.097 C  
HETATM   12  C   UNL     1      -8.795   5.664  70.135  1.00  0.00    -0.144 C  
BRANCH  11  13
HETATM   13  C   UNL     1      -7.197   6.907  68.427  1.00  0.00    -0.088 C  
HETATM   14  O   UNL     1      -6.089   7.174  68.871  1.00  0.00    -0.025 OA 
BRANCH  13  15
HETATM   15  O   UNL     1      -7.892   7.721  67.591  1.00  0.00    -0.118 OA 
BRANCH  15  16
HETATM   16  C   UNL     1      -9.020   8.379  68.203  1.00  0.00    -0.139 C  
HETATM   17  C   UNL     1     -10.029   9.247  66.021  1.00  0.00    -0.325 C  
HETATM   18  C   UNL     1     -10.268   8.466  67.313  1.00  0.00    -0.349 C  
HETATM   19  C   UNL     1     -10.837   7.086  66.996  1.00  0.00    -0.413 C  
ENDBRANCH  15  16
ENDBRANCH  13  15
ENDBRANCH  11  13
BRANCH  12  20
HETATM   20  C   UNL     1      -8.016   6.261  71.317  1.00  0.00    -0.116 A  
HETATM   21  O   UNL     1     -10.669   7.702  71.501  1.00  0.00    -0.220 OA 
HETATM   22  C   UNL     1      -6.846   5.600  71.747  1.00  0.00    -0.067 A  
HETATM   23  O   UNL     1      -9.329   9.438  71.545  1.00  0.00    -0.271 OA 
HETATM   24  C   UNL     1      -6.170   6.003  72.901  1.00  0.00    -0.057 A  
HETATM   25  N   UNL     1      -9.561   8.227  71.659  1.00  0.00    -0.179 N  
HETATM   26  C   UNL     1      -8.439   7.383  72.065  1.00  0.00    -0.106 A  
HETATM   27  C   UNL     1      -6.642   7.073  73.655  1.00  0.00    -0.066 A  
HETATM   28  C   UNL     1      -7.769   7.775  73.236  1.00  0.00    -0.160 A  
ENDBRANCH  12  20
ENDBRANCH   3   5
ENDBRANCH   2   3
TORSDOF 6
ENDMDL
MODEL      131
REMARK 921   NORMALIZED FREE ENERGY PREDICTED BY IDOCK:   -3.82 KCAL/MOL
REMARK 922        TOTAL FREE ENERGY PREDICTED BY IDOCK:   -5.77 KCAL/MOL
REMARK 923 INTER-LIGAND FREE ENERGY PREDICTED BY IDOCK:   -5.75 KCAL/MOL
REMARK 924 INTRA-LIGAND FREE ENERGY PREDICTED BY IDOCK:   -0.01 KCAL/MOL
REMARK 927      BINDING AFFINITY PREDICTED BY RF-SCORE:    0.00 PKD
ROOT
HETATM    1  C   UNL     1     -12.904  15.416  70.706  1.00  0.00    -0.466 C  
HETATM    2  O   UNL     1     -12.014  14.684  69.855  1.00  0.00    -0.292 OA 
ENDROOT
BRANCH   2   3
HETATM    3  C   UNL     1     -11.458  15.412  68.862  1.00  0.00    -0.342 C  
HETATM    4  O   UNL     1     -12.091  15.953  67.963  1.00  0.00     0.077 OA 
BRANCH   3   5
HETATM    5  C   UNL     1      -9.971  15.410  68.956  1.00  0.00    -0.229 C  
HETATM    6  C   UNL     1      -9.309  16.590  69.015  1.00  0.00    -0.239 C  
HETATM    7  C   UNL     1      -9.921  17.971  69.120  1.00  0.00    -0.201 C  
HETATM    8  N   UNL     1      -7.929  16.600  68.943  1.00  0.00    -0.240 NA 
HETATM    9  C   UNL     1      -7.139  15.513  68.614  1.00  0.00    -0.118 C  
HETATM   10  C   UNL     1      -5.696  15.857  68.323  1.00  0.00    -0.113 C  
HETATM   11  C   UNL     1      -7.683  14.270  68.539  1.00  0.00    -0.137 C  
HETATM   12  C   UNL     1      -9.193  14.066  68.807  1.00  0.00    -0.050 C  
BRANCH  11  13
HETATM   13  C   UNL     1      -6.816  13.131  68.109  1.00  0.00    -0.111 C  
HETATM   14  O   UNL     1      -6.329  13.036  66.990  1.00  0.00    -0.194 OA 
BRANCH  13  15
HETATM   15  O   UNL     1      -6.701  12.174  69.066  1.00  0.00    -0.092 OA 
BRANCH  15  16
HETATM   16  C   UNL     1      -6.584  10.831  68.554  1.00  0.00    -0.055 C  
HETATM   17  C   UNL     1      -5.927   9.761  70.779  1.00  0.00    -0.086 C  
HETATM   18  C   UNL     1      -6.875   9.729  69.582  1.00  0.00    -0.072 C  
HETATM   19  C   UNL     1      -8.325   9.764  70.057  1.00  0.00    -0.211 C  
ENDBRANCH  15  16
ENDBRANCH  13  15
ENDBRANCH  11  13
BRANCH  12  20
HETATM   20  C   UNL     1      -9.863  13.207  67.723  1.00  0.00    -0.228 A  
HETATM   21  O   UNL     1      -8.546  15.388  66.093  1.00  0.00    -0.222 OA 
HETATM   22  C   UNL     1     -10.307  11.915  68.076  1.00  0.00    -0.209 A  
HETATM   23  O   UNL     1     -10.576  15.522  65.274  1.00  0.00    -0.370 OA 
HETATM   24  C   UNL     1     -10.792  11.029  67.112  1.00  0.00    -0.336 A  
HETATM   25  N   UNL     1      -9.679  14.937  65.894  1.00  0.00    -0.325 N  
HETATM   26  C   UNL     1      -9.987  13.588  66.368  1.00  0.00    -0.295 A  
HETATM   27  C   UNL     1     -10.847  11.407  65.774  1.00  0.00    -0.290 A  
HETATM   28  C   UNL     1     -10.457  12.689  65.397  1.00  0.00    -0.306 A  
ENDBRANCH  12  20
ENDBRANCH   3   5
ENDBRANCH   2   3
TORSDOF 6
ENDMDL
MODEL      132
REMARK 921   NORMALIZED FREE ENERGY PREDICTED BY IDOCK:   -3.82 KCAL/MOL
REMARK 922        TOTAL FREE ENERGY PREDICTED BY IDOCK:   -5.76 KCAL/MOL
REMARK 923 INTER-LIGAND FREE ENERGY PREDICTED BY IDOCK:   -6.02 KCAL/MOL
REMARK 924 INTRA-LIGAND FREE ENERGY PREDICTED BY IDOCK:    0.26 KCAL/MOL
REMARK 927      BINDING AFFINITY PREDICTED BY RF-SCORE:    0.00 PKD
ROOT
HETATM    1  C   UNL     1      -7.971  19.461  68.949  1.00  0.00    -0.325 C  
HETATM    2  O   UNL     1      -8.850  19.005  67.915  1.00  0.00    -0.288 OA 
ENDROOT
BRANCH   2   3
HETATM    3  C   UNL     1      -8.227  18.484  66.834  1.00  0.00    -0.258 C  
HETATM    4  O   UNL     1      -7.064  18.717  66.528  1.00  0.00    -0.203 OA 
BRANCH   3   5
HETATM    5  C   UNL     1      -9.157  17.649  66.024  1.00  0.00    -0.041 C  
HETATM    6  C   UNL     1     -10.277  18.212  65.511  1.00  0.00     0.264 C  
HETATM    7  C   UNL     1     -10.663  19.675  65.561  1.00  0.00    -0.323 C  
HETATM    8  N   UNL     1     -11.220  17.411  64.895  1.00  0.00    -0.678 NA 
HETATM    9  C   UNL     1     -11.230  16.028  64.918  1.00  0.00    -0.312 C  
HETATM   10  C   UNL     1     -12.515  15.406  64.421  1.00  0.00     0.030 C  
HETATM   11  C   UNL     1     -10.157  15.344  65.393  1.00  0.00    -0.394 C  
HETATM   12  C   UNL     1      -8.922  16.110  65.926  1.00  0.00    -0.241 C  
BRANCH  11  13
HETATM   13  C   UNL     1     -10.232  13.853  65.472  1.00  0.00    -0.331 C  
HETATM   14  O   UNL     1      -9.846  13.108  64.580  1.00  0.00    -0.155 OA 
BRANCH  13  15
HETATM   15  O   UNL     1     -10.853  13.422  66.600  1.00  0.00    -0.280 OA 
BRANCH  15  16
HETATM   16  C   UNL     1     -11.168  12.015  66.604  1.00  0.00    -0.327 C  
HETATM   17  C   UNL     1      -9.414  11.362  68.345  1.00  0.00    -0.194 C  
HETATM   18  C   UNL     1     -10.885  11.302  67.934  1.00  0.00    -0.278 C  
HETATM   19  C   UNL     1     -11.769  11.831  69.061  1.00  0.00    -0.390 C  
ENDBRANCH  15  16
ENDBRANCH  13  15
ENDBRANCH  11  13
BRANCH  12  20
HETATM   20  C   UNL     1      -8.456  15.579  67.291  1.00  0.00    -0.216 A  
HETATM   21  O   UNL     1     -11.396  16.099  67.774  1.00  0.00    -0.257 OA 
HETATM   22  C   UNL     1      -7.207  14.926  67.361  1.00  0.00    -0.213 A  
HETATM   23  O   UNL     1     -10.566  17.197  69.481  1.00  0.00    -0.296 OA 
HETATM   24  C   UNL     1      -6.786  14.294  68.532  1.00  0.00    -0.100 A  
HETATM   25  N   UNL     1     -10.486  16.367  68.566  1.00  0.00    -0.274 N  
HETATM   26  C   UNL     1      -9.233  15.620  68.470  1.00  0.00    -0.197 A  
HETATM   27  C   UNL     1      -7.597  14.296  69.664  1.00  0.00     0.239 A  
HETATM   28  C   UNL     1      -8.817  14.968  69.642  1.00  0.00     0.020 A  
ENDBRANCH  12  20
ENDBRANCH   3   5
ENDBRANCH   2   3
TORSDOF 6
ENDMDL
MODEL      133
REMARK 921   NORMALIZED FREE ENERGY PREDICTED BY IDOCK:   -3.77 KCAL/MOL
REMARK 922        TOTAL FREE ENERGY PREDICTED BY IDOCK:   -5.70 KCAL/MOL
REMARK 923 INTER-LIGAND FREE ENERGY PREDICTED BY IDOCK:   -4.25 KCAL/MOL
REMARK 924 INTRA-LIGAND FREE ENERGY PREDICTED BY IDOCK:   -1.45 KCAL/MOL
REMARK 927      BINDING AFFINITY PREDICTED BY RF-SCORE:    0.00 PKD
ROOT
HETATM    1  C   UNL     1     -11.821   9.960  70.988  1.00  0.00    -0.376 C  
HETATM    2  O   UNL     1     -10.511   9.537  70.594  1.00  0.00    -0.264 OA 
ENDROOT
BRANCH   2   3
HETATM    3  C   UNL     1      -9.940   8.631  71.418  1.00  0.00    -0.254 C  
HETATM    4  O   UNL     1      -9.489   8.893  72.527  1.00  0.00    -0.287 OA 
BRANCH   3   5
HETATM    5  C   UNL     1      -9.862   7.289  70.777  1.00  0.00    -0.178 C  
HETATM    6  C   UNL     1     -10.691   6.304  71.197  1.00  0.00    -0.249 C  
HETATM    7  C   UNL     1     -11.818   6.431  72.201  1.00  0.00    -0.361 C  
HETATM    8  N   UNL     1     -10.518   5.019  70.720  1.00  0.00    -0.199 NA 
HETATM    9  C   UNL     1      -9.433   4.581  69.982  1.00  0.00    -0.177 C  
HETATM   10  C   UNL     1      -9.344   3.079  69.834  1.00  0.00    -0.221 C  
HETATM   11  C   UNL     1      -8.537   5.474  69.488  1.00  0.00    -0.105 C  
HETATM   12  C   UNL     1      -8.717   6.987  69.762  1.00  0.00    -0.142 C  
BRANCH  11  13
HETATM   13  C   UNL     1      -7.337   4.961  68.759  1.00  0.00    -0.061 C  
HETATM   14  O   UNL     1      -6.238   4.821  69.278  1.00  0.00    -0.028 OA 
BRANCH  13  15
HETATM   15  O   UNL     1      -7.581   4.753  67.439  1.00  0.00    -0.084 OA 
BRANCH  15  16
HETATM   16  C   UNL     1      -7.960   5.937  66.709  1.00  0.00    -0.102 C  
HETATM   17  C   UNL     1      -8.828   4.704  64.646  1.00  0.00    -0.153 C  
HETATM   18  C   UNL     1      -9.126   5.738  65.731  1.00  0.00    -0.122 C  
HETATM   19  C   UNL     1     -10.421   5.382  66.457  1.00  0.00    -0.352 C  
ENDBRANCH  15  16
ENDBRANCH  13  15
ENDBRANCH  11  13
BRANCH  12  20
HETATM   20  C   UNL     1      -7.417   7.646  70.251  1.00  0.00    -0.083 A  
HETATM   21  O   UNL     1      -8.350   9.573  68.114  1.00  0.00    -0.117 OA 
HETATM   22  C   UNL     1      -6.862   7.202  71.469  1.00  0.00    -0.056 A  
HETATM   23  O   UNL     1      -6.292   9.262  67.424  1.00  0.00    -0.061 OA 
HETATM   24  C   UNL     1      -5.767   7.850  72.044  1.00  0.00    -0.036 A  
HETATM   25  N   UNL     1      -7.181   9.210  68.284  1.00  0.00    -0.077 N  
HETATM   26  C   UNL     1      -6.782   8.732  69.606  1.00  0.00    -0.039 A  
HETATM   27  C   UNL     1      -5.198   8.956  71.421  1.00  0.00    -0.037 A  
HETATM   28  C   UNL     1      -5.693   9.394  70.196  1.00  0.00    -0.032 A  
ENDBRANCH  12  20
ENDBRANCH   3   5
ENDBRANCH   2   3
TORSDOF 6
ENDMDL
MODEL      134
REMARK 921   NORMALIZED FREE ENERGY PREDICTED BY IDOCK:   -3.77 KCAL/MOL
REMARK 922        TOTAL FREE ENERGY PREDICTED BY IDOCK:   -5.69 KCAL/MOL
REMARK 923 INTER-LIGAND FREE ENERGY PREDICTED BY IDOCK:   -5.29 KCAL/MOL
REMARK 924 INTRA-LIGAND FREE ENERGY PREDICTED BY IDOCK:   -0.40 KCAL/MOL
REMARK 927      BINDING AFFINITY PREDICTED BY RF-SCORE:    0.00 PKD
ROOT
HETATM    1  C   UNL     1      -8.916   7.157  67.983  1.00  0.00    -0.127 C  
HETATM    2  O   UNL     1      -8.754   7.694  66.666  1.00  0.00    -0.129 OA 
ENDROOT
BRANCH   2   3
HETATM    3  C   UNL     1      -9.411   8.854  66.446  1.00  0.00    -0.220 C  
HETATM    4  O   UNL     1     -10.601   8.932  66.163  1.00  0.00     0.070 OA 
BRANCH   3   5
HETATM    5  C   UNL     1      -8.487  10.021  66.518  1.00  0.00    -0.128 C  
HETATM    6  C   UNL     1      -7.203   9.875  66.115  1.00  0.00    -0.104 C  
HETATM    7  C   UNL     1      -6.588   8.655  65.461  1.00  0.00    -0.063 C  
HETATM    8  N   UNL     1      -6.303  10.902  66.326  1.00  0.00    -0.128 NA 
HETATM    9  C   UNL     1      -6.538  12.022  67.103  1.00  0.00    -0.143 C  
HETATM   10  C   UNL     1      -5.304  12.842  67.405  1.00  0.00    -0.027 C  
HETATM   11  C   UNL     1      -7.791  12.289  67.556  1.00  0.00    -0.166 C  
HETATM   12  C   UNL     1      -8.960  11.333  67.218  1.00  0.00    -0.149 C  
BRANCH  11  13
HETATM   13  C   UNL     1      -7.995  13.467  68.453  1.00  0.00    -0.142 C  
HETATM   14  O   UNL     1      -7.415  13.613  69.521  1.00  0.00     0.180 OA 
BRANCH  13  15
HETATM   15  O   UNL     1      -8.956  14.311  67.994  1.00  0.00    -0.169 OA 
BRANCH  15  16
HETATM   16  C   UNL     1      -9.430  15.260  68.971  1.00  0.00    -0.232 C  
HETATM   17  C   UNL     1      -8.270  17.291  67.941  1.00  0.00    -0.219 C  
HETATM   18  C   UNL     1      -9.584  16.694  68.445  1.00  0.00    -0.233 C  
HETATM   19  C   UNL     1     -10.655  16.789  67.361  1.00  0.00    -0.291 C  
ENDBRANCH  15  16
ENDBRANCH  13  15
ENDBRANCH  11  13
BRANCH  12  20
HETATM   20  C   UNL     1      -9.794  10.977  68.457  1.00  0.00    -0.194 A  
HETATM   21  O   UNL     1     -11.882  12.100  66.579  1.00  0.00    -0.569 OA 
HETATM   22  C   UNL     1      -9.218  10.131  69.429  1.00  0.00    -0.229 A  
HETATM   23  O   UNL     1     -12.322  13.315  68.351  1.00  0.00    -0.158 OA 
HETATM   24  C   UNL     1      -9.966   9.652  70.506  1.00  0.00    -0.318 A  
HETATM   25  N   UNL     1     -11.814  12.335  67.791  1.00  0.00    -0.327 N  
HETATM   26  C   UNL     1     -11.138  11.368  68.653  1.00  0.00    -0.236 A  
HETATM   27  C   UNL     1     -11.306  10.002  70.643  1.00  0.00    -0.425 A  
HETATM   28  C   UNL     1     -11.894  10.870  69.727  1.00  0.00    -0.419 A  
ENDBRANCH  12  20
ENDBRANCH   3   5
ENDBRANCH   2   3
TORSDOF 6
ENDMDL
MODEL      135
REMARK 921   NORMALIZED FREE ENERGY PREDICTED BY IDOCK:   -3.73 KCAL/MOL
REMARK 922        TOTAL FREE ENERGY PREDICTED BY IDOCK:   -5.64 KCAL/MOL
REMARK 923 INTER-LIGAND FREE ENERGY PREDICTED BY IDOCK:   -6.53 KCAL/MOL
REMARK 924 INTRA-LIGAND FREE ENERGY PREDICTED BY IDOCK:    0.88 KCAL/MOL
REMARK 927      BINDING AFFINITY PREDICTED BY RF-SCORE:    0.00 PKD
ROOT
HETATM    1  C   UNL     1      -9.313  15.551  65.748  1.00  0.00    -0.257 C  
HETATM    2  O   UNL     1      -8.883  14.239  66.130  1.00  0.00     0.016 OA 
ENDROOT
BRANCH   2   3
HETATM    3  C   UNL     1      -8.196  14.187  67.293  1.00  0.00    -0.181 C  
HETATM    4  O   UNL     1      -7.483  15.090  67.715  1.00  0.00    -0.127 OA 
BRANCH   3   5
HETATM    5  C   UNL     1      -8.357  12.864  67.958  1.00  0.00    -0.169 C  
HETATM    6  C   UNL     1      -7.377  11.938  67.836  1.00  0.00    -0.104 C  
HETATM    7  C   UNL     1      -6.026  12.125  67.177  1.00  0.00    -0.143 C  
HETATM    8  N   UNL     1      -7.587  10.658  68.314  1.00  0.00    -0.094 NA 
HETATM    9  C   UNL     1      -8.802  10.157  68.745  1.00  0.00    -0.146 C  
HETATM   10  C   UNL     1      -8.823   8.658  68.942  1.00  0.00    -0.138 C  
HETATM   11  C   UNL     1      -9.860  10.989  68.924  1.00  0.00    -0.189 C  
HETATM   12  C   UNL     1      -9.717  12.502  68.631  1.00  0.00    -0.057 C  
BRANCH  11  13
HETATM   13  C   UNL     1     -11.177  10.403  69.319  1.00  0.00    -0.248 C  
HETATM   14  O   UNL     1     -12.254  10.827  68.920  1.00  0.00    -0.447 OA 
BRANCH  13  15
HETATM   15  O   UNL     1     -11.050   9.408  70.235  1.00  0.00    -0.240 OA 
BRANCH  15  16
HETATM   16  C   UNL     1     -11.839   9.593  71.428  1.00  0.00    -0.406 C  
HETATM   17  C   UNL     1     -12.569   7.153  71.636  1.00  0.00    -0.410 C  
HETATM   18  C   UNL     1     -11.930   8.355  72.331  1.00  0.00    -0.451 C  
HETATM   19  C   UNL     1     -10.569   7.969  72.904  1.00  0.00    -0.399 C  
ENDBRANCH  15  16
ENDBRANCH  13  15
ENDBRANCH  11  13
BRANCH  12  20
HETATM   20  C   UNL     1     -10.870  13.037  67.768  1.00  0.00    -0.257 A  
HETATM   21  O   UNL     1     -10.379  15.332  69.676  1.00  0.00    -0.245 OA 
HETATM   22  C   UNL     1     -11.161  12.372  66.558  1.00  0.00    -0.368 A  
HETATM   23  O   UNL     1     -12.542  15.106  69.956  1.00  0.00    -0.299 OA 
HETATM   24  C   UNL     1     -12.096  12.885  65.657  1.00  0.00    -0.511 A  
HETATM   25  N   UNL     1     -11.491  14.920  69.329  1.00  0.00    -0.285 N  
HETATM   26  C   UNL     1     -11.608  14.207  68.058  1.00  0.00    -0.334 A  
HETATM   27  C   UNL     1     -12.766  14.073  65.938  1.00  0.00    -0.436 A  
HETATM   28  C   UNL     1     -12.534  14.732  67.143  1.00  0.00     0.401 A  
ENDBRANCH  12  20
ENDBRANCH   3   5
ENDBRANCH   2   3
TORSDOF 6
ENDMDL
MODEL      136
REMARK 921   NORMALIZED FREE ENERGY PREDICTED BY IDOCK:   -3.71 KCAL/MOL
REMARK 922        TOTAL FREE ENERGY PREDICTED BY IDOCK:   -5.61 KCAL/MOL
REMARK 923 INTER-LIGAND FREE ENERGY PREDICTED BY IDOCK:   -4.36 KCAL/MOL
REMARK 924 INTRA-LIGAND FREE ENERGY PREDICTED BY IDOCK:   -1.26 KCAL/MOL
REMARK 927      BINDING AFFINITY PREDICTED BY RF-SCORE:    0.00 PKD
ROOT
HETATM    1  C   UNL     1      -9.796  13.635  66.191  1.00  0.00    -0.293 C  
HETATM    2  O   UNL     1      -9.867  12.518  67.086  1.00  0.00    -0.205 OA 
ENDROOT
BRANCH   2   3
HETATM    3  C   UNL     1     -10.231  11.354  66.504  1.00  0.00    -0.221 C  
HETATM    4  O   UNL     1     -10.567  11.242  65.331  1.00  0.00    -0.267 OA 
BRANCH   3   5
HETATM    5  C   UNL     1     -10.245  10.237  67.491  1.00  0.00    -0.254 C  
HETATM    6  C   UNL     1     -11.057  10.318  68.571  1.00  0.00    -0.242 C  
HETATM    7  C   UNL     1     -12.085  11.392  68.858  1.00  0.00    -0.285 C  
HETATM    8  N   UNL     1     -10.959   9.366  69.568  1.00  0.00    -0.212 NA 
HETATM    9  C   UNL     1      -9.956   8.419  69.672  1.00  0.00    -0.193 C  
HETATM   10  C   UNL     1      -9.919   7.693  70.998  1.00  0.00    -0.188 C  
HETATM   11  C   UNL     1      -9.086   8.230  68.647  1.00  0.00    -0.140 C  
HETATM   12  C   UNL     1      -9.203   9.084  67.361  1.00  0.00    -0.158 C  
BRANCH  11  13
HETATM   13  C   UNL     1      -7.970   7.251  68.822  1.00  0.00    -0.123 C  
HETATM   14  O   UNL     1      -7.092   7.369  69.667  1.00  0.00    -0.068 OA 
BRANCH  13  15
HETATM   15  O   UNL     1      -7.989   6.267  67.886  1.00  0.00    -0.108 OA 
BRANCH  15  16
HETATM   16  C   UNL     1      -8.615   5.043  68.322  1.00  0.00    -0.102 C  
HETATM   17  C   UNL     1     -10.326   4.938  66.427  1.00  0.00    -0.328 C  
HETATM   18  C   UNL     1      -9.228   4.202  67.194  1.00  0.00    -0.176 C  
HETATM   19  C   UNL     1      -8.164   3.689  66.226  1.00  0.00    -0.100 C  
ENDBRANCH  15  16
ENDBRANCH  13  15
ENDBRANCH  11  13
BRANCH  12  20
HETATM   20  C   UNL     1      -7.849   9.668  66.929  1.00  0.00    -0.102 A  
HETATM   21  O   UNL     1      -8.818   8.344  64.388  1.00  0.00     0.045 OA 
HETATM   22  C   UNL     1      -7.243  10.634  67.759  1.00  0.00    -0.088 A  
HETATM   23  O   UNL     1      -6.820   7.447  64.503  1.00  0.00    -0.046 OA 
HETATM   24  C   UNL     1      -6.089  11.310  67.360  1.00  0.00    -0.066 A  
HETATM   25  N   UNL     1      -7.659   8.304  64.814  1.00  0.00    -0.097 N  
HETATM   26  C   UNL     1      -7.205   9.368  65.706  1.00  0.00    -0.095 A  
HETATM   27  C   UNL     1      -5.508  11.041  66.124  1.00  0.00    -0.140 A  
HETATM   28  C   UNL     1      -6.055  10.063  65.298  1.00  0.00    -0.104 A  
ENDBRANCH  12  20
ENDBRANCH   3   5
ENDBRANCH   2   3
TORSDOF 6
ENDMDL
MODEL      137
REMARK 921   NORMALIZED FREE ENERGY PREDICTED BY IDOCK:   -3.67 KCAL/MOL
REMARK 922        TOTAL FREE ENERGY PREDICTED BY IDOCK:   -5.56 KCAL/MOL
REMARK 923 INTER-LIGAND FREE ENERGY PREDICTED BY IDOCK:   -4.96 KCAL/MOL
REMARK 924 INTRA-LIGAND FREE ENERGY PREDICTED BY IDOCK:   -0.60 KCAL/MOL
REMARK 927      BINDING AFFINITY PREDICTED BY RF-SCORE:    0.00 PKD
ROOT
HETATM    1  C   UNL     1     -10.616   9.430  67.511  1.00  0.00    -0.267 C  
HETATM    2  O   UNL     1     -10.355  10.809  67.797  1.00  0.00    -0.177 OA 
ENDROOT
BRANCH   2   3
HETATM    3  C   UNL     1      -9.579  11.437  66.886  1.00  0.00    -0.185 C  
HETATM    4  O   UNL     1      -8.413  11.144  66.652  1.00  0.00    -0.153 OA 
BRANCH   3   5
HETATM    5  C   UNL     1     -10.299  12.579  66.257  1.00  0.00    -0.269 C  
HETATM    6  C   UNL     1     -10.675  12.490  64.959  1.00  0.00    -0.294 C  
HETATM    7  C   UNL     1     -10.555  11.279  64.058  1.00  0.00    -0.450 C  
HETATM    8  N   UNL     1     -11.200  13.601  64.326  1.00  0.00    -0.366 NA 
HETATM    9  C   UNL     1     -11.203  14.885  64.839  1.00  0.00    -0.410 C  
HETATM   10  C   UNL     1     -11.569  15.957  63.837  1.00  0.00     0.364 C  
HETATM   11  C   UNL     1     -10.862  15.104  66.135  1.00  0.00    -0.330 C  
HETATM   12  C   UNL     1     -10.452  13.918  67.042  1.00  0.00    -0.278 C  
BRANCH  11  13
HETATM   13  C   UNL     1     -10.805  16.511  66.637  1.00  0.00    -0.053 C  
HETATM   14  O   UNL     1     -11.480  16.925  67.570  1.00  0.00     0.133 OA 
BRANCH  13  15
HETATM   15  O   UNL     1      -9.989  17.298  65.888  1.00  0.00    -0.490 OA 
BRANCH  15  16
HETATM   16  C   UNL     1      -8.593  17.214  66.242  1.00  0.00    -0.241 C  
HETATM   17  C   UNL     1      -8.220  19.735  66.424  1.00  0.00    -0.371 C  
HETATM   18  C   UNL     1      -8.083  18.375  67.107  1.00  0.00    -0.244 C  
HETATM   19  C   UNL     1      -8.759  18.402  68.476  1.00  0.00    -0.336 C  
ENDBRANCH  15  16
ENDBRANCH  13  15
ENDBRANCH  11  13
BRANCH  12  20
HETATM   20  C   UNL     1      -9.157  14.203  67.818  1.00  0.00    -0.190 A  
HETATM   21  O   UNL     1     -11.219  14.082  70.028  1.00  0.00    -0.156 OA 
HETATM   22  C   UNL     1      -7.926  14.011  67.157  1.00  0.00    -0.083 A  
HETATM   23  O   UNL     1     -10.294  16.008  70.524  1.00  0.00    -0.047 OA 
HETATM   24  C   UNL     1      -6.714  14.111  67.841  1.00  0.00    -0.176 A  
HETATM   25  N   UNL     1     -10.304  14.909  69.953  1.00  0.00    -0.102 N  
HETATM   26  C   UNL     1      -9.110  14.563  69.185  1.00  0.00     0.029 A  
HETATM   27  C   UNL     1      -6.696  14.406  69.201  1.00  0.00    -0.117 A  
HETATM   28  C   UNL     1      -7.890  14.645  69.876  1.00  0.00     0.298 A  
ENDBRANCH  12  20
ENDBRANCH   3   5
ENDBRANCH   2   3
TORSDOF 6
ENDMDL
MODEL      138
REMARK 921   NORMALIZED FREE ENERGY PREDICTED BY IDOCK:   -3.63 KCAL/MOL
REMARK 922        TOTAL FREE ENERGY PREDICTED BY IDOCK:   -5.51 KCAL/MOL
REMARK 923 INTER-LIGAND FREE ENERGY PREDICTED BY IDOCK:   -5.78 KCAL/MOL
REMARK 924 INTRA-LIGAND FREE ENERGY PREDICTED BY IDOCK:    0.27 KCAL/MOL
REMARK 927      BINDING AFFINITY PREDICTED BY RF-SCORE:    0.00 PKD
ROOT
HETATM    1  C   UNL     1      -5.681   8.191  70.098  1.00  0.00    -0.022 C  
HETATM    2  O   UNL     1      -6.529   9.210  69.555  1.00  0.00    -0.042 OA 
ENDROOT
BRANCH   2   3
HETATM    3  C   UNL     1      -7.801   8.819  69.323  1.00  0.00    -0.100 C  
HETATM    4  O   UNL     1      -8.145   7.657  69.139  1.00  0.00    -0.121 OA 
BRANCH   3   5
HETATM    5  C   UNL     1      -8.721   9.988  69.243  1.00  0.00    -0.182 C  
HETATM    6  C   UNL     1      -9.809  10.031  70.048  1.00  0.00    -0.197 C  
HETATM    7  C   UNL     1     -10.164   9.055  71.150  1.00  0.00    -0.363 C  
HETATM    8  N   UNL     1     -10.748  11.030  69.869  1.00  0.00    -0.096 NA 
HETATM    9  C   UNL     1     -10.790  11.903  68.798  1.00  0.00    -0.231 C  
HETATM   10  C   UNL     1     -12.070  12.701  68.693  1.00  0.00    -0.144 C  
HETATM   11  C   UNL     1      -9.749  11.968  67.927  1.00  0.00    -0.194 C  
HETATM   12  C   UNL     1      -8.517  11.051  68.120  1.00  0.00    -0.135 C  
BRANCH  11  13
HETATM   13  C   UNL     1      -9.860  12.870  66.740  1.00  0.00    -0.241 C  
HETATM   14  O   UNL     1      -9.110  13.815  66.536  1.00  0.00    -0.223 OA 
BRANCH  13  15
HETATM   15  O   UNL     1     -10.935  12.578  65.963  1.00  0.00    -0.268 OA 
BRANCH  15  16
HETATM   16  C   UNL     1     -11.052  13.393  64.779  1.00  0.00    -0.351 C  
HETATM   17  C   UNL     1     -10.410  11.549  63.130  1.00  0.00    -0.376 C  
HETATM   18  C   UNL     1     -11.432  12.621  63.508  1.00  0.00    -0.557 C  
HETATM   19  C   UNL     1     -12.825  12.006  63.612  1.00  0.00    -0.472 C  
ENDBRANCH  15  16
ENDBRANCH  13  15
ENDBRANCH  11  13
BRANCH  12  20
HETATM   20  C   UNL     1      -8.111  10.345  66.818  1.00  0.00    -0.120 A  
HETATM   21  O   UNL     1     -11.043   9.639  67.044  1.00  0.00    -0.071 OA 
HETATM   22  C   UNL     1      -6.889  10.710  66.214  1.00  0.00    -0.133 A  
HETATM   23  O   UNL     1     -10.225   7.625  66.755  1.00  0.00    -0.267 OA 
HETATM   24  C   UNL     1      -6.526  10.216  64.960  1.00  0.00    -0.126 A  
HETATM   25  N   UNL     1     -10.148   8.860  66.700  1.00  0.00    -0.279 N  
HETATM   26  C   UNL     1      -8.921   9.413  66.130  1.00  0.00    -0.161 A  
HETATM   27  C   UNL     1      -7.370   9.346  64.275  1.00  0.00    -0.109 A  
HETATM   28  C   UNL     1      -8.563   8.932  64.860  1.00  0.00    -0.198 A  
ENDBRANCH  12  20
ENDBRANCH   3   5
ENDBRANCH   2   3
TORSDOF 6
ENDMDL
MODEL      139
REMARK 921   NORMALIZED FREE ENERGY PREDICTED BY IDOCK:   -3.61 KCAL/MOL
REMARK 922        TOTAL FREE ENERGY PREDICTED BY IDOCK:   -5.48 KCAL/MOL
REMARK 923 INTER-LIGAND FREE ENERGY PREDICTED BY IDOCK:   -5.49 KCAL/MOL
REMARK 924 INTRA-LIGAND FREE ENERGY PREDICTED BY IDOCK:    0.01 KCAL/MOL
REMARK 927      BINDING AFFINITY PREDICTED BY RF-SCORE:    0.00 PKD
ROOT
HETATM    1  C   UNL     1      -8.864   7.397  73.082  1.00  0.00    -0.149 C  
HETATM    2  O   UNL     1      -9.645   8.519  72.654  1.00  0.00    -0.280 OA 
ENDROOT
BRANCH   2   3
HETATM    3  C   UNL     1     -10.384   8.300  71.544  1.00  0.00    -0.214 C  
HETATM    4  O   UNL     1     -10.787   7.199  71.188  1.00  0.00    -0.235 OA 
BRANCH   3   5
HETATM    5  C   UNL     1     -10.581   9.557  70.769  1.00  0.00    -0.387 C  
HETATM    6  C   UNL     1     -11.834  10.045  70.606  1.00  0.00    -0.325 C  
HETATM    7  C   UNL     1     -13.105   9.517  71.237  1.00  0.00    -0.402 C  
HETATM    8  N   UNL     1     -12.041  11.117  69.759  1.00  0.00    -0.337 NA 
HETATM    9  C   UNL     1     -11.104  11.638  68.886  1.00  0.00    -0.232 C  
HETATM   10  C   UNL     1     -11.665  12.611  67.874  1.00  0.00    -0.412 C  
HETATM   11  C   UNL     1      -9.806  11.241  68.960  1.00  0.00    -0.101 C  
HETATM   12  C   UNL     1      -9.374  10.191  70.012  1.00  0.00    -0.062 C  
BRANCH  11  13
HETATM   13  C   UNL     1      -8.835  11.768  67.954  1.00  0.00    -0.165 C  
HETATM   14  O   UNL     1      -8.692  11.291  66.836  1.00  0.00    -0.147 OA 
BRANCH  13  15
HETATM   15  O   UNL     1      -8.070  12.776  68.448  1.00  0.00    -0.149 OA 
BRANCH  15  16
HETATM   16  C   UNL     1      -7.282  13.466  67.456  1.00  0.00    -0.153 C  
HETATM   17  C   UNL     1      -9.103  15.131  66.792  1.00  0.00    -0.282 C  
HETATM   18  C   UNL     1      -7.659  14.940  67.254  1.00  0.00    -0.213 C  
HETATM   19  C   UNL     1      -7.393  15.771  68.507  1.00  0.00    -0.124 C  
ENDBRANCH  15  16
ENDBRANCH  13  15
ENDBRANCH  11  13
BRANCH  12  20
HETATM   20  C   UNL     1      -8.515   9.075  69.397  1.00  0.00    -0.117 A  
HETATM   21  O   UNL     1     -10.937   9.094  67.586  1.00  0.00    -0.173 OA 
HETATM   22  C   UNL     1      -7.160   8.989  69.780  1.00  0.00    -0.055 A  
HETATM   23  O   UNL     1     -10.886   6.955  68.071  1.00  0.00    -0.222 OA 
HETATM   24  C   UNL     1      -6.288   8.094  69.157  1.00  0.00    -0.039 A  
HETATM   25  N   UNL     1     -10.370   8.079  68.005  1.00  0.00    -0.210 N  
HETATM   26  C   UNL     1      -8.967   8.177  68.403  1.00  0.00    -0.136 A  
HETATM   27  C   UNL     1      -6.743   7.263  68.137  1.00  0.00    -0.058 A  
HETATM   28  C   UNL     1      -8.084   7.291  67.765  1.00  0.00    -0.115 A  
ENDBRANCH  12  20
ENDBRANCH   3   5
ENDBRANCH   2   3
TORSDOF 6
ENDMDL
MODEL      140
REMARK 921   NORMALIZED FREE ENERGY PREDICTED BY IDOCK:   -3.61 KCAL/MOL
REMARK 922        TOTAL FREE ENERGY PREDICTED BY IDOCK:   -5.48 KCAL/MOL
REMARK 923 INTER-LIGAND FREE ENERGY PREDICTED BY IDOCK:   -5.72 KCAL/MOL
REMARK 924 INTRA-LIGAND FREE ENERGY PREDICTED BY IDOCK:    0.24 KCAL/MOL
REMARK 927      BINDING AFFINITY PREDICTED BY RF-SCORE:    0.00 PKD
ROOT
HETATM    1  C   UNL     1      -5.583  10.022  64.079  1.00  0.00    -0.112 C  
HETATM    2  O   UNL     1      -6.634   9.956  65.050  1.00  0.00    -0.096 OA 
ENDROOT
BRANCH   2   3
HETATM    3  C   UNL     1      -6.415  10.683  66.167  1.00  0.00    -0.131 C  
HETATM    4  O   UNL     1      -5.733  11.701  66.207  1.00  0.00    -0.225 OA 
BRANCH   3   5
HETATM    5  C   UNL     1      -7.046  10.049  67.358  1.00  0.00    -0.084 C  
HETATM    6  C   UNL     1      -6.596   8.845  67.784  1.00  0.00    -0.061 C  
HETATM    7  C   UNL     1      -5.403   8.080  67.251  1.00  0.00    -0.036 C  
HETATM    8  N   UNL     1      -7.277   8.179  68.785  1.00  0.00    -0.081 NA 
HETATM    9  C   UNL     1      -8.517   8.537  69.281  1.00  0.00    -0.128 C  
HETATM   10  C   UNL     1      -9.165   7.489  70.158  1.00  0.00    -0.154 C  
HETATM   11  C   UNL     1      -9.071   9.731  68.942  1.00  0.00    -0.148 C  
HETATM   12  C   UNL     1      -8.322  10.690  67.986  1.00  0.00    -0.118 C  
BRANCH  11  13
HETATM   13  C   UNL     1     -10.444  10.053  69.436  1.00  0.00    -0.232 C  
HETATM   14  O   UNL     1     -10.950  11.164  69.352  1.00  0.00    -0.238 OA 
BRANCH  13  15
HETATM   15  O   UNL     1     -11.031   9.002  70.064  1.00  0.00    -0.235 OA 
BRANCH  15  16
HETATM   16  C   UNL     1     -12.030   9.372  71.036  1.00  0.00    -0.315 C  
HETATM   17  C   UNL     1     -13.093   7.054  71.211  1.00  0.00    -0.329 C  
HETATM   18  C   UNL     1     -12.472   8.231  71.963  1.00  0.00    -0.393 C  
HETATM   19  C   UNL     1     -11.328   7.744  72.850  1.00  0.00    -0.406 C  
ENDBRANCH  15  16
ENDBRANCH  13  15
ENDBRANCH  11  13
BRANCH  12  20
HETATM   20  C   UNL     1      -9.231  11.217  66.865  1.00  0.00    -0.179 A  
HETATM   21  O   UNL     1      -7.813  13.729  67.774  1.00  0.00    -0.140 OA 
HETATM   22  C   UNL     1      -9.813  10.281  65.983  1.00  0.00    -0.292 A  
HETATM   23  O   UNL     1      -9.884  14.441  67.886  1.00  0.00    -0.217 OA 
HETATM   24  C   UNL     1     -10.530  10.695  64.860  1.00  0.00    -0.282 A  
HETATM   25  N   UNL     1      -9.015  13.650  67.497  1.00  0.00    -0.198 N  
HETATM   26  C   UNL     1      -9.457  12.586  66.598  1.00  0.00    -0.242 A  
HETATM   27  C   UNL     1     -10.687  12.051  64.584  1.00  0.00    -0.355 A  
HETATM   28  C   UNL     1     -10.162  13.001  65.457  1.00  0.00    -0.296 A  
ENDBRANCH  12  20
ENDBRANCH   3   5
ENDBRANCH   2   3
TORSDOF 6
ENDMDL
MODEL      141
REMARK 921   NORMALIZED FREE ENERGY PREDICTED BY IDOCK:   -3.60 KCAL/MOL
REMARK 922        TOTAL FREE ENERGY PREDICTED BY IDOCK:   -5.46 KCAL/MOL
REMARK 923 INTER-LIGAND FREE ENERGY PREDICTED BY IDOCK:   -5.83 KCAL/MOL
REMARK 924 INTRA-LIGAND FREE ENERGY PREDICTED BY IDOCK:    0.37 KCAL/MOL
REMARK 927      BINDING AFFINITY PREDICTED BY RF-SCORE:    0.00 PKD
ROOT
HETATM    1  C   UNL     1      -7.473  19.305  68.068  1.00  0.00    -0.277 C  
HETATM    2  O   UNL     1      -8.483  18.431  67.550  1.00  0.00    -0.250 OA 
ENDROOT
BRANCH   2   3
HETATM    3  C   UNL     1      -8.134  17.771  66.423  1.00  0.00    -0.261 C  
HETATM    4  O   UNL     1      -7.150  18.038  65.743  1.00  0.00    -0.431 OA 
BRANCH   3   5
HETATM    5  C   UNL     1      -9.138  16.728  66.073  1.00  0.00    -0.226 C  
HETATM    6  C   UNL     1     -10.391  17.106  65.724  1.00  0.00    -0.240 C  
HETATM    7  C   UNL     1     -10.891  18.521  65.522  1.00  0.00     0.138 C  
HETATM    8  N   UNL     1     -11.368  16.144  65.553  1.00  0.00     0.089 NA 
HETATM    9  C   UNL     1     -11.245  14.811  65.900  1.00  0.00    -0.340 C  
HETATM   10  C   UNL     1     -12.545  14.038  65.880  1.00  0.00    -0.484 C  
HETATM   11  C   UNL     1     -10.035  14.305  66.253  1.00  0.00    -0.319 C  
HETATM   12  C   UNL     1      -8.789  15.223  66.285  1.00  0.00    -0.262 C  
BRANCH  11  13
HETATM   13  C   UNL     1      -9.951  12.879  66.692  1.00  0.00    -0.251 C  
HETATM   14  O   UNL     1     -10.320  12.486  67.790  1.00  0.00    -0.213 OA 
BRANCH  13  15
HETATM   15  O   UNL     1      -9.342  12.086  65.772  1.00  0.00    -0.215 OA 
BRANCH  15  16
HETATM   16  C   UNL     1     -10.092  10.907  65.413  1.00  0.00    -0.277 C  
HETATM   17  C   UNL     1     -11.353  11.985  63.469  1.00  0.00    -0.528 C  
HETATM   18  C   UNL     1     -10.475  10.822  63.929  1.00  0.00    -0.251 C  
HETATM   19  C   UNL     1      -9.246  10.705  63.031  1.00  0.00    -0.311 C  
ENDBRANCH  15  16
ENDBRANCH  13  15
ENDBRANCH  11  13
BRANCH  12  20
HETATM   20  C   UNL     1      -7.986  15.064  67.585  1.00  0.00    -0.178 A  
HETATM   21  O   UNL     1     -10.805  15.439  68.613  1.00  0.00    -0.241 OA 
HETATM   22  C   UNL     1      -6.674  14.551  67.500  1.00  0.00    -0.141 A  
HETATM   23  O   UNL     1      -9.793  16.970  69.815  1.00  0.00     0.103 OA 
HETATM   24  C   UNL     1      -5.941  14.246  68.648  1.00  0.00    -0.085 A  
HETATM   25  N   UNL     1      -9.795  15.959  69.100  1.00  0.00    -0.231 N  
HETATM   26  C   UNL     1      -8.501  15.315  68.876  1.00  0.00    -0.202 A  
HETATM   27  C   UNL     1      -6.495  14.444  69.910  1.00  0.00    -0.152 A  
HETATM   28  C   UNL     1      -7.770  14.990  70.030  1.00  0.00     0.205 A  
ENDBRANCH  12  20
ENDBRANCH   3   5
ENDBRANCH   2   3
TORSDOF 6
ENDMDL
MODEL      142
REMARK 921   NORMALIZED FREE ENERGY PREDICTED BY IDOCK:   -3.60 KCAL/MOL
REMARK 922        TOTAL FREE ENERGY PREDICTED BY IDOCK:   -5.46 KCAL/MOL
REMARK 923 INTER-LIGAND FREE ENERGY PREDICTED BY IDOCK:   -3.99 KCAL/MOL
REMARK 924 INTRA-LIGAND FREE ENERGY PREDICTED BY IDOCK:   -1.48 KCAL/MOL
REMARK 927      BINDING AFFINITY PREDICTED BY RF-SCORE:    0.00 PKD
ROOT
HETATM    1  C   UNL     1     -11.874  11.863  69.930  1.00  0.00    -0.343 C  
HETATM    2  O   UNL     1     -11.010  10.722  69.988  1.00  0.00    -0.271 OA 
ENDROOT
BRANCH   2   3
HETATM    3  C   UNL     1     -10.999   9.967  68.867  1.00  0.00    -0.207 C  
HETATM    4  O   UNL     1     -11.627  10.231  67.849  1.00  0.00    -0.338 OA 
BRANCH   3   5
HETATM    5  C   UNL     1     -10.185   8.733  69.054  1.00  0.00    -0.218 C  
HETATM    6  C   UNL     1     -10.508   7.871  70.047  1.00  0.00    -0.231 C  
HETATM    7  C   UNL     1     -11.715   7.944  70.958  1.00  0.00    -0.293 C  
HETATM    8  N   UNL     1      -9.667   6.811  70.327  1.00  0.00    -0.172 NA 
HETATM    9  C   UNL     1      -8.395   6.643  69.811  1.00  0.00    -0.132 C  
HETATM   10  C   UNL     1      -7.582   5.566  70.492  1.00  0.00    -0.084 C  
HETATM   11  C   UNL     1      -7.958   7.436  68.798  1.00  0.00    -0.123 C  
HETATM   12  C   UNL     1      -8.877   8.543  68.226  1.00  0.00    -0.142 C  
BRANCH  11  13
HETATM   13  C   UNL     1      -6.552   7.276  68.314  1.00  0.00    -0.049 C  
HETATM   14  O   UNL     1      -5.587   7.800  68.854  1.00  0.00    -0.025 OA 
BRANCH  13  15
HETATM   15  O   UNL     1      -6.477   6.559  67.163  1.00  0.00    -0.039 OA 
BRANCH  15  16
HETATM   16  C   UNL     1      -6.074   7.326  66.010  1.00  0.00    -0.037 C  
HETATM   17  C   UNL     1      -5.752   5.318  64.462  1.00  0.00    -0.017 C  
HETATM   18  C   UNL     1      -6.419   6.678  64.661  1.00  0.00    -0.042 C  
HETATM   19  C   UNL     1      -7.927   6.561  64.456  1.00  0.00    -0.110 C  
ENDBRANCH  15  16
ENDBRANCH  13  15
ENDBRANCH  11  13
BRANCH  12  20
HETATM   20  C   UNL     1      -8.151   9.891  68.103  1.00  0.00    -0.104 A  
HETATM   21  O   UNL     1      -9.615   9.706  65.463  1.00  0.00    -0.249 OA 
HETATM   22  C   UNL     1      -7.619  10.472  69.274  1.00  0.00    -0.134 A  
HETATM   23  O   UNL     1      -7.600  10.134  64.711  1.00  0.00    -0.141 OA 
HETATM   24  C   UNL     1      -7.075  11.757  69.261  1.00  0.00    -0.032 A  
HETATM   25  N   UNL     1      -8.454  10.104  65.606  1.00  0.00    -0.147 N  
HETATM   26  C   UNL     1      -8.054  10.638  66.907  1.00  0.00    -0.124 A  
HETATM   27  C   UNL     1      -7.048  12.498  68.082  1.00  0.00    -0.103 A  
HETATM   28  C   UNL     1      -7.525  11.939  66.900  1.00  0.00    -0.079 A  
ENDBRANCH  12  20
ENDBRANCH   3   5
ENDBRANCH   2   3
TORSDOF 6
ENDMDL
MODEL      143
REMARK 921   NORMALIZED FREE ENERGY PREDICTED BY IDOCK:   -3.59 KCAL/MOL
REMARK 922        TOTAL FREE ENERGY PREDICTED BY IDOCK:   -5.46 KCAL/MOL
REMARK 923 INTER-LIGAND FREE ENERGY PREDICTED BY IDOCK:   -5.34 KCAL/MOL
REMARK 924 INTRA-LIGAND FREE ENERGY PREDICTED BY IDOCK:   -0.12 KCAL/MOL
REMARK 927      BINDING AFFINITY PREDICTED BY RF-SCORE:    0.00 PKD
ROOT
HETATM    1  C   UNL     1     -11.841  11.661  70.174  1.00  0.00    -0.344 C  
HETATM    2  O   UNL     1     -12.159  10.284  69.942  1.00  0.00    -0.206 OA 
ENDROOT
BRANCH   2   3
HETATM    3  C   UNL     1     -11.487   9.411  70.725  1.00  0.00    -0.300 C  
HETATM    4  O   UNL     1     -11.199   9.615  71.898  1.00  0.00    -0.242 OA 
BRANCH   3   5
HETATM    5  C   UNL     1     -11.076   8.202  69.958  1.00  0.00    -0.146 C  
HETATM    6  C   UNL     1     -11.461   6.979  70.394  1.00  0.00    -0.310 C  
HETATM    7  C   UNL     1     -12.394   6.677  71.547  1.00  0.00    -0.365 C  
HETATM    8  N   UNL     1     -10.954   5.848  69.782  1.00  0.00    -0.378 NA 
HETATM    9  C   UNL     1      -9.916   5.833  68.868  1.00  0.00    -0.161 C  
HETATM   10  C   UNL     1      -9.365   4.456  68.573  1.00  0.00    -0.203 C  
HETATM   11  C   UNL     1      -9.450   6.996  68.342  1.00  0.00    -0.133 C  
HETATM   12  C   UNL     1     -10.070   8.347  68.775  1.00  0.00    -0.209 C  
BRANCH  11  13
HETATM   13  C   UNL     1      -8.279   6.948  67.415  1.00  0.00    -0.119 C  
HETATM   14  O   UNL     1      -7.165   6.569  67.750  1.00  0.00    -0.085 OA 
BRANCH  13  15
HETATM   15  O   UNL     1      -8.568   7.452  66.186  1.00  0.00    -0.133 OA 
BRANCH  15  16
HETATM   16  C   UNL     1      -7.680   8.501  65.751  1.00  0.00    -0.098 C  
HETATM   17  C   UNL     1      -8.253   8.312  63.268  1.00  0.00    -0.095 C  
HETATM   18  C   UNL     1      -8.133   9.234  64.480  1.00  0.00    -0.139 C  
HETATM   19  C   UNL     1      -9.441   9.991  64.697  1.00  0.00    -0.367 C  
ENDBRANCH  15  16
ENDBRANCH  13  15
ENDBRANCH  11  13
BRANCH  12  20
HETATM   20  C   UNL     1      -8.998   9.384  69.144  1.00  0.00    -0.147 A  
HETATM   21  O   UNL     1      -8.205   7.010  70.842  1.00  0.00    -0.118 OA 
HETATM   22  C   UNL     1      -8.849  10.514  68.311  1.00  0.00    -0.139 A  
HETATM   23  O   UNL     1      -8.244   8.553  72.401  1.00  0.00    -0.266 OA 
HETATM   24  C   UNL     1      -7.805  11.420  68.502  1.00  0.00    -0.140 A  
HETATM   25  N   UNL     1      -8.202   8.187  71.219  1.00  0.00    -0.107 N  
HETATM   26  C   UNL     1      -8.085   9.242  70.213  1.00  0.00    -0.154 A  
HETATM   27  C   UNL     1      -6.882  11.225  69.525  1.00  0.00    -0.115 A  
HETATM   28  C   UNL     1      -7.024  10.144  70.392  1.00  0.00    -0.119 A  
ENDBRANCH  12  20
ENDBRANCH   3   5
ENDBRANCH   2   3
TORSDOF 6
ENDMDL
MODEL      144
REMARK 921   NORMALIZED FREE ENERGY PREDICTED BY IDOCK:   -3.58 KCAL/MOL
REMARK 922        TOTAL FREE ENERGY PREDICTED BY IDOCK:   -5.45 KCAL/MOL
REMARK 923 INTER-LIGAND FREE ENERGY PREDICTED BY IDOCK:   -4.32 KCAL/MOL
REMARK 924 INTRA-LIGAND FREE ENERGY PREDICTED BY IDOCK:   -1.13 KCAL/MOL
REMARK 927      BINDING AFFINITY PREDICTED BY RF-SCORE:    0.00 PKD
ROOT
HETATM    1  C   UNL     1     -10.236   6.361  74.408  1.00  0.00    -0.324 C  
HETATM    2  O   UNL     1      -9.297   7.110  73.629  1.00  0.00    -0.172 OA 
ENDROOT
BRANCH   2   3
HETATM    3  C   UNL     1      -8.338   6.366  73.034  1.00  0.00    -0.116 C  
HETATM    4  O   UNL     1      -7.147   6.420  73.316  1.00  0.00    -0.081 OA 
BRANCH   3   5
HETATM    5  C   UNL     1      -8.904   5.526  71.941  1.00  0.00    -0.139 C  
HETATM    6  C   UNL     1      -8.732   4.184  71.981  1.00  0.00    -0.106 C  
HETATM    7  C   UNL     1      -8.112   3.379  73.103  1.00  0.00    -0.074 C  
HETATM    8  N   UNL     1      -9.114   3.418  70.896  1.00  0.00    -0.102 NA 
HETATM    9  C   UNL     1      -9.487   3.913  69.660  1.00  0.00    -0.193 C  
HETATM   10  C   UNL     1      -9.576   2.870  68.569  1.00  0.00    -0.096 C  
HETATM   11  C   UNL     1      -9.707   5.244  69.495  1.00  0.00    -0.246 C  
HETATM   12  C   UNL     1      -9.525   6.215  70.687  1.00  0.00    -0.185 C  
BRANCH  11  13
HETATM   13  C   UNL     1     -10.036   5.755  68.130  1.00  0.00    -0.165 C  
HETATM   14  O   UNL     1     -11.132   6.205  67.822  1.00  0.00    -0.326 OA 
BRANCH  13  15
HETATM   15  O   UNL     1      -9.016   5.584  67.249  1.00  0.00    -0.113 OA 
BRANCH  15  16
HETATM   16  C   UNL     1      -9.432   5.191  65.926  1.00  0.00    -0.156 C  
HETATM   17  C   UNL     1      -7.679   6.572  64.682  1.00  0.00    -0.108 C  
HETATM   18  C   UNL     1      -8.311   5.195  64.877  1.00  0.00    -0.145 C  
HETATM   19  C   UNL     1      -7.233   4.161  65.193  1.00  0.00    -0.071 C  
ENDBRANCH  15  16
ENDBRANCH  13  15
ENDBRANCH  11  13
BRANCH  12  20
HETATM   20  C   UNL     1      -8.683   7.443  70.311  1.00  0.00    -0.146 A  
HETATM   21  O   UNL     1     -11.121   8.702  71.583  1.00  0.00    -0.261 OA 
HETATM   22  C   UNL     1      -7.325   7.245  69.982  1.00  0.00    -0.083 A  
HETATM   23  O   UNL     1     -11.085   9.838  69.707  1.00  0.00    -0.239 OA 
HETATM   24  C   UNL     1      -6.467   8.326  69.771  1.00  0.00    -0.036 A  
HETATM   25  N   UNL     1     -10.559   9.112  70.561  1.00  0.00    -0.217 N  
HETATM   26  C   UNL     1      -9.152   8.776  70.355  1.00  0.00    -0.176 A  
HETATM   27  C   UNL     1      -6.939   9.631  69.881  1.00  0.00    -0.081 A  
HETATM   28  C   UNL     1      -8.283   9.862  70.161  1.00  0.00    -0.162 A  
ENDBRANCH  12  20
ENDBRANCH   3   5
ENDBRANCH   2   3
TORSDOF 6
ENDMDL
MODEL      145
REMARK 921   NORMALIZED FREE ENERGY PREDICTED BY IDOCK:   -3.56 KCAL/MOL
REMARK 922        TOTAL FREE ENERGY PREDICTED BY IDOCK:   -5.41 KCAL/MOL
REMARK 923 INTER-LIGAND FREE ENERGY PREDICTED BY IDOCK:   -5.23 KCAL/MOL
REMARK 924 INTRA-LIGAND FREE ENERGY PREDICTED BY IDOCK:   -0.18 KCAL/MOL
REMARK 927      BINDING AFFINITY PREDICTED BY RF-SCORE:    0.00 PKD
ROOT
HETATM    1  C   UNL     1      -8.499   8.049  73.039  1.00  0.00    -0.193 C  
HETATM    2  O   UNL     1      -8.890   9.072  72.116  1.00  0.00    -0.376 OA 
ENDROOT
BRANCH   2   3
HETATM    3  C   UNL     1     -10.004   8.791  71.403  1.00  0.00    -0.283 C  
HETATM    4  O   UNL     1     -10.832   7.945  71.718  1.00  0.00    -0.226 OA 
BRANCH   3   5
HETATM    5  C   UNL     1     -10.056   9.589  70.146  1.00  0.00    -0.293 C  
HETATM    6  C   UNL     1     -11.189  10.264  69.837  1.00  0.00    -0.299 C  
HETATM    7  C   UNL     1     -12.424  10.412  70.701  1.00  0.00    -0.437 C  
HETATM    8  N   UNL     1     -11.302  10.874  68.602  1.00  0.00    -0.272 NA 
HETATM    9  C   UNL     1     -10.429  10.701  67.544  1.00  0.00    -0.230 C  
HETATM   10  C   UNL     1     -10.931  11.245  66.225  1.00  0.00    -0.265 C  
HETATM   11  C   UNL     1      -9.249  10.054  67.730  1.00  0.00    -0.143 C  
HETATM   12  C   UNL     1      -8.881   9.494  69.125  1.00  0.00    -0.147 C  
BRANCH  11  13
HETATM   13  C   UNL     1      -8.363   9.820  66.549  1.00  0.00    -0.124 C  
HETATM   14  O   UNL     1      -7.435  10.557  66.241  1.00  0.00    -0.120 OA 
BRANCH  13  15
HETATM   15  O   UNL     1      -8.755   8.751  65.808  1.00  0.00    -0.157 OA 
BRANCH  15  16
HETATM   16  C   UNL     1      -7.994   8.553  64.599  1.00  0.00    -0.143 C  
HETATM   17  C   UNL     1      -6.131   7.184  65.688  1.00  0.00    -0.037 C  
HETATM   18  C   UNL     1      -7.169   7.259  64.569  1.00  0.00    -0.070 C  
HETATM   19  C   UNL     1      -8.058   6.018  64.593  1.00  0.00    -0.132 C  
ENDBRANCH  15  16
ENDBRANCH  13  15
ENDBRANCH  11  13
BRANCH  12  20
HETATM   20  C   UNL     1      -8.385   8.042  69.054  1.00  0.00    -0.129 A  
HETATM   21  O   UNL     1     -11.013   7.895  67.566  1.00  0.00    -0.141 OA 
HETATM   22  C   UNL     1      -7.032   7.784  69.364  1.00  0.00    -0.063 A  
HETATM   23  O   UNL     1     -11.326   6.251  68.982  1.00  0.00    -0.390 OA 
HETATM   24  C   UNL     1      -6.478   6.516  69.182  1.00  0.00    -0.040 A  
HETATM   25  N   UNL     1     -10.607   7.057  68.377  1.00  0.00    -0.207 N  
HETATM   26  C   UNL     1      -9.168   6.952  68.613  1.00  0.00    -0.130 A  
HETATM   27  C   UNL     1      -7.256   5.472  68.688  1.00  0.00    -0.074 A  
HETATM   28  C   UNL     1      -8.605   5.681  68.413  1.00  0.00    -0.111 A  
ENDBRANCH  12  20
ENDBRANCH   3   5
ENDBRANCH   2   3
TORSDOF 6
ENDMDL
MODEL      146
REMARK 921   NORMALIZED FREE ENERGY PREDICTED BY IDOCK:   -3.56 KCAL/MOL
REMARK 922        TOTAL FREE ENERGY PREDICTED BY IDOCK:   -5.41 KCAL/MOL
REMARK 923 INTER-LIGAND FREE ENERGY PREDICTED BY IDOCK:   -5.54 KCAL/MOL
REMARK 924 INTRA-LIGAND FREE ENERGY PREDICTED BY IDOCK:    0.13 KCAL/MOL
REMARK 927      BINDING AFFINITY PREDICTED BY RF-SCORE:    0.00 PKD
ROOT
HETATM    1  C   UNL     1      -6.394   8.311  69.936  1.00  0.00    -0.032 C  
HETATM    2  O   UNL     1      -7.406   9.263  70.284  1.00  0.00    -0.072 OA 
ENDROOT
BRANCH   2   3
HETATM    3  C   UNL     1      -8.615   9.028  69.728  1.00  0.00    -0.138 C  
HETATM    4  O   UNL     1      -9.038   7.916  69.436  1.00  0.00    -0.145 OA 
BRANCH   3   5
HETATM    5  C   UNL     1      -9.337  10.300  69.446  1.00  0.00    -0.217 C  
HETATM    6  C   UNL     1     -10.561  10.502  69.989  1.00  0.00    -0.169 C  
HETATM    7  C   UNL     1     -11.272   9.610  70.984  1.00  0.00    -0.445 C  
HETATM    8  N   UNL     1     -11.302  11.604  69.606  1.00  0.00    -0.258 NA 
HETATM    9  C   UNL     1     -10.995  12.445  68.552  1.00  0.00    -0.245 C  
HETATM   10  C   UNL     1     -12.108  13.393  68.165  1.00  0.00    -0.267 C  
HETATM   11  C   UNL     1      -9.789  12.354  67.933  1.00  0.00    -0.202 C  
HETATM   12  C   UNL     1      -8.757  11.297  68.396  1.00  0.00    -0.159 C  
BRANCH  11  13
HETATM   13  C   UNL     1      -9.519  13.228  66.751  1.00  0.00    -0.257 C  
HETATM   14  O   UNL     1     -10.053  13.076  65.661  1.00  0.00    -0.279 OA 
BRANCH  13  15
HETATM   15  O   UNL     1      -8.554  14.152  66.996  1.00  0.00    -0.215 OA 
BRANCH  15  16
HETATM   16  C   UNL     1      -8.998  15.285  67.770  1.00  0.00    -0.177 C  
HETATM   17  C   UNL     1      -7.903  17.056  66.287  1.00  0.00    -0.346 C  
HETATM   18  C   UNL     1      -9.189  16.575  66.960  1.00  0.00    -0.233 C  
HETATM   19  C   UNL     1     -10.304  16.437  65.926  1.00  0.00    -0.378 C  
ENDBRANCH  15  16
ENDBRANCH  13  15
ENDBRANCH  11  13
BRANCH  12  20
HETATM   20  C   UNL     1      -8.168  10.508  67.216  1.00  0.00    -0.119 A  
HETATM   21  O   UNL     1     -11.144  10.209  66.767  1.00  0.00    -0.059 OA 
HETATM   22  C   UNL     1      -6.803  10.690  66.907  1.00  0.00    -0.099 A  
HETATM   23  O   UNL     1     -10.564   8.096  66.662  1.00  0.00    -0.272 OA 
HETATM   24  C   UNL     1      -6.237  10.119  65.766  1.00  0.00    -0.100 A  
HETATM   25  N   UNL     1     -10.309   9.307  66.632  1.00  0.00    -0.248 N  
HETATM   26  C   UNL     1      -8.921   9.675  66.358  1.00  0.00    -0.152 A  
HETATM   27  C   UNL     1      -7.016   9.352  64.903  1.00  0.00    -0.097 A  
HETATM   28  C   UNL     1      -8.355   9.117  65.200  1.00  0.00    -0.160 A  
ENDBRANCH  12  20
ENDBRANCH   3   5
ENDBRANCH   2   3
TORSDOF 6
ENDMDL
MODEL      147
REMARK 921   NORMALIZED FREE ENERGY PREDICTED BY IDOCK:   -3.51 KCAL/MOL
REMARK 922        TOTAL FREE ENERGY PREDICTED BY IDOCK:   -5.35 KCAL/MOL
REMARK 923 INTER-LIGAND FREE ENERGY PREDICTED BY IDOCK:   -5.57 KCAL/MOL
REMARK 924 INTRA-LIGAND FREE ENERGY PREDICTED BY IDOCK:    0.22 KCAL/MOL
REMARK 927      BINDING AFFINITY PREDICTED BY RF-SCORE:    0.00 PKD
ROOT
HETATM    1  C   UNL     1      -7.613   7.361  64.208  1.00  0.00    -0.112 C  
HETATM    2  O   UNL     1      -8.763   8.211  64.281  1.00  0.00     0.079 OA 
ENDROOT
BRANCH   2   3
HETATM    3  C   UNL     1      -8.497   9.490  64.625  1.00  0.00    -0.166 C  
HETATM    4  O   UNL     1      -7.517  10.119  64.243  1.00  0.00    -0.138 OA 
BRANCH   3   5
HETATM    5  C   UNL     1      -9.506  10.013  65.588  1.00  0.00    -0.278 C  
HETATM    6  C   UNL     1     -10.184  11.146  65.287  1.00  0.00    -0.280 C  
HETATM    7  C   UNL     1     -10.128  11.921  63.988  1.00  0.00    -0.361 C  
HETATM    8  N   UNL     1     -11.002  11.722  66.241  1.00  0.00    -0.290 NA 
HETATM    9  C   UNL     1     -11.055  11.358  67.574  1.00  0.00    -0.281 C  
HETATM   10  C   UNL     1     -11.810  12.326  68.456  1.00  0.00    -0.359 C  
HETATM   11  C   UNL     1     -10.429  10.229  67.999  1.00  0.00    -0.234 C  
HETATM   12  C   UNL     1      -9.640   9.353  66.995  1.00  0.00    -0.209 C  
BRANCH  11  13
HETATM   13  C   UNL     1     -10.445   9.904  69.458  1.00  0.00    -0.241 C  
HETATM   14  O   UNL     1      -9.503  10.120  70.209  1.00  0.00    -0.096 OA 
BRANCH  13  15
HETATM   15  O   UNL     1     -11.582   9.266  69.837  1.00  0.00    -0.074 OA 
BRANCH  15  16
HETATM   16  C   UNL     1     -12.151   9.748  71.071  1.00  0.00    -0.346 C  
HETATM   17  C   UNL     1     -13.491   7.633  71.582  1.00  0.00    -0.415 C  
HETATM   18  C   UNL     1     -12.474   8.651  72.096  1.00  0.00    -0.453 C  
HETATM   19  C   UNL     1     -11.214   7.939  72.581  1.00  0.00    -0.459 C  
ENDBRANCH  15  16
ENDBRANCH  13  15
ENDBRANCH  11  13
BRANCH  12  20
HETATM   20  C   UNL     1      -8.244   8.986  67.520  1.00  0.00    -0.109 A  
HETATM   21  O   UNL     1      -8.272  11.995  67.821  1.00  0.00    -0.133 OA 
HETATM   22  C   UNL     1      -7.984   7.635  67.835  1.00  0.00    -0.118 A  
HETATM   23  O   UNL     1      -6.388  11.776  66.719  1.00  0.00    -0.144 OA 
HETATM   24  C   UNL     1      -6.791   7.253  68.450  1.00  0.00    -0.073 A  
HETATM   25  N   UNL     1      -7.316  11.330  67.407  1.00  0.00    -0.108 N  
HETATM   26  C   UNL     1      -7.223   9.924  67.795  1.00  0.00    -0.088 A  
HETATM   27  C   UNL     1      -5.825   8.204  68.767  1.00  0.00    -0.043 A  
HETATM   28  C   UNL     1      -6.031   9.540  68.431  1.00  0.00    -0.044 A  
ENDBRANCH  12  20
ENDBRANCH   3   5
ENDBRANCH   2   3
TORSDOF 6
ENDMDL
MODEL      148
REMARK 921   NORMALIZED FREE ENERGY PREDICTED BY IDOCK:   -3.50 KCAL/MOL
REMARK 922        TOTAL FREE ENERGY PREDICTED BY IDOCK:   -5.34 KCAL/MOL
REMARK 923 INTER-LIGAND FREE ENERGY PREDICTED BY IDOCK:   -5.70 KCAL/MOL
REMARK 924 INTRA-LIGAND FREE ENERGY PREDICTED BY IDOCK:    0.37 KCAL/MOL
REMARK 927      BINDING AFFINITY PREDICTED BY RF-SCORE:    0.00 PKD
ROOT
HETATM    1  C   UNL     1     -12.408  12.687  65.432  1.00  0.00    -0.436 C  
HETATM    2  O   UNL     1     -11.925  11.702  66.353  1.00  0.00    -0.433 OA 
ENDROOT
BRANCH   2   3
HETATM    3  C   UNL     1     -10.695  11.219  66.068  1.00  0.00    -0.242 C  
HETATM    4  O   UNL     1     -10.376  10.735  64.990  1.00  0.00    -0.302 OA 
BRANCH   3   5
HETATM    5  C   UNL     1      -9.800  11.283  67.258  1.00  0.00    -0.203 C  
HETATM    6  C   UNL     1      -8.987  12.353  67.418  1.00  0.00    -0.185 C  
HETATM    7  C   UNL     1      -8.953  13.605  66.567  1.00  0.00    -0.068 C  
HETATM    8  N   UNL     1      -8.044  12.345  68.429  1.00  0.00    -0.157 NA 
HETATM    9  C   UNL     1      -7.705  11.246  69.195  1.00  0.00    -0.046 C  
HETATM   10  C   UNL     1      -6.453  11.425  70.025  1.00  0.00    -0.094 C  
HETATM   11  C   UNL     1      -8.454  10.114  69.137  1.00  0.00    -0.157 C  
HETATM   12  C   UNL     1      -9.683  10.044  68.199  1.00  0.00    -0.156 C  
BRANCH  11  13
HETATM   13  C   UNL     1      -8.016   8.920  69.922  1.00  0.00    -0.108 C  
HETATM   14  O   UNL     1      -6.855   8.537  69.982  1.00  0.00    -0.041 OA 
BRANCH  13  15
HETATM   15  O   UNL     1      -9.059   8.259  70.489  1.00  0.00    -0.143 OA 
BRANCH  15  16
HETATM   16  C   UNL     1      -9.472   8.784  71.767  1.00  0.00    -0.293 C  
HETATM   17  C   UNL     1     -11.783   9.555  70.996  1.00  0.00    -0.419 C  
HETATM   18  C   UNL     1     -10.986   8.741  72.015  1.00  0.00    -0.438 C  
HETATM   19  C   UNL     1     -11.512   7.310  72.073  1.00  0.00    -0.305 C  
ENDBRANCH  15  16
ENDBRANCH  13  15
ENDBRANCH  11  13
BRANCH  12  20
HETATM   20  C   UNL     1      -9.696   8.761  67.355  1.00  0.00    -0.225 A  
HETATM   21  O   UNL     1      -6.874   9.771  66.945  1.00  0.00    -0.081 OA 
HETATM   22  C   UNL     1     -10.747   7.841  67.554  1.00  0.00    -0.265 A  
HETATM   23  O   UNL     1      -7.450   9.495  64.847  1.00  0.00    -0.104 OA 
HETATM   24  C   UNL     1     -10.745   6.593  66.929  1.00  0.00    -0.401 A  
HETATM   25  N   UNL     1      -7.596   9.299  66.061  1.00  0.00    -0.095 N  
HETATM   26  C   UNL     1      -8.675   8.392  66.449  1.00  0.00    -0.139 A  
HETATM   27  C   UNL     1      -9.697   6.228  66.089  1.00  0.00    -0.021 A  
HETATM   28  C   UNL     1      -8.665   7.128  65.836  1.00  0.00    -0.146 A  
ENDBRANCH  12  20
ENDBRANCH   3   5
ENDBRANCH   2   3
TORSDOF 6
ENDMDL
MODEL      149
REMARK 921   NORMALIZED FREE ENERGY PREDICTED BY IDOCK:   -3.43 KCAL/MOL
REMARK 922        TOTAL FREE ENERGY PREDICTED BY IDOCK:   -5.24 KCAL/MOL
REMARK 923 INTER-LIGAND FREE ENERGY PREDICTED BY IDOCK:   -5.38 KCAL/MOL
REMARK 924 INTRA-LIGAND FREE ENERGY PREDICTED BY IDOCK:    0.14 KCAL/MOL
REMARK 927      BINDING AFFINITY PREDICTED BY RF-SCORE:    0.00 PKD
ROOT
HETATM    1  C   UNL     1     -13.367   9.032  72.294  1.00  0.00    -0.467 C  
HETATM    2  O   UNL     1     -12.589   8.751  71.125  1.00  0.00    -0.272 OA 
ENDROOT
BRANCH   2   3
HETATM    3  C   UNL     1     -11.310   8.391  71.372  1.00  0.00    -0.264 C  
HETATM    4  O   UNL     1     -10.483   9.109  71.921  1.00  0.00    -0.348 OA 
BRANCH   3   5
HETATM    5  C   UNL     1     -11.013   7.038  70.823  1.00  0.00    -0.285 C  
HETATM    6  C   UNL     1     -10.683   6.037  71.673  1.00  0.00    -0.251 C  
HETATM    7  C   UNL     1     -10.691   6.089  73.186  1.00  0.00    -0.285 C  
HETATM    8  N   UNL     1     -10.254   4.826  71.163  1.00  0.00    -0.188 NA 
HETATM    9  C   UNL     1      -9.933   4.586  69.840  1.00  0.00    -0.203 C  
HETATM   10  C   UNL     1      -9.220   3.275  69.599  1.00  0.00    -0.221 C  
HETATM   11  C   UNL     1     -10.229   5.508  68.887  1.00  0.00    -0.284 C  
HETATM   12  C   UNL     1     -10.914   6.839  69.280  1.00  0.00    -0.303 C  
BRANCH  11  13
HETATM   13  C   UNL     1      -9.802   5.248  67.478  1.00  0.00    -0.156 C  
HETATM   14  O   UNL     1     -10.534   4.758  66.628  1.00  0.00    -0.248 OA 
BRANCH  13  15
HETATM   15  O   UNL     1      -8.491   5.534  67.270  1.00  0.00    -0.111 OA 
BRANCH  15  16
HETATM   16  C   UNL     1      -7.790   4.563  66.466  1.00  0.00    -0.099 C  
HETATM   17  C   UNL     1      -5.585   5.850  66.368  1.00  0.00    -0.013 C  
HETATM   18  C   UNL     1      -6.272   4.524  66.691  1.00  0.00    -0.032 C  
HETATM   19  C   UNL     1      -5.919   4.080  68.108  1.00  0.00    -0.027 C  
ENDBRANCH  15  16
ENDBRANCH  13  15
ENDBRANCH  11  13
BRANCH  12  20
HETATM   20  C   UNL     1     -10.215   8.056  68.653  1.00  0.00    -0.225 A  
HETATM   21  O   UNL     1      -7.927   6.647  70.042  1.00  0.00    -0.112 OA 
HETATM   22  C   UNL     1     -10.903   8.780  67.656  1.00  0.00    -0.092 A  
HETATM   23  O   UNL     1      -7.644   8.660  70.865  1.00  0.00    -0.070 OA 
HETATM   24  C   UNL     1     -10.277   9.804  66.944  1.00  0.00    -0.310 A  
HETATM   25  N   UNL     1      -8.112   7.869  70.036  1.00  0.00    -0.115 N  
HETATM   26  C   UNL     1      -8.890   8.453  68.945  1.00  0.00    -0.143 A  
HETATM   27  C   UNL     1      -8.951  10.135  67.207  1.00  0.00    -0.144 A  
HETATM   28  C   UNL     1      -8.256   9.471  68.215  1.00  0.00    -0.113 A  
ENDBRANCH  12  20
ENDBRANCH   3   5
ENDBRANCH   2   3
TORSDOF 6
ENDMDL
MODEL      150
REMARK 921   NORMALIZED FREE ENERGY PREDICTED BY IDOCK:   -3.41 KCAL/MOL
REMARK 922        TOTAL FREE ENERGY PREDICTED BY IDOCK:   -5.22 KCAL/MOL
REMARK 923 INTER-LIGAND FREE ENERGY PREDICTED BY IDOCK:   -4.28 KCAL/MOL
REMARK 924 INTRA-LIGAND FREE ENERGY PREDICTED BY IDOCK:   -0.93 KCAL/MOL
REMARK 927      BINDING AFFINITY PREDICTED BY RF-SCORE:    0.00 PKD
ROOT
HETATM    1  C   UNL     1      -6.787  12.873  67.377  1.00  0.00    -0.128 C  
HETATM    2  O   UNL     1      -7.902  12.368  68.121  1.00  0.00    -0.127 OA 
ENDROOT
BRANCH   2   3
HETATM    3  C   UNL     1      -8.993  12.084  67.376  1.00  0.00    -0.176 C  
HETATM    4  O   UNL     1      -9.202  12.534  66.256  1.00  0.00    -0.215 OA 
BRANCH   3   5
HETATM    5  C   UNL     1      -9.946  11.214  68.122  1.00  0.00    -0.189 C  
HETATM    6  C   UNL     1     -10.767  11.770  69.044  1.00  0.00    -0.169 C  
HETATM    7  C   UNL     1     -10.931  13.244  69.345  1.00  0.00    -0.067 C  
HETATM    8  N   UNL     1     -11.538  10.952  69.849  1.00  0.00    -0.301 NA 
HETATM    9  C   UNL     1     -11.411   9.578  69.945  1.00  0.00    -0.126 C  
HETATM   10  C   UNL     1     -12.167   8.961  71.100  1.00  0.00    -0.303 C  
HETATM   11  C   UNL     1     -10.627   8.900  69.066  1.00  0.00    -0.203 C  
HETATM   12  C   UNL     1      -9.860   9.665  67.960  1.00  0.00    -0.175 C  
BRANCH  11  13
HETATM   13  C   UNL     1     -10.455   7.426  69.244  1.00  0.00    -0.220 C  
HETATM   14  O   UNL     1     -11.300   6.602  68.923  1.00  0.00    -0.231 OA 
BRANCH  13  15
HETATM   15  O   UNL     1      -9.296   7.111  69.879  1.00  0.00    -0.151 OA 
BRANCH  15  16
HETATM   16  C   UNL     1      -9.397   5.988  70.779  1.00  0.00    -0.154 C  
HETATM   17  C   UNL     1      -7.284   6.531  72.109  1.00  0.00    -0.086 C  
HETATM   18  C   UNL     1      -8.780   6.224  72.165  1.00  0.00    -0.133 C  
HETATM   19  C   UNL     1      -9.515   7.318  72.935  1.00  0.00    -0.200 C  
ENDBRANCH  15  16
ENDBRANCH  13  15
ENDBRANCH  11  13
BRANCH  12  20
HETATM   20  C   UNL     1      -8.385   9.242  67.880  1.00  0.00    -0.116 A  
HETATM   21  O   UNL     1      -9.132   9.520  64.963  1.00  0.00    -0.207 OA 
HETATM   22  C   UNL     1      -7.603   9.327  69.052  1.00  0.00    -0.074 A  
HETATM   23  O   UNL     1      -8.267   7.506  64.907  1.00  0.00    -0.132 OA 
HETATM   24  C   UNL     1      -6.226   9.098  69.020  1.00  0.00    -0.043 A  
HETATM   25  N   UNL     1      -8.444   8.610  65.438  1.00  0.00    -0.163 N  
HETATM   26  C   UNL     1      -7.730   8.854  66.690  1.00  0.00    -0.100 A  
HETATM   27  C   UNL     1      -5.593   8.778  67.822  1.00  0.00    -0.035 A  
HETATM   28  C   UNL     1      -6.342   8.643  66.656  1.00  0.00    -0.059 A  
ENDBRANCH  12  20
ENDBRANCH   3   5
ENDBRANCH   2   3
TORSDOF 6
ENDMDL
MODEL      151
REMARK 921   NORMALIZED FREE ENERGY PREDICTED BY IDOCK:   -3.40 KCAL/MOL
REMARK 922        TOTAL FREE ENERGY PREDICTED BY IDOCK:   -5.19 KCAL/MOL
REMARK 923 INTER-LIGAND FREE ENERGY PREDICTED BY IDOCK:   -5.87 KCAL/MOL
REMARK 924 INTRA-LIGAND FREE ENERGY PREDICTED BY IDOCK:    0.68 KCAL/MOL
REMARK 927      BINDING AFFINITY PREDICTED BY RF-SCORE:    0.00 PKD
ROOT
HETATM    1  C   UNL     1     -12.258  15.377  64.243  1.00  0.00    -0.126 C  
HETATM    2  O   UNL     1     -11.098  14.718  64.765  1.00  0.00    -0.387 OA 
ENDROOT
BRANCH   2   3
HETATM    3  C   UNL     1     -11.329  13.487  65.272  1.00  0.00    -0.290 C  
HETATM    4  O   UNL     1     -12.442  13.041  65.523  1.00  0.00    -0.469 OA 
BRANCH   3   5
HETATM    5  C   UNL     1     -10.054  12.771  65.557  1.00  0.00    -0.278 C  
HETATM    6  C   UNL     1      -9.746  11.660  64.846  1.00  0.00    -0.206 C  
HETATM    7  C   UNL     1     -10.509  11.093  63.668  1.00  0.00    -0.438 C  
HETATM    8  N   UNL     1      -8.649  10.903  65.210  1.00  0.00    -0.145 NA 
HETATM    9  C   UNL     1      -7.922  11.060  66.376  1.00  0.00    -0.161 C  
HETATM   10  C   UNL     1      -6.961   9.930  66.670  1.00  0.00    -0.086 C  
HETATM   11  C   UNL     1      -8.126  12.144  67.169  1.00  0.00    -0.175 C  
HETATM   12  C   UNL     1      -9.186  13.203  66.778  1.00  0.00    -0.232 C  
BRANCH  11  13
HETATM   13  C   UNL     1      -7.376  12.245  68.458  1.00  0.00    -0.105 C  
HETATM   14  O   UNL     1      -6.634  13.176  68.738  1.00  0.00    -0.084 OA 
BRANCH  13  15
HETATM   15  O   UNL     1      -7.542  11.149  69.243  1.00  0.00    -0.121 OA 
BRANCH  15  16
HETATM   16  C   UNL     1      -6.594  11.043  70.324  1.00  0.00    -0.009 C  
HETATM   17  C   UNL     1      -7.398   8.763  71.152  1.00  0.00    -0.106 C  
HETATM   18  C   UNL     1      -6.207   9.605  70.695  1.00  0.00    -0.084 C  
HETATM   19  C   UNL     1      -5.472   8.903  69.556  1.00  0.00    -0.034 C  
ENDBRANCH  15  16
ENDBRANCH  13  15
ENDBRANCH  11  13
BRANCH  12  20
HETATM   20  C   UNL     1     -10.105  13.564  67.954  1.00  0.00    -0.248 A  
HETATM   21  O   UNL     1     -10.121  10.541  68.031  1.00  0.00    -0.158 OA 
HETATM   22  C   UNL     1     -10.087  14.892  68.432  1.00  0.00    -0.225 A  
HETATM   23  O   UNL     1     -12.285  10.897  68.043  1.00  0.00    -0.422 OA 
HETATM   24  C   UNL     1     -10.785  15.255  69.585  1.00  0.00    -0.289 A  
HETATM   25  N   UNL     1     -11.111  11.262  68.194  1.00  0.00    -0.237 N  
HETATM   26  C   UNL     1     -10.908  12.634  68.654  1.00  0.00    -0.249 A  
HETATM   27  C   UNL     1     -11.520  14.307  70.291  1.00  0.00    -0.226 A  
HETATM   28  C   UNL     1     -11.595  12.998  69.823  1.00  0.00    -0.286 A  
ENDBRANCH  12  20
ENDBRANCH   3   5
ENDBRANCH   2   3
TORSDOF 6
ENDMDL
MODEL      152
REMARK 921   NORMALIZED FREE ENERGY PREDICTED BY IDOCK:   -3.37 KCAL/MOL
REMARK 922        TOTAL FREE ENERGY PREDICTED BY IDOCK:   -5.16 KCAL/MOL
REMARK 923 INTER-LIGAND FREE ENERGY PREDICTED BY IDOCK:   -5.97 KCAL/MOL
REMARK 924 INTRA-LIGAND FREE ENERGY PREDICTED BY IDOCK:    0.81 KCAL/MOL
REMARK 927      BINDING AFFINITY PREDICTED BY RF-SCORE:    0.00 PKD
ROOT
HETATM    1  C   UNL     1      -7.648  15.866  67.002  1.00  0.00    -0.229 C  
HETATM    2  O   UNL     1      -7.418  14.462  66.833  1.00  0.00     0.078 OA 
ENDROOT
BRANCH   2   3
HETATM    3  C   UNL     1      -7.199  13.785  67.983  1.00  0.00    -0.137 C  
HETATM    4  O   UNL     1      -6.490  14.187  68.897  1.00  0.00    -0.085 OA 
BRANCH   3   5
HETATM    5  C   UNL     1      -7.871  12.455  67.964  1.00  0.00    -0.141 C  
HETATM    6  C   UNL     1      -7.366  11.470  67.184  1.00  0.00    -0.139 C  
HETATM    7  C   UNL     1      -6.082  11.512  66.383  1.00  0.00    -0.022 C  
HETATM    8  N   UNL     1      -8.070  10.290  67.040  1.00  0.00    -0.120 NA 
HETATM    9  C   UNL     1      -9.368  10.077  67.466  1.00  0.00    -0.144 C  
HETATM   10  C   UNL     1     -10.001   8.811  66.934  1.00  0.00    -0.327 C  
HETATM   11  C   UNL     1      -9.982  10.986  68.269  1.00  0.00    -0.190 C  
HETATM   12  C   UNL     1      -9.235  12.273  68.697  1.00  0.00    -0.005 C  
BRANCH  11  13
HETATM   13  C   UNL     1     -11.409  10.761  68.651  1.00  0.00    -0.291 C  
HETATM   14  O   UNL     1     -12.349  11.352  68.136  1.00  0.00    -0.502 OA 
BRANCH  13  15
HETATM   15  O   UNL     1     -11.539   9.894  69.689  1.00  0.00    -0.163 OA 
BRANCH  15  16
HETATM   16  C   UNL     1     -11.807  10.523  70.958  1.00  0.00    -0.340 C  
HETATM   17  C   UNL     1     -13.711   8.955  71.628  1.00  0.00    -0.444 C  
HETATM   18  C   UNL     1     -12.376   9.582  72.029  1.00  0.00    -0.404 C  
HETATM   19  C   UNL     1     -11.378   8.493  72.416  1.00  0.00    -0.412 C  
ENDBRANCH  15  16
ENDBRANCH  13  15
ENDBRANCH  11  13
BRANCH  12  20
HETATM   20  C   UNL     1     -10.092  13.532  68.499  1.00  0.00    -0.215 A  
HETATM   21  O   UNL     1     -10.464  12.083  65.870  1.00  0.00    -0.240 OA 
HETATM   22  C   UNL     1     -10.423  14.299  69.636  1.00  0.00     0.111 A  
HETATM   23  O   UNL     1      -9.881  14.052  65.100  1.00  0.00    -0.262 OA 
HETATM   24  C   UNL     1     -11.314  15.370  69.552  1.00  0.00    -0.308 A  
HETATM   25  N   UNL     1     -10.292  13.301  65.994  1.00  0.00    -0.283 N  
HETATM   26  C   UNL     1     -10.649  13.932  67.263  1.00  0.00    -0.276 A  
HETATM   27  C   UNL     1     -11.898  15.706  68.334  1.00  0.00    -0.211 A  
HETATM   28  C   UNL     1     -11.560  14.998  67.184  1.00  0.00    -0.271 A  
ENDBRANCH  12  20
ENDBRANCH   3   5
ENDBRANCH   2   3
TORSDOF 6
ENDMDL
MODEL      153
REMARK 921   NORMALIZED FREE ENERGY PREDICTED BY IDOCK:   -3.34 KCAL/MOL
REMARK 922        TOTAL FREE ENERGY PREDICTED BY IDOCK:   -5.12 KCAL/MOL
REMARK 923 INTER-LIGAND FREE ENERGY PREDICTED BY IDOCK:   -5.44 KCAL/MOL
REMARK 924 INTRA-LIGAND FREE ENERGY PREDICTED BY IDOCK:    0.32 KCAL/MOL
REMARK 927      BINDING AFFINITY PREDICTED BY RF-SCORE:    0.00 PKD
ROOT
HETATM    1  C   UNL     1     -10.091   5.139  69.049  1.00  0.00    -0.187 C  
HETATM    2  O   UNL     1      -9.459   5.818  67.958  1.00  0.00    -0.108 OA 
ENDROOT
BRANCH   2   3
HETATM    3  C   UNL     1     -10.282   6.602  67.228  1.00  0.00    -0.198 C  
HETATM    4  O   UNL     1     -11.462   6.351  67.009  1.00  0.00    -0.196 OA 
BRANCH   3   5
HETATM    5  C   UNL     1      -9.555   7.772  66.661  1.00  0.00    -0.286 C  
HETATM    6  C   UNL     1      -8.549   7.562  65.779  1.00  0.00    -0.142 C  
HETATM    7  C   UNL     1      -8.127   6.238  65.179  1.00  0.00    -0.130 C  
HETATM    8  N   UNL     1      -7.768   8.628  65.373  1.00  0.00    -0.091 NA 
HETATM    9  C   UNL     1      -7.784   9.890  65.936  1.00  0.00    -0.110 C  
HETATM   10  C   UNL     1      -6.641  10.781  65.506  1.00  0.00     0.006 C  
HETATM   11  C   UNL     1      -8.755  10.230  66.824  1.00  0.00    -0.132 C  
HETATM   12  C   UNL     1      -9.839   9.199  67.221  1.00  0.00    -0.244 C  
BRANCH  11  13
HETATM   13  C   UNL     1      -8.700  11.578  67.469  1.00  0.00    -0.145 C  
HETATM   14  O   UNL     1      -8.196  11.784  68.565  1.00  0.00    -0.150 OA 
BRANCH  13  15
HETATM   15  O   UNL     1      -9.348  12.528  66.745  1.00  0.00    -0.218 OA 
BRANCH  15  16
HETATM   16  C   UNL     1     -10.716  12.203  66.426  1.00  0.00    -0.257 C  
HETATM   17  C   UNL     1     -11.710  13.101  68.602  1.00  0.00    -0.362 C  
HETATM   18  C   UNL     1     -11.758  13.124  67.075  1.00  0.00    -0.431 C  
HETATM   19  C   UNL     1     -11.644  14.559  66.567  1.00  0.00    -0.379 C  
ENDBRANCH  15  16
ENDBRANCH  13  15
ENDBRANCH  11  13
BRANCH  12  20
HETATM   20  C   UNL     1     -10.032   9.120  68.744  1.00  0.00    -0.188 A  
HETATM   21  O   UNL     1      -7.030   8.880  68.464  1.00  0.00    -0.063 OA 
HETATM   22  C   UNL     1     -11.276   9.517  69.280  1.00  0.00    -0.032 A  
HETATM   23  O   UNL     1      -7.401   7.126  69.726  1.00  0.00    -0.080 OA 
HETATM   24  C   UNL     1     -11.473   9.608  70.659  1.00  0.00    -0.376 A  
HETATM   25  N   UNL     1      -7.729   8.214  69.235  1.00  0.00    -0.102 N  
HETATM   26  C   UNL     1      -9.018   8.758  69.658  1.00  0.00    -0.145 A  
HETATM   27  C   UNL     1     -10.438   9.305  71.539  1.00  0.00    -0.385 A  
HETATM   28  C   UNL     1      -9.212   8.868  71.045  1.00  0.00    -0.307 A  
ENDBRANCH  12  20
ENDBRANCH   3   5
ENDBRANCH   2   3
TORSDOF 6
ENDMDL
MODEL      154
REMARK 921   NORMALIZED FREE ENERGY PREDICTED BY IDOCK:   -3.33 KCAL/MOL
REMARK 922        TOTAL FREE ENERGY PREDICTED BY IDOCK:   -5.11 KCAL/MOL
REMARK 923 INTER-LIGAND FREE ENERGY PREDICTED BY IDOCK:   -5.31 KCAL/MOL
REMARK 924 INTRA-LIGAND FREE ENERGY PREDICTED BY IDOCK:    0.20 KCAL/MOL
REMARK 927      BINDING AFFINITY PREDICTED BY RF-SCORE:    0.00 PKD
ROOT
HETATM    1  C   UNL     1      -6.669   6.313  66.242  1.00  0.00    -0.056 C  
HETATM    2  O   UNL     1      -7.673   7.302  66.496  1.00  0.00    -0.090 OA 
ENDROOT
BRANCH   2   3
HETATM    3  C   UNL     1      -8.934   6.821  66.564  1.00  0.00    -0.149 C  
HETATM    4  O   UNL     1      -9.332   5.837  65.952  1.00  0.00    -0.152 OA 
BRANCH   3   5
HETATM    5  C   UNL     1      -9.797   7.683  67.418  1.00  0.00    -0.226 C  
HETATM    6  C   UNL     1      -9.847   9.015  67.178  1.00  0.00    -0.203 C  
HETATM    7  C   UNL     1      -9.200   9.756  66.027  1.00  0.00    -0.226 C  
HETATM    8  N   UNL     1     -10.518   9.840  68.061  1.00  0.00    -0.212 NA 
HETATM    9  C   UNL     1     -10.994   9.462  69.303  1.00  0.00    -0.117 C  
HETATM   10  C   UNL     1     -11.426  10.613  70.183  1.00  0.00    -0.411 C  
HETATM   11  C   UNL     1     -11.012   8.151  69.657  1.00  0.00    -0.094 C  
HETATM   12  C   UNL     1     -10.486   7.074  68.678  1.00  0.00    -0.224 C  
BRANCH  11  13
HETATM   13  C   UNL     1     -11.464   7.785  71.034  1.00  0.00    -0.281 C  
HETATM   14  O   UNL     1     -12.638   7.619  71.340  1.00  0.00    -0.329 OA 
BRANCH  13  15
HETATM   15  O   UNL     1     -10.439   7.742  71.925  1.00  0.00    -0.209 OA 
BRANCH  15  16
HETATM   16  C   UNL     1     -10.848   7.541  73.293  1.00  0.00    -0.355 C  
HETATM   17  C   UNL     1     -11.120   5.006  73.111  1.00  0.00    -0.395 C  
HETATM   18  C   UNL     1     -10.481   6.167  73.872  1.00  0.00    -0.287 C  
HETATM   19  C   UNL     1      -8.969   5.972  73.958  1.00  0.00    -0.127 C  
ENDBRANCH  15  16
ENDBRANCH  13  15
ENDBRANCH  11  13
BRANCH  12  20
HETATM   20  C   UNL     1      -9.521   6.092  69.361  1.00  0.00    -0.153 A  
HETATM   21  O   UNL     1      -8.390   8.776  70.176  1.00  0.00    -0.115 OA 
HETATM   22  C   UNL     1      -9.913   4.741  69.473  1.00  0.00    -0.287 A  
HETATM   23  O   UNL     1      -6.561   7.854  69.390  1.00  0.00    -0.035 OA 
HETATM   24  C   UNL     1      -9.155   3.827  70.206  1.00  0.00    -0.193 A  
HETATM   25  N   UNL     1      -7.720   7.800  69.821  1.00  0.00    -0.095 N  
HETATM   26  C   UNL     1      -8.300   6.465  69.966  1.00  0.00    -0.130 A  
HETATM   27  C   UNL     1      -7.987   4.233  70.845  1.00  0.00    -0.067 A  
HETATM   28  C   UNL     1      -7.548   5.548  70.719  1.00  0.00    -0.090 A  
ENDBRANCH  12  20
ENDBRANCH   3   5
ENDBRANCH   2   3
TORSDOF 6
ENDMDL
MODEL      155
REMARK 921   NORMALIZED FREE ENERGY PREDICTED BY IDOCK:   -3.31 KCAL/MOL
REMARK 922        TOTAL FREE ENERGY PREDICTED BY IDOCK:   -5.08 KCAL/MOL
REMARK 923 INTER-LIGAND FREE ENERGY PREDICTED BY IDOCK:   -3.72 KCAL/MOL
REMARK 924 INTRA-LIGAND FREE ENERGY PREDICTED BY IDOCK:   -1.36 KCAL/MOL
REMARK 927      BINDING AFFINITY PREDICTED BY RF-SCORE:    0.00 PKD
ROOT
HETATM    1  C   UNL     1      -6.226   6.872  66.784  1.00  0.00    -0.041 C  
HETATM    2  O   UNL     1      -7.587   7.047  67.195  1.00  0.00    -0.102 OA 
ENDROOT
BRANCH   2   3
HETATM    3  C   UNL     1      -8.246   5.898  67.465  1.00  0.00    -0.105 C  
HETATM    4  O   UNL     1      -9.302   5.567  66.940  1.00  0.00    -0.122 OA 
BRANCH   3   5
HETATM    5  C   UNL     1      -7.563   5.122  68.538  1.00  0.00    -0.079 C  
HETATM    6  C   UNL     1      -7.149   3.859  68.281  1.00  0.00    -0.051 C  
HETATM    7  C   UNL     1      -7.189   3.143  66.948  1.00  0.00    -0.058 C  
HETATM    8  N   UNL     1      -6.661   3.080  69.313  1.00  0.00    -0.033 NA 
HETATM    9  C   UNL     1      -6.731   3.400  70.657  1.00  0.00    -0.033 C  
HETATM   10  C   UNL     1      -6.389   2.259  71.589  1.00  0.00    -0.015 C  
HETATM   11  C   UNL     1      -7.117   4.644  71.044  1.00  0.00    -0.037 C  
HETATM   12  C   UNL     1      -7.494   5.706  69.983  1.00  0.00    -0.070 C  
BRANCH  11  13
HETATM   13  C   UNL     1      -7.252   4.932  72.505  1.00  0.00    -0.083 C  
HETATM   14  O   UNL     1      -6.299   5.116  73.250  1.00  0.00    -0.051 OA 
BRANCH  13  15
HETATM   15  O   UNL     1      -8.542   4.881  72.928  1.00  0.00    -0.117 OA 
BRANCH  15  16
HETATM   16  C   UNL     1      -8.814   3.836  73.883  1.00  0.00    -0.088 C  
HETATM   17  C   UNL     1     -11.356   3.915  73.638  1.00  0.00    -0.243 C  
HETATM   18  C   UNL     1     -10.101   3.044  73.613  1.00  0.00    -0.183 C  
HETATM   19  C   UNL     1     -10.025   2.266  72.302  1.00  0.00    -0.226 C  
ENDBRANCH  15  16
ENDBRANCH  13  15
ENDBRANCH  11  13
BRANCH  12  20
HETATM   20  C   UNL     1      -8.821   6.407  70.313  1.00  0.00    -0.151 A  
HETATM   21  O   UNL     1      -6.875   8.721  70.226  1.00  0.00    -0.038 OA 
HETATM   22  C   UNL     1     -10.021   5.689  70.120  1.00  0.00    -0.270 A  
HETATM   23  O   UNL     1      -7.790   9.112  72.181  1.00  0.00    -0.311 OA 
HETATM   24  C   UNL     1     -11.264   6.308  70.261  1.00  0.00    -0.455 A  
HETATM   25  N   UNL     1      -7.771   8.575  71.065  1.00  0.00    -0.086 N  
HETATM   26  C   UNL     1      -8.931   7.758  70.715  1.00  0.00    -0.148 A  
HETATM   27  C   UNL     1     -11.345   7.657  70.598  1.00  0.00    -0.288 A  
HETATM   28  C   UNL     1     -10.182   8.383  70.837  1.00  0.00    -0.234 A  
ENDBRANCH  12  20
ENDBRANCH   3   5
ENDBRANCH   2   3
TORSDOF 6
ENDMDL
MODEL      156
REMARK 921   NORMALIZED FREE ENERGY PREDICTED BY IDOCK:   -3.31 KCAL/MOL
REMARK 922        TOTAL FREE ENERGY PREDICTED BY IDOCK:   -5.07 KCAL/MOL
REMARK 923 INTER-LIGAND FREE ENERGY PREDICTED BY IDOCK:   -4.00 KCAL/MOL
REMARK 924 INTRA-LIGAND FREE ENERGY PREDICTED BY IDOCK:   -1.07 KCAL/MOL
REMARK 927      BINDING AFFINITY PREDICTED BY RF-SCORE:    0.00 PKD
ROOT
HETATM    1  C   UNL     1      -8.217   8.886  62.374  1.00  0.00    -0.175 C  
HETATM    2  O   UNL     1      -8.147   8.596  63.775  1.00  0.00    -0.153 OA 
ENDROOT
BRANCH   2   3
HETATM    3  C   UNL     1      -6.960   8.888  64.352  1.00  0.00    -0.088 C  
HETATM    4  O   UNL     1      -6.109   9.615  63.853  1.00  0.00    -0.091 OA 
BRANCH   3   5
HETATM    5  C   UNL     1      -6.788   8.153  65.637  1.00  0.00    -0.066 C  
HETATM    6  C   UNL     1      -6.602   6.812  65.613  1.00  0.00    -0.051 C  
HETATM    7  C   UNL     1      -6.422   5.941  64.388  1.00  0.00    -0.033 C  
HETATM    8  N   UNL     1      -6.600   6.105  66.800  1.00  0.00    -0.057 NA 
HETATM    9  C   UNL     1      -6.971   6.613  68.032  1.00  0.00    -0.080 C  
HETATM   10  C   UNL     1      -7.158   5.566  69.108  1.00  0.00    -0.064 C  
HETATM   11  C   UNL     1      -7.171   7.947  68.190  1.00  0.00    -0.090 C  
HETATM   12  C   UNL     1      -7.000   8.906  66.986  1.00  0.00    -0.074 C  
BRANCH  11  13
HETATM   13  C   UNL     1      -7.643   8.452  69.515  1.00  0.00    -0.090 C  
HETATM   14  O   UNL     1      -7.129   9.395  70.102  1.00  0.00    -0.059 OA 
BRANCH  13  15
HETATM   15  O   UNL     1      -8.645   7.696  70.034  1.00  0.00    -0.135 OA 
BRANCH  15  16
HETATM   16  C   UNL     1      -9.969   8.130  69.666  1.00  0.00    -0.193 C  
HETATM   17  C   UNL     1     -10.549   6.056  68.291  1.00  0.00    -0.325 C  
HETATM   18  C   UNL     1     -10.970   6.991  69.423  1.00  0.00    -0.232 C  
HETATM   19  C   UNL     1     -11.238   6.190  70.695  1.00  0.00    -0.387 C  
ENDBRANCH  15  16
ENDBRANCH  13  15
ENDBRANCH  11  13
BRANCH  12  20
HETATM   20  C   UNL     1      -8.181   9.878  66.848  1.00  0.00    -0.120 A  
HETATM   21  O   UNL     1      -5.803  11.688  66.387  1.00  0.00    -0.179 OA 
HETATM   22  C   UNL     1      -9.474   9.337  66.682  1.00  0.00    -0.246 A  
HETATM   23  O   UNL     1      -6.830  12.854  67.935  1.00  0.00    -0.090 OA 
HETATM   24  C   UNL     1     -10.571  10.155  66.406  1.00  0.00    -0.155 A  
HETATM   25  N   UNL     1      -6.797  11.977  67.062  1.00  0.00    -0.130 N  
HETATM   26  C   UNL     1      -8.054  11.284  66.786  1.00  0.00    -0.159 A  
HETATM   27  C   UNL     1     -10.409  11.533  66.289  1.00  0.00    -0.280 A  
HETATM   28  C   UNL     1      -9.155  12.104  66.490  1.00  0.00    -0.199 A  
ENDBRANCH  12  20
ENDBRANCH   3   5
ENDBRANCH   2   3
TORSDOF 6
ENDMDL
MODEL      157
REMARK 921   NORMALIZED FREE ENERGY PREDICTED BY IDOCK:   -3.30 KCAL/MOL
REMARK 922        TOTAL FREE ENERGY PREDICTED BY IDOCK:   -5.06 KCAL/MOL
REMARK 923 INTER-LIGAND FREE ENERGY PREDICTED BY IDOCK:   -4.89 KCAL/MOL
REMARK 924 INTRA-LIGAND FREE ENERGY PREDICTED BY IDOCK:   -0.17 KCAL/MOL
REMARK 927      BINDING AFFINITY PREDICTED BY RF-SCORE:    0.00 PKD
ROOT
HETATM    1  C   UNL     1     -10.234  10.103  66.820  1.00  0.00    -0.228 C  
HETATM    2  O   UNL     1     -11.017   9.418  67.804  1.00  0.00    -0.219 OA 
ENDROOT
BRANCH   2   3
HETATM    3  C   UNL     1     -10.554   9.529  69.069  1.00  0.00    -0.219 C  
HETATM    4  O   UNL     1      -9.888  10.472  69.481  1.00  0.00    -0.213 OA 
BRANCH   3   5
HETATM    5  C   UNL     1     -10.893   8.325  69.878  1.00  0.00    -0.213 C  
HETATM    6  C   UNL     1     -11.649   8.467  70.992  1.00  0.00    -0.275 C  
HETATM    7  C   UNL     1     -12.321   9.733  71.480  1.00  0.00    -0.495 C  
HETATM    8  N   UNL     1     -11.834   7.384  71.831  1.00  0.00    -0.287 NA 
HETATM    9  C   UNL     1     -11.149   6.185  71.749  1.00  0.00    -0.274 C  
HETATM   10  C   UNL     1     -11.327   5.281  72.948  1.00  0.00    -0.368 C  
HETATM   11  C   UNL     1     -10.370   5.915  70.669  1.00  0.00    -0.296 C  
HETATM   12  C   UNL     1     -10.231   6.956  69.532  1.00  0.00    -0.198 C  
BRANCH  11  13
HETATM   13  C   UNL     1      -9.587   4.642  70.648  1.00  0.00    -0.191 C  
HETATM   14  O   UNL     1      -9.858   3.693  69.924  1.00  0.00    -0.155 OA 
BRANCH  13  15
HETATM   15  O   UNL     1      -8.598   4.623  71.579  1.00  0.00    -0.111 OA 
BRANCH  15  16
HETATM   16  C   UNL     1      -7.856   3.388  71.633  1.00  0.00    -0.057 C  
HETATM   17  C   UNL     1      -6.304   3.933  69.678  1.00  0.00    -0.028 C  
HETATM   18  C   UNL     1      -6.407   3.492  71.137  1.00  0.00    -0.019 C  
HETATM   19  C   UNL     1      -5.568   4.408  72.024  1.00  0.00    -0.008 C  
ENDBRANCH  15  16
ENDBRANCH  13  15
ENDBRANCH  11  13
BRANCH  12  20
HETATM   20  C   UNL     1      -8.765   7.185  69.133  1.00  0.00    -0.133 A  
HETATM   21  O   UNL     1      -8.683   7.574  72.131  1.00  0.00    -0.111 OA 
HETATM   22  C   UNL     1      -8.351   6.773  67.848  1.00  0.00    -0.120 A  
HETATM   23  O   UNL     1      -7.686   9.428  71.515  1.00  0.00    -0.321 OA 
HETATM   24  C   UNL     1      -7.008   6.818  67.472  1.00  0.00    -0.083 A  
HETATM   25  N   UNL     1      -8.088   8.276  71.306  1.00  0.00    -0.109 N  
HETATM   26  C   UNL     1      -7.775   7.703  69.998  1.00  0.00    -0.092 A  
HETATM   27  C   UNL     1      -6.042   7.275  68.365  1.00  0.00    -0.031 A  
HETATM   28  C   UNL     1      -6.421   7.730  69.625  1.00  0.00    -0.031 A  
ENDBRANCH  12  20
ENDBRANCH   3   5
ENDBRANCH   2   3
TORSDOF 6
ENDMDL
MODEL      158
REMARK 921   NORMALIZED FREE ENERGY PREDICTED BY IDOCK:   -3.26 KCAL/MOL
REMARK 922        TOTAL FREE ENERGY PREDICTED BY IDOCK:   -5.00 KCAL/MOL
REMARK 923 INTER-LIGAND FREE ENERGY PREDICTED BY IDOCK:   -4.01 KCAL/MOL
REMARK 924 INTRA-LIGAND FREE ENERGY PREDICTED BY IDOCK:   -0.99 KCAL/MOL
REMARK 927      BINDING AFFINITY PREDICTED BY RF-SCORE:    0.00 PKD
ROOT
HETATM    1  C   UNL     1     -10.049  11.719  67.356  1.00  0.00    -0.195 C  
HETATM    2  O   UNL     1      -9.984  11.060  68.625  1.00  0.00    -0.185 OA 
ENDROOT
BRANCH   2   3
HETATM    3  C   UNL     1     -10.417   9.779  68.618  1.00  0.00    -0.208 C  
HETATM    4  O   UNL     1     -11.047   9.268  67.701  1.00  0.00    -0.108 OA 
BRANCH   3   5
HETATM    5  C   UNL     1     -10.094   9.092  69.900  1.00  0.00    -0.219 C  
HETATM    6  C   UNL     1     -10.864   9.327  70.989  1.00  0.00    -0.314 C  
HETATM    7  C   UNL     1     -12.137  10.145  71.044  1.00  0.00    -0.476 C  
HETATM    8  N   UNL     1     -10.479   8.819  72.216  1.00  0.00    -0.308 NA 
HETATM    9  C   UNL     1      -9.253   8.242  72.492  1.00  0.00    -0.269 C  
HETATM   10  C   UNL     1      -8.978   8.035  73.964  1.00  0.00    -0.131 C  
HETATM   11  C   UNL     1      -8.396   7.941  71.481  1.00  0.00    -0.130 C  
HETATM   12  C   UNL     1      -8.781   8.258  70.016  1.00  0.00    -0.133 C  
BRANCH  11  13
HETATM   13  C   UNL     1      -7.051   7.385  71.821  1.00  0.00    -0.063 C  
HETATM   14  O   UNL     1      -6.023   8.050  71.815  1.00  0.00    -0.035 OA 
BRANCH  13  15
HETATM   15  O   UNL     1      -7.083   6.047  72.050  1.00  0.00    -0.082 OA 
BRANCH  15  16
HETATM   16  C   UNL     1      -7.250   5.244  70.864  1.00  0.00    -0.069 C  
HETATM   17  C   UNL     1      -8.187   3.194  72.069  1.00  0.00    -0.062 C  
HETATM   18  C   UNL     1      -8.385   4.213  70.947  1.00  0.00    -0.092 C  
HETATM   19  C   UNL     1      -9.751   4.881  71.077  1.00  0.00    -0.252 C  
ENDBRANCH  15  16
ENDBRANCH  13  15
ENDBRANCH  11  13
BRANCH  12  20
HETATM   20  C   UNL     1      -7.652   8.978  69.263  1.00  0.00    -0.079 A  
HETATM   21  O   UNL     1      -8.194   6.595  67.481  1.00  0.00    -0.120 OA 
HETATM   22  C   UNL     1      -7.352  10.308  69.625  1.00  0.00    -0.150 A  
HETATM   23  O   UNL     1      -6.022   6.377  67.698  1.00  0.00    -0.015 OA 
HETATM   24  C   UNL     1      -6.441  11.069  68.891  1.00  0.00    -0.054 A  
HETATM   25  N   UNL     1      -7.073   7.029  67.768  1.00  0.00    -0.083 N  
HETATM   26  C   UNL     1      -6.947   8.429  68.168  1.00  0.00    -0.081 A  
HETATM   27  C   UNL     1      -5.804  10.526  67.779  1.00  0.00    -0.044 A  
HETATM   28  C   UNL     1      -6.044   9.202  67.420  1.00  0.00    -0.054 A  
ENDBRANCH  12  20
ENDBRANCH   3   5
ENDBRANCH   2   3
TORSDOF 6
ENDMDL
MODEL      159
REMARK 921   NORMALIZED FREE ENERGY PREDICTED BY IDOCK:   -3.25 KCAL/MOL
REMARK 922        TOTAL FREE ENERGY PREDICTED BY IDOCK:   -5.00 KCAL/MOL
REMARK 923 INTER-LIGAND FREE ENERGY PREDICTED BY IDOCK:   -4.50 KCAL/MOL
REMARK 924 INTRA-LIGAND FREE ENERGY PREDICTED BY IDOCK:   -0.50 KCAL/MOL
REMARK 927      BINDING AFFINITY PREDICTED BY RF-SCORE:    0.00 PKD
ROOT
HETATM    1  C   UNL     1     -11.647  13.294  64.562  1.00  0.00    -0.369 C  
HETATM    2  O   UNL     1     -11.053  14.527  64.983  1.00  0.00    -0.345 OA 
ENDROOT
BRANCH   2   3
HETATM    3  C   UNL     1     -11.206  14.807  66.297  1.00  0.00    -0.343 C  
HETATM    4  O   UNL     1     -12.289  14.903  66.861  1.00  0.00    -0.034 OA 
BRANCH   3   5
HETATM    5  C   UNL     1      -9.893  15.056  66.954  1.00  0.00    -0.244 C  
HETATM    6  C   UNL     1      -9.084  16.029  66.469  1.00  0.00    -0.285 C  
HETATM    7  C   UNL     1      -9.409  17.016  65.369  1.00  0.00     0.822 C  
HETATM    8  N   UNL     1      -7.803  16.160  66.970  1.00  0.00    -0.199 NA 
HETATM    9  C   UNL     1      -7.175  15.253  67.805  1.00  0.00    -0.165 C  
HETATM   10  C   UNL     1      -5.690  15.482  67.972  1.00  0.00    -0.147 C  
HETATM   11  C   UNL     1      -7.883  14.239  68.369  1.00  0.00    -0.140 C  
HETATM   12  C   UNL     1      -9.394  14.086  68.068  1.00  0.00    -0.205 C  
BRANCH  11  13
HETATM   13  C   UNL     1      -7.159  13.235  69.206  1.00  0.00     0.074 C  
HETATM   14  O   UNL     1      -6.567  13.516  70.240  1.00  0.00     0.042 OA 
BRANCH  13  15
HETATM   15  O   UNL     1      -7.156  11.997  68.647  1.00  0.00    -0.091 OA 
BRANCH  15  16
HETATM   16  C   UNL     1      -6.483  10.992  69.432  1.00  0.00    -0.095 C  
HETATM   17  C   UNL     1      -8.578   9.623  69.952  1.00  0.00    -0.218 C  
HETATM   18  C   UNL     1      -7.151   9.609  69.406  1.00  0.00    -0.062 C  
HETATM   19  C   UNL     1      -7.127   8.993  68.010  1.00  0.00    -0.079 C  
ENDBRANCH  15  16
ENDBRANCH  13  15
ENDBRANCH  11  13
BRANCH  12  20
HETATM   20  C   UNL     1      -9.765  12.644  67.691  1.00  0.00    -0.197 A  
HETATM   21  O   UNL     1     -12.153  13.514  69.331  1.00  0.00    -0.316 OA 
HETATM   22  C   UNL     1      -9.038  12.016  66.657  1.00  0.00    -0.205 A  
HETATM   23  O   UNL     1     -11.682  11.642  70.373  1.00  0.00    -0.313 OA 
HETATM   24  C   UNL     1      -9.414  10.764  66.166  1.00  0.00    -0.221 A  
HETATM   25  N   UNL     1     -11.604  12.409  69.404  1.00  0.00    -0.300 N  
HETATM   26  C   UNL     1     -10.848  11.927  68.250  1.00  0.00    -0.224 A  
HETATM   27  C   UNL     1     -10.521  10.105  66.691  1.00  0.00    -0.254 A  
HETATM   28  C   UNL     1     -11.235  10.676  67.742  1.00  0.00    -0.383 A  
ENDBRANCH  12  20
ENDBRANCH   3   5
ENDBRANCH   2   3
TORSDOF 6
ENDMDL
MODEL      160
REMARK 921   NORMALIZED FREE ENERGY PREDICTED BY IDOCK:   -3.24 KCAL/MOL
REMARK 922        TOTAL FREE ENERGY PREDICTED BY IDOCK:   -4.99 KCAL/MOL
REMARK 923 INTER-LIGAND FREE ENERGY PREDICTED BY IDOCK:   -3.58 KCAL/MOL
REMARK 924 INTRA-LIGAND FREE ENERGY PREDICTED BY IDOCK:   -1.40 KCAL/MOL
REMARK 927      BINDING AFFINITY PREDICTED BY RF-SCORE:    0.00 PKD
ROOT
HETATM    1  C   UNL     1     -12.835   8.402  71.472  1.00  0.00    -0.303 C  
HETATM    2  O   UNL     1     -11.407   8.349  71.566  1.00  0.00    -0.252 OA 
ENDROOT
BRANCH   2   3
HETATM    3  C   UNL     1     -10.873   7.128  71.341  1.00  0.00    -0.231 C  
HETATM    4  O   UNL     1     -11.528   6.100  71.215  1.00  0.00    -0.294 OA 
BRANCH   3   5
HETATM    5  C   UNL     1      -9.384   7.180  71.341  1.00  0.00    -0.155 C  
HETATM    6  C   UNL     1      -8.736   7.593  72.456  1.00  0.00    -0.132 C  
HETATM    7  C   UNL     1      -9.353   7.913  73.801  1.00  0.00    -0.212 C  
HETATM    8  N   UNL     1      -7.370   7.795  72.412  1.00  0.00    -0.078 NA 
HETATM    9  C   UNL     1      -6.600   7.804  71.263  1.00  0.00    -0.041 C  
HETATM   10  C   UNL     1      -5.196   8.331  71.456  1.00  0.00    -0.033 C  
HETATM   11  C   UNL     1      -7.131   7.395  70.081  1.00  0.00    -0.064 C  
HETATM   12  C   UNL     1      -8.606   6.930  70.012  1.00  0.00    -0.141 C  
BRANCH  11  13
HETATM   13  C   UNL     1      -6.295   7.487  68.846  1.00  0.00    -0.039 C  
HETATM   14  O   UNL     1      -5.405   6.693  68.571  1.00  0.00    -0.014 OA 
BRANCH  13  15
HETATM   15  O   UNL     1      -6.573   8.595  68.111  1.00  0.00    -0.059 OA 
BRANCH  15  16
HETATM   16  C   UNL     1      -5.519   9.579  68.097  1.00  0.00    -0.037 C  
HETATM   17  C   UNL     1      -6.925  11.449  67.070  1.00  0.00    -0.135 C  
HETATM   18  C   UNL     1      -6.001  11.032  68.213  1.00  0.00    -0.046 C  
HETATM   19  C   UNL     1      -6.673  11.301  69.558  1.00  0.00    -0.128 C  
ENDBRANCH  15  16
ENDBRANCH  13  15
ENDBRANCH  11  13
BRANCH  12  20
HETATM   20  C   UNL     1      -9.365   7.584  68.848  1.00  0.00    -0.142 A  
HETATM   21  O   UNL     1      -9.975   4.650  68.444  1.00  0.00    -0.139 OA 
HETATM   22  C   UNL     1      -9.580   8.978  68.890  1.00  0.00    -0.156 A  
HETATM   23  O   UNL     1      -9.268   5.136  66.426  1.00  0.00    -0.132 OA 
HETATM   24  C   UNL     1     -10.383   9.616  67.943  1.00  0.00    -0.271 A  
HETATM   25  N   UNL     1      -9.699   5.449  67.544  1.00  0.00    -0.130 N  
HETATM   26  C   UNL     1      -9.944   6.872  67.773  1.00  0.00    -0.148 A  
HETATM   27  C   UNL     1     -10.992   8.883  66.929  1.00  0.00     0.229 A  
HETATM   28  C   UNL     1     -10.767   7.512  66.832  1.00  0.00    -0.299 A  
ENDBRANCH  12  20
ENDBRANCH   3   5
ENDBRANCH   2   3
TORSDOF 6
ENDMDL
MODEL      161
REMARK 921   NORMALIZED FREE ENERGY PREDICTED BY IDOCK:   -3.23 KCAL/MOL
REMARK 922        TOTAL FREE ENERGY PREDICTED BY IDOCK:   -4.97 KCAL/MOL
REMARK 923 INTER-LIGAND FREE ENERGY PREDICTED BY IDOCK:   -5.29 KCAL/MOL
REMARK 924 INTRA-LIGAND FREE ENERGY PREDICTED BY IDOCK:    0.32 KCAL/MOL
REMARK 927      BINDING AFFINITY PREDICTED BY RF-SCORE:    0.00 PKD
ROOT
HETATM    1  C   UNL     1      -9.210   7.337  74.300  1.00  0.00    -0.190 C  
HETATM    2  O   UNL     1     -10.547   7.775  74.032  1.00  0.00     0.095 OA 
ENDROOT
BRANCH   2   3
HETATM    3  C   UNL     1     -11.021   7.425  72.816  1.00  0.00    -0.339 C  
HETATM    4  O   UNL     1     -11.335   6.284  72.498  1.00  0.00    -0.265 OA 
BRANCH   3   5
HETATM    5  C   UNL     1     -11.042   8.590  71.887  1.00  0.00    -0.395 C  
HETATM    6  C   UNL     1     -12.228   9.160  71.567  1.00  0.00    -0.349 C  
HETATM    7  C   UNL     1     -13.585   8.823  72.147  1.00  0.00    -0.480 C  
HETATM    8  N   UNL     1     -12.271  10.134  70.587  1.00  0.00    -0.299 NA 
HETATM    9  C   UNL     1     -11.228  10.462  69.740  1.00  0.00    -0.293 C  
HETATM   10  C   UNL     1     -11.621  11.348  68.580  1.00  0.00    -0.384 C  
HETATM   11  C   UNL     1      -9.983   9.967  69.966  1.00  0.00    -0.273 C  
HETATM   12  C   UNL     1      -9.729   9.021  71.165  1.00  0.00    -0.369 C  
BRANCH  11  13
HETATM   13  C   UNL     1      -8.896  10.282  68.990  1.00  0.00    -0.168 C  
HETATM   14  O   UNL     1      -8.905   9.912  67.824  1.00  0.00    -0.128 OA 
BRANCH  13  15
HETATM   15  O   UNL     1      -7.860  10.949  69.562  1.00  0.00    -0.095 OA 
BRANCH  15  16
HETATM   16  C   UNL     1      -6.558  10.523  69.112  1.00  0.00    -0.057 C  
HETATM   17  C   UNL     1      -6.173  12.494  67.531  1.00  0.00    -0.155 C  
HETATM   18  C   UNL     1      -5.623  11.665  68.692  1.00  0.00    -0.045 C  
HETATM   19  C   UNL     1      -5.273  12.574  69.868  1.00  0.00    -0.084 C  
ENDBRANCH  15  16
ENDBRANCH  13  15
ENDBRANCH  11  13
BRANCH  12  20
HETATM   20  C   UNL     1      -8.938   7.769  70.756  1.00  0.00    -0.148 A  
HETATM   21  O   UNL     1     -11.145   7.837  68.689  1.00  0.00     0.084 OA 
HETATM   22  C   UNL     1      -7.646   7.590  71.295  1.00  0.00    -0.081 A  
HETATM   23  O   UNL     1     -11.376   5.766  69.372  1.00  0.00    -0.247 OA 
HETATM   24  C   UNL     1      -6.817   6.555  70.859  1.00  0.00    -0.063 A  
HETATM   25  N   UNL     1     -10.737   6.821  69.261  1.00  0.00    -0.236 N  
HETATM   26  C   UNL     1      -9.380   6.822  69.804  1.00  0.00    -0.145 A  
HETATM   27  C   UNL     1      -7.253   5.671  69.875  1.00  0.00    -0.069 A  
HETATM   28  C   UNL     1      -8.538   5.793  69.353  1.00  0.00    -0.111 A  
ENDBRANCH  12  20
ENDBRANCH   3   5
ENDBRANCH   2   3
TORSDOF 6
ENDMDL
MODEL      162
REMARK 921   NORMALIZED FREE ENERGY PREDICTED BY IDOCK:   -3.19 KCAL/MOL
REMARK 922        TOTAL FREE ENERGY PREDICTED BY IDOCK:   -4.92 KCAL/MOL
REMARK 923 INTER-LIGAND FREE ENERGY PREDICTED BY IDOCK:   -5.26 KCAL/MOL
REMARK 924 INTRA-LIGAND FREE ENERGY PREDICTED BY IDOCK:    0.35 KCAL/MOL
REMARK 927      BINDING AFFINITY PREDICTED BY RF-SCORE:    0.00 PKD
ROOT
HETATM    1  C   UNL     1      -5.132  12.269  70.200  1.00  0.00    -0.092 C  
HETATM    2  O   UNL     1      -6.389  12.011  69.565  1.00  0.00    -0.106 OA 
ENDROOT
BRANCH   2   3
HETATM    3  C   UNL     1      -6.593  12.698  68.419  1.00  0.00    -0.081 C  
HETATM    4  O   UNL     1      -5.728  12.913  67.579  1.00  0.00    -0.179 OA 
BRANCH   3   5
HETATM    5  C   UNL     1      -7.984  13.226  68.346  1.00  0.00    -0.132 C  
HETATM    6  C   UNL     1      -8.276  14.409  68.937  1.00  0.00    -0.082 C  
HETATM    7  C   UNL     1      -7.300  15.363  69.592  1.00  0.00    -0.177 C  
HETATM    8  N   UNL     1      -9.592  14.827  69.009  1.00  0.00    -0.205 NA 
HETATM    9  C   UNL     1     -10.694  14.050  68.703  1.00  0.00    -0.259 C  
HETATM   10  C   UNL     1     -12.015  14.641  69.139  1.00  0.00    -0.329 C  
HETATM   11  C   UNL     1     -10.534  12.847  68.091  1.00  0.00    -0.245 C  
HETATM   12  C   UNL     1      -9.115  12.333  67.748  1.00  0.00    -0.191 C  
BRANCH  11  13
HETATM   13  C   UNL     1     -11.741  12.001  67.841  1.00  0.00    -0.323 C  
HETATM   14  O   UNL     1     -12.527  12.198  66.925  1.00  0.00    -0.129 OA 
BRANCH  13  15
HETATM   15  O   UNL     1     -11.914  11.047  68.793  1.00  0.00    -0.457 OA 
BRANCH  15  16
HETATM   16  C   UNL     1     -11.975  11.556  70.141  1.00  0.00    -0.369 C  
HETATM   17  C   UNL     1     -13.853  10.008  70.918  1.00  0.00     0.253 C  
HETATM   18  C   UNL     1     -12.445  10.536  71.187  1.00  0.00    -0.517 C  
HETATM   19  C   UNL     1     -11.465   9.374  71.329  1.00  0.00    -0.433 C  
ENDBRANCH  15  16
ENDBRANCH  13  15
ENDBRANCH  11  13
BRANCH  12  20
HETATM   20  C   UNL     1      -8.903  10.878  68.193  1.00  0.00    -0.137 A  
HETATM   21  O   UNL     1      -8.319  10.734  65.229  1.00  0.00    -0.160 OA 
HETATM   22  C   UNL     1      -8.773  10.615  69.573  1.00  0.00     0.030 A  
HETATM   23  O   UNL     1      -9.776   9.101  65.374  1.00  0.00    -0.207 OA 
HETATM   24  C   UNL     1      -8.436   9.342  70.039  1.00  0.00    -0.202 A  
HETATM   25  N   UNL     1      -8.969   9.899  65.868  1.00  0.00    -0.146 N  
HETATM   26  C   UNL     1      -8.740   9.788  67.307  1.00  0.00    -0.132 A  
HETATM   27  C   UNL     1      -8.220   8.299  69.142  1.00  0.00    -0.121 A  
HETATM   28  C   UNL     1      -8.383   8.514  67.776  1.00  0.00    -0.130 A  
ENDBRANCH  12  20
ENDBRANCH   3   5
ENDBRANCH   2   3
TORSDOF 6
ENDMDL
MODEL      163
REMARK 921   NORMALIZED FREE ENERGY PREDICTED BY IDOCK:   -3.10 KCAL/MOL
REMARK 922        TOTAL FREE ENERGY PREDICTED BY IDOCK:   -4.79 KCAL/MOL
REMARK 923 INTER-LIGAND FREE ENERGY PREDICTED BY IDOCK:   -5.51 KCAL/MOL
REMARK 924 INTRA-LIGAND FREE ENERGY PREDICTED BY IDOCK:    0.72 KCAL/MOL
REMARK 927      BINDING AFFINITY PREDICTED BY RF-SCORE:    0.00 PKD
ROOT
HETATM    1  C   UNL     1      -7.451  10.355  65.582  1.00  0.00    -0.149 C  
HETATM    2  O   UNL     1      -8.475  10.612  66.550  1.00  0.00    -0.135 OA 
ENDROOT
BRANCH   2   3
HETATM    3  C   UNL     1      -9.678  10.072  66.255  1.00  0.00    -0.214 C  
HETATM    4  O   UNL     1     -10.030   9.741  65.129  1.00  0.00    -0.309 OA 
BRANCH   3   5
HETATM    5  C   UNL     1     -10.550   9.999  67.461  1.00  0.00    -0.336 C  
HETATM    6  C   UNL     1     -11.047  11.143  67.989  1.00  0.00    -0.276 C  
HETATM    7  C   UNL     1     -10.920  12.539  67.416  1.00  0.00    -0.297 C  
HETATM    8  N   UNL     1     -11.722  11.099  69.194  1.00  0.00    -0.311 NA 
HETATM    9  C   UNL     1     -11.778  10.005  70.038  1.00  0.00    -0.175 C  
HETATM   10  C   UNL     1     -12.330  10.305  71.413  1.00  0.00    -0.502 C  
HETATM   11  C   UNL     1     -11.326   8.794  69.618  1.00  0.00     0.164 C  
HETATM   12  C   UNL     1     -10.731   8.637  68.198  1.00  0.00    -0.116 C  
BRANCH  11  13
HETATM   13  C   UNL     1     -11.334   7.651  70.581  1.00  0.00    -0.272 C  
HETATM   14  O   UNL     1     -12.034   6.656  70.445  1.00  0.00    -0.396 OA 
BRANCH  13  15
HETATM   15  O   UNL     1     -10.546   7.876  71.664  1.00  0.00    -0.214 OA 
BRANCH  15  16
HETATM   16  C   UNL     1      -9.549   6.860  71.897  1.00  0.00    -0.154 C  
HETATM   17  C   UNL     1      -8.437   8.036  73.874  1.00  0.00    -0.321 C  
HETATM   18  C   UNL     1      -9.078   6.750  73.354  1.00  0.00    -0.152 C  
HETATM   19  C   UNL     1     -10.206   6.311  74.284  1.00  0.00    -0.351 C  
ENDBRANCH  15  16
ENDBRANCH  13  15
ENDBRANCH  11  13
BRANCH  12  20
HETATM   20  C   UNL     1      -9.392   7.883  68.212  1.00  0.00    -0.145 A  
HETATM   21  O   UNL     1      -8.997   9.934  70.399  1.00  0.00    -0.160 OA 
HETATM   22  C   UNL     1      -9.318   6.643  67.543  1.00  0.00    -0.126 A  
HETATM   23  O   UNL     1      -7.177  10.316  69.235  1.00  0.00    -0.072 OA 
HETATM   24  C   UNL     1      -8.180   5.839  67.635  1.00  0.00    -0.101 A  
HETATM   25  N   UNL     1      -8.148   9.619  69.557  1.00  0.00    -0.114 N  
HETATM   26  C   UNL     1      -8.247   8.305  68.925  1.00  0.00    -0.116 A  
HETATM   27  C   UNL     1      -7.088   6.248  68.394  1.00  0.00    -0.083 A  
HETATM   28  C   UNL     1      -7.111   7.486  69.032  1.00  0.00    -0.079 A  
ENDBRANCH  12  20
ENDBRANCH   3   5
ENDBRANCH   2   3
TORSDOF 6
ENDMDL
MODEL      164
REMARK 921   NORMALIZED FREE ENERGY PREDICTED BY IDOCK:   -3.09 KCAL/MOL
REMARK 922        TOTAL FREE ENERGY PREDICTED BY IDOCK:   -4.78 KCAL/MOL
REMARK 923 INTER-LIGAND FREE ENERGY PREDICTED BY IDOCK:   -4.18 KCAL/MOL
REMARK 924 INTRA-LIGAND FREE ENERGY PREDICTED BY IDOCK:   -0.60 KCAL/MOL
REMARK 927      BINDING AFFINITY PREDICTED BY RF-SCORE:    0.00 PKD
ROOT
HETATM    1  C   UNL     1      -8.071   9.226  64.563  1.00  0.00    -0.139 C  
HETATM    2  O   UNL     1      -8.261   8.056  65.368  1.00  0.00    -0.136 OA 
ENDROOT
BRANCH   2   3
HETATM    3  C   UNL     1      -7.377   7.921  66.382  1.00  0.00    -0.086 C  
HETATM    4  O   UNL     1      -6.385   8.624  66.533  1.00  0.00    -0.057 OA 
BRANCH   3   5
HETATM    5  C   UNL     1      -7.723   6.760  67.250  1.00  0.00    -0.109 C  
HETATM    6  C   UNL     1      -7.726   5.515  66.719  1.00  0.00    -0.100 C  
HETATM    7  C   UNL     1      -7.290   5.120  65.324  1.00  0.00    -0.068 C  
HETATM    8  N   UNL     1      -8.197   4.456  67.472  1.00  0.00    -0.099 NA 
HETATM    9  C   UNL     1      -8.865   4.569  68.678  1.00  0.00    -0.102 C  
HETATM   10  C   UNL     1      -9.524   3.292  69.148  1.00  0.00    -0.189 C  
HETATM   11  C   UNL     1      -8.919   5.764  69.320  1.00  0.00    -0.122 C  
HETATM   12  C   UNL     1      -8.245   7.011  68.698  1.00  0.00    -0.122 C  
BRANCH  11  13
HETATM   13  C   UNL     1      -9.711   5.867  70.584  1.00  0.00    -0.176 C  
HETATM   14  O   UNL     1     -10.906   6.127  70.614  1.00  0.00    -0.255 OA 
BRANCH  13  15
HETATM   15  O   UNL     1      -8.940   5.726  71.694  1.00  0.00    -0.136 OA 
BRANCH  15  16
HETATM   16  C   UNL     1      -9.671   5.785  72.936  1.00  0.00    -0.155 C  
HETATM   17  C   UNL     1      -7.966   4.459  74.302  1.00  0.00    -0.092 C  
HETATM   18  C   UNL     1      -8.793   5.740  74.195  1.00  0.00    -0.122 C  
HETATM   19  C   UNL     1      -7.886   6.963  74.299  1.00  0.00    -0.126 C  
ENDBRANCH  15  16
ENDBRANCH  13  15
ENDBRANCH  11  13
BRANCH  12  20
HETATM   20  C   UNL     1      -9.176   8.233  68.698  1.00  0.00    -0.143 A  
HETATM   21  O   UNL     1      -7.153   8.966  70.824  1.00  0.00    -0.059 OA 
HETATM   22  C   UNL     1     -10.060   8.399  67.611  1.00  0.00    -0.268 A  
HETATM   23  O   UNL     1      -8.994   9.308  71.967  1.00  0.00    -0.251 OA 
HETATM   24  C   UNL     1     -10.829   9.556  67.474  1.00  0.00    -0.239 A  
HETATM   25  N   UNL     1      -8.372   9.152  70.907  1.00  0.00    -0.191 N  
HETATM   26  C   UNL     1      -9.149   9.256  69.674  1.00  0.00    -0.167 A  
HETATM   27  C   UNL     1     -10.739  10.577  68.416  1.00  0.00    -0.262 A  
HETATM   28  C   UNL     1      -9.910  10.427  69.524  1.00  0.00    -0.211 A  
ENDBRANCH  12  20
ENDBRANCH   3   5
ENDBRANCH   2   3
TORSDOF 6
ENDMDL
MODEL      165
REMARK 921   NORMALIZED FREE ENERGY PREDICTED BY IDOCK:   -3.05 KCAL/MOL
REMARK 922        TOTAL FREE ENERGY PREDICTED BY IDOCK:   -4.72 KCAL/MOL
REMARK 923 INTER-LIGAND FREE ENERGY PREDICTED BY IDOCK:   -2.94 KCAL/MOL
REMARK 924 INTRA-LIGAND FREE ENERGY PREDICTED BY IDOCK:   -1.78 KCAL/MOL
REMARK 927      BINDING AFFINITY PREDICTED BY RF-SCORE:    0.00 PKD
ROOT
HETATM    1  C   UNL     1      -6.747   6.232  66.534  1.00  0.00    -0.060 C  
HETATM    2  O   UNL     1      -8.012   6.760  66.950  1.00  0.00    -0.106 OA 
ENDROOT
BRANCH   2   3
HETATM    3  C   UNL     1      -8.998   5.842  67.056  1.00  0.00    -0.116 C  
HETATM    4  O   UNL     1      -9.146   4.895  66.294  1.00  0.00    -0.120 OA 
BRANCH   3   5
HETATM    5  C   UNL     1      -9.926   6.173  68.174  1.00  0.00    -0.158 C  
HETATM    6  C   UNL     1     -10.724   7.262  68.072  1.00  0.00    -0.146 C  
HETATM    7  C   UNL     1     -10.885   8.162  66.865  1.00  0.00    -0.007 C  
HETATM    8  N   UNL     1     -11.469   7.664  69.165  1.00  0.00     0.432 NA 
HETATM    9  C   UNL     1     -11.334   7.167  70.449  1.00  0.00    -0.289 C  
HETATM   10  C   UNL     1     -12.056   7.970  71.508  1.00  0.00    -0.330 C  
HETATM   11  C   UNL     1     -10.573   6.066  70.680  1.00  0.00    -0.322 C  
HETATM   12  C   UNL     1      -9.839   5.369  69.508  1.00  0.00    -0.264 C  
BRANCH  11  13
HETATM   13  C   UNL     1     -10.390   5.600  72.088  1.00  0.00    -0.209 C  
HETATM   14  O   UNL     1     -11.193   4.888  72.676  1.00  0.00    -0.199 OA 
BRANCH  13  15
HETATM   15  O   UNL     1      -9.280   6.126  72.670  1.00  0.00    -0.141 OA 
BRANCH  15  16
HETATM   16  C   UNL     1      -9.043   5.670  74.017  1.00  0.00    -0.126 C  
HETATM   17  C   UNL     1      -7.437   3.789  73.376  1.00  0.00    -0.069 C  
HETATM   18  C   UNL     1      -7.667   5.028  74.240  1.00  0.00    -0.093 C  
HETATM   19  C   UNL     1      -6.533   6.029  74.037  1.00  0.00    -0.071 C  
ENDBRANCH  15  16
ENDBRANCH  13  15
ENDBRANCH  11  13
BRANCH  12  20
HETATM   20  C   UNL     1      -8.366   5.084  69.835  1.00  0.00    -0.081 A  
HETATM   21  O   UNL     1      -9.269   2.471  68.610  1.00  0.00    -0.147 OA 
HETATM   22  C   UNL     1      -7.524   6.178  70.128  1.00  0.00    -0.094 A  
HETATM   23  O   UNL     1      -8.383   1.696  70.461  1.00  0.00    -0.041 OA 
HETATM   24  C   UNL     1      -6.148   6.008  70.292  1.00  0.00    -0.030 A  
HETATM   25  N   UNL     1      -8.545   2.577  69.606  1.00  0.00    -0.059 N  
HETATM   26  C   UNL     1      -7.770   3.804  69.778  1.00  0.00    -0.051 A  
HETATM   27  C   UNL     1      -5.575   4.745  70.170  1.00  0.00    -0.015 A  
HETATM   28  C   UNL     1      -6.383   3.637  69.925  1.00  0.00    -0.028 A  
ENDBRANCH  12  20
ENDBRANCH   3   5
ENDBRANCH   2   3
TORSDOF 6
ENDMDL
MODEL      166
REMARK 921   NORMALIZED FREE ENERGY PREDICTED BY IDOCK:   -3.04 KCAL/MOL
REMARK 922        TOTAL FREE ENERGY PREDICTED BY IDOCK:   -4.72 KCAL/MOL
REMARK 923 INTER-LIGAND FREE ENERGY PREDICTED BY IDOCK:   -4.83 KCAL/MOL
REMARK 924 INTRA-LIGAND FREE ENERGY PREDICTED BY IDOCK:    0.11 KCAL/MOL
REMARK 927      BINDING AFFINITY PREDICTED BY RF-SCORE:    0.00 PKD
ROOT
HETATM    1  C   UNL     1     -12.776  14.767  70.486  1.00  0.00    -0.343 C  
HETATM    2  O   UNL     1     -12.322  14.093  69.306  1.00  0.00    -0.311 OA 
ENDROOT
BRANCH   2   3
HETATM    3  C   UNL     1     -11.394  14.768  68.593  1.00  0.00    -0.285 C  
HETATM    4  O   UNL     1     -11.552  15.898  68.147  1.00  0.00    -0.329 OA 
BRANCH   3   5
HETATM    5  C   UNL     1     -10.182  13.934  68.356  1.00  0.00    -0.243 C  
HETATM    6  C   UNL     1      -8.997  14.322  68.884  1.00  0.00    -0.025 C  
HETATM    7  C   UNL     1      -8.758  15.484  69.825  1.00  0.00     0.004 C  
HETATM    8  N   UNL     1      -7.844  13.644  68.538  1.00  0.00    -0.139 NA 
HETATM    9  C   UNL     1      -7.743  12.704  67.529  1.00  0.00    -0.161 C  
HETATM   10  C   UNL     1      -6.324  12.329  67.165  1.00  0.00    -0.117 C  
HETATM   11  C   UNL     1      -8.863  12.221  66.930  1.00  0.00    -0.207 C  
HETATM   12  C   UNL     1     -10.258  12.734  67.363  1.00  0.00    -0.222 C  
BRANCH  11  13
HETATM   13  C   UNL     1      -8.714  11.262  65.793  1.00  0.00    -0.109 C  
HETATM   14  O   UNL     1      -8.881  11.569  64.621  1.00  0.00     0.143 OA 
BRANCH  13  15
HETATM   15  O   UNL     1      -8.459   9.995  66.212  1.00  0.00    -0.127 OA 
BRANCH  15  16
HETATM   16  C   UNL     1      -9.418   9.016  65.764  1.00  0.00    -0.236 C  
HETATM   17  C   UNL     1      -9.054   7.390  67.702  1.00  0.00    -0.126 C  
HETATM   18  C   UNL     1     -10.066   8.196  66.888  1.00  0.00    -0.367 C  
HETATM   19  C   UNL     1     -10.910   9.069  67.813  1.00  0.00    -0.125 C  
ENDBRANCH  15  16
ENDBRANCH  13  15
ENDBRANCH  11  13
BRANCH  12  20
HETATM   20  C   UNL     1     -11.131  13.122  66.160  1.00  0.00    -0.301 A  
HETATM   21  O   UNL     1      -8.642  14.780  65.708  1.00  0.00     0.601 OA 
HETATM   22  C   UNL     1     -12.244  12.310  65.854  1.00  0.00    -0.097 A  
HETATM   23  O   UNL     1     -10.149  16.366  65.541  1.00  0.00    -0.508 OA 
HETATM   24  C   UNL     1     -12.994  12.518  64.695  1.00  0.00    -0.176 A  
HETATM   25  N   UNL     1      -9.801  15.177  65.546  1.00  0.00    -0.340 N  
HETATM   26  C   UNL     1     -10.847  14.191  65.280  1.00  0.00    -0.349 A  
HETATM   27  C   UNL     1     -12.657  13.540  63.812  1.00  0.00    -0.147 A  
HETATM   28  C   UNL     1     -11.592  14.387  64.106  1.00  0.00    -0.183 A  
ENDBRANCH  12  20
ENDBRANCH   3   5
ENDBRANCH   2   3
TORSDOF 6
ENDMDL
MODEL      167
REMARK 921   NORMALIZED FREE ENERGY PREDICTED BY IDOCK:   -3.04 KCAL/MOL
REMARK 922        TOTAL FREE ENERGY PREDICTED BY IDOCK:   -4.71 KCAL/MOL
REMARK 923 INTER-LIGAND FREE ENERGY PREDICTED BY IDOCK:   -4.25 KCAL/MOL
REMARK 924 INTRA-LIGAND FREE ENERGY PREDICTED BY IDOCK:   -0.46 KCAL/MOL
REMARK 927      BINDING AFFINITY PREDICTED BY RF-SCORE:    0.00 PKD
ROOT
HETATM    1  C   UNL     1      -7.751  10.245  62.907  1.00  0.00    -0.149 C  
HETATM    2  O   UNL     1      -8.359  10.182  64.202  1.00  0.00    -0.155 OA 
ENDROOT
BRANCH   2   3
HETATM    3  C   UNL     1      -7.492  10.252  65.236  1.00  0.00    -0.141 C  
HETATM    4  O   UNL     1      -6.344  10.673  65.148  1.00  0.00    -0.096 OA 
BRANCH   3   5
HETATM    5  C   UNL     1      -8.084   9.684  66.479  1.00  0.00    -0.119 C  
HETATM    6  C   UNL     1      -8.270   8.346  66.573  1.00  0.00    -0.105 C  
HETATM    7  C   UNL     1      -7.826   7.295  65.578  1.00  0.00    -0.115 C  
HETATM    8  N   UNL     1      -8.961   7.829  67.652  1.00  0.00    -0.127 NA 
HETATM    9  C   UNL     1      -9.670   8.574  68.577  1.00  0.00    -0.163 C  
HETATM   10  C   UNL     1     -10.566   7.758  69.480  1.00  0.00    -0.221 C  
HETATM   11  C   UNL     1      -9.555   9.928  68.597  1.00  0.00    -0.159 C  
HETATM   12  C   UNL     1      -8.640  10.645  67.575  1.00  0.00    -0.122 C  
BRANCH  11  13
HETATM   13  C   UNL     1     -10.392  10.706  69.560  1.00  0.00    -0.182 C  
HETATM   14  O   UNL     1     -10.450  10.461  70.758  1.00  0.00     0.060 OA 
BRANCH  13  15
HETATM   15  O   UNL     1     -11.143  11.657  68.947  1.00  0.00    -0.203 OA 
BRANCH  15  16
HETATM   16  C   UNL     1     -12.095  12.311  69.810  1.00  0.00    -0.229 C  
HETATM   17  C   UNL     1     -10.711  14.429  70.165  1.00  0.00     0.203 C  
HETATM   18  C   UNL     1     -12.061  13.845  69.752  1.00  0.00    -0.404 C  
HETATM   19  C   UNL     1     -12.463  14.370  68.377  1.00  0.00     0.190 C  
ENDBRANCH  15  16
ENDBRANCH  13  15
ENDBRANCH  11  13
BRANCH  12  20
HETATM   20  C   UNL     1      -9.345  11.832  66.900  1.00  0.00    -0.197 A  
HETATM   21  O   UNL     1      -6.619  12.979  67.533  1.00  0.00    -0.151 OA 
HETATM   22  C   UNL     1     -10.531  11.580  66.177  1.00  0.00    -0.296 A  
HETATM   23  O   UNL     1      -7.869  14.543  68.429  1.00  0.00    -0.120 OA 
HETATM   24  C   UNL     1     -11.144  12.582  65.422  1.00  0.00    -0.337 A  
HETATM   25  N   UNL     1      -7.693  13.573  67.680  1.00  0.00    -0.161 N  
HETATM   26  C   UNL     1      -8.840  13.152  66.878  1.00  0.00    -0.179 A  
HETATM   27  C   UNL     1     -10.592  13.859  65.367  1.00  0.00    -0.344 A  
HETATM   28  C   UNL     1      -9.448  14.153  66.103  1.00  0.00    -0.229 A  
ENDBRANCH  12  20
ENDBRANCH   3   5
ENDBRANCH   2   3
TORSDOF 6
ENDMDL
MODEL      168
REMARK 921   NORMALIZED FREE ENERGY PREDICTED BY IDOCK:   -3.03 KCAL/MOL
REMARK 922        TOTAL FREE ENERGY PREDICTED BY IDOCK:   -4.70 KCAL/MOL
REMARK 923 INTER-LIGAND FREE ENERGY PREDICTED BY IDOCK:   -5.72 KCAL/MOL
REMARK 924 INTRA-LIGAND FREE ENERGY PREDICTED BY IDOCK:    1.02 KCAL/MOL
REMARK 927      BINDING AFFINITY PREDICTED BY RF-SCORE:    0.00 PKD
ROOT
HETATM    1  C   UNL     1      -9.676   7.133  66.557  1.00  0.00    -0.133 C  
HETATM    2  O   UNL     1      -8.287   7.477  66.505  1.00  0.00    -0.117 OA 
ENDROOT
BRANCH   2   3
HETATM    3  C   UNL     1      -8.023   8.672  65.932  1.00  0.00    -0.105 C  
HETATM    4  O   UNL     1      -6.963   8.959  65.388  1.00  0.00    -0.078 OA 
BRANCH   3   5
HETATM    5  C   UNL     1      -9.157   9.621  66.113  1.00  0.00    -0.201 C  
HETATM    6  C   UNL     1      -9.679  10.244  65.030  1.00  0.00    -0.305 C  
HETATM    7  C   UNL     1      -9.318  10.001  63.580  1.00  0.00    -0.301 C  
HETATM    8  N   UNL     1     -10.620  11.241  65.207  1.00  0.00    -0.275 NA 
HETATM    9  C   UNL     1     -10.953  11.818  66.419  1.00  0.00    -0.294 C  
HETATM   10  C   UNL     1     -11.790  13.072  66.303  1.00  0.00    -0.466 C  
HETATM   11  C   UNL     1     -10.506  11.275  67.581  1.00  0.00    -0.225 C  
HETATM   12  C   UNL     1      -9.606  10.016  67.554  1.00  0.00    -0.178 C  
BRANCH  11  13
HETATM   13  C   UNL     1     -10.824  11.967  68.867  1.00  0.00    -0.221 C  
HETATM   14  O   UNL     1     -10.711  13.174  69.033  1.00  0.00    -0.205 OA 
BRANCH  13  15
HETATM   15  O   UNL     1     -11.168  11.098  69.853  1.00  0.00    -0.261 OA 
BRANCH  15  16
HETATM   16  C   UNL     1     -12.513  10.587  69.753  1.00  0.00    -0.064 C  
HETATM   17  C   UNL     1     -12.429   9.215  71.907  1.00  0.00    -0.459 C  
HETATM   18  C   UNL     1     -13.179  10.275  71.101  1.00  0.00    -0.429 C  
HETATM   19  C   UNL     1     -13.377  11.533  71.942  1.00  0.00    -0.408 C  
ENDBRANCH  15  16
ENDBRANCH  13  15
ENDBRANCH  11  13
BRANCH  12  20
HETATM   20  C   UNL     1      -8.367  10.170  68.449  1.00  0.00    -0.113 A  
HETATM   21  O   UNL     1      -8.253  12.675  66.758  1.00  0.00    -0.100 OA 
HETATM   22  C   UNL     1      -8.264   9.349  69.592  1.00  0.00    -0.136 A  
HETATM   23  O   UNL     1      -6.209  11.949  66.437  1.00  0.00    -0.083 OA 
HETATM   24  C   UNL     1      -7.242   9.534  70.525  1.00  0.00    -0.141 A  
HETATM   25  N   UNL     1      -7.281  11.973  67.056  1.00  0.00    -0.129 N  
HETATM   26  C   UNL     1      -7.360  11.143  68.256  1.00  0.00    -0.090 A  
HETATM   27  C   UNL     1      -6.297  10.539  70.344  1.00  0.00    -0.126 A  
HETATM   28  C   UNL     1      -6.344  11.339  69.206  1.00  0.00    -0.081 A  
ENDBRANCH  12  20
ENDBRANCH   3   5
ENDBRANCH   2   3
TORSDOF 6
ENDMDL
MODEL      169
REMARK 921   NORMALIZED FREE ENERGY PREDICTED BY IDOCK:   -3.02 KCAL/MOL
REMARK 922        TOTAL FREE ENERGY PREDICTED BY IDOCK:   -4.68 KCAL/MOL
REMARK 923 INTER-LIGAND FREE ENERGY PREDICTED BY IDOCK:   -6.46 KCAL/MOL
REMARK 924 INTRA-LIGAND FREE ENERGY PREDICTED BY IDOCK:    1.78 KCAL/MOL
REMARK 927      BINDING AFFINITY PREDICTED BY RF-SCORE:    0.00 PKD
ROOT
HETATM    1  C   UNL     1     -10.686  15.286  64.915  1.00  0.00    -0.400 C  
HETATM    2  O   UNL     1      -9.797  14.179  65.100  1.00  0.00    -0.276 OA 
ENDROOT
BRANCH   2   3
HETATM    3  C   UNL     1     -10.332  12.972  64.811  1.00  0.00    -0.336 C  
HETATM    4  O   UNL     1     -10.430  12.513  63.679  1.00  0.00    -0.425 OA 
BRANCH   3   5
HETATM    5  C   UNL     1     -10.854  12.303  66.035  1.00  0.00    -0.310 C  
HETATM    6  C   UNL     1     -11.974  12.784  66.625  1.00  0.00    -0.341 C  
HETATM    7  C   UNL     1     -12.869  13.892  66.111  1.00  0.00    -0.202 C  
HETATM    8  N   UNL     1     -12.374  12.271  67.845  1.00  0.00    -0.126 NA 
HETATM    9  C   UNL     1     -11.621  11.428  68.641  1.00  0.00    -0.320 C  
HETATM   10  C   UNL     1     -12.160  11.247  70.043  1.00  0.00    -0.425 C  
HETATM   11  C   UNL     1     -10.483  10.866  68.158  1.00  0.00    -0.211 C  
HETATM   12  C   UNL     1     -10.013  11.181  66.717  1.00  0.00    -0.242 C  
BRANCH  11  13
HETATM   13  C   UNL     1      -9.656  10.018  69.069  1.00  0.00    -0.196 C  
HETATM   14  O   UNL     1      -8.615  10.399  69.589  1.00  0.00    -0.145 OA 
BRANCH  13  15
HETATM   15  O   UNL     1     -10.140   8.755  69.187  1.00  0.00    -0.187 OA 
BRANCH  15  16
HETATM   16  C   UNL     1      -9.558   7.993  70.265  1.00  0.00    -0.171 C  
HETATM   17  C   UNL     1     -11.459   8.398  71.924  1.00  0.00    -0.384 C  
HETATM   18  C   UNL     1     -10.578   7.364  71.224  1.00  0.00    -0.231 C  
HETATM   19  C   UNL     1     -11.445   6.319  70.526  1.00  0.00    -0.407 C  
ENDBRANCH  15  16
ENDBRANCH  13  15
ENDBRANCH  11  13
BRANCH  12  20
HETATM   20  C   UNL     1      -8.524  11.555  66.662  1.00  0.00    -0.172 A  
HETATM   21  O   UNL     1      -9.544  13.304  68.909  1.00  0.00     0.001 OA 
HETATM   22  C   UNL     1      -7.650  10.710  65.946  1.00  0.00    -0.138 A  
HETATM   23  O   UNL     1      -8.543  14.839  67.704  1.00  0.00    -0.157 OA 
HETATM   24  C   UNL     1      -6.268  10.908  65.974  1.00  0.00    -0.115 A  
HETATM   25  N   UNL     1      -8.752  13.663  68.031  1.00  0.00    -0.167 N  
HETATM   26  C   UNL     1      -7.950  12.646  67.354  1.00  0.00    -0.177 A  
HETATM   27  C   UNL     1      -5.722  11.953  66.714  1.00  0.00    -0.060 A  
HETATM   28  C   UNL     1      -6.559  12.832  67.396  1.00  0.00    -0.140 A  
ENDBRANCH  12  20
ENDBRANCH   3   5
ENDBRANCH   2   3
TORSDOF 6
ENDMDL
MODEL      170
REMARK 921   NORMALIZED FREE ENERGY PREDICTED BY IDOCK:   -3.00 KCAL/MOL
REMARK 922        TOTAL FREE ENERGY PREDICTED BY IDOCK:   -4.66 KCAL/MOL
REMARK 923 INTER-LIGAND FREE ENERGY PREDICTED BY IDOCK:   -5.75 KCAL/MOL
REMARK 924 INTRA-LIGAND FREE ENERGY PREDICTED BY IDOCK:    1.09 KCAL/MOL
REMARK 927      BINDING AFFINITY PREDICTED BY RF-SCORE:    0.00 PKD
ROOT
HETATM    1  C   UNL     1     -10.580  19.230  67.656  1.00  0.00    -0.447 C  
HETATM    2  O   UNL     1     -10.043  17.904  67.581  1.00  0.00    -0.317 OA 
ENDROOT
BRANCH   2   3
HETATM    3  C   UNL     1     -10.175  17.178  68.714  1.00  0.00    -0.332 C  
HETATM    4  O   UNL     1     -11.048  17.361  69.554  1.00  0.00     0.290 OA 
BRANCH   3   5
HETATM    5  C   UNL     1      -9.078  16.179  68.847  1.00  0.00    -0.246 C  
HETATM    6  C   UNL     1      -7.793  16.603  68.854  1.00  0.00    -0.240 C  
HETATM    7  C   UNL     1      -7.309  18.038  68.862  1.00  0.00    -0.249 C  
HETATM    8  N   UNL     1      -6.770  15.674  68.818  1.00  0.00    -0.112 NA 
HETATM    9  C   UNL     1      -6.928  14.322  68.573  1.00  0.00    -0.102 C  
HETATM   10  C   UNL     1      -5.638  13.582  68.301  1.00  0.00    -0.101 C  
HETATM   11  C   UNL     1      -8.169  13.771  68.557  1.00  0.00    -0.124 C  
HETATM   12  C   UNL     1      -9.416  14.657  68.798  1.00  0.00    -0.199 C  
BRANCH  11  13
HETATM   13  C   UNL     1      -8.308  12.322  68.218  1.00  0.00    -0.174 C  
HETATM   14  O   UNL     1      -8.244  11.423  69.046  1.00  0.00    -0.096 OA 
BRANCH  13  15
HETATM   15  O   UNL     1      -8.426  12.110  66.881  1.00  0.00    -0.185 OA 
BRANCH  15  16
HETATM   16  C   UNL     1      -8.346  10.724  66.489  1.00  0.00    -0.146 C  
HETATM   17  C   UNL     1     -10.782  10.163  67.023  1.00  0.00    -0.264 C  
HETATM   18  C   UNL     1      -9.666  10.128  65.979  1.00  0.00    -0.285 C  
HETATM   19  C   UNL     1     -10.131  10.799  64.689  1.00  0.00    -0.410 C  
ENDBRANCH  15  16
ENDBRANCH  13  15
ENDBRANCH  11  13
BRANCH  12  20
HETATM   20  C   UNL     1     -10.511  14.412  67.749  1.00  0.00    -0.245 A  
HETATM   21  O   UNL     1      -8.206  15.392  66.053  1.00  0.00     0.232 OA 
HETATM   22  C   UNL     1     -11.635  13.645  68.124  1.00  0.00    -0.367 A  
HETATM   23  O   UNL     1      -9.768  16.753  65.333  1.00  0.00    -0.510 OA 
HETATM   24  C   UNL     1     -12.595  13.263  67.186  1.00  0.00     0.350 A  
HETATM   25  N   UNL     1      -9.387  15.726  65.910  1.00  0.00    -0.338 N  
HETATM   26  C   UNL     1     -10.432  14.829  66.400  1.00  0.00    -0.293 A  
HETATM   27  C   UNL     1     -12.463  13.634  65.851  1.00  0.00    -0.502 A  
HETATM   28  C   UNL     1     -11.389  14.427  65.455  1.00  0.00    -0.339 A  
ENDBRANCH  12  20
ENDBRANCH   3   5
ENDBRANCH   2   3
TORSDOF 6
ENDMDL
MODEL      171
REMARK 921   NORMALIZED FREE ENERGY PREDICTED BY IDOCK:   -2.99 KCAL/MOL
REMARK 922        TOTAL FREE ENERGY PREDICTED BY IDOCK:   -4.65 KCAL/MOL
REMARK 923 INTER-LIGAND FREE ENERGY PREDICTED BY IDOCK:   -4.42 KCAL/MOL
REMARK 924 INTRA-LIGAND FREE ENERGY PREDICTED BY IDOCK:   -0.22 KCAL/MOL
REMARK 927      BINDING AFFINITY PREDICTED BY RF-SCORE:    0.00 PKD
ROOT
HETATM    1  C   UNL     1     -11.434  14.913  64.348  1.00  0.00    -0.247 C  
HETATM    2  O   UNL     1     -11.187  14.328  65.632  1.00  0.00    -0.303 OA 
ENDROOT
BRANCH   2   3
HETATM    3  C   UNL     1     -11.456  13.006  65.709  1.00  0.00    -0.332 C  
HETATM    4  O   UNL     1     -12.295  12.514  66.454  1.00  0.00    -0.537 OA 
BRANCH   3   5
HETATM    5  C   UNL     1     -10.550  12.217  64.828  1.00  0.00    -0.335 C  
HETATM    6  C   UNL     1     -11.007  11.777  63.632  1.00  0.00    -0.439 C  
HETATM    7  C   UNL     1     -12.342  12.098  62.995  1.00  0.00    -0.150 C  
HETATM    8  N   UNL     1     -10.229  10.914  62.883  1.00  0.00    -0.155 NA 
HETATM    9  C   UNL     1      -9.082  10.282  63.328  1.00  0.00    -0.265 C  
HETATM   10  C   UNL     1      -8.587   9.177  62.423  1.00  0.00    -0.226 C  
HETATM   11  C   UNL     1      -8.515  10.646  64.508  1.00  0.00    -0.080 C  
HETATM   12  C   UNL     1      -9.160  11.760  65.368  1.00  0.00     0.063 C  
BRANCH  11  13
HETATM   13  C   UNL     1      -7.320   9.893  64.994  1.00  0.00    -0.135 C  
HETATM   14  O   UNL     1      -6.219  10.403  65.159  1.00  0.00    -0.122 OA 
BRANCH  13  15
HETATM   15  O   UNL     1      -7.567   8.566  65.148  1.00  0.00    -0.087 OA 
BRANCH  15  16
HETATM   16  C   UNL     1      -6.633   7.704  64.468  1.00  0.00    -0.048 C  
HETATM   17  C   UNL     1      -6.468   5.973  66.341  1.00  0.00    -0.046 C  
HETATM   18  C   UNL     1      -6.733   6.222  64.857  1.00  0.00    -0.043 C  
HETATM   19  C   UNL     1      -8.076   5.619  64.453  1.00  0.00    -0.128 C  
ENDBRANCH  15  16
ENDBRANCH  13  15
ENDBRANCH  11  13
BRANCH  12  20
HETATM   20  C   UNL     1      -9.296  11.348  66.842  1.00  0.00    -0.191 A  
HETATM   21  O   UNL     1      -8.474  14.251  67.060  1.00  0.00    -0.210 OA 
HETATM   22  C   UNL     1      -9.976  10.148  67.139  1.00  0.00    -0.243 A  
HETATM   23  O   UNL     1      -6.978  13.367  68.398  1.00  0.00    -0.086 OA 
HETATM   24  C   UNL     1     -10.262   9.786  68.456  1.00  0.00    -0.209 A  
HETATM   25  N   UNL     1      -8.043  13.334  67.768  1.00  0.00    -0.151 N  
HETATM   26  C   UNL     1      -8.862  12.135  67.933  1.00  0.00    -0.177 A  
HETATM   27  C   UNL     1      -9.878  10.608  69.512  1.00  0.00    -0.115 A  
HETATM   28  C   UNL     1      -9.167  11.778  69.257  1.00  0.00     0.569 A  
ENDBRANCH  12  20
ENDBRANCH   3   5
ENDBRANCH   2   3
TORSDOF 6
ENDMDL
MODEL      172
REMARK 921   NORMALIZED FREE ENERGY PREDICTED BY IDOCK:   -2.98 KCAL/MOL
REMARK 922        TOTAL FREE ENERGY PREDICTED BY IDOCK:   -4.64 KCAL/MOL
REMARK 923 INTER-LIGAND FREE ENERGY PREDICTED BY IDOCK:   -3.54 KCAL/MOL
REMARK 924 INTRA-LIGAND FREE ENERGY PREDICTED BY IDOCK:   -1.09 KCAL/MOL
REMARK 927      BINDING AFFINITY PREDICTED BY RF-SCORE:    0.00 PKD
ROOT
HETATM    1  C   UNL     1      -9.336  12.974  66.065  1.00  0.00    -0.009 C  
HETATM    2  O   UNL     1      -9.431  11.687  66.687  1.00  0.00    -0.190 OA 
ENDROOT
BRANCH   2   3
HETATM    3  C   UNL     1      -9.945  10.717  65.899  1.00  0.00    -0.250 C  
HETATM    4  O   UNL     1     -10.486  10.919  64.818  1.00  0.00    -0.328 OA 
BRANCH   3   5
HETATM    5  C   UNL     1      -9.836   9.380  66.546  1.00  0.00    -0.325 C  
HETATM    6  C   UNL     1     -10.500   9.148  67.703  1.00  0.00    -0.261 C  
HETATM    7  C   UNL     1     -11.475  10.077  68.393  1.00  0.00    -0.011 C  
HETATM    8  N   UNL     1     -10.278   7.969  68.389  1.00  0.00    -0.203 NA 
HETATM    9  C   UNL     1      -9.276   7.058  68.109  1.00  0.00    -0.130 C  
HETATM   10  C   UNL     1      -9.070   6.008  69.177  1.00  0.00    -0.124 C  
HETATM   11  C   UNL     1      -8.548   7.172  66.967  1.00  0.00    -0.122 C  
HETATM   12  C   UNL     1      -8.827   8.333  65.982  1.00  0.00    -0.203 C  
BRANCH  11  13
HETATM   13  C   UNL     1      -7.425   6.215  66.732  1.00  0.00    -0.087 C  
HETATM   14  O   UNL     1      -6.245   6.505  66.881  1.00  0.00    -0.036 OA 
BRANCH  13  15
HETATM   15  O   UNL     1      -7.853   5.018  66.252  1.00  0.00    -0.097 OA 
BRANCH  15  16
HETATM   16  C   UNL     1      -8.370   5.067  64.907  1.00  0.00    -0.142 C  
HETATM   17  C   UNL     1      -6.192   4.371  63.766  1.00  0.00    -0.022 C  
HETATM   18  C   UNL     1      -7.688   4.104  63.926  1.00  0.00    -0.082 C  
HETATM   19  C   UNL     1      -7.925   2.644  64.306  1.00  0.00    -0.081 C  
ENDBRANCH  15  16
ENDBRANCH  13  15
ENDBRANCH  11  13
BRANCH  12  20
HETATM   20  C   UNL     1      -7.537   9.049  65.551  1.00  0.00    -0.090 A  
HETATM   21  O   UNL     1      -8.908   8.548  62.902  1.00  0.00    -0.011 OA 
HETATM   22  C   UNL     1      -6.789   9.726  66.538  1.00  0.00    -0.084 A  
HETATM   23  O   UNL     1      -6.939   7.702  62.437  1.00  0.00    -0.074 OA 
HETATM   24  C   UNL     1      -5.690  10.516  66.197  1.00  0.00    -0.096 A  
HETATM   25  N   UNL     1      -7.700   8.404  63.117  1.00  0.00    -0.129 N  
HETATM   26  C   UNL     1      -7.090   9.152  64.214  1.00  0.00    -0.095 A  
HETATM   27  C   UNL     1      -5.307  10.651  64.865  1.00  0.00    -0.140 A  
HETATM   28  C   UNL     1      -5.996   9.962  63.871  1.00  0.00    -0.121 A  
ENDBRANCH  12  20
ENDBRANCH   3   5
ENDBRANCH   2   3
TORSDOF 6
ENDMDL
MODEL      173
REMARK 921   NORMALIZED FREE ENERGY PREDICTED BY IDOCK:   -2.95 KCAL/MOL
REMARK 922        TOTAL FREE ENERGY PREDICTED BY IDOCK:   -4.59 KCAL/MOL
REMARK 923 INTER-LIGAND FREE ENERGY PREDICTED BY IDOCK:   -4.46 KCAL/MOL
REMARK 924 INTRA-LIGAND FREE ENERGY PREDICTED BY IDOCK:   -0.14 KCAL/MOL
REMARK 927      BINDING AFFINITY PREDICTED BY RF-SCORE:    0.00 PKD
ROOT
HETATM    1  C   UNL     1      -8.994   8.120  67.546  1.00  0.00    -0.137 C  
HETATM    2  O   UNL     1      -9.163   9.534  67.392  1.00  0.00    -0.133 OA 
ENDROOT
BRANCH   2   3
HETATM    3  C   UNL     1      -8.677  10.037  66.235  1.00  0.00    -0.136 C  
HETATM    4  O   UNL     1      -7.502   9.974  65.894  1.00  0.00    -0.104 OA 
BRANCH   3   5
HETATM    5  C   UNL     1      -9.739  10.742  65.464  1.00  0.00    -0.290 C  
HETATM    6  C   UNL     1      -9.762  10.630  64.115  1.00  0.00    -0.320 C  
HETATM    7  C   UNL     1      -8.879   9.746  63.260  1.00  0.00    -0.260 C  
HETATM    8  N   UNL     1     -10.642  11.406  63.384  1.00  0.00    -0.388 NA 
HETATM    9  C   UNL     1     -11.390  12.455  63.887  1.00  0.00    -0.433 C  
HETATM   10  C   UNL     1     -12.046  13.316  62.831  1.00  0.00     0.396 C  
HETATM   11  C   UNL     1     -11.461  12.663  65.227  1.00  0.00    -0.368 C  
HETATM   12  C   UNL     1     -10.692  11.735  66.199  1.00  0.00    -0.320 C  
BRANCH  11  13
HETATM   13  C   UNL     1     -12.217  13.849  65.732  1.00  0.00    -0.460 C  
HETATM   14  O   UNL     1     -13.269  13.767  66.353  1.00  0.00     0.176 OA 
BRANCH  13  15
HETATM   15  O   UNL     1     -11.655  15.025  65.352  1.00  0.00    -0.318 OA 
BRANCH  15  16
HETATM   16  C   UNL     1     -10.328  15.246  65.871  1.00  0.00    -0.329 C  
HETATM   17  C   UNL     1     -10.587  17.769  66.182  1.00  0.00    -0.235 C  
HETATM   18  C   UNL     1     -10.208  16.438  66.831  1.00  0.00    -0.290 C  
HETATM   19  C   UNL     1     -11.019  16.224  68.106  1.00  0.00    -0.343 C  
ENDBRANCH  15  16
ENDBRANCH  13  15
ENDBRANCH  11  13
BRANCH  12  20
HETATM   20  C   UNL     1      -9.893  12.527  67.246  1.00  0.00    -0.204 A  
HETATM   21  O   UNL     1     -12.104  11.308  68.911  1.00  0.00    -0.455 OA 
HETATM   22  C   UNL     1      -8.599  12.972  66.901  1.00  0.00    -0.126 A  
HETATM   23  O   UNL     1     -12.320  13.401  69.529  1.00  0.00    -0.238 OA 
HETATM   24  C   UNL     1      -7.764  13.569  67.846  1.00  0.00    -0.153 A  
HETATM   25  N   UNL     1     -11.688  12.467  69.019  1.00  0.00    -0.309 N  
HETATM   26  C   UNL     1     -10.331  12.767  68.568  1.00  0.00    -0.221 A  
HETATM   27  C   UNL     1      -8.195  13.739  69.159  1.00  0.00     0.330 A  
HETATM   28  C   UNL     1      -9.482  13.351  69.523  1.00  0.00     1.213 A  
ENDBRANCH  12  20
ENDBRANCH   3   5
ENDBRANCH   2   3
TORSDOF 6
ENDMDL
MODEL      174
REMARK 921   NORMALIZED FREE ENERGY PREDICTED BY IDOCK:   -2.87 KCAL/MOL
REMARK 922        TOTAL FREE ENERGY PREDICTED BY IDOCK:   -4.48 KCAL/MOL
REMARK 923 INTER-LIGAND FREE ENERGY PREDICTED BY IDOCK:   -5.20 KCAL/MOL
REMARK 924 INTRA-LIGAND FREE ENERGY PREDICTED BY IDOCK:    0.72 KCAL/MOL
REMARK 927      BINDING AFFINITY PREDICTED BY RF-SCORE:    0.00 PKD
ROOT
HETATM    1  C   UNL     1      -7.308  10.071  63.200  1.00  0.00    -0.134 C  
HETATM    2  O   UNL     1      -7.819  10.032  64.537  1.00  0.00    -0.137 OA 
ENDROOT
BRANCH   2   3
HETATM    3  C   UNL     1      -6.880   9.860  65.494  1.00  0.00    -0.105 C  
HETATM    4  O   UNL     1      -5.755  10.344  65.453  1.00  0.00    -0.095 OA 
BRANCH   3   5
HETATM    5  C   UNL     1      -7.362   8.947  66.568  1.00  0.00    -0.085 C  
HETATM    6  C   UNL     1      -7.701   7.675  66.252  1.00  0.00    -0.089 C  
HETATM    7  C   UNL     1      -7.537   6.996  64.909  1.00  0.00    -0.106 C  
HETATM    8  N   UNL     1      -8.297   6.874  67.208  1.00  0.00    -0.121 NA 
HETATM    9  C   UNL     1      -8.771   7.309  68.432  1.00  0.00    -0.122 C  
HETATM   10  C   UNL     1      -9.631   6.302  69.162  1.00  0.00    -0.148 C  
HETATM   11  C   UNL     1      -8.483   8.562  68.871  1.00  0.00    -0.123 C  
HETATM   12  C   UNL     1      -7.635   9.516  67.994  1.00  0.00    -0.086 C  
BRANCH  11  13
HETATM   13  C   UNL     1      -9.073   9.025  70.164  1.00  0.00    -0.188 C  
HETATM   14  O   UNL     1      -8.404   9.396  71.119  1.00  0.00    -0.310 OA 
BRANCH  13  15
HETATM   15  O   UNL     1     -10.426   8.906  70.191  1.00  0.00    -0.200 OA 
BRANCH  15  16
HETATM   16  C   UNL     1     -11.052   9.497  71.348  1.00  0.00    -0.368 C  
HETATM   17  C   UNL     1     -13.000   7.846  71.461  1.00  0.00    -0.338 C  
HETATM   18  C   UNL     1     -11.850   8.513  72.215  1.00  0.00    -0.453 C  
HETATM   19  C   UNL     1     -10.950   7.453  72.845  1.00  0.00    -0.408 C  
ENDBRANCH  15  16
ENDBRANCH  13  15
ENDBRANCH  11  13
BRANCH  12  20
HETATM   20  C   UNL     1      -8.270  10.910  67.874  1.00  0.00    -0.114 A  
HETATM   21  O   UNL     1     -10.563   9.092  67.108  1.00  0.00    -0.263 OA 
HETATM   22  C   UNL     1      -7.597  12.002  68.463  1.00  0.00    -0.126 A  
HETATM   23  O   UNL     1     -10.610  10.452  65.388  1.00  0.00    -0.178 OA 
HETATM   24  C   UNL     1      -8.183  13.268  68.518  1.00  0.00    -0.084 A  
HETATM   25  N   UNL     1     -10.274  10.152  66.541  1.00  0.00    -0.229 N  
HETATM   26  C   UNL     1      -9.531  11.164  67.288  1.00  0.00    -0.164 A  
HETATM   27  C   UNL     1      -9.453  13.479  67.988  1.00  0.00    -0.220 A  
HETATM   28  C   UNL     1     -10.126  12.434  67.361  1.00  0.00    -0.205 A  
ENDBRANCH  12  20
ENDBRANCH   3   5
ENDBRANCH   2   3
TORSDOF 6
ENDMDL
MODEL      175
REMARK 921   NORMALIZED FREE ENERGY PREDICTED BY IDOCK:   -2.86 KCAL/MOL
REMARK 922        TOTAL FREE ENERGY PREDICTED BY IDOCK:   -4.47 KCAL/MOL
REMARK 923 INTER-LIGAND FREE ENERGY PREDICTED BY IDOCK:   -5.48 KCAL/MOL
REMARK 924 INTRA-LIGAND FREE ENERGY PREDICTED BY IDOCK:    1.01 KCAL/MOL
REMARK 927      BINDING AFFINITY PREDICTED BY RF-SCORE:    0.00 PKD
ROOT
HETATM    1  C   UNL     1      -7.269  11.078  66.106  1.00  0.00    -0.054 C  
HETATM    2  O   UNL     1      -8.303  11.959  66.560  1.00  0.00    -0.155 OA 
ENDROOT
BRANCH   2   3
HETATM    3  C   UNL     1      -8.013  12.629  67.697  1.00  0.00    -0.169 C  
HETATM    4  O   UNL     1      -6.886  12.986  68.021  1.00  0.00    -0.085 OA 
BRANCH   3   5
HETATM    5  C   UNL     1      -9.226  12.813  68.541  1.00  0.00    -0.062 C  
HETATM    6  C   UNL     1     -10.088  11.780  68.695  1.00  0.00    -0.189 C  
HETATM    7  C   UNL     1      -9.910  10.364  68.191  1.00  0.00    -0.168 C  
HETATM    8  N   UNL     1     -11.291  11.989  69.343  1.00  0.00    -0.264 NA 
HETATM    9  C   UNL     1     -11.805  13.224  69.693  1.00  0.00    -0.327 C  
HETATM   10  C   UNL     1     -13.254  13.198  70.125  1.00  0.00     0.880 C  
HETATM   11  C   UNL     1     -11.032  14.338  69.600  1.00  0.00    -0.159 C  
HETATM   12  C   UNL     1      -9.576  14.232  69.087  1.00  0.00     0.074 C  
BRANCH  11  13
HETATM   13  C   UNL     1     -11.642  15.665  69.916  1.00  0.00    -0.347 C  
HETATM   14  O   UNL     1     -12.302  16.315  69.115  1.00  0.00     0.041 OA 
BRANCH  13  15
HETATM   15  O   UNL     1     -11.311  16.109  71.157  1.00  0.00    -0.387 OA 
BRANCH  15  16
HETATM   16  C   UNL     1     -11.576  15.166  72.215  1.00  0.00    -0.378 C  
HETATM   17  C   UNL     1     -12.211  16.914  73.967  1.00  0.00    -0.181 C  
HETATM   18  C   UNL     1     -12.619  15.634  73.240  1.00  0.00    -0.619 C  
HETATM   19  C   UNL     1     -13.999  15.802  72.610  1.00  0.00    -0.557 C  
ENDBRANCH  15  16
ENDBRANCH  13  15
ENDBRANCH  11  13
BRANCH  12  20
HETATM   20  C   UNL     1      -9.263  15.282  68.010  1.00  0.00    -0.188 A  
HETATM   21  O   UNL     1     -11.731  13.936  66.896  1.00  0.00    -0.355 OA 
HETATM   22  C   UNL     1      -8.363  16.321  68.333  1.00  0.00    -0.190 A  
HETATM   23  O   UNL     1     -10.428  13.777  65.139  1.00  0.00    -0.340 OA 
HETATM   24  C   UNL     1      -8.144  17.386  67.458  1.00  0.00    -0.205 A  
HETATM   25  N   UNL     1     -10.738  14.260  66.236  1.00  0.00    -0.293 N  
HETATM   26  C   UNL     1      -9.883  15.333  66.741  1.00  0.00    -0.236 A  
HETATM   27  C   UNL     1      -8.814  17.444  66.239  1.00  0.00    -0.236 A  
HETATM   28  C   UNL     1      -9.675  16.414  65.870  1.00  0.00    -0.327 A  
ENDBRANCH  12  20
ENDBRANCH   3   5
ENDBRANCH   2   3
TORSDOF 6
ENDMDL
MODEL      176
REMARK 921   NORMALIZED FREE ENERGY PREDICTED BY IDOCK:   -2.85 KCAL/MOL
REMARK 922        TOTAL FREE ENERGY PREDICTED BY IDOCK:   -4.46 KCAL/MOL
REMARK 923 INTER-LIGAND FREE ENERGY PREDICTED BY IDOCK:   -3.48 KCAL/MOL
REMARK 924 INTRA-LIGAND FREE ENERGY PREDICTED BY IDOCK:   -0.98 KCAL/MOL
REMARK 927      BINDING AFFINITY PREDICTED BY RF-SCORE:    0.00 PKD
ROOT
HETATM    1  C   UNL     1     -10.450  18.051  65.574  1.00  0.00     0.037 C  
HETATM    2  O   UNL     1     -10.272  16.728  65.056  1.00  0.00    -0.519 OA 
ENDROOT
BRANCH   2   3
HETATM    3  C   UNL     1     -11.006  15.777  65.676  1.00  0.00    -0.243 C  
HETATM    4  O   UNL     1     -11.926  16.010  66.451  1.00  0.00     0.833 OA 
BRANCH   3   5
HETATM    5  C   UNL     1     -10.506  14.411  65.354  1.00  0.00    -0.391 C  
HETATM    6  C   UNL     1     -11.244  13.607  64.552  1.00  0.00    -0.382 C  
HETATM    7  C   UNL     1     -12.514  13.977  63.815  1.00  0.00    -0.080 C  
HETATM    8  N   UNL     1     -10.867  12.289  64.378  1.00  0.00    -0.307 NA 
HETATM    9  C   UNL     1      -9.894  11.634  65.110  1.00  0.00    -0.249 C  
HETATM   10  C   UNL     1      -9.876  10.134  64.923  1.00  0.00    -0.390 C  
HETATM   11  C   UNL     1      -9.075  12.333  65.939  1.00  0.00     0.044 C  
HETATM   12  C   UNL     1      -9.238  13.866  66.080  1.00  0.00     0.045 C  
BRANCH  11  13
HETATM   13  C   UNL     1      -8.084  11.584  66.771  1.00  0.00    -0.158 C  
HETATM   14  O   UNL     1      -6.931  11.371  66.421  1.00  0.00    -0.100 OA 
BRANCH  13  15
HETATM   15  O   UNL     1      -8.629  11.093  67.914  1.00  0.00    -0.128 OA 
BRANCH  15  16
HETATM   16  C   UNL     1      -8.569   9.658  68.033  1.00  0.00    -0.119 C  
HETATM   17  C   UNL     1      -6.551   9.612  69.601  1.00  0.00    -0.048 C  
HETATM   18  C   UNL     1      -7.988   9.151  69.361  1.00  0.00    -0.097 C  
HETATM   19  C   UNL     1      -8.869   9.533  70.548  1.00  0.00    -0.253 C  
ENDBRANCH  15  16
ENDBRANCH  13  15
ENDBRANCH  11  13
BRANCH  12  20
HETATM   20  C   UNL     1      -9.261  14.313  67.550  1.00  0.00    -0.197 A  
HETATM   21  O   UNL     1      -6.944  15.903  66.431  1.00  0.00     0.000 OA 
HETATM   22  C   UNL     1     -10.410  14.025  68.316  1.00  0.00    -0.247 A  
HETATM   23  O   UNL     1      -5.945  15.013  68.169  1.00  0.00    -0.116 OA 
HETATM   24  C   UNL     1     -10.560  14.525  69.611  1.00  0.00    -0.075 A  
HETATM   25  N   UNL     1      -6.955  15.338  67.530  1.00  0.00    -0.186 N  
HETATM   26  C   UNL     1      -8.243  15.074  68.168  1.00  0.00    -0.140 A  
HETATM   27  C   UNL     1      -9.570  15.324  70.176  1.00  0.00     0.190 A  
HETATM   28  C   UNL     1      -8.404  15.592  69.463  1.00  0.00    -0.206 A  
ENDBRANCH  12  20
ENDBRANCH   3   5
ENDBRANCH   2   3
TORSDOF 6
ENDMDL
MODEL      177
REMARK 921   NORMALIZED FREE ENERGY PREDICTED BY IDOCK:   -2.85 KCAL/MOL
REMARK 922        TOTAL FREE ENERGY PREDICTED BY IDOCK:   -4.45 KCAL/MOL
REMARK 923 INTER-LIGAND FREE ENERGY PREDICTED BY IDOCK:   -4.02 KCAL/MOL
REMARK 924 INTRA-LIGAND FREE ENERGY PREDICTED BY IDOCK:   -0.43 KCAL/MOL
REMARK 927      BINDING AFFINITY PREDICTED BY RF-SCORE:    0.00 PKD
ROOT
HETATM    1  C   UNL     1     -10.710  10.766  67.776  1.00  0.00    -0.251 C  
HETATM    2  O   UNL     1     -10.511  10.061  66.545  1.00  0.00    -0.215 OA 
ENDROOT
BRANCH   2   3
HETATM    3  C   UNL     1      -9.222   9.761  66.270  1.00  0.00    -0.164 C  
HETATM    4  O   UNL     1      -8.788   9.541  65.145  1.00  0.00    -0.162 OA 
BRANCH   3   5
HETATM    5  C   UNL     1      -8.412   9.658  67.516  1.00  0.00    -0.125 C  
HETATM    6  C   UNL     1      -7.344  10.473  67.681  1.00  0.00    -0.087 C  
HETATM    7  C   UNL     1      -6.916  11.607  66.774  1.00  0.00    -0.080 C  
HETATM    8  N   UNL     1      -6.498  10.276  68.757  1.00  0.00    -0.051 NA 
HETATM    9  C   UNL     1      -6.521   9.180  69.600  1.00  0.00    -0.042 C  
HETATM   10  C   UNL     1      -5.318   9.067  70.508  1.00  0.00    -0.023 C  
HETATM   11  C   UNL     1      -7.551   8.296  69.544  1.00  0.00    -0.095 C  
HETATM   12  C   UNL     1      -8.697   8.502  68.524  1.00  0.00    -0.139 C  
BRANCH  11  13
HETATM   13  C   UNL     1      -7.507   7.084  70.418  1.00  0.00    -0.085 C  
HETATM   14  O   UNL     1      -6.811   6.106  70.184  1.00  0.00    -0.053 OA 
BRANCH  13  15
HETATM   15  O   UNL     1      -8.387   7.155  71.450  1.00  0.00    -0.111 OA 
BRANCH  15  16
HETATM   16  C   UNL     1      -8.340   6.029  72.350  1.00  0.00    -0.116 C  
HETATM   17  C   UNL     1      -8.348   7.415  74.498  1.00  0.00    -0.240 C  
HETATM   18  C   UNL     1      -8.999   6.275  73.715  1.00  0.00    -0.134 C  
HETATM   19  C   UNL     1     -10.501   6.517  73.585  1.00  0.00    -0.330 C  
ENDBRANCH  15  16
ENDBRANCH  13  15
ENDBRANCH  11  13
BRANCH  12  20
HETATM   20  C   UNL     1      -9.018   7.216  67.747  1.00  0.00    -0.122 A  
HETATM   21  O   UNL     1     -11.479   7.556  69.472  1.00  0.00     0.060 OA 
HETATM   22  C   UNL     1      -8.242   6.914  66.608  1.00  0.00    -0.115 A  
HETATM   23  O   UNL     1     -10.993   5.476  69.969  1.00  0.00    -0.301 OA 
HETATM   24  C   UNL     1      -8.568   5.843  65.774  1.00  0.00    -0.154 A  
HETATM   25  N   UNL     1     -10.904   6.484  69.256  1.00  0.00    -0.276 N  
HETATM   26  C   UNL     1     -10.099   6.355  68.042  1.00  0.00    -0.148 A  
HETATM   27  C   UNL     1      -9.675   5.046  66.052  1.00  0.00    -0.194 A  
HETATM   28  C   UNL     1     -10.437   5.290  67.192  1.00  0.00    -0.261 A  
ENDBRANCH  12  20
ENDBRANCH   3   5
ENDBRANCH   2   3
TORSDOF 6
ENDMDL
MODEL      178
REMARK 921   NORMALIZED FREE ENERGY PREDICTED BY IDOCK:   -2.73 KCAL/MOL
REMARK 922        TOTAL FREE ENERGY PREDICTED BY IDOCK:   -4.30 KCAL/MOL
REMARK 923 INTER-LIGAND FREE ENERGY PREDICTED BY IDOCK:   -4.33 KCAL/MOL
REMARK 924 INTRA-LIGAND FREE ENERGY PREDICTED BY IDOCK:    0.03 KCAL/MOL
REMARK 927      BINDING AFFINITY PREDICTED BY RF-SCORE:    0.00 PKD
ROOT
HETATM    1  C   UNL     1     -12.585   7.212  71.642  1.00  0.00    -0.375 C  
HETATM    2  O   UNL     1     -11.222   7.299  72.074  1.00  0.00    -0.238 OA 
ENDROOT
BRANCH   2   3
HETATM    3  C   UNL     1     -10.420   6.317  71.606  1.00  0.00    -0.217 C  
HETATM    4  O   UNL     1     -10.812   5.208  71.263  1.00  0.00    -0.134 OA 
BRANCH   3   5
HETATM    5  C   UNL     1      -8.989   6.731  71.629  1.00  0.00    -0.136 C  
HETATM    6  C   UNL     1      -8.451   7.188  72.785  1.00  0.00    -0.107 C  
HETATM    7  C   UNL     1      -9.114   7.224  74.145  1.00  0.00    -0.270 C  
HETATM    8  N   UNL     1      -7.175   7.720  72.777  1.00  0.00    -0.077 NA 
HETATM    9  C   UNL     1      -6.442   8.020  71.643  1.00  0.00    -0.043 C  
HETATM   10  C   UNL     1      -5.207   8.854  71.900  1.00  0.00    -0.046 C  
HETATM   11  C   UNL     1      -6.869   7.602  70.423  1.00  0.00    -0.047 C  
HETATM   12  C   UNL     1      -8.186   6.800  70.293  1.00  0.00    -0.125 C  
BRANCH  11  13
HETATM   13  C   UNL     1      -6.092   8.007  69.212  1.00  0.00    -0.034 C  
HETATM   14  O   UNL     1      -5.251   7.296  68.678  1.00  0.00    -0.019 OA 
BRANCH  13  15
HETATM   15  O   UNL     1      -6.360   9.280  68.823  1.00  0.00    -0.047 OA 
BRANCH  15  16
HETATM   16  C   UNL     1      -5.560   9.745  67.716  1.00  0.00    -0.039 C  
HETATM   17  C   UNL     1      -6.930   8.580  65.900  1.00  0.00    -0.071 C  
HETATM   18  C   UNL     1      -6.327   9.894  66.394  1.00  0.00    -0.071 C  
HETATM   19  C   UNL     1      -7.407  10.969  66.482  1.00  0.00    -0.144 C  
ENDBRANCH  15  16
ENDBRANCH  13  15
ENDBRANCH  11  13
BRANCH  12  20
HETATM   20  C   UNL     1      -9.093   7.351  69.182  1.00  0.00    -0.134 A  
HETATM   21  O   UNL     1      -8.487   9.830  70.805  1.00  0.00    -0.207 OA 
HETATM   22  C   UNL     1      -9.320   6.546  68.046  1.00  0.00    -0.108 A  
HETATM   23  O   UNL     1     -10.674   9.982  70.747  1.00  0.00    -0.303 OA 
HETATM   24  C   UNL     1     -10.013   7.038  66.938  1.00  0.00    -0.283 A  
HETATM   25  N   UNL     1      -9.593   9.538  70.338  1.00  0.00    -0.261 N  
HETATM   26  C   UNL     1      -9.649   8.650  69.178  1.00  0.00    -0.163 A  
HETATM   27  C   UNL     1     -10.498   8.342  66.933  1.00  0.00    -0.359 A  
HETATM   28  C   UNL     1     -10.329   9.149  68.055  1.00  0.00    -0.272 A  
ENDBRANCH  12  20
ENDBRANCH   3   5
ENDBRANCH   2   3
TORSDOF 6
ENDMDL
MODEL      179
REMARK 921   NORMALIZED FREE ENERGY PREDICTED BY IDOCK:   -2.72 KCAL/MOL
REMARK 922        TOTAL FREE ENERGY PREDICTED BY IDOCK:   -4.28 KCAL/MOL
REMARK 923 INTER-LIGAND FREE ENERGY PREDICTED BY IDOCK:   -2.98 KCAL/MOL
REMARK 924 INTRA-LIGAND FREE ENERGY PREDICTED BY IDOCK:   -1.29 KCAL/MOL
REMARK 927      BINDING AFFINITY PREDICTED BY RF-SCORE:    0.00 PKD
ROOT
HETATM    1  C   UNL     1     -12.581   9.234  72.244  1.00  0.00    -0.332 C  
HETATM    2  O   UNL     1     -11.367   8.507  72.022  1.00  0.00    -0.307 OA 
ENDROOT
BRANCH   2   3
HETATM    3  C   UNL     1     -11.519   7.355  71.332  1.00  0.00    -0.263 C  
HETATM    4  O   UNL     1     -12.569   6.991  70.817  1.00  0.00    -0.314 OA 
BRANCH   3   5
HETATM    5  C   UNL     1     -10.266   6.549  71.342  1.00  0.00    -0.221 C  
HETATM    6  C   UNL     1      -9.625   6.336  72.515  1.00  0.00    -0.142 C  
HETATM    7  C   UNL     1     -10.102   6.731  73.897  1.00  0.00    -0.375 C  
HETATM    8  N   UNL     1      -8.384   5.728  72.511  1.00  0.00    -0.117 NA 
HETATM    9  C   UNL     1      -7.620   5.480  71.386  1.00  0.00    -0.103 C  
HETATM   10  C   UNL     1      -6.193   5.074  71.677  1.00  0.00    -0.029 C  
HETATM   11  C   UNL     1      -8.155   5.640  70.147  1.00  0.00    -0.103 C  
HETATM   12  C   UNL     1      -9.620   6.116  69.990  1.00  0.00    -0.185 C  
BRANCH  11  13
HETATM   13  C   UNL     1      -7.280   5.434  68.953  1.00  0.00    -0.066 C  
HETATM   14  O   UNL     1      -7.204   4.376  68.343  1.00  0.00    -0.058 OA 
BRANCH  13  15
HETATM   15  O   UNL     1      -6.515   6.522  68.675  1.00  0.00    -0.045 OA 
BRANCH  15  16
HETATM   16  C   UNL     1      -5.591   6.336  67.584  1.00  0.00    -0.005 C  
HETATM   17  C   UNL     1      -7.228   7.005  65.740  1.00  0.00    -0.073 C  
HETATM   18  C   UNL     1      -5.853   7.232  66.366  1.00  0.00    -0.035 C  
HETATM   19  C   UNL     1      -5.663   8.710  66.697  1.00  0.00    -0.047 C  
ENDBRANCH  15  16
ENDBRANCH  13  15
ENDBRANCH  11  13
BRANCH  12  20
HETATM   20  C   UNL     1      -9.750   7.261  68.974  1.00  0.00    -0.152 A  
HETATM   21  O   UNL     1     -11.512   5.123  67.761  1.00  0.00     1.519 OA 
HETATM   22  C   UNL     1      -9.321   8.549  69.361  1.00  0.00    -0.154 A  
HETATM   23  O   UNL     1     -10.267   5.576  66.014  1.00  0.00    -0.115 OA 
HETATM   24  C   UNL     1      -9.541   9.660  68.545  1.00  0.00    -0.152 A  
HETATM   25  N   UNL     1     -10.729   5.842  67.131  1.00  0.00    -0.292 N  
HETATM   26  C   UNL     1     -10.353   7.134  67.702  1.00  0.00    -0.215 A  
HETATM   27  C   UNL     1     -10.193   9.518  67.324  1.00  0.00    -0.295 A  
HETATM   28  C   UNL     1     -10.590   8.256  66.891  1.00  0.00    -0.302 A  
ENDBRANCH  12  20
ENDBRANCH   3   5
ENDBRANCH   2   3
TORSDOF 6
ENDMDL
MODEL      180
REMARK 921   NORMALIZED FREE ENERGY PREDICTED BY IDOCK:   -2.70 KCAL/MOL
REMARK 922        TOTAL FREE ENERGY PREDICTED BY IDOCK:   -4.25 KCAL/MOL
REMARK 923 INTER-LIGAND FREE ENERGY PREDICTED BY IDOCK:   -5.00 KCAL/MOL
REMARK 924 INTRA-LIGAND FREE ENERGY PREDICTED BY IDOCK:    0.74 KCAL/MOL
REMARK 927      BINDING AFFINITY PREDICTED BY RF-SCORE:    0.00 PKD
ROOT
HETATM    1  C   UNL     1     -10.254  19.174  66.563  1.00  0.00    -0.429 C  
HETATM    2  O   UNL     1     -10.298  17.744  66.625  1.00  0.00    -0.343 OA 
ENDROOT
BRANCH   2   3
HETATM    3  C   UNL     1      -9.310  17.120  65.944  1.00  0.00    -0.025 C  
HETATM    4  O   UNL     1      -8.262  17.655  65.602  1.00  0.00    -0.501 OA 
BRANCH   3   5
HETATM    5  C   UNL     1      -9.691  15.723  65.597  1.00  0.00    -0.332 C  
HETATM    6  C   UNL     1     -10.880  15.491  64.992  1.00  0.00    -0.450 C  
HETATM    7  C   UNL     1     -11.865  16.528  64.494  1.00  0.00     0.525 C  
HETATM    8  N   UNL     1     -11.309  14.189  64.811  1.00  0.00    -0.356 NA 
HETATM    9  C   UNL     1     -10.722  13.070  65.374  1.00  0.00    -0.291 C  
HETATM   10  C   UNL     1     -11.547  11.808  65.259  1.00  0.00    -0.193 C  
HETATM   11  C   UNL     1      -9.518  13.169  65.996  1.00  0.00    -0.103 C  
HETATM   12  C   UNL     1      -8.804  14.539  66.092  1.00  0.00     0.172 C  
BRANCH  11  13
HETATM   13  C   UNL     1      -8.948  11.955  66.657  1.00  0.00    -0.198 C  
HETATM   14  O   UNL     1      -7.815  11.542  66.451  1.00  0.00    -0.123 OA 
BRANCH  13  15
HETATM   15  O   UNL     1      -9.855  11.315  67.440  1.00  0.00    -0.179 OA 
BRANCH  15  16
HETATM   16  C   UNL     1      -9.449  11.163  68.816  1.00  0.00    -0.165 C  
HETATM   17  C   UNL     1     -11.816  11.100  69.778  1.00  0.00    -0.422 C  
HETATM   18  C   UNL     1     -10.455  10.410  69.698  1.00  0.00    -0.279 C  
HETATM   19  C   UNL     1     -10.626   8.959  69.253  1.00  0.00    -0.219 C  
ENDBRANCH  15  16
ENDBRANCH  13  15
ENDBRANCH  11  13
BRANCH  12  20
HETATM   20  C   UNL     1      -8.308  14.835  67.516  1.00  0.00    -0.197 A  
HETATM   21  O   UNL     1     -11.224  14.174  67.975  1.00  0.00    -0.261 OA 
HETATM   22  C   UNL     1      -6.916  14.871  67.744  1.00  0.00    -0.193 A  
HETATM   23  O   UNL     1     -11.131  16.087  69.043  1.00  0.00    -0.277 OA 
HETATM   24  C   UNL     1      -6.397  14.990  69.034  1.00  0.00    -0.100 A  
HETATM   25  N   UNL     1     -10.607  15.092  68.526  1.00  0.00    -0.230 N  
HETATM   26  C   UNL     1      -9.153  14.988  68.639  1.00  0.00    -0.191 A  
HETATM   27  C   UNL     1      -7.250  15.078  70.130  1.00  0.00     0.101 A  
HETATM   28  C   UNL     1      -8.629  15.089  69.938  1.00  0.00     0.264 A  
ENDBRANCH  12  20
ENDBRANCH   3   5
ENDBRANCH   2   3
TORSDOF 6
ENDMDL
MODEL      181
REMARK 921   NORMALIZED FREE ENERGY PREDICTED BY IDOCK:   -2.66 KCAL/MOL
REMARK 922        TOTAL FREE ENERGY PREDICTED BY IDOCK:   -4.20 KCAL/MOL
REMARK 923 INTER-LIGAND FREE ENERGY PREDICTED BY IDOCK:   -4.48 KCAL/MOL
REMARK 924 INTRA-LIGAND FREE ENERGY PREDICTED BY IDOCK:    0.28 KCAL/MOL
REMARK 927      BINDING AFFINITY PREDICTED BY RF-SCORE:    0.00 PKD
ROOT
HETATM    1  C   UNL     1      -5.704   6.892  70.297  1.00  0.00    -0.023 C  
HETATM    2  O   UNL     1      -6.832   7.759  70.463  1.00  0.00    -0.042 OA 
ENDROOT
BRANCH   2   3
HETATM    3  C   UNL     1      -8.018   7.215  70.111  1.00  0.00    -0.113 C  
HETATM    4  O   UNL     1      -8.142   6.137  69.543  1.00  0.00    -0.108 OA 
BRANCH   3   5
HETATM    5  C   UNL     1      -9.150   8.128  70.436  1.00  0.00    -0.150 C  
HETATM    6  C   UNL     1     -10.078   7.736  71.340  1.00  0.00    -0.182 C  
HETATM    7  C   UNL     1     -10.050   6.482  72.187  1.00  0.00    -0.194 C  
HETATM    8  N   UNL     1     -11.211   8.505  71.527  1.00  0.00    -0.261 NA 
HETATM    9  C   UNL     1     -11.599   9.564  70.727  1.00  0.00    -0.308 C  
HETATM   10  C   UNL     1     -13.011  10.048  70.971  1.00  0.00    -0.445 C  
HETATM   11  C   UNL     1     -10.748  10.061  69.792  1.00  0.00    -0.304 C  
HETATM   12  C   UNL     1      -9.345   9.435  69.607  1.00  0.00    -0.199 C  
BRANCH  11  13
HETATM   13  C   UNL     1     -11.226  11.157  68.894  1.00  0.00    -0.256 C  
HETATM   14  O   UNL     1     -11.598  10.976  67.743  1.00  0.00    -0.510 OA 
BRANCH  13  15
HETATM   15  O   UNL     1     -11.119  12.384  69.468  1.00  0.00    -0.149 OA 
BRANCH  15  16
HETATM   16  C   UNL     1     -12.028  13.370  68.938  1.00  0.00    -0.324 C  
HETATM   17  C   UNL     1     -10.628  15.400  69.609  1.00  0.00    -0.285 C  
HETATM   18  C   UNL     1     -11.359  14.673  68.480  1.00  0.00    -0.305 C  
HETATM   19  C   UNL     1     -10.414  14.444  67.303  1.00  0.00    -0.269 C  
ENDBRANCH  15  16
ENDBRANCH  13  15
ENDBRANCH  11  13
BRANCH  12  20
HETATM   20  C   UNL     1      -9.027   9.153  68.130  1.00  0.00    -0.129 A  
HETATM   21  O   UNL     1     -11.731   7.841  68.465  1.00  0.00     1.108 OA 
HETATM   22  C   UNL     1      -7.988   9.888  67.520  1.00  0.00    -0.106 A  
HETATM   23  O   UNL     1     -10.639   6.159  67.577  1.00  0.00    -0.205 OA 
HETATM   24  C   UNL     1      -7.740   9.789  66.150  1.00  0.00    -0.104 A  
HETATM   25  N   UNL     1     -10.780   7.361  67.840  1.00  0.00    -0.184 N  
HETATM   26  C   UNL     1      -9.762   8.267  67.310  1.00  0.00    -0.177 A  
HETATM   27  C   UNL     1      -8.519   8.955  65.352  1.00  0.00    -0.176 A  
HETATM   28  C   UNL     1      -9.524   8.183  65.929  1.00  0.00    -0.082 A  
ENDBRANCH  12  20
ENDBRANCH   3   5
ENDBRANCH   2   3
TORSDOF 6
ENDMDL
MODEL      182
REMARK 921   NORMALIZED FREE ENERGY PREDICTED BY IDOCK:   -2.65 KCAL/MOL
REMARK 922        TOTAL FREE ENERGY PREDICTED BY IDOCK:   -4.18 KCAL/MOL
REMARK 923 INTER-LIGAND FREE ENERGY PREDICTED BY IDOCK:   -4.28 KCAL/MOL
REMARK 924 INTRA-LIGAND FREE ENERGY PREDICTED BY IDOCK:    0.10 KCAL/MOL
REMARK 927      BINDING AFFINITY PREDICTED BY RF-SCORE:    0.00 PKD
ROOT
HETATM    1  C   UNL     1      -8.262   8.523  64.651  1.00  0.00    -0.160 C  
HETATM    2  O   UNL     1      -8.377   7.326  65.429  1.00  0.00    -0.139 OA 
ENDROOT
BRANCH   2   3
HETATM    3  C   UNL     1      -7.338   7.093  66.261  1.00  0.00    -0.076 C  
HETATM    4  O   UNL     1      -6.268   7.688  66.214  1.00  0.00    -0.043 OA 
BRANCH   3   5
HETATM    5  C   UNL     1      -7.633   5.970  67.194  1.00  0.00    -0.092 C  
HETATM    6  C   UNL     1      -7.922   4.747  66.688  1.00  0.00    -0.103 C  
HETATM    7  C   UNL     1      -7.867   4.329  65.234  1.00  0.00    -0.086 C  
HETATM    8  N   UNL     1      -8.350   3.744  67.537  1.00  0.00    -0.093 NA 
HETATM    9  C   UNL     1      -8.709   3.918  68.861  1.00  0.00    -0.094 C  
HETATM   10  C   UNL     1      -9.411   2.729  69.478  1.00  0.00    -0.191 C  
HETATM   11  C   UNL     1      -8.456   5.096  69.489  1.00  0.00    -0.093 C  
HETATM   12  C   UNL     1      -7.779   6.256  68.720  1.00  0.00    -0.100 C  
BRANCH  11  13
HETATM   13  C   UNL     1      -8.924   5.275  70.897  1.00  0.00    -0.137 C  
HETATM   14  O   UNL     1     -10.086   5.122  71.249  1.00  0.00    -0.192 OA 
BRANCH  13  15
HETATM   15  O   UNL     1      -7.936   5.709  71.723  1.00  0.00    -0.110 OA 
BRANCH  15  16
HETATM   16  C   UNL     1      -8.332   5.848  73.102  1.00  0.00    -0.116 C  
HETATM   17  C   UNL     1      -7.107   8.055  73.501  1.00  0.00    -0.152 C  
HETATM   18  C   UNL     1      -8.432   7.299  73.593  1.00  0.00    -0.182 C  
HETATM   19  C   UNL     1      -9.530   8.071  72.866  1.00  0.00    -0.346 C  
ENDBRANCH  15  16
ENDBRANCH  13  15
ENDBRANCH  11  13
BRANCH  12  20
HETATM   20  C   UNL     1      -8.514   7.590  68.920  1.00  0.00    -0.129 A  
HETATM   21  O   UNL     1     -10.769   5.721  68.169  1.00  0.00    -0.240 OA 
HETATM   22  C   UNL     1      -7.836   8.631  69.590  1.00  0.00    -0.094 A  
HETATM   23  O   UNL     1     -11.153   7.324  66.722  1.00  0.00    -0.205 OA 
HETATM   24  C   UNL     1      -8.489   9.816  69.933  1.00  0.00    -0.217 A  
HETATM   25  N   UNL     1     -10.636   6.877  67.754  1.00  0.00    -0.220 N  
HETATM   26  C   UNL     1      -9.860   7.822  68.556  1.00  0.00    -0.172 A  
HETATM   27  C   UNL     1      -9.833   9.996  69.618  1.00  0.00    -0.261 A  
HETATM   28  C   UNL     1     -10.520   9.007  68.919  1.00  0.00    -0.231 A  
ENDBRANCH  12  20
ENDBRANCH   3   5
ENDBRANCH   2   3
TORSDOF 6
ENDMDL
MODEL      183
REMARK 921   NORMALIZED FREE ENERGY PREDICTED BY IDOCK:   -2.63 KCAL/MOL
REMARK 922        TOTAL FREE ENERGY PREDICTED BY IDOCK:   -4.15 KCAL/MOL
REMARK 923 INTER-LIGAND FREE ENERGY PREDICTED BY IDOCK:   -4.74 KCAL/MOL
REMARK 924 INTRA-LIGAND FREE ENERGY PREDICTED BY IDOCK:    0.59 KCAL/MOL
REMARK 927      BINDING AFFINITY PREDICTED BY RF-SCORE:    0.00 PKD
ROOT
HETATM    1  C   UNL     1      -9.949   8.526  72.440  1.00  0.00    -0.295 C  
HETATM    2  O   UNL     1      -9.682   7.448  71.535  1.00  0.00    -0.160 OA 
ENDROOT
BRANCH   2   3
HETATM    3  C   UNL     1     -10.722   7.107  70.743  1.00  0.00    -0.231 C  
HETATM    4  O   UNL     1     -11.750   7.765  70.629  1.00  0.00    -0.266 OA 
BRANCH   3   5
HETATM    5  C   UNL     1     -10.491   5.791  70.082  1.00  0.00    -0.348 C  
HETATM    6  C   UNL     1     -10.155   4.721  70.840  1.00  0.00    -0.205 C  
HETATM    7  C   UNL     1     -10.094   4.659  72.351  1.00  0.00    -0.239 C  
HETATM    8  N   UNL     1      -9.785   3.541  70.222  1.00  0.00    -0.158 NA 
HETATM    9  C   UNL     1      -9.531   3.392  68.871  1.00  0.00    -0.131 C  
HETATM   10  C   UNL     1      -8.869   2.084  68.500  1.00  0.00    -0.146 C  
HETATM   11  C   UNL     1      -9.840   4.391  68.003  1.00  0.00    -0.135 C  
HETATM   12  C   UNL     1     -10.466   5.707  68.525  1.00  0.00    -0.273 C  
BRANCH  11  13
HETATM   13  C   UNL     1      -9.484   4.226  66.561  1.00  0.00    -0.185 C  
HETATM   14  O   UNL     1     -10.313   4.139  65.665  1.00  0.00    -0.194 OA 
BRANCH  13  15
HETATM   15  O   UNL     1      -8.146   4.098  66.367  1.00  0.00    -0.098 OA 
BRANCH  15  16
HETATM   16  C   UNL     1      -7.656   4.732  65.167  1.00  0.00    -0.077 C  
HETATM   17  C   UNL     1      -5.492   3.380  65.027  1.00  0.00    -0.010 C  
HETATM   18  C   UNL     1      -6.754   3.843  64.300  1.00  0.00    -0.044 C  
HETATM   19  C   UNL     1      -7.510   2.640  63.740  1.00  0.00    -0.066 C  
ENDBRANCH  15  16
ENDBRANCH  13  15
ENDBRANCH  11  13
BRANCH  12  20
HETATM   20  C   UNL     1      -9.759   6.948  67.959  1.00  0.00    -0.138 A  
HETATM   21  O   UNL     1      -7.447   5.340  69.061  1.00  0.00    -0.068 OA 
HETATM   22  C   UNL     1     -10.480   7.782  67.077  1.00  0.00    -0.419 A  
HETATM   23  O   UNL     1      -7.026   7.260  70.033  1.00  0.00    -0.058 OA 
HETATM   24  C   UNL     1      -9.858   8.842  66.415  1.00  0.00    -0.352 A  
HETATM   25  N   UNL     1      -7.580   6.563  69.173  1.00  0.00    -0.098 N  
HETATM   26  C   UNL     1      -8.403   7.269  68.192  1.00  0.00    -0.124 A  
HETATM   27  C   UNL     1      -8.505   9.100  66.614  1.00  0.00    -0.126 A  
HETATM   28  C   UNL     1      -7.775   8.324  67.510  1.00  0.00    -0.099 A  
ENDBRANCH  12  20
ENDBRANCH   3   5
ENDBRANCH   2   3
TORSDOF 6
ENDMDL
MODEL      184
REMARK 921   NORMALIZED FREE ENERGY PREDICTED BY IDOCK:   -2.61 KCAL/MOL
REMARK 922        TOTAL FREE ENERGY PREDICTED BY IDOCK:   -4.13 KCAL/MOL
REMARK 923 INTER-LIGAND FREE ENERGY PREDICTED BY IDOCK:   -4.42 KCAL/MOL
REMARK 924 INTRA-LIGAND FREE ENERGY PREDICTED BY IDOCK:    0.29 KCAL/MOL
REMARK 927      BINDING AFFINITY PREDICTED BY RF-SCORE:    0.00 PKD
ROOT
HETATM    1  C   UNL     1     -11.021   3.146  73.366  1.00  0.00    -0.200 C  
HETATM    2  O   UNL     1     -10.654   4.346  72.676  1.00  0.00    -0.190 OA 
ENDROOT
BRANCH   2   3
HETATM    3  C   UNL     1      -9.491   4.269  71.991  1.00  0.00    -0.135 C  
HETATM    4  O   UNL     1      -8.381   4.334  72.504  1.00  0.00    -0.098 OA 
BRANCH   3   5
HETATM    5  C   UNL     1      -9.733   4.170  70.524  1.00  0.00    -0.270 C  
HETATM    6  C   UNL     1      -9.355   3.050  69.864  1.00  0.00    -0.151 C  
HETATM    7  C   UNL     1      -8.798   1.780  70.473  1.00  0.00    -0.123 C  
HETATM    8  N   UNL     1      -9.431   3.015  68.484  1.00  0.00    -0.180 NA 
HETATM    9  C   UNL     1      -9.679   4.106  67.671  1.00  0.00    -0.122 C  
HETATM   10  C   UNL     1      -9.423   3.859  66.201  1.00  0.00    -0.191 C  
HETATM   11  C   UNL     1     -10.083   5.285  68.212  1.00  0.00    -0.219 C  
HETATM   12  C   UNL     1     -10.252   5.418  69.745  1.00  0.00    -0.348 C  
BRANCH  11  13
HETATM   13  C   UNL     1     -10.271   6.463  67.311  1.00  0.00    -0.187 C  
HETATM   14  O   UNL     1     -11.316   6.706  66.724  1.00  0.00    -0.270 OA 
BRANCH  13  15
HETATM   15  O   UNL     1      -9.129   7.181  67.149  1.00  0.00    -0.124 OA 
BRANCH  15  16
HETATM   16  C   UNL     1      -8.989   7.789  65.848  1.00  0.00    -0.113 C  
HETATM   17  C   UNL     1      -6.514   8.372  66.101  1.00  0.00    -0.053 C  
HETATM   18  C   UNL     1      -7.580   7.688  65.246  1.00  0.00    -0.089 C  
HETATM   19  C   UNL     1      -7.183   6.241  64.967  1.00  0.00    -0.070 C  
ENDBRANCH  15  16
ENDBRANCH  13  15
ENDBRANCH  11  13
BRANCH  12  20
HETATM   20  C   UNL     1      -9.571   6.681  70.295  1.00  0.00    -0.169 A  
HETATM   21  O   UNL     1      -7.375   5.445  68.623  1.00  0.00    -0.072 OA 
HETATM   22  C   UNL     1     -10.386   7.684  70.863  1.00  0.00    -0.204 A  
HETATM   23  O   UNL     1      -6.269   5.721  70.496  1.00  0.00    -0.028 OA 
HETATM   24  C   UNL     1      -9.853   8.914  71.250  1.00  0.00    -0.361 A  
HETATM   25  N   UNL     1      -7.220   5.953  69.738  1.00  0.00    -0.068 N  
HETATM   26  C   UNL     1      -8.188   6.950  70.193  1.00  0.00    -0.133 A  
HETATM   27  C   UNL     1      -8.497   9.179  71.082  1.00  0.00    -0.175 A  
HETATM   28  C   UNL     1      -7.657   8.196  70.565  1.00  0.00    -0.079 A  
ENDBRANCH  12  20
ENDBRANCH   3   5
ENDBRANCH   2   3
TORSDOF 6
ENDMDL
MODEL      185
REMARK 921   NORMALIZED FREE ENERGY PREDICTED BY IDOCK:   -2.60 KCAL/MOL
REMARK 922        TOTAL FREE ENERGY PREDICTED BY IDOCK:   -4.12 KCAL/MOL
REMARK 923 INTER-LIGAND FREE ENERGY PREDICTED BY IDOCK:   -3.98 KCAL/MOL
REMARK 924 INTRA-LIGAND FREE ENERGY PREDICTED BY IDOCK:   -0.14 KCAL/MOL
REMARK 927      BINDING AFFINITY PREDICTED BY RF-SCORE:    0.00 PKD
ROOT
HETATM    1  C   UNL     1      -9.493  10.826  63.660  1.00  0.00    -0.291 C  
HETATM    2  O   UNL     1      -9.026   9.506  63.965  1.00  0.00    -0.229 OA 
ENDROOT
BRANCH   2   3
HETATM    3  C   UNL     1      -7.840   9.464  64.611  1.00  0.00    -0.120 C  
HETATM    4  O   UNL     1      -6.938  10.278  64.454  1.00  0.00    -0.126 OA 
BRANCH   3   5
HETATM    5  C   UNL     1      -7.740   8.258  65.481  1.00  0.00    -0.101 C  
HETATM    6  C   UNL     1      -7.797   7.028  64.917  1.00  0.00    -0.126 C  
HETATM    7  C   UNL     1      -7.834   6.706  63.438  1.00  0.00    -0.106 C  
HETATM    8  N   UNL     1      -7.865   5.912  65.729  1.00  0.00    -0.099 NA 
HETATM    9  C   UNL     1      -8.081   5.929  67.095  1.00  0.00    -0.102 C  
HETATM   10  C   UNL     1      -8.400   4.578  67.694  1.00  0.00    -0.099 C  
HETATM   11  C   UNL     1      -8.033   7.101  67.780  1.00  0.00    -0.114 C  
HETATM   12  C   UNL     1      -7.751   8.427  67.031  1.00  0.00    -0.093 C  
BRANCH  11  13
HETATM   13  C   UNL     1      -8.344   7.093  69.242  1.00  0.00    -0.133 C  
HETATM   14  O   UNL     1      -8.001   7.981  70.011  1.00  0.00    -0.102 OA 
BRANCH  13  15
HETATM   15  O   UNL     1      -8.970   5.954  69.634  1.00  0.00    -0.128 OA 
BRANCH  15  16
HETATM   16  C   UNL     1      -9.072   5.794  71.064  1.00  0.00    -0.146 C  
HETATM   17  C   UNL     1      -9.550   3.284  71.011  1.00  0.00    -0.234 C  
HETATM   18  C   UNL     1      -8.679   4.403  71.580  1.00  0.00    -0.138 C  
HETATM   19  C   UNL     1      -7.204   4.100  71.330  1.00  0.00    -0.040 C  
ENDBRANCH  15  16
ENDBRANCH  13  15
ENDBRANCH  11  13
BRANCH  12  20
HETATM   20  C   UNL     1      -8.746   9.532  67.417  1.00  0.00    -0.128 A  
HETATM   21  O   UNL     1      -6.120  11.030  67.340  1.00  0.00    -0.051 OA 
HETATM   22  C   UNL     1     -10.123   9.282  67.238  1.00  0.00    -0.291 A  
HETATM   23  O   UNL     1      -6.810  11.645  69.329  1.00  0.00    -0.107 OA 
HETATM   24  C   UNL     1     -11.072  10.288  67.429  1.00  0.00    -0.261 A  
HETATM   25  N   UNL     1      -6.996  11.174  68.199  1.00  0.00    -0.067 N  
HETATM   26  C   UNL     1      -8.373  10.822  67.858  1.00  0.00    -0.117 A  
HETATM   27  C   UNL     1     -10.674  11.568  67.805  1.00  0.00    -0.249 A  
HETATM   28  C   UNL     1      -9.328  11.838  68.033  1.00  0.00    -0.184 A  
ENDBRANCH  12  20
ENDBRANCH   3   5
ENDBRANCH   2   3
TORSDOF 6
ENDMDL
MODEL      186
REMARK 921   NORMALIZED FREE ENERGY PREDICTED BY IDOCK:   -2.51 KCAL/MOL
REMARK 922        TOTAL FREE ENERGY PREDICTED BY IDOCK:   -4.00 KCAL/MOL
REMARK 923 INTER-LIGAND FREE ENERGY PREDICTED BY IDOCK:   -3.08 KCAL/MOL
REMARK 924 INTRA-LIGAND FREE ENERGY PREDICTED BY IDOCK:   -0.91 KCAL/MOL
REMARK 927      BINDING AFFINITY PREDICTED BY RF-SCORE:    0.00 PKD
ROOT
HETATM    1  C   UNL     1      -7.609   5.992  68.644  1.00  0.00    -0.091 C  
HETATM    2  O   UNL     1      -8.518   6.179  69.735  1.00  0.00    -0.124 OA 
ENDROOT
BRANCH   2   3
HETATM    3  C   UNL     1      -9.032   7.425  69.833  1.00  0.00    -0.141 C  
HETATM    4  O   UNL     1     -10.219   7.696  69.695  1.00  0.00    -0.194 OA 
BRANCH   3   5
HETATM    5  C   UNL     1      -7.961   8.436  70.055  1.00  0.00    -0.109 C  
HETATM    6  C   UNL     1      -7.302   8.454  71.238  1.00  0.00    -0.086 C  
HETATM    7  C   UNL     1      -7.439   7.459  72.370  1.00  0.00    -0.084 C  
HETATM    8  N   UNL     1      -6.422   9.484  71.510  1.00  0.00    -0.294 NA 
HETATM    9  C   UNL     1      -6.284  10.637  70.758  1.00  0.00     0.016 C  
HETATM   10  C   UNL     1      -5.471  11.723  71.424  1.00  0.00     0.124 C  
HETATM   11  C   UNL     1      -6.884  10.736  69.543  1.00  0.00    -0.116 C  
HETATM   12  C   UNL     1      -7.738   9.564  69.001  1.00  0.00    -0.076 C  
BRANCH  11  13
HETATM   13  C   UNL     1      -6.775  12.022  68.790  1.00  0.00    -0.087 C  
HETATM   14  O   UNL     1      -6.059  12.174  67.809  1.00  0.00    -0.067 OA 
BRANCH  13  15
HETATM   15  O   UNL     1      -7.489  13.024  69.366  1.00  0.00     0.208 OA 
BRANCH  15  16
HETATM   16  C   UNL     1      -7.535  14.241  68.594  1.00  0.00    -0.127 C  
HETATM   17  C   UNL     1      -9.179  13.375  66.840  1.00  0.00    -0.251 C  
HETATM   18  C   UNL     1      -8.857  14.476  67.849  1.00  0.00    -0.176 C  
HETATM   19  C   UNL     1     -10.025  14.665  68.813  1.00  0.00    -0.235 C  
ENDBRANCH  15  16
ENDBRANCH  13  15
ENDBRANCH  11  13
BRANCH  12  20
HETATM   20  C   UNL     1      -9.099  10.038  68.467  1.00  0.00    -0.127 A  
HETATM   21  O   UNL     1      -8.175   8.154  66.289  1.00  0.00    -0.106 OA 
HETATM   22  C   UNL     1      -9.978  10.684  69.362  1.00  0.00    -0.183 A  
HETATM   23  O   UNL     1      -8.649   9.904  65.054  1.00  0.00    -0.141 OA 
HETATM   24  C   UNL     1     -11.282  11.011  68.986  1.00  0.00    -0.320 A  
HETATM   25  N   UNL     1      -8.722   9.246  66.101  1.00  0.00    -0.143 N  
HETATM   26  C   UNL     1      -9.570   9.794  67.157  1.00  0.00    -0.169 A  
HETATM   27  C   UNL     1     -11.743  10.705  67.708  1.00  0.00     0.144 A  
HETATM   28  C   UNL     1     -10.888  10.107  66.786  1.00  0.00    -0.129 A  
ENDBRANCH  12  20
ENDBRANCH   3   5
ENDBRANCH   2   3
TORSDOF 6
ENDMDL
MODEL      187
REMARK 921   NORMALIZED FREE ENERGY PREDICTED BY IDOCK:   -2.50 KCAL/MOL
REMARK 922        TOTAL FREE ENERGY PREDICTED BY IDOCK:   -3.98 KCAL/MOL
REMARK 923 INTER-LIGAND FREE ENERGY PREDICTED BY IDOCK:   -3.99 KCAL/MOL
REMARK 924 INTRA-LIGAND FREE ENERGY PREDICTED BY IDOCK:    0.01 KCAL/MOL
REMARK 927      BINDING AFFINITY PREDICTED BY RF-SCORE:    0.00 PKD
ROOT
HETATM    1  C   UNL     1     -12.831   7.607  71.934  1.00  0.00    -0.282 C  
HETATM    2  O   UNL     1     -11.467   7.476  72.351  1.00  0.00    -0.284 OA 
ENDROOT
BRANCH   2   3
HETATM    3  C   UNL     1     -10.940   6.244  72.171  1.00  0.00    -0.257 C  
HETATM    4  O   UNL     1     -11.590   5.206  72.178  1.00  0.00     0.035 OA 
BRANCH   3   5
HETATM    5  C   UNL     1      -9.457   6.305  72.039  1.00  0.00    -0.158 C  
HETATM    6  C   UNL     1      -8.722   6.823  73.051  1.00  0.00    -0.119 C  
HETATM    7  C   UNL     1      -9.228   7.261  74.409  1.00  0.00    -0.169 C  
HETATM    8  N   UNL     1      -7.367   7.028  72.872  1.00  0.00    -0.074 NA 
HETATM    9  C   UNL     1      -6.698   6.935  71.665  1.00  0.00    -0.053 C  
HETATM   10  C   UNL     1      -5.290   7.485  71.688  1.00  0.00    -0.035 C  
HETATM   11  C   UNL     1      -7.322   6.415  70.576  1.00  0.00    -0.085 C  
HETATM   12  C   UNL     1      -8.792   5.938  70.676  1.00  0.00    -0.144 C  
BRANCH  11  13
HETATM   13  C   UNL     1      -6.595   6.398  69.270  1.00  0.00    -0.044 C  
HETATM   14  O   UNL     1      -6.345   7.405  68.621  1.00  0.00    -0.037 OA 
BRANCH  13  15
HETATM   15  O   UNL     1      -6.320   5.138  68.844  1.00  0.00    -0.029 OA 
BRANCH  15  16
HETATM   16  C   UNL     1      -6.781   4.848  67.509  1.00  0.00    -0.055 C  
HETATM   17  C   UNL     1      -5.630   2.574  67.326  1.00  0.00    -0.018 C  
HETATM   18  C   UNL     1      -6.939   3.353  67.199  1.00  0.00    -0.057 C  
HETATM   19  C   UNL     1      -8.022   2.706  68.058  1.00  0.00    -0.062 C  
ENDBRANCH  15  16
ENDBRANCH  13  15
ENDBRANCH  11  13
BRANCH  12  20
HETATM   20  C   UNL     1      -9.655   6.478  69.526  1.00  0.00    -0.152 A  
HETATM   21  O   UNL     1      -8.265   8.976  70.511  1.00  0.00    -0.130 OA 
HETATM   22  C   UNL     1     -10.207   5.552  68.615  1.00  0.00    -0.261 A  
HETATM   23  O   UNL     1     -10.336   9.696  70.550  1.00  0.00    -0.263 OA 
HETATM   24  C   UNL     1     -10.880   5.978  67.469  1.00  0.00    -0.393 A  
HETATM   25  N   UNL     1      -9.455   8.905  70.188  1.00  0.00    -0.171 N  
HETATM   26  C   UNL     1      -9.866   7.850  69.263  1.00  0.00    -0.177 A  
HETATM   27  C   UNL     1     -11.021   7.336  67.200  1.00  0.00    -0.285 A  
HETATM   28  C   UNL     1     -10.527   8.277  68.099  1.00  0.00    -0.226 A  
ENDBRANCH  12  20
ENDBRANCH   3   5
ENDBRANCH   2   3
TORSDOF 6
ENDMDL
MODEL      188
REMARK 921   NORMALIZED FREE ENERGY PREDICTED BY IDOCK:   -2.47 KCAL/MOL
REMARK 922        TOTAL FREE ENERGY PREDICTED BY IDOCK:   -3.94 KCAL/MOL
REMARK 923 INTER-LIGAND FREE ENERGY PREDICTED BY IDOCK:   -4.36 KCAL/MOL
REMARK 924 INTRA-LIGAND FREE ENERGY PREDICTED BY IDOCK:    0.43 KCAL/MOL
REMARK 927      BINDING AFFINITY PREDICTED BY RF-SCORE:    0.00 PKD
ROOT
HETATM    1  C   UNL     1     -10.631   5.959  66.658  1.00  0.00    -0.264 C  
HETATM    2  O   UNL     1      -9.613   6.911  66.988  1.00  0.00    -0.144 OA 
ENDROOT
BRANCH   2   3
HETATM    3  C   UNL     1      -9.967   7.811  67.932  1.00  0.00    -0.172 C  
HETATM    4  O   UNL     1     -11.111   7.967  68.344  1.00  0.00     0.142 OA 
BRANCH   3   5
HETATM    5  C   UNL     1      -8.803   8.639  68.355  1.00  0.00    -0.142 C  
HETATM    6  C   UNL     1      -8.300   8.486  69.603  1.00  0.00    -0.121 C  
HETATM    7  C   UNL     1      -8.713   7.453  70.629  1.00  0.00    -0.142 C  
HETATM    8  N   UNL     1      -7.327   9.358  70.055  1.00  0.00    -0.086 NA 
HETATM    9  C   UNL     1      -6.940  10.522  69.417  1.00  0.00    -0.099 C  
HETATM   10  C   UNL     1      -6.074  11.435  70.256  1.00  0.00    -0.145 C  
HETATM   11  C   UNL     1      -7.365  10.783  68.153  1.00  0.00    -0.088 C  
HETATM   12  C   UNL     1      -8.298   9.785  67.426  1.00  0.00    -0.114 C  
BRANCH  11  13
HETATM   13  C   UNL     1      -6.987  12.085  67.522  1.00  0.00    -0.130 C  
HETATM   14  O   UNL     1      -6.124  12.194  66.661  1.00  0.00    -0.189 OA 
BRANCH  13  15
HETATM   15  O   UNL     1      -7.644  13.139  68.070  1.00  0.00    -0.116 OA 
BRANCH  15  16
HETATM   16  C   UNL     1      -7.506  14.373  67.337  1.00  0.00    -0.159 C  
HETATM   17  C   UNL     1      -7.349  15.881  69.394  1.00  0.00    -0.217 C  
HETATM   18  C   UNL     1      -6.712  15.465  68.069  1.00  0.00    -0.156 C  
HETATM   19  C   UNL     1      -5.257  15.058  68.289  1.00  0.00    -0.114 C  
ENDBRANCH  15  16
ENDBRANCH  13  15
ENDBRANCH  11  13
BRANCH  12  20
HETATM   20  C   UNL     1      -9.503  10.486  66.780  1.00  0.00    -0.190 A  
HETATM   21  O   UNL     1      -9.698  11.398  69.657  1.00  0.00     0.385 OA 
HETATM   22  C   UNL     1      -9.558  10.555  65.371  1.00  0.00    -0.291 A  
HETATM   23  O   UNL     1     -11.747  10.666  69.387  1.00  0.00    -0.275 OA 
HETATM   24  C   UNL     1     -10.545  11.298  64.722  1.00  0.00    -0.376 A  
HETATM   25  N   UNL     1     -10.653  11.050  68.954  1.00  0.00    -0.197 N  
HETATM   26  C   UNL     1     -10.524  11.146  67.501  1.00  0.00    -0.204 A  
HETATM   27  C   UNL     1     -11.503  11.991  65.457  1.00  0.00    -0.368 A  
HETATM   28  C   UNL     1     -11.505  11.908  66.847  1.00  0.00    -0.390 A  
ENDBRANCH  12  20
ENDBRANCH   3   5
ENDBRANCH   2   3
TORSDOF 6
ENDMDL
MODEL      189
REMARK 921   NORMALIZED FREE ENERGY PREDICTED BY IDOCK:   -2.41 KCAL/MOL
REMARK 922        TOTAL FREE ENERGY PREDICTED BY IDOCK:   -3.87 KCAL/MOL
REMARK 923 INTER-LIGAND FREE ENERGY PREDICTED BY IDOCK:   -4.59 KCAL/MOL
REMARK 924 INTRA-LIGAND FREE ENERGY PREDICTED BY IDOCK:    0.72 KCAL/MOL
REMARK 927      BINDING AFFINITY PREDICTED BY RF-SCORE:    0.00 PKD
ROOT
HETATM    1  C   UNL     1     -12.224   9.835  71.787  1.00  0.00    -0.367 C  
HETATM    2  O   UNL     1     -11.547   9.163  70.719  1.00  0.00    -0.276 OA 
ENDROOT
BRANCH   2   3
HETATM    3  C   UNL     1     -10.198   9.205  70.793  1.00  0.00    -0.260 C  
HETATM    4  O   UNL     1      -9.567   9.338  71.834  1.00  0.00    -0.274 OA 
BRANCH   3   5
HETATM    5  C   UNL     1      -9.579   9.144  69.439  1.00  0.00    -0.165 C  
HETATM    6  C   UNL     1     -10.129   9.856  68.427  1.00  0.00    -0.167 C  
HETATM    7  C   UNL     1     -11.275  10.841  68.525  1.00  0.00    -0.340 C  
HETATM    8  N   UNL     1      -9.659   9.681  67.139  1.00  0.00    -0.161 NA 
HETATM    9  C   UNL     1      -8.790   8.684  66.735  1.00  0.00    -0.134 C  
HETATM   10  C   UNL     1      -8.662   8.538  65.235  1.00  0.00    -0.175 C  
HETATM   11  C   UNL     1      -8.159   7.911  67.657  1.00  0.00    -0.124 C  
HETATM   12  C   UNL     1      -8.424   8.132  69.167  1.00  0.00    -0.135 C  
BRANCH  11  13
HETATM   13  C   UNL     1      -7.284   6.796  67.184  1.00  0.00    -0.085 C  
HETATM   14  O   UNL     1      -6.070   6.895  67.061  1.00  0.00    -0.033 OA 
BRANCH  13  15
HETATM   15  O   UNL     1      -7.992   5.695  66.825  1.00  0.00    -0.101 OA 
BRANCH  15  16
HETATM   16  C   UNL     1      -7.183   4.585  66.386  1.00  0.00    -0.076 C  
HETATM   17  C   UNL     1      -6.346   3.937  68.712  1.00  0.00    -0.033 C  
HETATM   18  C   UNL     1      -7.019   3.465  67.423  1.00  0.00    -0.054 C  
HETATM   19  C   UNL     1      -8.348   2.785  67.741  1.00  0.00    -0.094 C  
ENDBRANCH  15  16
ENDBRANCH  13  15
ENDBRANCH  11  13
BRANCH  12  20
HETATM   20  C   UNL     1      -8.717   6.815  69.902  1.00  0.00    -0.141 A  
HETATM   21  O   UNL     1     -10.850   6.842  67.757  1.00  0.00    -0.244 OA 
HETATM   22  C   UNL     1      -7.729   6.300  70.767  1.00  0.00    -0.102 A  
HETATM   23  O   UNL     1     -12.123   6.482  69.506  1.00  0.00     0.018 OA 
HETATM   24  C   UNL     1      -7.866   5.041  71.354  1.00  0.00    -0.109 A  
HETATM   25  N   UNL     1     -11.026   6.503  68.933  1.00  0.00    -0.306 N  
HETATM   26  C   UNL     1      -9.877   6.033  69.704  1.00  0.00    -0.163 A  
HETATM   27  C   UNL     1      -8.991   4.263  71.095  1.00  0.00    -0.166 A  
HETATM   28  C   UNL     1     -10.005   4.759  70.281  1.00  0.00    -0.320 A  
ENDBRANCH  12  20
ENDBRANCH   3   5
ENDBRANCH   2   3
TORSDOF 6
ENDMDL
MODEL      190
REMARK 921   NORMALIZED FREE ENERGY PREDICTED BY IDOCK:   -2.34 KCAL/MOL
REMARK 922        TOTAL FREE ENERGY PREDICTED BY IDOCK:   -3.77 KCAL/MOL
REMARK 923 INTER-LIGAND FREE ENERGY PREDICTED BY IDOCK:   -4.50 KCAL/MOL
REMARK 924 INTRA-LIGAND FREE ENERGY PREDICTED BY IDOCK:    0.73 KCAL/MOL
REMARK 927      BINDING AFFINITY PREDICTED BY RF-SCORE:    0.00 PKD
ROOT
HETATM    1  C   UNL     1     -10.561  17.729  65.502  1.00  0.00    -0.041 C  
HETATM    2  O   UNL     1      -9.160  17.454  65.384  1.00  0.00    -0.010 OA 
ENDROOT
BRANCH   2   3
HETATM    3  C   UNL     1      -8.618  16.826  66.451  1.00  0.00    -0.303 C  
HETATM    4  O   UNL     1      -7.479  16.375  66.482  1.00  0.00    -0.245 OA 
BRANCH   3   5
HETATM    5  C   UNL     1      -9.607  16.685  67.556  1.00  0.00    -0.242 C  
HETATM    6  C   UNL     1      -9.587  17.572  68.579  1.00  0.00    -0.305 C  
HETATM    7  C   UNL     1      -8.727  18.813  68.690  1.00  0.00    -0.360 C  
HETATM    8  N   UNL     1     -10.392  17.356  69.682  1.00  0.00    -0.045 NA 
HETATM    9  C   UNL     1     -11.094  16.194  69.942  1.00  0.00    -0.357 C  
HETATM   10  C   UNL     1     -11.659  16.106  71.342  1.00  0.00    -0.495 C  
HETATM   11  C   UNL     1     -11.202  15.232  68.989  1.00  0.00    -0.287 C  
HETATM   12  C   UNL     1     -10.526  15.426  67.610  1.00  0.00    -0.272 C  
BRANCH  11  13
HETATM   13  C   UNL     1     -11.905  13.958  69.329  1.00  0.00    -0.348 C  
HETATM   14  O   UNL     1     -13.121  13.825  69.292  1.00  0.00     0.849 OA 
BRANCH  13  15
HETATM   15  O   UNL     1     -11.054  12.994  69.765  1.00  0.00    -0.026 OA 
BRANCH  15  16
HETATM   16  C   UNL     1     -11.704  11.819  70.291  1.00  0.00    -0.228 C  
HETATM   17  C   UNL     1     -11.769  10.546  68.075  1.00  0.00     0.080 C  
HETATM   18  C   UNL     1     -11.366  10.518  69.549  1.00  0.00    -0.341 C  
HETATM   19  C   UNL     1      -9.890  10.153  69.685  1.00  0.00    -0.254 C  
ENDBRANCH  15  16
ENDBRANCH  13  15
ENDBRANCH  11  13
BRANCH  12  20
HETATM   20  C   UNL     1      -9.721  14.190  67.181  1.00  0.00    -0.248 A  
HETATM   21  O   UNL     1      -8.578  14.781  69.918  1.00  0.00     0.165 OA 
HETATM   22  C   UNL     1     -10.195  13.431  66.089  1.00  0.00    -0.301 A  
HETATM   23  O   UNL     1      -6.707  14.670  68.780  1.00  0.00    -0.081 OA 
HETATM   24  C   UNL     1      -9.598  12.220  65.737  1.00  0.00    -0.185 A  
HETATM   25  N   UNL     1      -7.917  14.454  68.926  1.00  0.00    -0.135 N  
HETATM   26  C   UNL     1      -8.581  13.705  67.861  1.00  0.00    -0.181 A  
HETATM   27  C   UNL     1      -8.513  11.733  66.461  1.00  0.00    -0.125 A  
HETATM   28  C   UNL     1      -7.993  12.477  67.516  1.00  0.00    -0.175 A  
ENDBRANCH  12  20
ENDBRANCH   3   5
ENDBRANCH   2   3
TORSDOF 6
ENDMDL
MODEL      191
REMARK 921   NORMALIZED FREE ENERGY PREDICTED BY IDOCK:   -2.32 KCAL/MOL
REMARK 922        TOTAL FREE ENERGY PREDICTED BY IDOCK:   -3.74 KCAL/MOL
REMARK 923 INTER-LIGAND FREE ENERGY PREDICTED BY IDOCK:   -3.08 KCAL/MOL
REMARK 924 INTRA-LIGAND FREE ENERGY PREDICTED BY IDOCK:   -0.66 KCAL/MOL
REMARK 927      BINDING AFFINITY PREDICTED BY RF-SCORE:    0.00 PKD
ROOT
HETATM    1  C   UNL     1     -10.770  16.354  69.760  1.00  0.00    -0.324 C  
HETATM    2  O   UNL     1     -10.369  15.047  69.333  1.00  0.00    -0.234 OA 
ENDROOT
BRANCH   2   3
HETATM    3  C   UNL     1     -11.333  14.341  68.701  1.00  0.00    -0.275 C  
HETATM    4  O   UNL     1     -11.992  14.761  67.758  1.00  0.00    -0.334 OA 
BRANCH   3   5
HETATM    5  C   UNL     1     -11.542  13.014  69.346  1.00  0.00    -0.360 C  
HETATM    6  C   UNL     1     -12.369  12.920  70.414  1.00  0.00    -0.258 C  
HETATM    7  C   UNL     1     -13.237  14.017  70.991  1.00  0.00    -0.294 C  
HETATM    8  N   UNL     1     -12.445  11.729  71.112  1.00  0.00    -0.336 NA 
HETATM    9  C   UNL     1     -11.595  10.651  70.946  1.00  0.00    -0.217 C  
HETATM   10  C   UNL     1     -11.709   9.595  72.022  1.00  0.00    -0.057 C  
HETATM   11  C   UNL     1     -10.729  10.618  69.900  1.00  0.00    -0.260 C  
HETATM   12  C   UNL     1     -10.677  11.796  68.897  1.00  0.00    -0.241 C  
BRANCH  11  13
HETATM   13  C   UNL     1      -9.775   9.472  69.791  1.00  0.00    -0.214 C  
HETATM   14  O   UNL     1      -8.796   9.336  70.513  1.00  0.00    -0.206 OA 
BRANCH  13  15
HETATM   15  O   UNL     1     -10.066   8.649  68.750  1.00  0.00    -0.185 OA 
BRANCH  15  16
HETATM   16  C   UNL     1      -8.912   8.170  68.031  1.00  0.00    -0.134 C  
HETATM   17  C   UNL     1      -9.135   5.736  68.774  1.00  0.00    -0.118 C  
HETATM   18  C   UNL     1      -8.995   6.700  67.597  1.00  0.00    -0.111 C  
HETATM   19  C   UNL     1     -10.119   6.468  66.590  1.00  0.00    -0.201 C  
ENDBRANCH  15  16
ENDBRANCH  13  15
ENDBRANCH  11  13
BRANCH  12  20
HETATM   20  C   UNL     1      -9.238  12.265  68.629  1.00  0.00    -0.005 A  
HETATM   21  O   UNL     1     -10.253  11.676  65.841  1.00  0.00    -0.222 OA 
HETATM   22  C   UNL     1      -8.550  12.932  69.664  1.00  0.00     1.919 A  
HETATM   23  O   UNL     1      -8.399  10.506  65.788  1.00  0.00    -0.155 OA 
HETATM   24  C   UNL     1      -7.299  13.511  69.446  1.00  0.00     0.255 A  
HETATM   25  N   UNL     1      -9.130  11.382  66.267  1.00  0.00    -0.199 N  
HETATM   26  C   UNL     1      -8.582  12.152  67.382  1.00  0.00    -0.175 A  
HETATM   27  C   UNL     1      -6.700  13.439  68.191  1.00  0.00    -0.117 A  
HETATM   28  C   UNL     1      -7.332  12.751  67.159  1.00  0.00    -0.023 A  
ENDBRANCH  12  20
ENDBRANCH   3   5
ENDBRANCH   2   3
TORSDOF 6
ENDMDL
MODEL      192
REMARK 921   NORMALIZED FREE ENERGY PREDICTED BY IDOCK:   -2.31 KCAL/MOL
REMARK 922        TOTAL FREE ENERGY PREDICTED BY IDOCK:   -3.73 KCAL/MOL
REMARK 923 INTER-LIGAND FREE ENERGY PREDICTED BY IDOCK:   -3.37 KCAL/MOL
REMARK 924 INTRA-LIGAND FREE ENERGY PREDICTED BY IDOCK:   -0.36 KCAL/MOL
REMARK 927      BINDING AFFINITY PREDICTED BY RF-SCORE:    0.00 PKD
ROOT
HETATM    1  C   UNL     1      -8.842   9.968  63.782  1.00  0.00    -0.231 C  
HETATM    2  O   UNL     1      -8.877   8.639  64.314  1.00  0.00    -0.034 OA 
ENDROOT
BRANCH   2   3
HETATM    3  C   UNL     1      -7.809   8.308  65.073  1.00  0.00    -0.126 C  
HETATM    4  O   UNL     1      -6.823   9.019  65.227  1.00  0.00    -0.071 OA 
BRANCH   3   5
HETATM    5  C   UNL     1      -7.950   6.936  65.636  1.00  0.00    -0.120 C  
HETATM    6  C   UNL     1      -8.097   5.886  64.794  1.00  0.00    -0.132 C  
HETATM    7  C   UNL     1      -8.016   5.915  63.282  1.00  0.00    -0.107 C  
HETATM    8  N   UNL     1      -8.386   4.636  65.309  1.00  0.00    -0.120 NA 
HETATM    9  C   UNL     1      -8.741   4.376  66.620  1.00  0.00    -0.112 C  
HETATM   10  C   UNL     1      -9.284   2.984  66.855  1.00  0.00    -0.177 C  
HETATM   11  C   UNL     1      -8.622   5.344  67.565  1.00  0.00    -0.108 C  
HETATM   12  C   UNL     1      -8.103   6.750  67.177  1.00  0.00    -0.117 C  
BRANCH  11  13
HETATM   13  C   UNL     1      -9.084   5.051  68.957  1.00  0.00    -0.105 C  
HETATM   14  O   UNL     1     -10.255   5.113  69.308  1.00  0.00    -0.218 OA 
BRANCH  13  15
HETATM   15  O   UNL     1      -8.054   4.795  69.804  1.00  0.00    -0.068 OA 
BRANCH  15  16
HETATM   16  C   UNL     1      -6.772   4.656  69.157  1.00  0.00    -0.046 C  
HETATM   17  C   UNL     1      -5.381   5.326  71.193  1.00  0.00    -0.005 C  
HETATM   18  C   UNL     1      -5.619   4.285  70.100  1.00  0.00    -0.013 C  
HETATM   19  C   UNL     1      -5.815   2.904  70.721  1.00  0.00    -0.017 C  
ENDBRANCH  15  16
ENDBRANCH  13  15
ENDBRANCH  11  13
BRANCH  12  20
HETATM   20  C   UNL     1      -8.990   7.871  67.739  1.00  0.00    -0.128 A  
HETATM   21  O   UNL     1      -6.484   8.136  69.411  1.00  0.00    -0.034 OA 
HETATM   22  C   UNL     1     -10.121   8.265  66.992  1.00  0.00    -0.353 A  
HETATM   23  O   UNL     1      -7.968   8.054  71.024  1.00  0.00    -0.085 OA 
HETATM   24  C   UNL     1     -10.887   9.369  67.369  1.00  0.00    -0.189 A  
HETATM   25  N   UNL     1      -7.639   8.220  69.842  1.00  0.00    -0.078 N  
HETATM   26  C   UNL     1      -8.704   8.600  68.916  1.00  0.00    -0.131 A  
HETATM   27  C   UNL     1     -10.549  10.109  68.499  1.00  0.00    -0.245 A  
HETATM   28  C   UNL     1      -9.466   9.721  69.283  1.00  0.00    -0.201 A  
ENDBRANCH  12  20
ENDBRANCH   3   5
ENDBRANCH   2   3
TORSDOF 6
ENDMDL
MODEL      193
REMARK 921   NORMALIZED FREE ENERGY PREDICTED BY IDOCK:   -2.20 KCAL/MOL
REMARK 922        TOTAL FREE ENERGY PREDICTED BY IDOCK:   -3.58 KCAL/MOL
REMARK 923 INTER-LIGAND FREE ENERGY PREDICTED BY IDOCK:   -5.53 KCAL/MOL
REMARK 924 INTRA-LIGAND FREE ENERGY PREDICTED BY IDOCK:    1.94 KCAL/MOL
REMARK 927      BINDING AFFINITY PREDICTED BY RF-SCORE:    0.00 PKD
ROOT
HETATM    1  C   UNL     1      -7.961  15.784  66.428  1.00  0.00    -0.004 C  
HETATM    2  O   UNL     1      -9.282  15.271  66.634  1.00  0.00    -0.235 OA 
ENDROOT
BRANCH   2   3
HETATM    3  C   UNL     1      -9.740  14.478  65.639  1.00  0.00    -0.247 C  
HETATM    4  O   UNL     1     -10.203  14.892  64.583  1.00  0.00    -0.243 OA 
BRANCH   3   5
HETATM    5  C   UNL     1      -9.678  13.040  66.022  1.00  0.00    -0.223 C  
HETATM    6  C   UNL     1      -9.859  12.093  65.070  1.00  0.00    -0.160 C  
HETATM    7  C   UNL     1     -10.006  12.318  63.580  1.00  0.00    -0.289 C  
HETATM    8  N   UNL     1      -9.961  10.766  65.443  1.00  0.00    -0.254 NA 
HETATM    9  C   UNL     1     -10.094  10.309  66.741  1.00  0.00    -0.216 C  
HETATM   10  C   UNL     1     -10.475   8.850  66.854  1.00  0.00    -0.304 C  
HETATM   11  C   UNL     1      -9.919  11.159  67.787  1.00  0.00    -0.193 C  
HETATM   12  C   UNL     1      -9.585  12.648  67.529  1.00  0.00    -0.184 C  
BRANCH  11  13
HETATM   13  C   UNL     1     -10.143  10.649  69.174  1.00  0.00    -0.216 C  
HETATM   14  O   UNL     1      -9.241  10.282  69.914  1.00  0.00    -0.150 OA 
BRANCH  13  15
HETATM   15  O   UNL     1     -11.462  10.557  69.488  1.00  0.00    -0.246 OA 
BRANCH  15  16
HETATM   16  C   UNL     1     -11.796  11.053  70.800  1.00  0.00    -0.278 C  
HETATM   17  C   UNL     1     -13.561   9.275  71.306  1.00  0.00    -0.287 C  
HETATM   18  C   UNL     1     -12.291   9.979  71.780  1.00  0.00    -0.434 C  
HETATM   19  C   UNL     1     -11.205   8.952  72.093  1.00  0.00    -0.362 C  
ENDBRANCH  15  16
ENDBRANCH  13  15
ENDBRANCH  11  13
BRANCH  12  20
HETATM   20  C   UNL     1     -10.472  13.592  68.356  1.00  0.00    -0.251 A  
HETATM   21  O   UNL     1     -12.489  12.213  66.574  1.00  0.00    -0.227 OA 
HETATM   22  C   UNL     1      -9.925  14.171  69.520  1.00  0.00     0.363 A  
HETATM   23  O   UNL     1     -13.045  14.297  66.177  1.00  0.00    -0.090 OA 
HETATM   24  C   UNL     1     -10.714  14.921  70.394  1.00  0.00    -0.054 A  
HETATM   25  N   UNL     1     -12.487  13.419  66.847  1.00  0.00    -0.181 N  
HETATM   26  C   UNL     1     -11.833  13.855  68.079  1.00  0.00    -0.375 A  
HETATM   27  C   UNL     1     -12.067  15.114  70.131  1.00  0.00    -0.384 A  
HETATM   28  C   UNL     1     -12.629  14.593  68.969  1.00  0.00     0.202 A  
ENDBRANCH  12  20
ENDBRANCH   3   5
ENDBRANCH   2   3
TORSDOF 6
ENDMDL
MODEL      194
REMARK 921   NORMALIZED FREE ENERGY PREDICTED BY IDOCK:   -2.20 KCAL/MOL
REMARK 922        TOTAL FREE ENERGY PREDICTED BY IDOCK:   -3.57 KCAL/MOL
REMARK 923 INTER-LIGAND FREE ENERGY PREDICTED BY IDOCK:   -3.71 KCAL/MOL
REMARK 924 INTRA-LIGAND FREE ENERGY PREDICTED BY IDOCK:    0.14 KCAL/MOL
REMARK 927      BINDING AFFINITY PREDICTED BY RF-SCORE:    0.00 PKD
ROOT
HETATM    1  C   UNL     1      -6.735   6.218  66.563  1.00  0.00    -0.060 C  
HETATM    2  O   UNL     1      -7.932   6.790  67.101  1.00  0.00    -0.113 OA 
ENDROOT
BRANCH   2   3
HETATM    3  C   UNL     1      -8.954   5.919  67.253  1.00  0.00    -0.108 C  
HETATM    4  O   UNL     1      -9.207   5.007  66.475  1.00  0.00    -0.127 OA 
BRANCH   3   5
HETATM    5  C   UNL     1      -9.779   6.256  68.447  1.00  0.00    -0.130 C  
HETATM    6  C   UNL     1     -10.395   7.460  68.508  1.00  0.00    -0.198 C  
HETATM    7  C   UNL     1     -10.451   8.510  67.419  1.00  0.00    -0.351 C  
HETATM    8  N   UNL     1     -11.028   7.841  69.676  1.00  0.00    -0.179 NA 
HETATM    9  C   UNL     1     -10.932   7.182  70.889  1.00  0.00    -0.251 C  
HETATM   10  C   UNL     1     -11.479   7.957  72.066  1.00  0.00    -0.351 C  
HETATM   11  C   UNL     1     -10.349   5.957  70.956  1.00  0.00    -0.281 C  
HETATM   12  C   UNL     1      -9.777   5.297  69.678  1.00  0.00    -0.250 C  
BRANCH  11  13
HETATM   13  C   UNL     1     -10.196   5.306  72.293  1.00  0.00    -0.199 C  
HETATM   14  O   UNL     1     -11.060   4.613  72.812  1.00  0.00    -0.200 OA 
BRANCH  13  15
HETATM   15  O   UNL     1      -9.029   5.640  72.903  1.00  0.00    -0.125 OA 
BRANCH  15  16
HETATM   16  C   UNL     1      -8.920   5.184  74.267  1.00  0.00    -0.114 C  
HETATM   17  C   UNL     1      -7.716   2.999  73.713  1.00  0.00    -0.060 C  
HETATM   18  C   UNL     1      -7.708   4.282  74.542  1.00  0.00    -0.080 C  
HETATM   19  C   UNL     1      -6.390   5.027  74.348  1.00  0.00    -0.063 C  
ENDBRANCH  15  16
ENDBRANCH  13  15
ENDBRANCH  11  13
BRANCH  12  20
HETATM   20  C   UNL     1      -8.358   4.750  69.894  1.00  0.00    -0.072 A  
HETATM   21  O   UNL     1      -8.130   7.568  70.969  1.00  0.00    -0.098 OA 
HETATM   22  C   UNL     1      -8.161   3.355  69.808  1.00  0.00    -0.060 A  
HETATM   23  O   UNL     1      -6.415   7.580  69.603  1.00  0.00    -0.034 OA 
HETATM   24  C   UNL     1      -6.933   2.777  70.134  1.00  0.00    -0.034 A  
HETATM   25  N   UNL     1      -7.282   7.002  70.271  1.00  0.00    -0.070 N  
HETATM   26  C   UNL     1      -7.246   5.540  70.263  1.00  0.00    -0.067 A  
HETATM   27  C   UNL     1      -5.870   3.572  70.554  1.00  0.00    -0.017 A  
HETATM   28  C   UNL     1      -6.017   4.955  70.609  1.00  0.00    -0.018 A  
ENDBRANCH  12  20
ENDBRANCH   3   5
ENDBRANCH   2   3
TORSDOF 6
ENDMDL
MODEL      195
REMARK 921   NORMALIZED FREE ENERGY PREDICTED BY IDOCK:   -2.19 KCAL/MOL
REMARK 922        TOTAL FREE ENERGY PREDICTED BY IDOCK:   -3.57 KCAL/MOL
REMARK 923 INTER-LIGAND FREE ENERGY PREDICTED BY IDOCK:   -3.72 KCAL/MOL
REMARK 924 INTRA-LIGAND FREE ENERGY PREDICTED BY IDOCK:    0.15 KCAL/MOL
REMARK 927      BINDING AFFINITY PREDICTED BY RF-SCORE:    0.00 PKD
ROOT
HETATM    1  C   UNL     1     -11.063  10.725  66.175  1.00  0.00     0.136 C  
HETATM    2  O   UNL     1     -10.141  11.272  67.125  1.00  0.00    -0.186 OA 
ENDROOT
BRANCH   2   3
HETATM    3  C   UNL     1      -8.855  10.900  66.940  1.00  0.00    -0.142 C  
HETATM    4  O   UNL     1      -8.306  10.831  65.847  1.00  0.00    -0.159 OA 
BRANCH   3   5
HETATM    5  C   UNL     1      -8.213  10.513  68.227  1.00  0.00    -0.117 C  
HETATM    6  C   UNL     1      -7.101  11.168  68.636  1.00  0.00    -0.090 C  
HETATM    7  C   UNL     1      -6.464  12.376  67.981  1.00  0.00    -0.081 C  
HETATM    8  N   UNL     1      -6.412  10.712  69.744  1.00  0.00    -0.094 NA 
HETATM    9  C   UNL     1      -6.637   9.507  70.384  1.00  0.00    -0.086 C  
HETATM   10  C   UNL     1      -5.567   9.119  71.379  1.00  0.00    -0.055 C  
HETATM   11  C   UNL     1      -7.731   8.763  70.075  1.00  0.00    -0.082 C  
HETATM   12  C   UNL     1      -8.722   9.252  68.992  1.00  0.00    -0.135 C  
BRANCH  11  13
HETATM   13  C   UNL     1      -7.904   7.432  70.732  1.00  0.00    -0.096 C  
HETATM   14  O   UNL     1      -7.161   6.479  70.538  1.00  0.00    -0.070 OA 
BRANCH  13  15
HETATM   15  O   UNL     1      -9.024   7.372  71.499  1.00  0.00    -0.125 OA 
BRANCH  15  16
HETATM   16  C   UNL     1      -9.149   8.445  72.454  1.00  0.00    -0.256 C  
HETATM   17  C   UNL     1      -9.818   6.960  74.424  1.00  0.00    -0.252 C  
HETATM   18  C   UNL     1      -8.867   8.040  73.908  1.00  0.00    -0.274 C  
HETATM   19  C   UNL     1      -7.418   7.603  74.106  1.00  0.00    -0.161 C  
ENDBRANCH  15  16
ENDBRANCH  13  15
ENDBRANCH  11  13
BRANCH  12  20
HETATM   20  C   UNL     1      -9.067   8.148  67.980  1.00  0.00    -0.134 A  
HETATM   21  O   UNL     1      -6.043   8.133  67.943  1.00  0.00    -0.045 OA 
HETATM   22  C   UNL     1     -10.385   7.645  67.966  1.00  0.00    -0.257 A  
HETATM   23  O   UNL     1      -6.414   8.292  65.787  1.00  0.00    -0.051 OA 
HETATM   24  C   UNL     1     -10.731   6.547  67.177  1.00  0.00    -0.438 A  
HETATM   25  N   UNL     1      -6.767   8.038  66.946  1.00  0.00    -0.063 N  
HETATM   26  C   UNL     1      -8.130   7.536  67.118  1.00  0.00    -0.118 A  
HETATM   27  C   UNL     1      -9.774   5.922  66.382  1.00  0.00    -0.168 A  
HETATM   28  C   UNL     1      -8.475   6.420  66.339  1.00  0.00    -0.123 A  
ENDBRANCH  12  20
ENDBRANCH   3   5
ENDBRANCH   2   3
TORSDOF 6
ENDMDL
MODEL      196
REMARK 921   NORMALIZED FREE ENERGY PREDICTED BY IDOCK:   -2.10 KCAL/MOL
REMARK 922        TOTAL FREE ENERGY PREDICTED BY IDOCK:   -3.44 KCAL/MOL
REMARK 923 INTER-LIGAND FREE ENERGY PREDICTED BY IDOCK:   -2.78 KCAL/MOL
REMARK 924 INTRA-LIGAND FREE ENERGY PREDICTED BY IDOCK:   -0.67 KCAL/MOL
REMARK 927      BINDING AFFINITY PREDICTED BY RF-SCORE:    0.00 PKD
ROOT
HETATM    1  C   UNL     1      -8.262   8.487  62.405  1.00  0.00    -0.184 C  
HETATM    2  O   UNL     1      -8.491   7.319  63.201  1.00  0.00     0.088 OA 
ENDROOT
BRANCH   2   3
HETATM    3  C   UNL     1      -7.474   6.993  64.029  1.00  0.00    -0.099 C  
HETATM    4  O   UNL     1      -6.288   7.058  63.727  1.00  0.00    -0.042 OA 
BRANCH   3   5
HETATM    5  C   UNL     1      -7.980   6.471  65.330  1.00  0.00    -0.119 C  
HETATM    6  C   UNL     1      -8.639   5.288  65.358  1.00  0.00    -0.149 C  
HETATM    7  C   UNL     1      -8.833   4.328  64.203  1.00  0.00    -0.142 C  
HETATM    8  N   UNL     1      -9.247   4.877  66.528  1.00  0.00    -0.129 NA 
HETATM    9  C   UNL     1      -9.423   5.660  67.655  1.00  0.00    -0.115 C  
HETATM   10  C   UNL     1     -10.366   5.074  68.681  1.00  0.00    -0.098 C  
HETATM   11  C   UNL     1      -8.800   6.863  67.755  1.00  0.00    -0.119 C  
HETATM   12  C   UNL     1      -7.902   7.371  66.601  1.00  0.00    -0.109 C  
BRANCH  11  13
HETATM   13  C   UNL     1      -9.071   7.715  68.953  1.00  0.00    -0.140 C  
HETATM   14  O   UNL     1     -10.148   8.254  69.171  1.00  0.00    -0.192 OA 
BRANCH  13  15
HETATM   15  O   UNL     1      -7.967   7.896  69.723  1.00  0.00    -0.109 OA 
BRANCH  15  16
HETATM   16  C   UNL     1      -8.134   8.855  70.786  1.00  0.00    -0.156 C  
HETATM   17  C   UNL     1      -6.455   7.772  72.380  1.00  0.00    -0.058 C  
HETATM   18  C   UNL     1      -6.893   9.052  71.670  1.00  0.00    -0.024 C  
HETATM   19  C   UNL     1      -5.726   9.645  70.885  1.00  0.00    -0.071 C  
ENDBRANCH  15  16
ENDBRANCH  13  15
ENDBRANCH  11  13
BRANCH  12  20
HETATM   20  C   UNL     1      -8.221   8.824  66.217  1.00  0.00    -0.115 A  
HETATM   21  O   UNL     1      -5.248   8.656  65.684  1.00  0.00    -0.033 OA 
HETATM   22  C   UNL     1      -9.572   9.184  66.029  1.00  0.00    -0.342 A  
HETATM   23  O   UNL     1      -5.272  10.451  66.943  1.00  0.00    -0.039 OA 
HETATM   24  C   UNL     1      -9.925  10.443  65.540  1.00  0.00    -0.348 A  
HETATM   25  N   UNL     1      -5.822   9.609  66.221  1.00  0.00    -0.056 N  
HETATM   26  C   UNL     1      -7.244   9.811  65.951  1.00  0.00    -0.103 A  
HETATM   27  C   UNL     1      -8.941  11.377  65.227  1.00  0.00    -0.017 A  
HETATM   28  C   UNL     1      -7.600  11.071  65.442  1.00  0.00     0.241 A  
ENDBRANCH  12  20
ENDBRANCH   3   5
ENDBRANCH   2   3
TORSDOF 6
ENDMDL
MODEL      197
REMARK 921   NORMALIZED FREE ENERGY PREDICTED BY IDOCK:   -1.95 KCAL/MOL
REMARK 922        TOTAL FREE ENERGY PREDICTED BY IDOCK:   -3.24 KCAL/MOL
REMARK 923 INTER-LIGAND FREE ENERGY PREDICTED BY IDOCK:   -4.36 KCAL/MOL
REMARK 924 INTRA-LIGAND FREE ENERGY PREDICTED BY IDOCK:    1.12 KCAL/MOL
REMARK 927      BINDING AFFINITY PREDICTED BY RF-SCORE:    0.00 PKD
ROOT
HETATM    1  C   UNL     1     -10.521  18.819  66.176  1.00  0.00    -0.446 C  
HETATM    2  O   UNL     1     -10.686  17.480  65.693  1.00  0.00    -0.470 OA 
ENDROOT
BRANCH   2   3
HETATM    3  C   UNL     1      -9.568  16.722  65.742  1.00  0.00    -0.079 C  
HETATM    4  O   UNL     1      -8.437  17.167  65.896  1.00  0.00    -0.529 OA 
BRANCH   3   5
HETATM    5  C   UNL     1      -9.879  15.284  65.509  1.00  0.00    -0.362 C  
HETATM    6  C   UNL     1     -10.947  14.952  64.746  1.00  0.00    -0.375 C  
HETATM    7  C   UNL     1     -11.838  15.898  63.969  1.00  0.00     0.175 C  
HETATM    8  N   UNL     1     -11.334  13.628  64.657  1.00  0.00    -0.352 NA 
HETATM    9  C   UNL     1     -10.846  12.599  65.441  1.00  0.00    -0.287 C  
HETATM   10  C   UNL     1     -11.634  11.313  65.344  1.00  0.00     0.282 C  
HETATM   11  C   UNL     1      -9.765  12.801  66.239  1.00  0.00    -0.262 C  
HETATM   12  C   UNL     1      -9.083  14.190  66.286  1.00  0.00    -0.072 C  
BRANCH  11  13
HETATM   13  C   UNL     1      -9.310  11.690  67.129  1.00  0.00    -0.174 C  
HETATM   14  O   UNL     1     -10.052  11.086  67.892  1.00  0.00    -0.172 OA 
BRANCH  13  15
HETATM   15  O   UNL     1      -7.969  11.483  67.059  1.00  0.00    -0.148 OA 
BRANCH  15  16
HETATM   16  C   UNL     1      -7.590  10.112  66.827  1.00  0.00    -0.105 C  
HETATM   17  C   UNL     1      -8.295  10.060  64.372  1.00  0.00    -0.169 C  
HETATM   18  C   UNL     1      -7.178   9.799  65.382  1.00  0.00    -0.114 C  
HETATM   19  C   UNL     1      -5.914  10.554  64.976  1.00  0.00    -0.101 C  
ENDBRANCH  15  16
ENDBRANCH  13  15
ENDBRANCH  11  13
BRANCH  12  20
HETATM   20  C   UNL     1      -8.836  14.666  67.726  1.00  0.00    -0.177 A  
HETATM   21  O   UNL     1     -11.795  14.040  67.755  1.00  0.00    -0.349 OA 
HETATM   22  C   UNL     1      -7.504  14.743  68.184  1.00  0.00    -0.119 A  
HETATM   23  O   UNL     1     -11.864  16.072  68.576  1.00  0.00    -0.343 OA 
HETATM   24  C   UNL     1      -7.213  15.027  69.519  1.00  0.00    -0.199 A  
HETATM   25  N   UNL     1     -11.271  15.025  68.285  1.00  0.00    -0.285 N  
HETATM   26  C   UNL     1      -9.860  14.950  68.658  1.00  0.00    -0.225 A  
HETATM   27  C   UNL     1      -8.241  15.243  70.433  1.00  0.00     1.054 A  
HETATM   28  C   UNL     1      -9.566  15.217  70.005  1.00  0.00     0.048 A  
ENDBRANCH  12  20
ENDBRANCH   3   5
ENDBRANCH   2   3
TORSDOF 6
ENDMDL
MODEL      198
REMARK 921   NORMALIZED FREE ENERGY PREDICTED BY IDOCK:   -1.68 KCAL/MOL
REMARK 922        TOTAL FREE ENERGY PREDICTED BY IDOCK:   -2.87 KCAL/MOL
REMARK 923 INTER-LIGAND FREE ENERGY PREDICTED BY IDOCK:   -3.33 KCAL/MOL
REMARK 924 INTRA-LIGAND FREE ENERGY PREDICTED BY IDOCK:    0.45 KCAL/MOL
REMARK 927      BINDING AFFINITY PREDICTED BY RF-SCORE:    0.00 PKD
ROOT
HETATM    1  C   UNL     1      -8.186   8.580  63.903  1.00  0.00    -0.127 C  
HETATM    2  O   UNL     1      -7.955   7.810  65.088  1.00  0.00    -0.115 OA 
ENDROOT
BRANCH   2   3
HETATM    3  C   UNL     1      -7.215   8.435  66.031  1.00  0.00    -0.073 C  
HETATM    4  O   UNL     1      -6.612   9.487  65.852  1.00  0.00    -0.074 OA 
BRANCH   3   5
HETATM    5  C   UNL     1      -7.165   7.644  67.292  1.00  0.00    -0.090 C  
HETATM    6  C   UNL     1      -6.932   6.311  67.229  1.00  0.00    -0.072 C  
HETATM    7  C   UNL     1      -6.586   5.506  65.994  1.00  0.00    -0.048 C  
HETATM    8  N   UNL     1      -7.042   5.547  68.375  1.00  0.00    -0.068 NA 
HETATM    9  C   UNL     1      -7.566   5.983  69.578  1.00  0.00    -0.093 C  
HETATM   10  C   UNL     1      -7.838   4.880  70.577  1.00  0.00    -0.066 C  
HETATM   11  C   UNL     1      -7.827   7.302  69.773  1.00  0.00    -0.117 C  
HETATM   12  C   UNL     1      -7.553   8.322  68.642  1.00  0.00    -0.099 C  
BRANCH  11  13
HETATM   13  C   UNL     1      -8.463   7.728  71.057  1.00  0.00    -0.122 C  
HETATM   14  O   UNL     1      -9.671   7.725  71.248  1.00  0.00    -0.157 OA 
BRANCH  13  15
HETATM   15  O   UNL     1      -7.558   8.198  71.954  1.00  0.00    -0.081 OA 
BRANCH  15  16
HETATM   16  C   UNL     1      -8.092   8.425  73.274  1.00  0.00    -0.102 C  
HETATM   17  C   UNL     1      -7.384   6.165  74.233  1.00  0.00    -0.086 C  
HETATM   18  C   UNL     1      -7.354   7.683  74.397  1.00  0.00    -0.158 C  
HETATM   19  C   UNL     1      -5.914   8.168  74.548  1.00  0.00    -0.109 C  
ENDBRANCH  15  16
ENDBRANCH  13  15
ENDBRANCH  11  13
BRANCH  12  20
HETATM   20  C   UNL     1      -8.743   9.267  68.413  1.00  0.00    -0.129 A  
HETATM   21  O   UNL     1     -10.060   6.545  68.340  1.00  0.00    -0.145 OA 
HETATM   22  C   UNL     1      -8.572  10.637  68.700  1.00  0.00    -0.144 A  
HETATM   23  O   UNL     1     -10.844   7.358  66.460  1.00  0.00    -0.033 OA 
HETATM   24  C   UNL     1      -9.648  11.526  68.653  1.00  0.00    -0.159 A  
HETATM   25  N   UNL     1     -10.315   7.479  67.573  1.00  0.00    -0.228 N  
HETATM   26  C   UNL     1     -10.032   8.843  68.015  1.00  0.00    -0.178 A  
HETATM   27  C   UNL     1     -10.921  11.073  68.319  1.00  0.00    -0.287 A  
HETATM   28  C   UNL     1     -11.116   9.735  67.987  1.00  0.00    -0.168 A  
ENDBRANCH  12  20
ENDBRANCH   3   5
ENDBRANCH   2   3
TORSDOF 6
ENDMDL
MODEL      199
REMARK 921   NORMALIZED FREE ENERGY PREDICTED BY IDOCK:   -1.45 KCAL/MOL
REMARK 922        TOTAL FREE ENERGY PREDICTED BY IDOCK:   -2.56 KCAL/MOL
REMARK 923 INTER-LIGAND FREE ENERGY PREDICTED BY IDOCK:   -3.28 KCAL/MOL
REMARK 924 INTRA-LIGAND FREE ENERGY PREDICTED BY IDOCK:    0.72 KCAL/MOL
REMARK 927      BINDING AFFINITY PREDICTED BY RF-SCORE:    0.00 PKD
ROOT
HETATM    1  C   UNL     1     -12.648  15.650  63.739  1.00  0.00     0.932 C  
HETATM    2  O   UNL     1     -12.010  14.375  63.877  1.00  0.00    -0.339 OA 
ENDROOT
BRANCH   2   3
HETATM    3  C   UNL     1     -11.830  13.970  65.154  1.00  0.00    -0.365 C  
HETATM    4  O   UNL     1     -12.685  14.043  66.028  1.00  0.00    -0.475 OA 
BRANCH   3   5
HETATM    5  C   UNL     1     -10.437  13.493  65.380  1.00  0.00    -0.322 C  
HETATM    6  C   UNL     1     -10.016  12.363  64.764  1.00  0.00    -0.172 C  
HETATM    7  C   UNL     1     -10.776  11.549  63.738  1.00  0.00    -0.474 C  
HETATM    8  N   UNL     1      -8.784  11.829  65.091  1.00  0.00     0.373 NA 
HETATM    9  C   UNL     1      -7.995  12.234  66.153  1.00  0.00     0.704 C  
HETATM   10  C   UNL     1      -6.843  11.305  66.464  1.00  0.00    -0.101 C  
HETATM   11  C   UNL     1      -8.303  13.364  66.842  1.00  0.00    -0.013 C  
HETATM   12  C   UNL     1      -9.549  14.196  66.452  1.00  0.00    -0.310 C  
BRANCH  11  13
HETATM   13  C   UNL     1      -7.472  13.731  68.028  1.00  0.00    -0.139 C  
HETATM   14  O   UNL     1      -7.105  14.874  68.270  1.00  0.00    -0.099 OA 
BRANCH  13  15
HETATM   15  O   UNL     1      -7.099  12.648  68.758  1.00  0.00    -0.091 OA 
BRANCH  15  16
HETATM   16  C   UNL     1      -5.684  12.571  69.027  1.00  0.00    -0.067 C  
HETATM   17  C   UNL     1      -5.895  12.722  71.569  1.00  0.00     0.591 C  
HETATM   18  C   UNL     1      -5.325  11.946  70.382  1.00  0.00    -0.131 C  
HETATM   19  C   UNL     1      -5.746  10.481  70.461  1.00  0.00    -0.097 C  
ENDBRANCH  15  16
ENDBRANCH  13  15
ENDBRANCH  11  13
BRANCH  12  20
HETATM   20  C   UNL     1     -10.410  14.555  67.672  1.00  0.00    -0.237 A  
HETATM   21  O   UNL     1     -10.122  17.225  66.281  1.00  0.00    -0.299 OA 
HETATM   22  C   UNL     1     -11.023  13.505  68.388  1.00  0.00    -0.289 A  
HETATM   23  O   UNL     1      -9.494  17.817  68.298  1.00  0.00    -0.271 OA 
HETATM   24  C   UNL     1     -11.931  13.764  69.416  1.00  0.00    -0.397 A  
HETATM   25  N   UNL     1     -10.048  17.047  67.502  1.00  0.00    -0.285 N  
HETATM   26  C   UNL     1     -10.707  15.876  68.078  1.00  0.00    -0.301 A  
HETATM   27  C   UNL     1     -12.254  15.074  69.756  1.00  0.00    -0.324 A  
HETATM   28  C   UNL     1     -11.636  16.134  69.099  1.00  0.00    -0.285 A  
ENDBRANCH  12  20
ENDBRANCH   3   5
ENDBRANCH   2   3
TORSDOF 6
ENDMDL
MODEL      200
REMARK 921   NORMALIZED FREE ENERGY PREDICTED BY IDOCK:   -1.44 KCAL/MOL
REMARK 922        TOTAL FREE ENERGY PREDICTED BY IDOCK:   -2.55 KCAL/MOL
REMARK 923 INTER-LIGAND FREE ENERGY PREDICTED BY IDOCK:   -4.05 KCAL/MOL
REMARK 924 INTRA-LIGAND FREE ENERGY PREDICTED BY IDOCK:    1.50 KCAL/MOL
REMARK 927      BINDING AFFINITY PREDICTED BY RF-SCORE:    0.00 PKD
ROOT
HETATM    1  C   UNL     1      -6.182  19.917  65.843  1.00  0.00    -0.189 C  
HETATM    2  O   UNL     1      -6.818  19.084  66.819  1.00  0.00    -0.194 OA 
ENDROOT
BRANCH   2   3
HETATM    3  C   UNL     1      -6.868  17.773  66.493  1.00  0.00    -0.231 C  
HETATM    4  O   UNL     1      -5.945  17.153  65.977  1.00  0.00    -0.228 OA 
BRANCH   3   5
HETATM    5  C   UNL     1      -8.213  17.197  66.772  1.00  0.00    -0.274 C  
HETATM    6  C   UNL     1      -9.318  17.925  66.485  1.00  0.00    -0.280 C  
HETATM    7  C   UNL     1      -9.367  19.263  65.778  1.00  0.00     0.202 C  
HETATM    8  N   UNL     1     -10.558  17.465  66.886  1.00  0.00    -0.267 NA 
HETATM    9  C   UNL     1     -10.776  16.402  67.743  1.00  0.00    -0.328 C  
HETATM   10  C   UNL     1     -12.198  16.288  68.246  1.00  0.00     0.861 C  
HETATM   11  C   UNL     1      -9.750  15.584  68.094  1.00  0.00    -0.208 C  
HETATM   12  C   UNL     1      -8.325  15.848  67.548  1.00  0.00    -0.180 C  
BRANCH  11  13
HETATM   13  C   UNL     1     -10.006  14.490  69.079  1.00  0.00    -0.159 C  
HETATM   14  O   UNL     1     -10.257  13.336  68.759  1.00  0.00    -0.207 OA 
BRANCH  13  15
HETATM   15  O   UNL     1     -10.015  14.936  70.362  1.00  0.00     0.174 OA 
BRANCH  15  16
HETATM   16  C   UNL     1     -11.001  15.954  70.631  1.00  0.00    -0.291 C  
HETATM   17  C   UNL     1     -12.926  14.337  71.086  1.00  0.00    -0.423 C  
HETATM   18  C   UNL     1     -12.114  15.525  71.598  1.00  0.00    -0.471 C  
HETATM   19  C   UNL     1     -11.571  15.230  72.994  1.00  0.00    -0.344 C  
ENDBRANCH  15  16
ENDBRANCH  13  15
ENDBRANCH  11  13
BRANCH  12  20
HETATM   20  C   UNL     1      -7.263  15.809  68.658  1.00  0.00    -0.135 A  
HETATM   21  O   UNL     1      -6.683  13.268  67.124  1.00  0.00    -0.162 OA 
HETATM   22  C   UNL     1      -7.014  16.993  69.384  1.00  0.00    -0.140 A  
HETATM   23  O   UNL     1      -6.818  12.428  69.145  1.00  0.00    -0.104 OA 
HETATM   24  C   UNL     1      -5.967  17.069  70.305  1.00  0.00    -0.022 A  
HETATM   25  N   UNL     1      -6.684  13.371  68.355  1.00  0.00    -0.086 N  
HETATM   26  C   UNL     1      -6.452  14.688  68.946  1.00  0.00    -0.090 A  
HETATM   27  C   UNL     1      -5.143  15.970  70.526  1.00  0.00    -0.175 A  
HETATM   28  C   UNL     1      -5.388  14.773  69.858  1.00  0.00    -0.097 A  
ENDBRANCH  12  20
ENDBRANCH   3   5
ENDBRANCH   2   3
TORSDOF 6
ENDMDL
MODEL      201
REMARK 921   NORMALIZED FREE ENERGY PREDICTED BY IDOCK:   -1.27 KCAL/MOL
REMARK 922        TOTAL FREE ENERGY PREDICTED BY IDOCK:   -2.32 KCAL/MOL
REMARK 923 INTER-LIGAND FREE ENERGY PREDICTED BY IDOCK:   -3.36 KCAL/MOL
REMARK 924 INTRA-LIGAND FREE ENERGY PREDICTED BY IDOCK:    1.04 KCAL/MOL
REMARK 927      BINDING AFFINITY PREDICTED BY RF-SCORE:    0.00 PKD
ROOT
HETATM    1  C   UNL     1      -6.019  18.608  69.241  1.00  0.00    -0.241 C  
HETATM    2  O   UNL     1      -6.697  17.449  69.738  1.00  0.00    -0.129 OA 
ENDROOT
BRANCH   2   3
HETATM    3  C   UNL     1      -7.524  16.855  68.848  1.00  0.00    -0.238 C  
HETATM    4  O   UNL     1      -8.470  17.413  68.305  1.00  0.00    -0.233 OA 
BRANCH   3   5
HETATM    5  C   UNL     1      -7.184  15.416  68.671  1.00  0.00    -0.121 C  
HETATM    6  C   UNL     1      -6.137  15.075  67.882  1.00  0.00    -0.155 C  
HETATM    7  C   UNL     1      -5.152  16.016  67.222  1.00  0.00     0.019 C  
HETATM    8  N   UNL     1      -5.914  13.743  67.586  1.00  0.00    -0.312 NA 
HETATM    9  C   UNL     1      -6.788  12.707  67.862  1.00  0.00    -0.112 C  
HETATM   10  C   UNL     1      -6.441  11.401  67.183  1.00  0.00    -0.109 C  
HETATM   11  C   UNL     1      -7.869  12.918  68.657  1.00  0.00    -0.044 C  
HETATM   12  C   UNL     1      -8.138  14.324  69.246  1.00  0.00     0.164 C  
BRANCH  11  13
HETATM   13  C   UNL     1      -8.831  11.795  68.875  1.00  0.00     0.133 C  
HETATM   14  O   UNL     1      -9.889  11.683  68.270  1.00  0.00    -0.187 OA 
BRANCH  13  15
HETATM   15  O   UNL     1      -8.444  10.964  69.877  1.00  0.00     0.345 OA 
BRANCH  15  16
HETATM   16  C   UNL     1      -8.863   9.595  69.710  1.00  0.00    -0.210 C  
HETATM   17  C   UNL     1      -6.532   8.577  69.952  1.00  0.00    -0.035 C  
HETATM   18  C   UNL     1      -7.983   8.565  70.431  1.00  0.00    -0.099 C  
HETATM   19  C   UNL     1      -8.038   8.733  71.947  1.00  0.00    -0.090 C  
ENDBRANCH  15  16
ENDBRANCH  13  15
ENDBRANCH  11  13
BRANCH  12  20
HETATM   20  C   UNL     1      -9.596  14.766  69.047  1.00  0.00    -0.178 A  
HETATM   21  O   UNL     1      -8.844  13.774  66.291  1.00  0.00     0.013 OA 
HETATM   22  C   UNL     1     -10.387  14.989  70.194  1.00  0.00    -0.057 A  
HETATM   23  O   UNL     1      -9.635  15.745  65.744  1.00  0.00    -0.330 OA 
HETATM   24  C   UNL     1     -11.754  15.251  70.089  1.00  0.00    -0.342 A  
HETATM   25  N   UNL     1      -9.501  14.794  66.525  1.00  0.00    -0.277 N  
HETATM   26  C   UNL     1     -10.230  14.880  67.789  1.00  0.00    -0.236 A  
HETATM   27  C   UNL     1     -12.369  15.298  68.841  1.00  0.00    -0.007 A  
HETATM   28  C   UNL     1     -11.609  15.125  67.687  1.00  0.00    -0.290 A  
ENDBRANCH  12  20
ENDBRANCH   3   5
ENDBRANCH   2   3
TORSDOF 6
ENDMDL
MODEL      202
REMARK 921   NORMALIZED FREE ENERGY PREDICTED BY IDOCK:   -1.24 KCAL/MOL
REMARK 922        TOTAL FREE ENERGY PREDICTED BY IDOCK:   -2.29 KCAL/MOL
REMARK 923 INTER-LIGAND FREE ENERGY PREDICTED BY IDOCK:   -4.41 KCAL/MOL
REMARK 924 INTRA-LIGAND FREE ENERGY PREDICTED BY IDOCK:    2.12 KCAL/MOL
REMARK 927      BINDING AFFINITY PREDICTED BY RF-SCORE:    0.00 PKD
ROOT
HETATM    1  C   UNL     1      -6.043  18.702  69.769  1.00  0.00    -0.234 C  
HETATM    2  O   UNL     1      -6.774  17.481  69.925  1.00  0.00    -0.020 OA 
ENDROOT
BRANCH   2   3
HETATM    3  C   UNL     1      -7.469  17.097  68.831  1.00  0.00    -0.241 C  
HETATM    4  O   UNL     1      -8.244  17.820  68.215  1.00  0.00    -0.265 OA 
BRANCH   3   5
HETATM    5  C   UNL     1      -7.230  15.661  68.513  1.00  0.00    -0.120 C  
HETATM    6  C   UNL     1      -6.220  15.328  67.675  1.00  0.00    -0.130 C  
HETATM    7  C   UNL     1      -5.183  16.260  67.084  1.00  0.00    -0.024 C  
HETATM    8  N   UNL     1      -6.092  14.018  67.253  1.00  0.00    -0.226 NA 
HETATM    9  C   UNL     1      -7.029  13.020  67.450  1.00  0.00    -0.116 C  
HETATM   10  C   UNL     1      -6.782  11.764  66.646  1.00  0.00     0.023 C  
HETATM   11  C   UNL     1      -8.082  13.226  68.283  1.00  0.00    -0.156 C  
HETATM   12  C   UNL     1      -8.247  14.586  69.005  1.00  0.00    -0.076 C  
BRANCH  11  13
HETATM   13  C   UNL     1      -9.115  12.154  68.416  1.00  0.00    -0.151 C  
HETATM   14  O   UNL     1     -10.122  12.265  69.103  1.00  0.00     0.056 OA 
BRANCH  13  15
HETATM   15  O   UNL     1      -8.769  11.015  67.762  1.00  0.00    -0.127 OA 
BRANCH  15  16
HETATM   16  C   UNL     1      -9.844  10.065  67.613  1.00  0.00    -0.162 C  
HETATM   17  C   UNL     1     -10.347  10.624  65.170  1.00  0.00    -0.331 C  
HETATM   18  C   UNL     1     -10.028   9.528  66.186  1.00  0.00    -0.342 C  
HETATM   19  C   UNL     1      -8.820   8.718  65.725  1.00  0.00    -0.233 C  
ENDBRANCH  15  16
ENDBRANCH  13  15
ENDBRANCH  11  13
BRANCH  12  20
HETATM   20  C   UNL     1      -9.674  15.139  68.878  1.00  0.00    -0.224 A  
HETATM   21  O   UNL     1      -9.133  14.114  66.085  1.00  0.00    -0.127 OA 
HETATM   22  C   UNL     1     -10.391  15.414  70.062  1.00  0.00    -0.288 A  
HETATM   23  O   UNL     1      -9.795  16.144  65.585  1.00  0.00    -0.411 OA 
HETATM   24  C   UNL     1     -11.737  15.781  70.025  1.00  0.00    -0.362 A  
HETATM   25  N   UNL     1      -9.698  15.179  66.355  1.00  0.00    -0.260 N  
HETATM   26  C   UNL     1     -10.357  15.311  67.653  1.00  0.00    -0.250 A  
HETATM   27  C   UNL     1     -12.405  15.884  68.807  1.00  0.00     0.375 A  
HETATM   28  C   UNL     1     -11.717  15.662  67.618  1.00  0.00     0.014 A  
ENDBRANCH  12  20
ENDBRANCH   3   5
ENDBRANCH   2   3
TORSDOF 6
ENDMDL
MODEL      203
REMARK 921   NORMALIZED FREE ENERGY PREDICTED BY IDOCK:   -1.22 KCAL/MOL
REMARK 922        TOTAL FREE ENERGY PREDICTED BY IDOCK:   -2.26 KCAL/MOL
REMARK 923 INTER-LIGAND FREE ENERGY PREDICTED BY IDOCK:   -4.81 KCAL/MOL
REMARK 924 INTRA-LIGAND FREE ENERGY PREDICTED BY IDOCK:    2.55 KCAL/MOL
REMARK 927      BINDING AFFINITY PREDICTED BY RF-SCORE:    0.00 PKD
ROOT
HETATM    1  C   UNL     1     -10.604  18.675  66.374  1.00  0.00    -0.349 C  
HETATM    2  O   UNL     1      -9.847  17.852  65.479  1.00  0.00    -0.403 OA 
ENDROOT
BRANCH   2   3
HETATM    3  C   UNL     1      -9.618  16.597  65.926  1.00  0.00    -0.214 C  
HETATM    4  O   UNL     1      -9.181  15.685  65.234  1.00  0.00    -0.100 OA 
BRANCH   3   5
HETATM    5  C   UNL     1     -10.036  16.444  67.348  1.00  0.00    -0.262 C  
HETATM    6  C   UNL     1      -9.183  16.813  68.332  1.00  0.00    -0.229 C  
HETATM    7  C   UNL     1      -7.845  17.500  68.165  1.00  0.00    -0.244 C  
HETATM    8  N   UNL     1      -9.499  16.528  69.647  1.00  0.00     0.061 NA 
HETATM    9  C   UNL     1     -10.535  15.711  70.061  1.00  0.00    -0.323 C  
HETATM   10  C   UNL     1     -10.487  15.334  71.524  1.00  0.00     0.722 C  
HETATM   11  C   UNL     1     -11.468  15.286  69.169  1.00  0.00    -0.330 C  
HETATM   12  C   UNL     1     -11.367  15.703  67.682  1.00  0.00    -0.228 C  
BRANCH  11  13
HETATM   13  C   UNL     1     -12.531  14.344  69.635  1.00  0.00    -0.165 C  
HETATM   14  O   UNL     1     -12.450  13.128  69.533  1.00  0.00    -0.109 OA 
BRANCH  13  15
HETATM   15  O   UNL     1     -13.631  14.991  70.101  1.00  0.00     0.209 OA 
BRANCH  15  16
HETATM   16  C   UNL     1     -14.404  14.237  71.057  1.00  0.00     0.323 C  
HETATM   17  C   UNL     1     -12.475  13.830  72.684  1.00  0.00     0.063 C  
HETATM   18  C   UNL     1     -13.904  14.341  72.505  1.00  0.00    -0.575 C  
HETATM   19  C   UNL     1     -14.026  15.763  73.047  1.00  0.00    -0.359 C  
ENDBRANCH  15  16
ENDBRANCH  13  15
ENDBRANCH  11  13
BRANCH  12  20
HETATM   20  C   UNL     1     -11.536  14.506  66.733  1.00  0.00    -0.388 A  
HETATM   21  O   UNL     1      -9.478  13.482  68.698  1.00  0.00    -0.166 OA 
HETATM   22  C   UNL     1     -12.653  14.491  65.870  1.00  0.00    -0.157 A  
HETATM   23  O   UNL     1      -8.423  13.034  66.829  1.00  0.00    -0.129 OA 
HETATM   24  C   UNL     1     -12.947  13.374  65.087  1.00  0.00    -0.249 A  
HETATM   25  N   UNL     1      -9.443  13.308  67.475  1.00  0.00    -0.212 N  
HETATM   26  C   UNL     1     -10.695  13.371  66.723  1.00  0.00    -0.277 A  
HETATM   27  C   UNL     1     -12.137  12.243  65.142  1.00  0.00    -0.379 A  
HETATM   28  C   UNL     1     -11.003  12.241  65.949  1.00  0.00    -0.338 A  
ENDBRANCH  12  20
ENDBRANCH   3   5
ENDBRANCH   2   3
TORSDOF 6
ENDMDL
MODEL      204
REMARK 921   NORMALIZED FREE ENERGY PREDICTED BY IDOCK:   -1.14 KCAL/MOL
REMARK 922        TOTAL FREE ENERGY PREDICTED BY IDOCK:   -2.15 KCAL/MOL
REMARK 923 INTER-LIGAND FREE ENERGY PREDICTED BY IDOCK:   -2.80 KCAL/MOL
REMARK 924 INTRA-LIGAND FREE ENERGY PREDICTED BY IDOCK:    0.65 KCAL/MOL
REMARK 927      BINDING AFFINITY PREDICTED BY RF-SCORE:    0.00 PKD
ROOT
HETATM    1  C   UNL     1     -10.667   4.640  69.483  1.00  0.00     0.949 C  
HETATM    2  O   UNL     1      -9.749   3.808  68.765  1.00  0.00    -0.143 OA 
ENDROOT
BRANCH   2   3
HETATM    3  C   UNL     1      -8.664   4.453  68.281  1.00  0.00    -0.101 C  
HETATM    4  O   UNL     1      -7.526   4.000  68.298  1.00  0.00    -0.059 OA 
BRANCH   3   5
HETATM    5  C   UNL     1      -9.018   5.815  67.792  1.00  0.00    -0.107 C  
HETATM    6  C   UNL     1      -9.286   5.998  66.477  1.00  0.00    -0.148 C  
HETATM    7  C   UNL     1      -9.389   4.926  65.413  1.00  0.00    -0.147 C  
HETATM    8  N   UNL     1      -9.458   7.280  65.991  1.00  0.00     0.001 NA 
HETATM    9  C   UNL     1      -9.188   8.442  66.690  1.00  0.00    -0.180 C  
HETATM   10  C   UNL     1      -9.184   9.694  65.842  1.00  0.00    -0.246 C  
HETATM   11  C   UNL     1      -8.922   8.393  68.021  1.00  0.00    -0.138 C  
HETATM   12  C   UNL     1      -8.903   7.033  68.760  1.00  0.00    -0.129 C  
BRANCH  11  13
HETATM   13  C   UNL     1      -8.562   9.659  68.730  1.00  0.00    -0.125 C  
HETATM   14  O   UNL     1      -7.413  10.058  68.862  1.00  0.00    -0.076 OA 
BRANCH  13  15
HETATM   15  O   UNL     1      -9.641  10.269  69.284  1.00  0.00    -0.205 OA 
BRANCH  15  16
HETATM   16  C   UNL     1     -10.746  10.463  68.378  1.00  0.00    -0.225 C  
HETATM   17  C   UNL     1     -12.073  12.016  69.914  1.00  0.00    -0.334 C  
HETATM   18  C   UNL     1     -11.465  11.811  68.527  1.00  0.00    -0.353 C  
HETATM   19  C   UNL     1     -10.552  12.983  68.174  1.00  0.00    -0.257 C  
ENDBRANCH  15  16
ENDBRANCH  13  15
ENDBRANCH  11  13
BRANCH  12  20
HETATM   20  C   UNL     1      -7.654   6.868  69.639  1.00  0.00    -0.101 A  
HETATM   21  O   UNL     1      -9.894   6.663  71.661  1.00  0.00    -0.168 OA 
HETATM   22  C   UNL     1      -6.425   6.588  69.006  1.00  0.00    -0.043 A  
HETATM   23  O   UNL     1      -8.679   8.199  72.647  1.00  0.00    -0.174 OA 
HETATM   24  C   UNL     1      -5.282   6.285  69.747  1.00  0.00    -0.013 A  
HETATM   25  N   UNL     1      -8.839   7.285  71.828  1.00  0.00    -0.117 N  
HETATM   26  C   UNL     1      -7.665   6.890  71.052  1.00  0.00    -0.096 A  
HETATM   27  C   UNL     1      -5.333   6.253  71.138  1.00  0.00    -0.018 A  
HETATM   28  C   UNL     1      -6.519   6.566  71.796  1.00  0.00    -0.046 A  
ENDBRANCH  12  20
ENDBRANCH   3   5
ENDBRANCH   2   3
TORSDOF 6
ENDMDL
MODEL      205
REMARK 921   NORMALIZED FREE ENERGY PREDICTED BY IDOCK:   -1.06 KCAL/MOL
REMARK 922        TOTAL FREE ENERGY PREDICTED BY IDOCK:   -2.03 KCAL/MOL
REMARK 923 INTER-LIGAND FREE ENERGY PREDICTED BY IDOCK:   -3.01 KCAL/MOL
REMARK 924 INTRA-LIGAND FREE ENERGY PREDICTED BY IDOCK:    0.98 KCAL/MOL
REMARK 927      BINDING AFFINITY PREDICTED BY RF-SCORE:    0.00 PKD
ROOT
HETATM    1  C   UNL     1      -5.126  18.047  67.217  1.00  0.00    -0.135 C  
HETATM    2  O   UNL     1      -6.271  17.189  67.272  1.00  0.00    -0.135 OA 
ENDROOT
BRANCH   2   3
HETATM    3  C   UNL     1      -6.783  17.011  68.510  1.00  0.00    -0.172 C  
HETATM    4  O   UNL     1      -6.138  17.116  69.546  1.00  0.00    -0.215 OA 
BRANCH   3   5
HETATM    5  C   UNL     1      -8.213  16.599  68.450  1.00  0.00    -0.206 C  
HETATM    6  C   UNL     1      -9.174  17.492  68.786  1.00  0.00    -0.227 C  
HETATM    7  C   UNL     1      -8.979  18.957  69.117  1.00  0.00    -0.070 C  
HETATM    8  N   UNL     1     -10.487  17.072  68.886  1.00  0.00    -0.336 NA 
HETATM    9  C   UNL     1     -10.908  15.755  68.866  1.00  0.00    -0.260 C  
HETATM   10  C   UNL     1     -12.348  15.554  69.281  1.00  0.00    -0.106 C  
HETATM   11  C   UNL     1     -10.041  14.766  68.528  1.00  0.00    -0.230 C  
HETATM   12  C   UNL     1      -8.572  15.106  68.177  1.00  0.00    -0.158 C  
BRANCH  11  13
HETATM   13  C   UNL     1     -10.509  13.347  68.588  1.00  0.00    -0.225 C  
HETATM   14  O   UNL     1     -10.121  12.542  69.424  1.00  0.00     0.362 OA 
BRANCH  13  15
HETATM   15  O   UNL     1     -11.343  13.030  67.563  1.00  0.00    -0.273 OA 
BRANCH  15  16
HETATM   16  C   UNL     1     -11.522  14.084  66.595  1.00  0.00    -0.364 C  
HETATM   17  C   UNL     1     -10.346  12.874  64.676  1.00  0.00    -0.366 C  
HETATM   18  C   UNL     1     -11.606  13.604  65.139  1.00  0.00    -0.333 C  
HETATM   19  C   UNL     1     -12.837  12.735  64.898  1.00  0.00    -0.357 C  
ENDBRANCH  15  16
ENDBRANCH  13  15
ENDBRANCH  11  13
BRANCH  12  20
HETATM   20  C   UNL     1      -7.575  14.200  68.915  1.00  0.00    -0.098 A  
HETATM   21  O   UNL     1      -7.465  13.113  66.095  1.00  0.00     1.474 OA 
HETATM   22  C   UNL     1      -7.118  14.607  70.186  1.00  0.00     0.094 A  
HETATM   23  O   UNL     1      -7.830  11.238  67.173  1.00  0.00    -0.136 OA 
HETATM   24  C   UNL     1      -6.107  13.909  70.849  1.00  0.00    -0.100 A  
HETATM   25  N   UNL     1      -7.484  12.426  67.122  1.00  0.00    -0.131 N  
HETATM   26  C   UNL     1      -7.013  13.023  68.370  1.00  0.00    -0.100 A  
HETATM   27  C   UNL     1      -5.526  12.788  70.264  1.00  0.00    -0.138 A  
HETATM   28  C   UNL     1      -5.983  12.333  69.030  1.00  0.00    -0.070 A  
ENDBRANCH  12  20
ENDBRANCH   3   5
ENDBRANCH   2   3
TORSDOF 6
ENDMDL
MODEL      206
REMARK 921   NORMALIZED FREE ENERGY PREDICTED BY IDOCK:   -0.86 KCAL/MOL
REMARK 922        TOTAL FREE ENERGY PREDICTED BY IDOCK:   -1.76 KCAL/MOL
REMARK 923 INTER-LIGAND FREE ENERGY PREDICTED BY IDOCK:   -1.53 KCAL/MOL
REMARK 924 INTRA-LIGAND FREE ENERGY PREDICTED BY IDOCK:   -0.23 KCAL/MOL
REMARK 927      BINDING AFFINITY PREDICTED BY RF-SCORE:    0.00 PKD
ROOT
HETATM    1  C   UNL     1      -5.820  19.765  68.055  1.00  0.00    -0.212 C  
HETATM    2  O   UNL     1      -6.842  18.815  67.732  1.00  0.00    -0.211 OA 
ENDROOT
BRANCH   2   3
HETATM    3  C   UNL     1      -7.135  17.945  68.724  1.00  0.00    -0.268 C  
HETATM    4  O   UNL     1      -6.415  17.731  69.692  1.00  0.00    -0.227 OA 
BRANCH   3   5
HETATM    5  C   UNL     1      -8.411  17.224  68.453  1.00  0.00    -0.261 C  
HETATM    6  C   UNL     1      -9.584  17.894  68.552  1.00  0.00    -0.326 C  
HETATM    7  C   UNL     1      -9.766  19.376  68.802  1.00  0.00    -0.516 C  
HETATM    8  N   UNL     1     -10.774  17.197  68.458  1.00  0.00    -0.349 NA 
HETATM    9  C   UNL     1     -10.896  15.820  68.465  1.00  0.00    -0.290 C  
HETATM   10  C   UNL     1     -12.311  15.319  68.642  1.00  0.00     0.124 C  
HETATM   11  C   UNL     1      -9.792  15.035  68.353  1.00  0.00    -0.222 C  
HETATM   12  C   UNL     1      -8.390  15.680  68.234  1.00  0.00    -0.154 C  
BRANCH  11  13
HETATM   13  C   UNL     1      -9.953  13.552  68.438  1.00  0.00    -0.232 C  
HETATM   14  O   UNL     1     -10.700  12.996  69.232  1.00  0.00    -0.090 OA 
BRANCH  13  15
HETATM   15  O   UNL     1      -9.115  12.889  67.599  1.00  0.00    -0.176 OA 
BRANCH  15  16
HETATM   16  C   UNL     1      -9.573  11.575  67.218  1.00  0.00    -0.172 C  
HETATM   17  C   UNL     1      -7.764  11.172  65.458  1.00  0.00     0.265 C  
HETATM   18  C   UNL     1      -8.469  10.639  66.705  1.00  0.00    -0.134 C  
HETATM   19  C   UNL     1      -7.447  10.318  67.792  1.00  0.00    -0.088 C  
ENDBRANCH  15  16
ENDBRANCH  13  15
ENDBRANCH  11  13
BRANCH  12  20
HETATM   20  C   UNL     1      -7.376  15.043  69.196  1.00  0.00    -0.164 A  
HETATM   21  O   UNL     1      -5.746  15.368  66.669  1.00  0.00     0.504 OA 
HETATM   22  C   UNL     1      -7.678  15.036  70.575  1.00  0.00     0.974 A  
HETATM   23  O   UNL     1      -5.351  13.248  67.064  1.00  0.00    -0.249 OA 
HETATM   24  C   UNL     1      -6.743  14.606  71.518  1.00  0.00     1.111 A  
HETATM   25  N   UNL     1      -5.726  14.377  67.406  1.00  0.00     0.201 N  
HETATM   26  C   UNL     1      -6.114  14.539  68.806  1.00  0.00    -0.087 A  
HETATM   27  C   UNL     1      -5.484  14.171  71.113  1.00  0.00    -0.189 A  
HETATM   28  C   UNL     1      -5.168  14.124  69.758  1.00  0.00    -0.092 A  
ENDBRANCH  12  20
ENDBRANCH   3   5
ENDBRANCH   2   3
TORSDOF 6
ENDMDL
MODEL      207
REMARK 921   NORMALIZED FREE ENERGY PREDICTED BY IDOCK:   -0.79 KCAL/MOL
REMARK 922        TOTAL FREE ENERGY PREDICTED BY IDOCK:   -1.67 KCAL/MOL
REMARK 923 INTER-LIGAND FREE ENERGY PREDICTED BY IDOCK:   -2.08 KCAL/MOL
REMARK 924 INTRA-LIGAND FREE ENERGY PREDICTED BY IDOCK:    0.41 KCAL/MOL
REMARK 927      BINDING AFFINITY PREDICTED BY RF-SCORE:    0.00 PKD
ROOT
HETATM    1  C   UNL     1      -7.077  17.335  69.567  1.00  0.00     0.041 C  
HETATM    2  O   UNL     1      -7.752  16.094  69.804  1.00  0.00    -0.001 OA 
ENDROOT
BRANCH   2   3
HETATM    3  C   UNL     1      -8.898  15.934  69.105  1.00  0.00    -0.253 C  
HETATM    4  O   UNL     1      -9.704  16.830  68.885  1.00  0.00    -0.246 OA 
BRANCH   3   5
HETATM    5  C   UNL     1      -9.092  14.513  68.702  1.00  0.00    -0.187 C  
HETATM    6  C   UNL     1      -8.645  14.102  67.492  1.00  0.00    -0.191 C  
HETATM    7  C   UNL     1      -7.833  14.907  66.500  1.00  0.00     0.598 C  
HETATM    8  N   UNL     1      -8.960  12.832  67.047  1.00  0.00    -0.216 NA 
HETATM    9  C   UNL     1      -9.873  11.981  67.643  1.00  0.00    -0.189 C  
HETATM   10  C   UNL     1     -10.246  10.779  66.804  1.00  0.00    -0.279 C  
HETATM   11  C   UNL     1     -10.384  12.275  68.867  1.00  0.00    -0.085 C  
HETATM   12  C   UNL     1      -9.957  13.572  69.596  1.00  0.00     1.017 C  
BRANCH  11  13
HETATM   13  C   UNL     1     -11.423  11.371  69.449  1.00  0.00    -0.310 C  
HETATM   14  O   UNL     1     -12.610  11.429  69.157  1.00  0.00    -0.255 OA 
BRANCH  13  15
HETATM   15  O   UNL     1     -10.919  10.542  70.399  1.00  0.00    -0.287 OA 
BRANCH  15  16
HETATM   16  C   UNL     1     -10.941   9.145  70.042  1.00  0.00    -0.220 C  
HETATM   17  C   UNL     1      -9.725   8.323  72.134  1.00  0.00    -0.344 C  
HETATM   18  C   UNL     1     -10.954   8.181  71.237  1.00  0.00    -0.281 C  
HETATM   19  C   UNL     1     -12.229   8.320  72.065  1.00  0.00    -0.398 C  
ENDBRANCH  15  16
ENDBRANCH  13  15
ENDBRANCH  11  13
BRANCH  12  20
HETATM   20  C   UNL     1     -11.163  14.354  70.140  1.00  0.00    -0.152 A  
HETATM   21  O   UNL     1     -11.964  13.857  67.267  1.00  0.00    -0.389 OA 
HETATM   22  C   UNL     1     -11.296  14.484  71.539  1.00  0.00     0.273 A  
HETATM   23  O   UNL     1     -12.292  16.024  67.347  1.00  0.00     1.017 OA 
HETATM   24  C   UNL     1     -12.436  15.054  72.107  1.00  0.00    -0.421 A  
HETATM   25  N   UNL     1     -12.130  14.918  67.879  1.00  0.00    -0.173 N  
HETATM   26  C   UNL     1     -12.201  14.879  69.338  1.00  0.00    -0.205 A  
HETATM   27  C   UNL     1     -13.474  15.509  71.297  1.00  0.00    -0.560 A  
HETATM   28  C   UNL     1     -13.356  15.435  69.912  1.00  0.00     0.612 A  
ENDBRANCH  12  20
ENDBRANCH   3   5
ENDBRANCH   2   3
TORSDOF 6
ENDMDL
MODEL      208
REMARK 921   NORMALIZED FREE ENERGY PREDICTED BY IDOCK:   -0.39 KCAL/MOL
REMARK 922        TOTAL FREE ENERGY PREDICTED BY IDOCK:   -1.14 KCAL/MOL
REMARK 923 INTER-LIGAND FREE ENERGY PREDICTED BY IDOCK:   -3.58 KCAL/MOL
REMARK 924 INTRA-LIGAND FREE ENERGY PREDICTED BY IDOCK:    2.45 KCAL/MOL
REMARK 927      BINDING AFFINITY PREDICTED BY RF-SCORE:    0.00 PKD
ROOT
HETATM    1  C   UNL     1     -12.600  15.895  63.880  1.00  0.00     1.028 C  
HETATM    2  O   UNL     1     -11.673  14.820  64.068  1.00  0.00    -0.195 OA 
ENDROOT
BRANCH   2   3
HETATM    3  C   UNL     1     -10.974  14.874  65.224  1.00  0.00    -0.380 C  
HETATM    4  O   UNL     1     -10.883  15.871  65.931  1.00  0.00    -0.305 OA 
BRANCH   3   5
HETATM    5  C   UNL     1     -10.266  13.590  65.489  1.00  0.00    -0.308 C  
HETATM    6  C   UNL     1     -10.950  12.425  65.394  1.00  0.00    -0.299 C  
HETATM    7  C   UNL     1     -12.375  12.244  64.917  1.00  0.00    -0.376 C  
HETATM    8  N   UNL     1     -10.345  11.248  65.791  1.00  0.00    -0.251 NA 
HETATM    9  C   UNL     1      -9.147  11.157  66.476  1.00  0.00    -0.182 C  
HETATM   10  C   UNL     1      -8.853   9.786  67.042  1.00  0.00    -0.145 C  
HETATM   11  C   UNL     1      -8.360  12.255  66.625  1.00  0.00    -0.016 C  
HETATM   12  C   UNL     1      -8.808  13.616  66.041  1.00  0.00     0.547 C  
BRANCH  11  13
HETATM   13  C   UNL     1      -7.108  12.138  67.434  1.00  0.00    -0.146 C  
HETATM   14  O   UNL     1      -6.014  12.530  67.049  1.00  0.00    -0.283 OA 
BRANCH  13  15
HETATM   15  O   UNL     1      -7.303  11.471  68.601  1.00  0.00    -0.093 OA 
BRANCH  15  16
HETATM   16  C   UNL     1      -6.378  10.389  68.830  1.00  0.00    -0.047 C  
HETATM   17  C   UNL     1      -5.690  11.128  71.177  1.00  0.00     0.102 C  
HETATM   18  C   UNL     1      -6.215   9.989  70.303  1.00  0.00    -0.094 C  
HETATM   19  C   UNL     1      -7.510   9.431  70.887  1.00  0.00    -0.097 C  
ENDBRANCH  15  16
ENDBRANCH  13  15
ENDBRANCH  11  13
BRANCH  12  20
HETATM   20  C   UNL     1      -8.670  14.757  67.062  1.00  0.00    -0.258 A  
HETATM   21  O   UNL     1     -10.316  12.728  68.585  1.00  0.00    -0.232 OA 
HETATM   22  C   UNL     1      -7.694  15.749  66.826  1.00  0.00    -0.216 A  
HETATM   23  O   UNL     1     -11.587  14.492  68.875  1.00  0.00    -0.276 OA 
HETATM   24  C   UNL     1      -7.416  16.730  67.778  1.00  0.00    -0.176 A  
HETATM   25  N   UNL     1     -10.514  13.948  68.583  1.00  0.00    -0.245 N  
HETATM   26  C   UNL     1      -9.396  14.837  68.272  1.00  0.00    -0.199 A  
HETATM   27  C   UNL     1      -8.102  16.751  68.989  1.00  0.00    -0.179 A  
HETATM   28  C   UNL     1      -9.101  15.814  69.236  1.00  0.00    -0.263 A  
ENDBRANCH  12  20
ENDBRANCH   3   5
ENDBRANCH   2   3
TORSDOF 6
ENDMDL
MODEL      209
REMARK 921   NORMALIZED FREE ENERGY PREDICTED BY IDOCK:   -0.15 KCAL/MOL
REMARK 922        TOTAL FREE ENERGY PREDICTED BY IDOCK:   -0.81 KCAL/MOL
REMARK 923 INTER-LIGAND FREE ENERGY PREDICTED BY IDOCK:   -2.92 KCAL/MOL
REMARK 924 INTRA-LIGAND FREE ENERGY PREDICTED BY IDOCK:    2.11 KCAL/MOL
REMARK 927      BINDING AFFINITY PREDICTED BY RF-SCORE:    0.00 PKD
ROOT
HETATM    1  C   UNL     1     -12.621  15.390  64.614  1.00  0.00     0.259 C  
HETATM    2  O   UNL     1     -11.978  15.899  65.789  1.00  0.00     0.636 OA 
ENDROOT
BRANCH   2   3
HETATM    3  C   UNL     1     -10.826  16.567  65.556  1.00  0.00    -0.188 C  
HETATM    4  O   UNL     1     -10.747  17.600  64.901  1.00  0.00    -0.646 OA 
BRANCH   3   5
HETATM    5  C   UNL     1      -9.657  15.847  66.133  1.00  0.00    -0.365 C  
HETATM    6  C   UNL     1      -9.785  14.544  66.477  1.00  0.00    -0.285 C  
HETATM    7  C   UNL     1     -10.984  13.653  66.233  1.00  0.00    -0.300 C  
HETATM    8  N   UNL     1      -8.758  13.917  67.157  1.00  0.00    -0.221 NA 
HETATM    9  C   UNL     1      -7.660  14.551  67.707  1.00  0.00    -0.159 C  
HETATM   10  C   UNL     1      -6.840  13.687  68.638  1.00  0.00    -0.097 C  
HETATM   11  C   UNL     1      -7.411  15.857  67.423  1.00  0.00    -0.224 C  
HETATM   12  C   UNL     1      -8.366  16.645  66.494  1.00  0.00    -0.322 C  
BRANCH  11  13
HETATM   13  C   UNL     1      -6.257  16.531  68.093  1.00  0.00    -0.128 C  
HETATM   14  O   UNL     1      -5.139  16.041  68.172  1.00  0.00    -0.098 OA 
BRANCH  13  15
HETATM   15  O   UNL     1      -6.609  17.706  68.678  1.00  0.00    -0.192 OA 
BRANCH  15  16
HETATM   16  C   UNL     1      -5.537  18.363  69.383  1.00  0.00    -0.221 C  
HETATM   17  C   UNL     1      -6.080  20.715  68.544  1.00  0.00    -0.372 C  
HETATM   18  C   UNL     1      -5.822  19.825  69.758  1.00  0.00    -0.317 C  
HETATM   19  C   UNL     1      -6.976  19.941  70.751  1.00  0.00     0.406 C  
ENDBRANCH  15  16
ENDBRANCH  13  15
ENDBRANCH  11  13
BRANCH  12  20
HETATM   20  C   UNL     1      -8.758  18.007  67.087  1.00  0.00    -0.247 A  
HETATM   21  O   UNL     1      -7.638  18.781  64.387  1.00  0.00     2.243 OA 
HETATM   22  C   UNL     1      -9.610  18.024  68.212  1.00  0.00    -0.321 A  
HETATM   23  O   UNL     1      -6.462  20.135  65.649  1.00  0.00    -0.211 OA 
HETATM   24  C   UNL     1     -10.121  19.222  68.713  1.00  0.00    -0.477 A  
HETATM   25  N   UNL     1      -7.423  19.382  65.445  1.00  0.00    -0.013 N  
HETATM   26  C   UNL     1      -8.393  19.254  66.531  1.00  0.00    -0.319 A  
HETATM   27  C   UNL     1      -9.797  20.434  68.109  1.00  0.00    -0.321 A  
HETATM   28  C   UNL     1      -8.924  20.456  67.025  1.00  0.00    -0.423 A  
ENDBRANCH  12  20
ENDBRANCH   3   5
ENDBRANCH   2   3
TORSDOF 6
ENDMDL
MODEL      210
REMARK 921   NORMALIZED FREE ENERGY PREDICTED BY IDOCK:   -0.03 KCAL/MOL
REMARK 922        TOTAL FREE ENERGY PREDICTED BY IDOCK:   -0.65 KCAL/MOL
REMARK 923 INTER-LIGAND FREE ENERGY PREDICTED BY IDOCK:   -2.73 KCAL/MOL
REMARK 924 INTRA-LIGAND FREE ENERGY PREDICTED BY IDOCK:    2.07 KCAL/MOL
REMARK 927      BINDING AFFINITY PREDICTED BY RF-SCORE:    0.00 PKD
ROOT
HETATM    1  C   UNL     1     -10.349  20.014  65.700  1.00  0.00    -0.291 C  
HETATM    2  O   UNL     1      -9.583  19.094  66.487  1.00  0.00    -0.325 OA 
ENDROOT
BRANCH   2   3
HETATM    3  C   UNL     1      -8.568  18.496  65.825  1.00  0.00     0.420 C  
HETATM    4  O   UNL     1      -7.893  19.038  64.958  1.00  0.00     0.421 OA 
BRANCH   3   5
HETATM    5  C   UNL     1      -8.423  17.070  66.232  1.00  0.00    -0.304 C  
HETATM    6  C   UNL     1      -9.436  16.205  65.987  1.00  0.00    -0.339 C  
HETATM    7  C   UNL     1     -10.706  16.488  65.214  1.00  0.00    -0.269 C  
HETATM    8  N   UNL     1      -9.375  14.924  66.501  1.00  0.00    -0.266 NA 
HETATM    9  C   UNL     1      -8.450  14.478  67.428  1.00  0.00    -0.205 C  
HETATM   10  C   UNL     1      -8.775  13.134  68.038  1.00  0.00    -0.190 C  
HETATM   11  C   UNL     1      -7.377  15.248  67.747  1.00  0.00    -0.181 C  
HETATM   12  C   UNL     1      -7.192  16.636  67.086  1.00  0.00    -0.219 C  
BRANCH  11  13
HETATM   13  C   UNL     1      -6.438  14.769  68.807  1.00  0.00    -0.087 C  
HETATM   14  O   UNL     1      -5.525  15.447  69.260  1.00  0.00    -0.096 OA 
BRANCH  13  15
HETATM   15  O   UNL     1      -6.654  13.472  69.146  1.00  0.00    -0.103 OA 
BRANCH  15  16
HETATM   16  C   UNL     1      -5.464  12.747  69.516  1.00  0.00    -0.084 C  
HETATM   17  C   UNL     1      -6.675  10.627  70.270  1.00  0.00    -0.099 C  
HETATM   18  C   UNL     1      -5.579  11.222  69.386  1.00  0.00    -0.046 C  
HETATM   19  C   UNL     1      -5.779  10.789  67.936  1.00  0.00    -0.042 C  
ENDBRANCH  15  16
ENDBRANCH  13  15
ENDBRANCH  11  13
BRANCH  12  20
HETATM   20  C   UNL     1      -6.875  17.731  68.116  1.00  0.00    -0.206 A  
HETATM   21  O   UNL     1      -9.310  16.400  69.321  1.00  0.00    -0.249 OA 
HETATM   22  C   UNL     1      -5.611  18.355  68.059  1.00  0.00    -0.165 A  
HETATM   23  O   UNL     1      -9.989  18.485  69.384  1.00  0.00    -0.176 OA 
HETATM   24  C   UNL     1      -5.202  19.252  69.047  1.00  0.00    -0.205 A  
HETATM   25  N   UNL     1      -9.109  17.619  69.286  1.00  0.00     0.114 N  
HETATM   26  C   UNL     1      -7.732  18.098  69.179  1.00  0.00    -0.020 A  
HETATM   27  C   UNL     1      -6.041  19.551  70.117  1.00  0.00    -0.285 A  
HETATM   28  C   UNL     1      -7.311  18.986  70.182  1.00  0.00     0.769 A  
ENDBRANCH  12  20
ENDBRANCH   3   5
ENDBRANCH   2   3
TORSDOF 6
ENDMDL
MODEL      211
REMARK 921   NORMALIZED FREE ENERGY PREDICTED BY IDOCK:   -0.00 KCAL/MOL
REMARK 922        TOTAL FREE ENERGY PREDICTED BY IDOCK:   -0.61 KCAL/MOL
REMARK 923 INTER-LIGAND FREE ENERGY PREDICTED BY IDOCK:   -1.91 KCAL/MOL
REMARK 924 INTRA-LIGAND FREE ENERGY PREDICTED BY IDOCK:    1.30 KCAL/MOL
REMARK 927      BINDING AFFINITY PREDICTED BY RF-SCORE:    0.00 PKD
ROOT
HETATM    1  C   UNL     1      -7.716  15.552  69.888  1.00  0.00     0.078 C  
HETATM    2  O   UNL     1      -7.404  14.638  68.831  1.00  0.00    -0.113 OA 
ENDROOT
BRANCH   2   3
HETATM    3  C   UNL     1      -7.186  13.366  69.232  1.00  0.00     0.117 C  
HETATM    4  O   UNL     1      -6.845  13.047  70.365  1.00  0.00     0.452 OA 
BRANCH   3   5
HETATM    5  C   UNL     1      -7.340  12.408  68.102  1.00  0.00    -0.111 C  
HETATM    6  C   UNL     1      -6.450  12.439  67.081  1.00  0.00    -0.094 C  
HETATM    7  C   UNL     1      -5.196  13.283  66.993  1.00  0.00     0.723 C  
HETATM    8  N   UNL     1      -6.677  11.666  65.958  1.00  0.00     0.340 NA 
HETATM    9  C   UNL     1      -7.849  10.989  65.678  1.00  0.00     0.062 C  
HETATM   10  C   UNL     1      -7.943  10.461  64.264  1.00  0.00    -0.080 C  
HETATM   11  C   UNL     1      -8.814  10.872  66.627  1.00  0.00    -0.164 C  
HETATM   12  C   UNL     1      -8.613  11.510  68.023  1.00  0.00    -0.150 C  
BRANCH  11  13
HETATM   13  C   UNL     1     -10.099  10.197  66.267  1.00  0.00    -0.238 C  
HETATM   14  O   UNL     1     -11.192  10.743  66.335  1.00  0.00    -0.066 OA 
BRANCH  13  15
HETATM   15  O   UNL     1      -9.927   8.890  65.941  1.00  0.00    -0.245 OA 
BRANCH  15  16
HETATM   16  C   UNL     1      -9.137   8.140  66.887  1.00  0.00    -0.154 C  
HETATM   17  C   UNL     1     -10.785   6.201  67.122  1.00  0.00    -0.422 C  
HETATM   18  C   UNL     1      -9.345   6.620  66.829  1.00  0.00    -0.184 C  
HETATM   19  C   UNL     1      -8.887   6.035  65.495  1.00  0.00    -0.083 C  
ENDBRANCH  15  16
ENDBRANCH  13  15
ENDBRANCH  11  13
BRANCH  12  20
HETATM   20  C   UNL     1      -9.837  12.322  68.470  1.00  0.00    -0.157 A  
HETATM   21  O   UNL     1      -9.284  13.457  65.722  1.00  0.00     0.078 OA 
HETATM   22  C   UNL     1     -10.581  11.855  69.575  1.00  0.00     0.195 A  
HETATM   23  O   UNL     1      -9.366  15.330  66.858  1.00  0.00    -0.215 OA 
HETATM   24  C   UNL     1     -11.783  12.459  69.946  1.00  0.00    -0.339 A  
HETATM   25  N   UNL     1      -9.591  14.121  66.717  1.00  0.00    -0.271 N  
HETATM   26  C   UNL     1     -10.327  13.464  67.796  1.00  0.00    -0.241 A  
HETATM   27  C   UNL     1     -12.275  13.546  69.228  1.00  0.00    -0.257 A  
HETATM   28  C   UNL     1     -11.545  14.060  68.160  1.00  0.00    -0.369 A  
ENDBRANCH  12  20
ENDBRANCH   3   5
ENDBRANCH   2   3
TORSDOF 6
ENDMDL
MODEL      212
REMARK 921   NORMALIZED FREE ENERGY PREDICTED BY IDOCK:    0.35 KCAL/MOL
REMARK 922        TOTAL FREE ENERGY PREDICTED BY IDOCK:   -0.13 KCAL/MOL
REMARK 923 INTER-LIGAND FREE ENERGY PREDICTED BY IDOCK:   -1.70 KCAL/MOL
REMARK 924 INTRA-LIGAND FREE ENERGY PREDICTED BY IDOCK:    1.57 KCAL/MOL
REMARK 927      BINDING AFFINITY PREDICTED BY RF-SCORE:    0.00 PKD
ROOT
HETATM    1  C   UNL     1      -6.082  16.469  66.336  1.00  0.00     0.543 C  
HETATM    2  O   UNL     1      -7.073  15.457  66.550  1.00  0.00     0.136 OA 
ENDROOT
BRANCH   2   3
HETATM    3  C   UNL     1      -8.321  15.799  66.162  1.00  0.00     0.042 C  
HETATM    4  O   UNL     1      -8.648  16.922  65.797  1.00  0.00    -0.505 OA 
BRANCH   3   5
HETATM    5  C   UNL     1      -9.266  14.657  66.307  1.00  0.00    -0.257 C  
HETATM    6  C   UNL     1     -10.531  14.780  65.841  1.00  0.00    -0.312 C  
HETATM    7  C   UNL     1     -11.101  15.940  65.052  1.00  0.00    -0.370 C  
HETATM    8  N   UNL     1     -11.455  13.789  66.112  1.00  0.00    -0.328 NA 
HETATM    9  C   UNL     1     -11.269  12.744  66.999  1.00  0.00    -0.292 C  
HETATM   10  C   UNL     1     -12.527  11.973  67.328  1.00  0.00     1.284 C  
HETATM   11  C   UNL     1     -10.039  12.505  67.525  1.00  0.00    -0.207 C  
HETATM   12  C   UNL     1      -8.842  13.411  67.145  1.00  0.00    -0.225 C  
BRANCH  11  13
HETATM   13  C   UNL     1      -9.888  11.415  68.536  1.00  0.00    -0.198 C  
HETATM   14  O   UNL     1     -10.756  11.120  69.347  1.00  0.00    -0.224 OA 
BRANCH  13  15
HETATM   15  O   UNL     1      -8.654  10.848  68.511  1.00  0.00    -0.137 OA 
BRANCH  15  16
HETATM   16  C   UNL     1      -8.559   9.598  69.224  1.00  0.00    -0.153 C  
HETATM   17  C   UNL     1      -9.825   8.214  67.489  1.00  0.00    -0.230 C  
HETATM   18  C   UNL     1      -8.555   8.352  68.327  1.00  0.00    -0.139 C  
HETATM   19  C   UNL     1      -7.322   8.302  67.429  1.00  0.00    -0.092 C  
ENDBRANCH  15  16
ENDBRANCH  13  15
ENDBRANCH  11  13
BRANCH  12  20
HETATM   20  C   UNL     1      -8.050  13.871  68.378  1.00  0.00    -0.145 A  
HETATM   21  O   UNL     1      -5.945  12.411  66.771  1.00  0.00    -0.245 OA 
HETATM   22  C   UNL     1      -8.621  14.861  69.206  1.00  0.00    -0.106 A  
HETATM   23  O   UNL     1      -5.668  11.403  68.699  1.00  0.00    -0.043 OA 
HETATM   24  C   UNL     1      -7.900  15.429  70.257  1.00  0.00     0.686 A  
HETATM   25  N   UNL     1      -6.087  12.332  67.996  1.00  0.00    -0.062 N  
HETATM   26  C   UNL     1      -6.744  13.435  68.695  1.00  0.00    -0.095 A  
HETATM   27  C   UNL     1      -6.592  15.025  70.512  1.00  0.00     0.098 A  
HETATM   28  C   UNL     1      -6.013  14.020  69.742  1.00  0.00    -0.122 A  
ENDBRANCH  12  20
ENDBRANCH   3   5
ENDBRANCH   2   3
TORSDOF 6
ENDMDL
MODEL      213
REMARK 921   NORMALIZED FREE ENERGY PREDICTED BY IDOCK:    0.71 KCAL/MOL
REMARK 922        TOTAL FREE ENERGY PREDICTED BY IDOCK:    0.35 KCAL/MOL
REMARK 923 INTER-LIGAND FREE ENERGY PREDICTED BY IDOCK:   -0.43 KCAL/MOL
REMARK 924 INTRA-LIGAND FREE ENERGY PREDICTED BY IDOCK:    0.78 KCAL/MOL
REMARK 927      BINDING AFFINITY PREDICTED BY RF-SCORE:    0.00 PKD
ROOT
HETATM    1  C   UNL     1      -6.557  17.769  66.020  1.00  0.00    -0.270 C  
HETATM    2  O   UNL     1      -6.432  16.541  66.746  1.00  0.00    -0.210 OA 
ENDROOT
BRANCH   2   3
HETATM    3  C   UNL     1      -7.398  16.331  67.668  1.00  0.00    -0.140 C  
HETATM    4  O   UNL     1      -7.377  16.783  68.806  1.00  0.00    -0.202 OA 
BRANCH   3   5
HETATM    5  C   UNL     1      -8.454  15.418  67.147  1.00  0.00    -0.241 C  
HETATM    6  C   UNL     1      -9.721  15.877  67.018  1.00  0.00    -0.228 C  
HETATM    7  C   UNL     1     -10.201  17.297  67.234  1.00  0.00    -0.320 C  
HETATM    8  N   UNL     1     -10.733  14.995  66.689  1.00  0.00    -0.306 NA 
HETATM    9  C   UNL     1     -10.615  13.617  66.664  1.00  0.00    -0.277 C  
HETATM   10  C   UNL     1     -11.931  12.880  66.557  1.00  0.00    -0.447 C  
HETATM   11  C   UNL     1      -9.393  13.034  66.768  1.00  0.00    -0.244 C  
HETATM   12  C   UNL     1      -8.126  13.909  66.929  1.00  0.00     0.112 C  
BRANCH  11  13
HETATM   13  C   UNL     1      -9.309  11.542  66.812  1.00  0.00    -0.181 C  
HETATM   14  O   UNL     1      -9.112  10.905  67.838  1.00  0.00    -0.143 OA 
BRANCH  13  15
HETATM   15  O   UNL     1      -9.388  10.980  65.578  1.00  0.00    -0.202 OA 
BRANCH  15  16
HETATM   16  C   UNL     1      -8.747   9.693  65.469  1.00  0.00    -0.153 C  
HETATM   17  C   UNL     1      -8.429   9.776  62.935  1.00  0.00    -0.177 C  
HETATM   18  C   UNL     1      -7.765   9.567  64.295  1.00  0.00    -0.124 C  
HETATM   19  C   UNL     1      -6.572  10.507  64.449  1.00  0.00     0.072 C  
ENDBRANCH  15  16
ENDBRANCH  13  15
ENDBRANCH  11  13
BRANCH  12  20
HETATM   20  C   UNL     1      -7.222  13.414  68.069  1.00  0.00    -0.123 A  
HETATM   21  O   UNL     1      -9.807  14.020  69.517  1.00  0.00     0.266 OA 
HETATM   22  C   UNL     1      -6.032  12.735  67.729  1.00  0.00    -0.133 A  
HETATM   23  O   UNL     1      -8.426  15.156  70.786  1.00  0.00     1.238 OA 
HETATM   24  C   UNL     1      -5.239  12.134  68.708  1.00  0.00    -0.050 A  
HETATM   25  N   UNL     1      -8.677  14.294  69.934  1.00  0.00     0.910 N  
HETATM   26  C   UNL     1      -7.542  13.514  69.442  1.00  0.00     0.410 A  
HETATM   27  C   UNL     1      -5.608  12.194  70.049  1.00  0.00    -0.124 A  
HETATM   28  C   UNL     1      -6.753  12.893  70.422  1.00  0.00     0.859 A  
ENDBRANCH  12  20
ENDBRANCH   3   5
ENDBRANCH   2   3
TORSDOF 6
ENDMDL
MODEL      214
REMARK 921   NORMALIZED FREE ENERGY PREDICTED BY IDOCK:    0.87 KCAL/MOL
REMARK 922        TOTAL FREE ENERGY PREDICTED BY IDOCK:    0.57 KCAL/MOL
REMARK 923 INTER-LIGAND FREE ENERGY PREDICTED BY IDOCK:   -2.44 KCAL/MOL
REMARK 924 INTRA-LIGAND FREE ENERGY PREDICTED BY IDOCK:    3.01 KCAL/MOL
REMARK 927      BINDING AFFINITY PREDICTED BY RF-SCORE:    0.00 PKD
ROOT
HETATM    1  C   UNL     1      -7.385  14.945  70.185  1.00  0.00     0.195 C  
HETATM    2  O   UNL     1      -6.949  14.149  69.077  1.00  0.00    -0.104 OA 
ENDROOT
BRANCH   2   3
HETATM    3  C   UNL     1      -6.935  12.818  69.311  1.00  0.00     0.041 C  
HETATM    4  O   UNL     1      -6.656  12.309  70.390  1.00  0.00     0.049 OA 
BRANCH   3   5
HETATM    5  C   UNL     1      -7.228  12.047  68.070  1.00  0.00    -0.096 C  
HETATM    6  C   UNL     1      -6.452  12.234  66.977  1.00  0.00    -0.048 C  
HETATM    7  C   UNL     1      -5.197  13.076  66.884  1.00  0.00     0.767 C  
HETATM    8  N   UNL     1      -6.812  11.644  65.779  1.00  0.00     0.621 NA 
HETATM    9  C   UNL     1      -8.021  11.023  65.527  1.00  0.00     0.086 C  
HETATM   10  C   UNL     1      -8.276  10.721  64.068  1.00  0.00     0.112 C  
HETATM   11  C   UNL     1      -8.882  10.764  66.546  1.00  0.00    -0.162 C  
HETATM   12  C   UNL     1      -8.520  11.177  67.993  1.00  0.00    -0.135 C  
BRANCH  11  13
HETATM   13  C   UNL     1     -10.211  10.158  66.228  1.00  0.00    -0.219 C  
HETATM   14  O   UNL     1     -10.404   8.952  66.150  1.00  0.00    -0.187 OA 
BRANCH  13  15
HETATM   15  O   UNL     1     -11.157  11.093  65.951  1.00  0.00    -0.173 OA 
BRANCH  15  16
HETATM   16  C   UNL     1     -10.773  12.044  64.937  1.00  0.00    -0.301 C  
HETATM   17  C   UNL     1     -13.030  12.066  63.737  1.00  0.00    -0.331 C  
HETATM   18  C   UNL     1     -11.928  12.897  64.393  1.00  0.00    -0.456 C  
HETATM   19  C   UNL     1     -12.522  13.801  65.470  1.00  0.00    -0.548 C  
ENDBRANCH  15  16
ENDBRANCH  13  15
ENDBRANCH  11  13
BRANCH  12  20
HETATM   20  C   UNL     1      -9.673  11.915  68.690  1.00  0.00    -0.116 A  
HETATM   21  O   UNL     1      -9.201  13.628  66.243  1.00  0.00    -0.186 OA 
HETATM   22  C   UNL     1     -10.383  11.237  69.704  1.00  0.00     0.173 A  
HETATM   23  O   UNL     1      -9.121  15.191  67.779  1.00  0.00    -0.176 OA 
HETATM   24  C   UNL     1     -11.529  11.790  70.278  1.00  0.00    -0.075 A  
HETATM   25  N   UNL     1      -9.419  14.058  67.381  1.00  0.00    -0.218 N  
HETATM   26  C   UNL     1     -10.133  13.201  68.326  1.00  0.00    -0.247 A  
HETATM   27  C   UNL     1     -11.997  13.032  69.859  1.00  0.00    -0.381 A  
HETATM   28  C   UNL     1     -11.296  13.747  68.892  1.00  0.00    -0.328 A  
ENDBRANCH  12  20
ENDBRANCH   3   5
ENDBRANCH   2   3
TORSDOF 6
ENDMDL
MODEL      215
REMARK 921   NORMALIZED FREE ENERGY PREDICTED BY IDOCK:    1.08 KCAL/MOL
REMARK 922        TOTAL FREE ENERGY PREDICTED BY IDOCK:    0.86 KCAL/MOL
REMARK 923 INTER-LIGAND FREE ENERGY PREDICTED BY IDOCK:   -1.83 KCAL/MOL
REMARK 924 INTRA-LIGAND FREE ENERGY PREDICTED BY IDOCK:    2.68 KCAL/MOL
REMARK 927      BINDING AFFINITY PREDICTED BY RF-SCORE:    0.00 PKD
ROOT
HETATM    1  C   UNL     1     -10.765   4.568  69.478  1.00  0.00     1.196 C  
HETATM    2  O   UNL     1      -9.969   3.639  68.733  1.00  0.00     0.051 OA 
ENDROOT
BRANCH   2   3
HETATM    3  C   UNL     1      -8.809   4.145  68.259  1.00  0.00    -0.105 C  
HETATM    4  O   UNL     1      -7.745   3.537  68.243  1.00  0.00    -0.060 OA 
BRANCH   3   5
HETATM    5  C   UNL     1      -8.971   5.562  67.830  1.00  0.00    -0.108 C  
HETATM    6  C   UNL     1      -9.031   5.851  66.509  1.00  0.00    -0.131 C  
HETATM    7  C   UNL     1      -9.073   4.863  65.363  1.00  0.00    -0.155 C  
HETATM    8  N   UNL     1      -9.022   7.172  66.100  1.00  0.00    -0.158 NA 
HETATM    9  C   UNL     1      -8.756   8.257  66.915  1.00  0.00    -0.134 C  
HETATM   10  C   UNL     1      -8.523   9.553  66.172  1.00  0.00    -0.127 C  
HETATM   11  C   UNL     1      -8.688   8.100  68.263  1.00  0.00    -0.133 C  
HETATM   12  C   UNL     1      -8.891   6.701  68.893  1.00  0.00    -0.131 C  
BRANCH  11  13
HETATM   13  C   UNL     1      -8.326   9.280  69.107  1.00  0.00    -0.127 C  
HETATM   14  O   UNL     1      -7.212   9.457  69.580  1.00  0.00    -0.057 OA 
BRANCH  13  15
HETATM   15  O   UNL     1      -9.391  10.084  69.361  1.00  0.00    -0.197 OA 
BRANCH  15  16
HETATM   16  C   UNL     1     -10.117  10.499  68.187  1.00  0.00    -0.158 C  
HETATM   17  C   UNL     1     -11.547  12.253  69.373  1.00  0.00    -0.378 C  
HETATM   18  C   UNL     1     -10.595  11.957  68.215  1.00  0.00    -0.236 C  
HETATM   19  C   UNL     1      -9.426  12.939  68.231  1.00  0.00    -0.206 C  
ENDBRANCH  15  16
ENDBRANCH  13  15
ENDBRANCH  11  13
BRANCH  12  20
HETATM   20  C   UNL     1      -7.800   6.364  69.920  1.00  0.00    -0.114 A  
HETATM   21  O   UNL     1      -6.179   7.300  67.544  1.00  0.00    -0.043 OA 
HETATM   22  C   UNL     1      -8.181   6.197  71.268  1.00  0.00    -0.123 A  
HETATM   23  O   UNL     1      -5.169   5.390  67.919  1.00  0.00    -0.004 OA 
HETATM   24  C   UNL     1      -7.227   6.033  72.274  1.00  0.00    -0.089 A  
HETATM   25  N   UNL     1      -5.902   6.329  68.256  1.00  0.00    -0.012 N  
HETATM   26  C   UNL     1      -6.419   6.295  69.623  1.00  0.00    -0.043 A  
HETATM   27  C   UNL     1      -5.870   6.030  71.964  1.00  0.00    -0.032 A  
HETATM   28  C   UNL     1      -5.461   6.149  70.639  1.00  0.00    -0.014 A  
ENDBRANCH  12  20
ENDBRANCH   3   5
ENDBRANCH   2   3
TORSDOF 6
ENDMDL
MODEL      216
REMARK 921   NORMALIZED FREE ENERGY PREDICTED BY IDOCK:    2.06 KCAL/MOL
REMARK 922        TOTAL FREE ENERGY PREDICTED BY IDOCK:    2.17 KCAL/MOL
REMARK 923 INTER-LIGAND FREE ENERGY PREDICTED BY IDOCK:   -1.50 KCAL/MOL
REMARK 924 INTRA-LIGAND FREE ENERGY PREDICTED BY IDOCK:    3.67 KCAL/MOL
REMARK 927      BINDING AFFINITY PREDICTED BY RF-SCORE:    0.00 PKD
ROOT
HETATM    1  C   UNL     1     -10.992   3.591  71.312  1.00  0.00     2.023 C  
HETATM    2  O   UNL     1     -10.161   4.738  71.097  1.00  0.00    -0.202 OA 
ENDROOT
BRANCH   2   3
HETATM    3  C   UNL     1     -10.462   5.451  69.990  1.00  0.00    -0.303 C  
HETATM    4  O   UNL     1     -11.594   5.805  69.682  1.00  0.00     0.022 OA 
BRANCH   3   5
HETATM    5  C   UNL     1      -9.252   5.688  69.153  1.00  0.00    -0.136 C  
HETATM    6  C   UNL     1      -8.172   4.886  69.309  1.00  0.00    -0.081 C  
HETATM    7  C   UNL     1      -8.074   3.653  70.182  1.00  0.00    -0.055 C  
HETATM    8  N   UNL     1      -6.996   5.196  68.654  1.00  0.00    -0.055 NA 
HETATM    9  C   UNL     1      -6.741   6.380  67.987  1.00  0.00    -0.068 C  
HETATM   10  C   UNL     1      -5.291   6.585  67.610  1.00  0.00    -0.005 C  
HETATM   11  C   UNL     1      -7.747   7.263  67.752  1.00  0.00    -0.112 C  
HETATM   12  C   UNL     1      -9.182   6.953  68.244  1.00  0.00    -0.123 C  
BRANCH  11  13
HETATM   13  C   UNL     1      -7.423   8.565  67.094  1.00  0.00    -0.085 C  
HETATM   14  O   UNL     1      -7.642   8.800  65.914  1.00  0.00    -0.087 OA 
BRANCH  13  15
HETATM   15  O   UNL     1      -6.780   9.423  67.928  1.00  0.00    -0.066 OA 
BRANCH  15  16
HETATM   16  C   UNL     1      -7.567  10.562  68.332  1.00  0.00    -0.097 C  
HETATM   17  C   UNL     1      -5.960  11.354  70.155  1.00  0.00    -0.152 C  
HETATM   18  C   UNL     1      -6.751  11.731  68.903  1.00  0.00    -0.094 C  
HETATM   19  C   UNL     1      -5.821  12.340  67.857  1.00  0.00    -0.079 C  
ENDBRANCH  15  16
ENDBRANCH  13  15
ENDBRANCH  11  13
BRANCH  12  20
HETATM   20  C   UNL     1      -9.811   8.145  68.981  1.00  0.00    -0.176 A  
HETATM   21  O   UNL     1      -7.733   7.191  70.960  1.00  0.00    -0.088 OA 
HETATM   22  C   UNL     1     -10.604   9.046  68.238  1.00  0.00    -0.213 A  
HETATM   23  O   UNL     1      -9.478   7.238  72.288  1.00  0.00    -0.141 OA 
HETATM   24  C   UNL     1     -11.086  10.225  68.808  1.00  0.00    -0.276 A  
HETATM   25  N   UNL     1      -8.879   7.549  71.250  1.00  0.00    -0.133 N  
HETATM   26  C   UNL     1      -9.579   8.455  70.340  1.00  0.00    -0.169 A  
HETATM   27  C   UNL     1     -10.793  10.538  70.133  1.00  0.00    -0.291 A  
HETATM   28  C   UNL     1     -10.049   9.651  70.907  1.00  0.00    -0.257 A  
ENDBRANCH  12  20
ENDBRANCH   3   5
ENDBRANCH   2   3
TORSDOF 6
ENDMDL
MODEL      217
REMARK 921   NORMALIZED FREE ENERGY PREDICTED BY IDOCK:    2.45 KCAL/MOL
REMARK 922        TOTAL FREE ENERGY PREDICTED BY IDOCK:    2.71 KCAL/MOL
REMARK 923 INTER-LIGAND FREE ENERGY PREDICTED BY IDOCK:   -0.17 KCAL/MOL
REMARK 924 INTRA-LIGAND FREE ENERGY PREDICTED BY IDOCK:    2.87 KCAL/MOL
REMARK 927      BINDING AFFINITY PREDICTED BY RF-SCORE:    0.00 PKD
ROOT
HETATM    1  C   UNL     1     -10.936   3.597  71.286  1.00  0.00     1.898 C  
HETATM    2  O   UNL     1      -9.961   4.435  70.656  1.00  0.00    -0.212 OA 
ENDROOT
BRANCH   2   3
HETATM    3  C   UNL     1     -10.267   4.803  69.392  1.00  0.00    -0.096 C  
HETATM    4  O   UNL     1     -11.267   5.439  69.080  1.00  0.00     0.143 OA 
BRANCH   3   5
HETATM    5  C   UNL     1      -9.273   4.272  68.417  1.00  0.00    -0.190 C  
HETATM    6  C   UNL     1      -8.399   3.318  68.816  1.00  0.00    -0.065 C  
HETATM    7  C   UNL     1      -8.377   2.606  70.152  1.00  0.00    -0.074 C  
HETATM    8  N   UNL     1      -7.376   2.937  67.969  1.00  0.00    -0.053 NA 
HETATM    9  C   UNL     1      -7.026   3.583  66.798  1.00  0.00    -0.054 C  
HETATM   10  C   UNL     1      -5.702   3.144  66.214  1.00  0.00    -0.022 C  
HETATM   11  C   UNL     1      -7.831   4.550  66.284  1.00  0.00    -0.099 C  
HETATM   12  C   UNL     1      -9.137   4.943  67.016  1.00  0.00    -0.120 C  
BRANCH  11  13
HETATM   13  C   UNL     1      -7.386   5.278  65.057  1.00  0.00    -0.068 C  
HETATM   14  O   UNL     1      -7.660   4.919  63.920  1.00  0.00    -0.062 OA 
BRANCH  13  15
HETATM   15  O   UNL     1      -6.574   6.330  65.342  1.00  0.00    -0.041 OA 
BRANCH  15  16
HETATM   16  C   UNL     1      -7.125   7.617  64.996  1.00  0.00    -0.063 C  
HETATM   17  C   UNL     1      -5.230   8.993  66.019  1.00  0.00    -0.033 C  
HETATM   18  C   UNL     1      -6.080   8.720  64.779  1.00  0.00    -0.065 C  
HETATM   19  C   UNL     1      -5.183   8.424  63.579  1.00  0.00    -0.057 C  
ENDBRANCH  15  16
ENDBRANCH  13  15
ENDBRANCH  11  13
BRANCH  12  20
HETATM   20  C   UNL     1      -9.281   6.465  67.164  1.00  0.00    -0.128 A  
HETATM   21  O   UNL     1      -6.795   5.896  68.789  1.00  0.00    -0.061 OA 
HETATM   22  C   UNL     1     -10.148   7.142  66.279  1.00  0.00     0.090 A  
HETATM   23  O   UNL     1      -7.924   7.045  70.277  1.00  0.00    -0.113 OA 
HETATM   24  C   UNL     1     -10.219   8.536  66.261  1.00  0.00    -0.065 A  
HETATM   25  N   UNL     1      -7.698   6.673  69.118  1.00  0.00    -0.104 N  
HETATM   26  C   UNL     1      -8.537   7.253  68.071  1.00  0.00    -0.125 A  
HETATM   27  C   UNL     1      -9.430   9.292  67.123  1.00  0.00    -0.191 A  
HETATM   28  C   UNL     1      -8.596   8.656  68.039  1.00  0.00    -0.137 A  
ENDBRANCH  12  20
ENDBRANCH   3   5
ENDBRANCH   2   3
TORSDOF 6
ENDMDL
MODEL      218
REMARK 921   NORMALIZED FREE ENERGY PREDICTED BY IDOCK:    3.35 KCAL/MOL
REMARK 922        TOTAL FREE ENERGY PREDICTED BY IDOCK:    3.91 KCAL/MOL
REMARK 923 INTER-LIGAND FREE ENERGY PREDICTED BY IDOCK:    2.50 KCAL/MOL
REMARK 924 INTRA-LIGAND FREE ENERGY PREDICTED BY IDOCK:    1.42 KCAL/MOL
REMARK 927      BINDING AFFINITY PREDICTED BY RF-SCORE:    0.00 PKD
ROOT
HETATM    1  C   UNL     1     -11.338  16.725  66.476  1.00  0.00     0.710 C  
HETATM    2  O   UNL     1     -12.124  15.795  67.229  1.00  0.00     0.434 OA 
ENDROOT
BRANCH   2   3
HETATM    3  C   UNL     1     -12.025  14.511  66.818  1.00  0.00    -0.342 C  
HETATM    4  O   UNL     1     -12.971  13.831  66.438  1.00  0.00    -0.106 OA 
BRANCH   3   5
HETATM    5  C   UNL     1     -10.631  14.004  66.958  1.00  0.00    -0.279 C  
HETATM    6  C   UNL     1     -10.007  13.476  65.879  1.00  0.00    -0.283 C  
HETATM    7  C   UNL     1     -10.525  13.439  64.457  1.00  0.00    -0.431 C  
HETATM    8  N   UNL     1      -8.779  12.862  66.037  1.00  0.00     0.399 NA 
HETATM    9  C   UNL     1      -8.191  12.551  67.250  1.00  0.00    -0.184 C  
HETATM   10  C   UNL     1      -6.996  11.631  67.147  1.00  0.00    -0.144 C  
HETATM   11  C   UNL     1      -8.714  13.036  68.406  1.00  0.00    -0.115 C  
HETATM   12  C   UNL     1      -9.980  13.926  68.374  1.00  0.00    -0.233 C  
BRANCH  11  13
HETATM   13  C   UNL     1      -8.097  12.621  69.703  1.00  0.00     1.556 C  
HETATM   14  O   UNL     1      -7.532  13.396  70.463  1.00  0.00     1.612 OA 
BRANCH  13  15
HETATM   15  O   UNL     1      -8.159  11.279  69.903  1.00  0.00     0.585 OA 
BRANCH  15  16
HETATM   16  C   UNL     1      -7.081  10.746  70.699  1.00  0.00     0.920 C  
HETATM   17  C   UNL     1      -6.060   9.326  68.836  1.00  0.00    -0.043 C  
HETATM   18  C   UNL     1      -5.816  10.391  69.905  1.00  0.00    -0.055 C  
HETATM   19  C   UNL     1      -5.172  11.626  69.280  1.00  0.00    -0.048 C  
ENDBRANCH  15  16
ENDBRANCH  13  15
ENDBRANCH  11  13
BRANCH  12  20
HETATM   20  C   UNL     1     -11.033  13.472  69.395  1.00  0.00    -0.101 A  
HETATM   21  O   UNL     1     -11.160  16.484  69.639  1.00  0.00    -0.316 OA 
HETATM   22  C   UNL     1     -11.487  12.137  69.336  1.00  0.00    -0.355 A  
HETATM   23  O   UNL     1     -10.910  15.976  71.758  1.00  0.00     0.264 OA 
HETATM   24  C   UNL     1     -12.543  11.696  70.135  1.00  0.00    -0.106 A  
HETATM   25  N   UNL     1     -11.192  15.691  70.587  1.00  0.00    -0.331 N  
HETATM   26  C   UNL     1     -11.649  14.325  70.339  1.00  0.00    -0.200 A  
HETATM   27  C   UNL     1     -13.174  12.572  71.014  1.00  0.00     0.131 A  
HETATM   28  C   UNL     1     -12.723  13.884  71.129  1.00  0.00    -0.441 A  
ENDBRANCH  12  20
ENDBRANCH   3   5
ENDBRANCH   2   3
TORSDOF 6
ENDMDL
MODEL      219
REMARK 921   NORMALIZED FREE ENERGY PREDICTED BY IDOCK:    5.05 KCAL/MOL
REMARK 922        TOTAL FREE ENERGY PREDICTED BY IDOCK:    6.21 KCAL/MOL
REMARK 923 INTER-LIGAND FREE ENERGY PREDICTED BY IDOCK:    0.06 KCAL/MOL
REMARK 924 INTRA-LIGAND FREE ENERGY PREDICTED BY IDOCK:    6.15 KCAL/MOL
REMARK 927      BINDING AFFINITY PREDICTED BY RF-SCORE:    0.00 PKD
ROOT
HETATM    1  C   UNL     1      -8.637   8.037  63.212  1.00  0.00     0.267 C  
HETATM    2  O   UNL     1      -8.098   9.358  63.085  1.00  0.00    -0.136 OA 
ENDROOT
BRANCH   2   3
HETATM    3  C   UNL     1      -7.264   9.725  64.083  1.00  0.00    -0.129 C  
HETATM    4  O   UNL     1      -7.035  10.886  64.402  1.00  0.00     0.287 OA 
BRANCH   3   5
HETATM    5  C   UNL     1      -6.600   8.540  64.696  1.00  0.00    -0.066 C  
HETATM    6  C   UNL     1      -6.265   7.489  63.912  1.00  0.00    -0.049 C  
HETATM    7  C   UNL     1      -6.378   7.407  62.404  1.00  0.00    -0.062 C  
HETATM    8  N   UNL     1      -5.797   6.327  64.496  1.00  0.00    -0.022 NA 
HETATM    9  C   UNL     1      -5.816   6.051  65.851  1.00  0.00    -0.024 C  
HETATM   10  C   UNL     1      -5.517   4.610  66.198  1.00  0.00    -0.013 C  
HETATM   11  C   UNL     1      -6.120   7.028  66.744  1.00  0.00    -0.037 C  
HETATM   12  C   UNL     1      -6.463   8.454  66.248  1.00  0.00    -0.054 C  
BRANCH  11  13
HETATM   13  C   UNL     1      -6.204   6.677  68.194  1.00  0.00    -0.033 C  
HETATM   14  O   UNL     1      -6.204   7.508  69.093  1.00  0.00    -0.033 OA 
BRANCH  13  15
HETATM   15  O   UNL     1      -6.191   5.335  68.406  1.00  0.00    -0.028 OA 
BRANCH  15  16
HETATM   16  C   UNL     1      -6.635   4.937  69.719  1.00  0.00    -0.036 C  
HETATM   17  C   UNL     1      -8.843   3.909  68.946  1.00  0.00    -0.153 C  
HETATM   18  C   UNL     1      -7.551   3.705  69.737  1.00  0.00    -0.051 C  
HETATM   19  C   UNL     1      -6.828   2.452  69.250  1.00  0.00    -0.033 C  
ENDBRANCH  15  16
ENDBRANCH  13  15
ENDBRANCH  11  13
BRANCH  12  20
HETATM   20  C   UNL     1      -7.739   9.004  66.903  1.00  0.00    -0.098 A  
HETATM   21  O   UNL     1      -8.522   6.153  66.267  1.00  0.00    -0.121 OA 
HETATM   22  C   UNL     1      -7.650  10.214  67.624  1.00  0.00    -0.090 A  
HETATM   23  O   UNL     1     -10.219   7.191  65.345  1.00  0.00     1.639 OA 
HETATM   24  C   UNL     1      -8.732  10.696  68.363  1.00  0.00    -0.141 A  
HETATM   25  N   UNL     1      -9.245   7.142  66.107  1.00  0.00    -0.127 N  
HETATM   26  C   UNL     1      -8.984   8.335  66.909  1.00  0.00    -0.146 A  
HETATM   27  C   UNL     1      -9.929   9.987  68.403  1.00  0.00    -0.178 A  
HETATM   28  C   UNL     1     -10.065   8.813  67.669  1.00  0.00    -0.273 A  
ENDBRANCH  12  20
ENDBRANCH   3   5
ENDBRANCH   2   3
TORSDOF 6
ENDMDL
MODEL      220
REMARK 921   NORMALIZED FREE ENERGY PREDICTED BY IDOCK:    7.46 KCAL/MOL
REMARK 922        TOTAL FREE ENERGY PREDICTED BY IDOCK:    9.47 KCAL/MOL
REMARK 923 INTER-LIGAND FREE ENERGY PREDICTED BY IDOCK:    6.09 KCAL/MOL
REMARK 924 INTRA-LIGAND FREE ENERGY PREDICTED BY IDOCK:    3.38 KCAL/MOL
REMARK 927      BINDING AFFINITY PREDICTED BY RF-SCORE:    0.00 PKD
ROOT
HETATM    1  C   UNL     1     -12.703  16.847  63.788  1.00  0.00     5.856 C  
HETATM    2  O   UNL     1     -11.415  16.256  63.997  1.00  0.00    -0.919 OA 
ENDROOT
BRANCH   2   3
HETATM    3  C   UNL     1     -10.781  16.670  65.117  1.00  0.00    -0.189 C  
HETATM    4  O   UNL     1     -11.004  17.732  65.686  1.00  0.00    -0.203 OA 
BRANCH   3   5
HETATM    5  C   UNL     1      -9.725  15.703  65.529  1.00  0.00    -0.286 C  
HETATM    6  C   UNL     1     -10.058  14.407  65.737  1.00  0.00    -0.340 C  
HETATM    7  C   UNL     1     -11.403  13.761  65.480  1.00  0.00    -0.313 C  
HETATM    8  N   UNL     1      -9.122  13.542  66.270  1.00  0.00    -0.054 NA 
HETATM    9  C   UNL     1      -7.904  13.916  66.809  1.00  0.00     0.521 C  
HETATM   10  C   UNL     1      -7.200  12.822  67.580  1.00  0.00    -0.141 C  
HETATM   11  C   UNL     1      -7.450  15.187  66.654  1.00  0.00     0.558 C  
HETATM   12  C   UNL     1      -8.300  16.227  65.885  1.00  0.00     0.136 C  
BRANCH  11  13
HETATM   13  C   UNL     1      -6.165  15.577  67.311  1.00  0.00     0.077 C  
HETATM   14  O   UNL     1      -5.382  16.389  66.838  1.00  0.00    -0.330 OA 
BRANCH  13  15
HETATM   15  O   UNL     1      -5.924  14.867  68.444  1.00  0.00    -0.090 OA 
BRANCH  15  16
HETATM   16  C   UNL     1      -5.630  15.675  69.601  1.00  0.00    -0.117 C  
HETATM   17  C   UNL     1      -8.023  16.503  69.953  1.00  0.00     0.967 C  
HETATM   18  C   UNL     1      -6.801  15.834  70.582  1.00  0.00     0.943 C  
HETATM   19  C   UNL     1      -7.196  14.503  71.215  1.00  0.00     1.897 C  
ENDBRANCH  15  16
ENDBRANCH  13  15
ENDBRANCH  11  13
BRANCH  12  20
HETATM   20  C   UNL     1      -8.422  17.554  66.650  1.00  0.00    -0.288 A  
HETATM   21  O   UNL     1      -6.554  18.287  64.387  1.00  0.00     0.441 OA 
HETATM   22  C   UNL     1      -9.466  17.689  67.590  1.00  0.00    -0.258 A  
HETATM   23  O   UNL     1      -5.364  19.032  66.072  1.00  0.00    -0.149 OA 
HETATM   24  C   UNL     1      -9.724  18.910  68.214  1.00  0.00    -0.412 A  
HETATM   25  N   UNL     1      -6.425  18.648  65.562  1.00  0.00    -0.278 N  
HETATM   26  C   UNL     1      -7.611  18.688  66.416  1.00  0.00    -0.259 A  
HETATM   27  C   UNL     1      -8.950  20.029  67.920  1.00  0.00    -0.356 A  
HETATM   28  C   UNL     1      -7.884  19.920  67.030  1.00  0.00    -0.325 A  
ENDBRANCH  12  20
ENDBRANCH   3   5
ENDBRANCH   2   3
TORSDOF 6
ENDMDL
MODEL      221
REMARK 921   NORMALIZED FREE ENERGY PREDICTED BY IDOCK:    7.74 KCAL/MOL
REMARK 922        TOTAL FREE ENERGY PREDICTED BY IDOCK:    9.85 KCAL/MOL
REMARK 923 INTER-LIGAND FREE ENERGY PREDICTED BY IDOCK:    4.15 KCAL/MOL
REMARK 924 INTRA-LIGAND FREE ENERGY PREDICTED BY IDOCK:    5.71 KCAL/MOL
REMARK 927      BINDING AFFINITY PREDICTED BY RF-SCORE:    0.00 PKD
ROOT
HETATM    1  C   UNL     1     -12.697  16.832  63.801  1.00  0.00     5.109 C  
HETATM    2  O   UNL     1     -11.405  16.244  63.993  1.00  0.00    -0.822 OA 
ENDROOT
BRANCH   2   3
HETATM    3  C   UNL     1     -10.746  16.677  65.091  1.00  0.00    -0.189 C  
HETATM    4  O   UNL     1     -10.953  17.752  65.642  1.00  0.00    -0.203 OA 
BRANCH   3   5
HETATM    5  C   UNL     1      -9.685  15.715  65.500  1.00  0.00    -0.286 C  
HETATM    6  C   UNL     1     -10.025  14.434  65.779  1.00  0.00    -0.329 C  
HETATM    7  C   UNL     1     -11.387  13.796  65.606  1.00  0.00    -0.311 C  
HETATM    8  N   UNL     1      -9.077  13.580  66.310  1.00  0.00    -0.054 NA 
HETATM    9  C   UNL     1      -7.834  13.960  66.781  1.00  0.00     0.521 C  
HETATM   10  C   UNL     1      -7.111  12.892  67.570  1.00  0.00    -0.153 C  
HETATM   11  C   UNL     1      -7.371  15.217  66.551  1.00  0.00     1.072 C  
HETATM   12  C   UNL     1      -8.240  16.235  65.773  1.00  0.00     0.597 C  
BRANCH  11  13
HETATM   13  C   UNL     1      -6.055  15.617  67.137  1.00  0.00     0.212 C  
HETATM   14  O   UNL     1      -5.303  16.431  66.618  1.00  0.00    -0.338 OA 
BRANCH  13  15
HETATM   15  O   UNL     1      -5.750  14.915  68.259  1.00  0.00    -0.098 OA 
BRANCH  15  16
HETATM   16  C   UNL     1      -5.350  15.729  69.380  1.00  0.00    -0.108 C  
HETATM   17  C   UNL     1      -7.697  16.574  69.936  1.00  0.00     0.843 C  
HETATM   18  C   UNL     1      -6.428  15.902  70.459  1.00  0.00     0.435 C  
HETATM   19  C   UNL     1      -6.774  14.577  71.134  1.00  0.00     0.689 C  
ENDBRANCH  15  16
ENDBRANCH  13  15
ENDBRANCH  11  13
BRANCH  12  20
HETATM   20  C   UNL     1      -8.314  17.595  66.484  1.00  0.00    -0.300 A  
HETATM   21  O   UNL     1      -9.358  15.706  68.603  1.00  0.00    -0.186 OA 
HETATM   22  C   UNL     1      -7.609  18.680  65.921  1.00  0.00    -0.184 A  
HETATM   23  O   UNL     1     -10.984  17.177  68.620  1.00  0.00    -0.295 OA 
HETATM   24  C   UNL     1      -7.513  19.903  66.587  1.00  0.00    -0.283 A  
HETATM   25  N   UNL     1      -9.832  16.817  68.344  1.00  0.00    -0.242 N  
HETATM   26  C   UNL     1      -8.970  17.817  67.716  1.00  0.00    -0.249 A  
HETATM   27  C   UNL     1      -8.117  20.078  67.829  1.00  0.00    -0.320 A  
HETATM   28  C   UNL     1      -8.856  19.042  68.393  1.00  0.00    -0.379 A  
ENDBRANCH  12  20
ENDBRANCH   3   5
ENDBRANCH   2   3
TORSDOF 6
ENDMDL
MODEL      222
REMARK 921   NORMALIZED FREE ENERGY PREDICTED BY IDOCK:    7.91 KCAL/MOL
REMARK 922        TOTAL FREE ENERGY PREDICTED BY IDOCK:   10.08 KCAL/MOL
REMARK 923 INTER-LIGAND FREE ENERGY PREDICTED BY IDOCK:    6.07 KCAL/MOL
REMARK 924 INTRA-LIGAND FREE ENERGY PREDICTED BY IDOCK:    4.01 KCAL/MOL
REMARK 927      BINDING AFFINITY PREDICTED BY RF-SCORE:    0.00 PKD
ROOT
HETATM    1  C   UNL     1      -6.828  17.573  65.029  1.00  0.00     2.038 C  
HETATM    2  O   UNL     1      -6.662  17.116  66.376  1.00  0.00    -0.230 OA 
ENDROOT
BRANCH   2   3
HETATM    3  C   UNL     1      -6.420  18.095  67.277  1.00  0.00    -0.177 C  
HETATM    4  O   UNL     1      -5.302  18.431  67.649  1.00  0.00    -0.152 OA 
BRANCH   3   5
HETATM    5  C   UNL     1      -7.689  18.661  67.815  1.00  0.00    -0.253 C  
HETATM    6  C   UNL     1      -7.639  19.750  68.619  1.00  0.00    -0.284 C  
HETATM    7  C   UNL     1      -6.415  20.573  68.961  1.00  0.00    -0.218 C  
HETATM    8  N   UNL     1      -8.791  20.183  69.247  1.00  0.00     0.354 NA 
HETATM    9  C   UNL     1      -9.985  19.487  69.296  1.00  0.00    -0.272 C  
HETATM   10  C   UNL     1     -10.990  20.039  70.281  1.00  0.00     2.345 C  
HETATM   11  C   UNL     1     -10.165  18.385  68.522  1.00  0.00    -0.394 C  
HETATM   12  C   UNL     1      -9.028  17.893  67.594  1.00  0.00    -0.250 C  
BRANCH  11  13
HETATM   13  C   UNL     1     -11.439  17.614  68.653  1.00  0.00     1.179 C  
HETATM   14  O   UNL     1     -12.290  17.558  67.776  1.00  0.00     2.192 OA 
BRANCH  13  15
HETATM   15  O   UNL     1     -11.586  17.057  69.884  1.00  0.00     0.623 OA 
BRANCH  15  16
HETATM   16  C   UNL     1     -10.470  16.249  70.308  1.00  0.00     0.029 C  
HETATM   17  C   UNL     1     -11.736  15.002  72.144  1.00  0.00    -0.437 C  
HETATM   18  C   UNL     1     -10.857  14.886  70.900  1.00  0.00     0.015 C  
HETATM   19  C   UNL     1     -11.527  13.987  69.864  1.00  0.00    -0.272 C  
ENDBRANCH  15  16
ENDBRANCH  13  15
ENDBRANCH  11  13
BRANCH  12  20
HETATM   20  C   UNL     1      -8.779  16.384  67.732  1.00  0.00    -0.182 A  
HETATM   21  O   UNL     1      -9.079  16.712  64.741  1.00  0.00     1.822 OA 
HETATM   22  C   UNL     1      -8.273  15.901  68.958  1.00  0.00    -0.234 A  
HETATM   23  O   UNL     1     -10.522  15.091  65.057  1.00  0.00    -0.388 OA 
HETATM   24  C   UNL     1      -7.888  14.568  69.107  1.00  0.00    -0.071 A  
HETATM   25  N   UNL     1      -9.563  15.791  65.408  1.00  0.00    -0.158 N  
HETATM   26  C   UNL     1      -8.938  15.449  66.684  1.00  0.00    -0.286 A  
HETATM   27  C   UNL     1      -7.997  13.680  68.040  1.00  0.00    -0.154 A  
HETATM   28  C   UNL     1      -8.533  14.113  66.830  1.00  0.00    -0.117 A  
ENDBRANCH  12  20
ENDBRANCH   3   5
ENDBRANCH   2   3
TORSDOF 6
ENDMDL
MODEL      223
REMARK 921   NORMALIZED FREE ENERGY PREDICTED BY IDOCK:    8.21 KCAL/MOL
REMARK 922        TOTAL FREE ENERGY PREDICTED BY IDOCK:   10.49 KCAL/MOL
REMARK 923 INTER-LIGAND FREE ENERGY PREDICTED BY IDOCK:    8.07 KCAL/MOL
REMARK 924 INTRA-LIGAND FREE ENERGY PREDICTED BY IDOCK:    2.41 KCAL/MOL
REMARK 927      BINDING AFFINITY PREDICTED BY RF-SCORE:    0.00 PKD
ROOT
HETATM    1  C   UNL     1     -12.605  13.805  63.838  1.00  0.00    -0.042 C  
HETATM    2  O   UNL     1     -11.763  12.721  64.243  1.00  0.00    -0.335 OA 
ENDROOT
BRANCH   2   3
HETATM    3  C   UNL     1     -10.846  13.041  65.183  1.00  0.00    -0.300 C  
HETATM    4  O   UNL     1      -9.980  13.896  65.042  1.00  0.00    -0.306 OA 
BRANCH   3   5
HETATM    5  C   UNL     1     -10.976  12.169  66.384  1.00  0.00    -0.327 C  
HETATM    6  C   UNL     1     -12.210  11.845  66.837  1.00  0.00     0.672 C  
HETATM    7  C   UNL     1     -13.534  12.174  66.182  1.00  0.00     5.713 C  
HETATM    8  N   UNL     1     -12.338  11.171  68.037  1.00  0.00    -0.086 NA 
HETATM    9  C   UNL     1     -11.318  10.956  68.946  1.00  0.00    -0.288 C  
HETATM   10  C   UNL     1     -11.779  10.455  70.295  1.00  0.00    -0.406 C  
HETATM   11  C   UNL     1     -10.031  11.226  68.604  1.00  0.00    -0.210 C  
HETATM   12  C   UNL     1      -9.702  11.791  67.201  1.00  0.00    -0.194 C  
BRANCH  11  13
HETATM   13  C   UNL     1      -8.962  11.052  69.634  1.00  0.00     0.574 C  
HETATM   14  O   UNL     1      -8.776  11.834  70.556  1.00  0.00     3.633 OA 
BRANCH  13  15
HETATM   15  O   UNL     1      -8.167   9.979  69.383  1.00  0.00    -0.127 OA 
BRANCH  15  16
HETATM   16  C   UNL     1      -7.073   9.820  70.309  1.00  0.00    -0.143 C  
HETATM   17  C   UNL     1      -6.399   7.486  69.515  1.00  0.00    -0.032 C  
HETATM   18  C   UNL     1      -5.940   8.914  69.807  1.00  0.00    -0.032 C  
HETATM   19  C   UNL     1      -5.241   9.502  68.584  1.00  0.00    -0.033 C  
ENDBRANCH  15  16
ENDBRANCH  13  15
ENDBRANCH  11  13
BRANCH  12  20
HETATM   20  C   UNL     1      -8.763  13.005  67.271  1.00  0.00    -0.209 A  
HETATM   21  O   UNL     1     -10.920  13.745  69.258  1.00  0.00    -0.236 OA 
HETATM   22  C   UNL     1      -7.471  12.882  66.718  1.00  0.00     0.448 A  
HETATM   23  O   UNL     1     -10.924  15.574  68.048  1.00  0.00    -0.289 OA 
HETATM   24  C   UNL     1      -6.519  13.891  66.873  1.00  0.00     1.391 A  
HETATM   25  N   UNL     1     -10.409  14.519  68.441  1.00  0.00    -0.235 N  
HETATM   26  C   UNL     1      -9.073  14.215  67.933  1.00  0.00    -0.189 A  
HETATM   27  C   UNL     1      -6.829  15.049  67.582  1.00  0.00    -0.203 A  
HETATM   28  C   UNL     1      -8.108  15.221  68.103  1.00  0.00    -0.136 A  
ENDBRANCH  12  20
ENDBRANCH   3   5
ENDBRANCH   2   3
TORSDOF 6
ENDMDL
MODEL      224
REMARK 921   NORMALIZED FREE ENERGY PREDICTED BY IDOCK:    8.69 KCAL/MOL
REMARK 922        TOTAL FREE ENERGY PREDICTED BY IDOCK:   11.13 KCAL/MOL
REMARK 923 INTER-LIGAND FREE ENERGY PREDICTED BY IDOCK:    3.41 KCAL/MOL
REMARK 924 INTRA-LIGAND FREE ENERGY PREDICTED BY IDOCK:    7.72 KCAL/MOL
REMARK 927      BINDING AFFINITY PREDICTED BY RF-SCORE:    0.00 PKD
ROOT
HETATM    1  C   UNL     1     -10.798  14.028  66.736  1.00  0.00    -0.294 C  
HETATM    2  O   UNL     1     -11.186  12.752  67.260  1.00  0.00    -0.268 OA 
ENDROOT
BRANCH   2   3
HETATM    3  C   UNL     1     -10.984  11.713  66.419  1.00  0.00    -0.295 C  
HETATM    4  O   UNL     1     -11.549  11.576  65.341  1.00  0.00    -0.122 OA 
BRANCH   3   5
HETATM    5  C   UNL     1     -10.042  10.718  67.005  1.00  0.00    -0.249 C  
HETATM    6  C   UNL     1     -10.221   9.402  66.741  1.00  0.00    -0.250 C  
HETATM    7  C   UNL     1     -11.230   8.794  65.791  1.00  0.00     4.038 C  
HETATM    8  N   UNL     1      -9.453   8.465  67.406  1.00  0.00    -0.143 NA 
HETATM    9  C   UNL     1      -8.628   8.729  68.485  1.00  0.00    -0.134 C  
HETATM   10  C   UNL     1      -8.129   7.496  69.204  1.00  0.00    -0.123 C  
HETATM   11  C   UNL     1      -8.357  10.011  68.840  1.00  0.00    -0.130 C  
HETATM   12  C   UNL     1      -8.981  11.186  68.048  1.00  0.00    -0.149 C  
BRANCH  11  13
HETATM   13  C   UNL     1      -7.522  10.260  70.055  1.00  0.00    -0.132 C  
HETATM   14  O   UNL     1      -6.425  10.801  70.024  1.00  0.00    -0.122 OA 
BRANCH  13  15
HETATM   15  O   UNL     1      -8.076   9.741  71.182  1.00  0.00    -0.153 OA 
BRANCH  15  16
HETATM   16  C   UNL     1      -9.247   8.932  70.951  1.00  0.00    -0.231 C  
HETATM   17  C   UNL     1      -8.297   6.797  71.985  1.00  0.00    -0.111 C  
HETATM   18  C   UNL     1      -9.451   7.799  71.966  1.00  0.00    -0.212 C  
HETATM   19  C   UNL     1      -9.705   8.336  73.373  1.00  0.00     0.025 C  
ENDBRANCH  15  16
ENDBRANCH  13  15
ENDBRANCH  11  13
BRANCH  12  20
HETATM   20  C   UNL     1      -9.607  12.240  68.974  1.00  0.00     0.308 A  
HETATM   21  O   UNL     1      -7.095  13.631  68.022  1.00  0.00    -0.099 OA 
HETATM   22  C   UNL     1     -10.956  12.077  69.355  1.00  0.00    -0.128 A  
HETATM   23  O   UNL     1      -6.844  13.905  70.184  1.00  0.00     0.056 OA 
HETATM   24  C   UNL     1     -11.629  13.066  70.073  1.00  0.00    -0.195 A  
HETATM   25  N   UNL     1      -7.524  13.651  69.181  1.00  0.00     0.024 N  
HETATM   26  C   UNL     1      -8.950  13.416  69.403  1.00  0.00     1.076 A  
HETATM   27  C   UNL     1     -10.978  14.243  70.431  1.00  0.00     0.237 A  
HETATM   28  C   UNL     1      -9.635  14.418  70.109  1.00  0.00     1.183 A  
ENDBRANCH  12  20
ENDBRANCH   3   5
ENDBRANCH   2   3
TORSDOF 6
ENDMDL
MODEL      225
REMARK 921   NORMALIZED FREE ENERGY PREDICTED BY IDOCK:    9.43 KCAL/MOL
REMARK 922        TOTAL FREE ENERGY PREDICTED BY IDOCK:   12.13 KCAL/MOL
REMARK 923 INTER-LIGAND FREE ENERGY PREDICTED BY IDOCK:    2.31 KCAL/MOL
REMARK 924 INTRA-LIGAND FREE ENERGY PREDICTED BY IDOCK:    9.81 KCAL/MOL
REMARK 927      BINDING AFFINITY PREDICTED BY RF-SCORE:    0.00 PKD
ROOT
HETATM    1  C   UNL     1     -10.947  17.159  67.953  1.00  0.00    -0.208 C  
HETATM    2  O   UNL     1     -11.669  16.221  68.759  1.00  0.00    -0.317 OA 
ENDROOT
BRANCH   2   3
HETATM    3  C   UNL     1     -12.253  15.216  68.068  1.00  0.00     0.226 C  
HETATM    4  O   UNL     1     -13.429  15.204  67.728  1.00  0.00     3.441 OA 
BRANCH   3   5
HETATM    5  C   UNL     1     -11.302  14.092  67.840  1.00  0.00    -0.318 C  
HETATM    6  C   UNL     1     -11.094  13.647  66.578  1.00  0.00    -0.305 C  
HETATM    7  C   UNL     1     -11.640  14.248  65.300  1.00  0.00    -0.348 C  
HETATM    8  N   UNL     1     -10.339  12.507  66.376  1.00  0.00    -0.239 NA 
HETATM    9  C   UNL     1      -9.921  11.639  67.368  1.00  0.00    -0.183 C  
HETATM   10  C   UNL     1      -9.364  10.329  66.858  1.00  0.00    -0.183 C  
HETATM   11  C   UNL     1     -10.059  11.979  68.676  1.00  0.00    -0.170 C  
HETATM   12  C   UNL     1     -10.700  13.334  69.063  1.00  0.00    -0.156 C  
BRANCH  11  13
HETATM   13  C   UNL     1      -9.665  10.987  69.722  1.00  0.00     0.564 C  
HETATM   14  O   UNL     1      -8.527  10.556  69.852  1.00  0.00    -0.009 OA 
BRANCH  13  15
HETATM   15  O   UNL     1     -10.724  10.554  70.455  1.00  0.00    -0.217 OA 
BRANCH  15  16
HETATM   16  C   UNL     1     -10.665   9.160  70.819  1.00  0.00    -0.263 C  
HETATM   17  C   UNL     1      -9.033   8.480  68.974  1.00  0.00    -0.146 C  
HETATM   18  C   UNL     1      -9.341   8.466  70.471  1.00  0.00    -0.177 C  
HETATM   19  C   UNL     1      -8.169   9.051  71.255  1.00  0.00    -0.165 C  
ENDBRANCH  15  16
ENDBRANCH  13  15
ENDBRANCH  11  13
BRANCH  12  20
HETATM   20  C   UNL     1     -11.778  13.177  70.146  1.00  0.00    -0.250 A  
HETATM   21  O   UNL     1     -10.770  15.984  70.647  1.00  0.00    -0.229 OA 
HETATM   22  C   UNL     1     -12.694  12.110  70.024  1.00  0.00     0.250 A  
HETATM   23  O   UNL     1     -10.589  15.184  72.681  1.00  0.00     0.844 OA 
HETATM   24  C   UNL     1     -13.784  11.991  70.888  1.00  0.00     1.596 A  
HETATM   25  N   UNL     1     -11.031  15.154  71.525  1.00  0.00    -0.171 N  
HETATM   26  C   UNL     1     -11.974  14.081  71.214  1.00  0.00    -0.115 A  
HETATM   27  C   UNL     1     -13.990  12.930  71.895  1.00  0.00     0.049 A  
HETATM   28  C   UNL     1     -13.081  13.970  72.071  1.00  0.00    -0.487 A  
ENDBRANCH  12  20
ENDBRANCH   3   5
ENDBRANCH   2   3
TORSDOF 6
ENDMDL
MODEL      226
REMARK 921   NORMALIZED FREE ENERGY PREDICTED BY IDOCK:   10.65 KCAL/MOL
REMARK 922        TOTAL FREE ENERGY PREDICTED BY IDOCK:   13.77 KCAL/MOL
REMARK 923 INTER-LIGAND FREE ENERGY PREDICTED BY IDOCK:    5.83 KCAL/MOL
REMARK 924 INTRA-LIGAND FREE ENERGY PREDICTED BY IDOCK:    7.94 KCAL/MOL
REMARK 927      BINDING AFFINITY PREDICTED BY RF-SCORE:    0.00 PKD
ROOT
HETATM    1  C   UNL     1      -7.516  14.767  68.698  1.00  0.00    -0.126 C  
HETATM    2  O   UNL     1      -8.812  15.376  68.678  1.00  0.00    -0.168 OA 
ENDROOT
BRANCH   2   3
HETATM    3  C   UNL     1      -9.345  15.527  67.445  1.00  0.00    -0.207 C  
HETATM    4  O   UNL     1      -9.558  16.609  66.912  1.00  0.00    -0.235 OA 
BRANCH   3   5
HETATM    5  C   UNL     1      -9.709  14.212  66.847  1.00  0.00    -0.272 C  
HETATM    6  C   UNL     1      -9.766  14.089  65.500  1.00  0.00    -0.109 C  
HETATM    7  C   UNL     1      -9.376  15.133  64.475  1.00  0.00     3.160 C  
HETATM    8  N   UNL     1     -10.255  12.923  64.944  1.00  0.00    -0.295 NA 
HETATM    9  C   UNL     1     -10.891  11.911  65.640  1.00  0.00    -0.286 C  
HETATM   10  C   UNL     1     -11.582  10.889  64.765  1.00  0.00     0.854 C  
HETATM   11  C   UNL     1     -10.890  11.911  66.999  1.00  0.00    -0.303 C  
HETATM   12  C   UNL     1     -10.189  13.053  67.775  1.00  0.00    -0.228 C  
BRANCH  11  13
HETATM   13  C   UNL     1     -11.648  10.844  67.719  1.00  0.00    -0.146 C  
HETATM   14  O   UNL     1     -11.898  10.881  68.916  1.00  0.00    -0.313 OA 
BRANCH  13  15
HETATM   15  O   UNL     1     -11.953   9.790  66.917  1.00  0.00     1.969 OA 
BRANCH  15  16
HETATM   16  C   UNL     1     -10.951   8.754  66.889  1.00  0.00     0.320 C  
HETATM   17  C   UNL     1      -9.512   9.735  68.760  1.00  0.00    -0.154 C  
HETATM   18  C   UNL     1     -10.252   8.506  68.233  1.00  0.00    -0.244 C  
HETATM   19  C   UNL     1     -11.223   7.983  69.289  1.00  0.00     0.257 C  
ENDBRANCH  15  16
ENDBRANCH  13  15
ENDBRANCH  11  13
BRANCH  12  20
HETATM   20  C   UNL     1     -11.079  13.627  68.888  1.00  0.00    -0.292 A  
HETATM   21  O   UNL     1     -12.533  14.507  66.387  1.00  0.00    -0.315 OA 
HETATM   22  C   UNL     1     -10.894  13.148  70.203  1.00  0.00     0.978 A  
HETATM   23  O   UNL     1     -12.401  16.443  67.409  1.00  0.00     1.339 OA 
HETATM   24  C   UNL     1     -11.759  13.516  71.235  1.00  0.00     0.675 A  
HETATM   25  N   UNL     1     -12.357  15.206  67.391  1.00  0.00     0.403 N  
HETATM   26  C   UNL     1     -12.134  14.542  68.674  1.00  0.00    -0.218 A  
HETATM   27  C   UNL     1     -12.829  14.371  70.985  1.00  0.00    -0.423 A  
HETATM   28  C   UNL     1     -13.014  14.897  69.709  1.00  0.00     0.209 A  
ENDBRANCH  12  20
ENDBRANCH   3   5
ENDBRANCH   2   3
TORSDOF 6
ENDMDL
MODEL      227
REMARK 921   NORMALIZED FREE ENERGY PREDICTED BY IDOCK:   12.33 KCAL/MOL
REMARK 922        TOTAL FREE ENERGY PREDICTED BY IDOCK:   16.05 KCAL/MOL
REMARK 923 INTER-LIGAND FREE ENERGY PREDICTED BY IDOCK:   11.09 KCAL/MOL
REMARK 924 INTRA-LIGAND FREE ENERGY PREDICTED BY IDOCK:    4.96 KCAL/MOL
REMARK 927      BINDING AFFINITY PREDICTED BY RF-SCORE:    0.00 PKD
ROOT
HETATM    1  C   UNL     1      -9.860  12.756  66.334  1.00  0.00    -0.269 C  
HETATM    2  O   UNL     1     -10.344  11.579  66.991  1.00  0.00    -0.209 OA 
ENDROOT
BRANCH   2   3
HETATM    3  C   UNL     1     -10.741  10.592  66.157  1.00  0.00    -0.076 C  
HETATM    4  O   UNL     1     -11.739  10.646  65.448  1.00  0.00     0.849 OA 
BRANCH   3   5
HETATM    5  C   UNL     1      -9.853   9.401  66.267  1.00  0.00    -0.351 C  
HETATM    6  C   UNL     1     -10.387   8.163  66.147  1.00  0.00     0.550 C  
HETATM    7  C   UNL     1     -11.817   7.821  65.783  1.00  0.00     8.283 C  
HETATM    8  N   UNL     1      -9.602   7.055  66.404  1.00  0.00    -0.142 NA 
HETATM    9  C   UNL     1      -8.343   7.085  66.975  1.00  0.00    -0.121 C  
HETATM   10  C   UNL     1      -7.823   5.734  67.413  1.00  0.00    -0.102 C  
HETATM   11  C   UNL     1      -7.692   8.267  67.135  1.00  0.00    -0.097 C  
HETATM   12  C   UNL     1      -8.364   9.589  66.693  1.00  0.00    -0.116 C  
BRANCH  11  13
HETATM   13  C   UNL     1      -6.365   8.270  67.823  1.00  0.00    -0.053 C  
HETATM   14  O   UNL     1      -5.297   8.377  67.234  1.00  0.00    -0.035 OA 
BRANCH  13  15
HETATM   15  O   UNL     1      -6.471   8.055  69.160  1.00  0.00    -0.035 OA 
BRANCH  15  16
HETATM   16  C   UNL     1      -6.995   9.174  69.903  1.00  0.00    -0.054 C  
HETATM   17  C   UNL     1      -8.598   7.799  71.343  1.00  0.00    -0.131 C  
HETATM   18  C   UNL     1      -7.470   8.831  71.322  1.00  0.00    -0.127 C  
HETATM   19  C   UNL     1      -6.318   8.369  72.210  1.00  0.00    -0.070 C  
ENDBRANCH  15  16
ENDBRANCH  13  15
ENDBRANCH  11  13
BRANCH  12  20
HETATM   20  C   UNL     1      -8.278  10.674  67.777  1.00  0.00    -0.111 A  
HETATM   21  O   UNL     1      -6.531  11.815  65.587  1.00  0.00     0.631 OA 
HETATM   22  C   UNL     1      -9.221  10.645  68.826  1.00  0.00    -0.182 A  
HETATM   23  O   UNL     1      -5.134  11.988  67.269  1.00  0.00    -0.089 OA 
HETATM   24  C   UNL     1      -9.293  11.677  69.763  1.00  0.00     1.577 A  
HETATM   25  N   UNL     1      -6.268  11.843  66.794  1.00  0.00    -0.110 N  
HETATM   26  C   UNL     1      -7.369  11.757  67.752  1.00  0.00    -0.106 A  
HETATM   27  C   UNL     1      -8.427  12.764  69.681  1.00  0.00     1.871 A  
HETATM   28  C   UNL     1      -7.455  12.803  68.684  1.00  0.00    -0.092 A  
ENDBRANCH  12  20
ENDBRANCH   3   5
ENDBRANCH   2   3
TORSDOF 6
ENDMDL
MODEL      228
REMARK 921   NORMALIZED FREE ENERGY PREDICTED BY IDOCK:   14.87 KCAL/MOL
REMARK 922        TOTAL FREE ENERGY PREDICTED BY IDOCK:   19.48 KCAL/MOL
REMARK 923 INTER-LIGAND FREE ENERGY PREDICTED BY IDOCK:    5.47 KCAL/MOL
REMARK 924 INTRA-LIGAND FREE ENERGY PREDICTED BY IDOCK:   14.01 KCAL/MOL
REMARK 927      BINDING AFFINITY PREDICTED BY RF-SCORE:    0.00 PKD
ROOT
HETATM    1  C   UNL     1     -11.853   8.115  73.898  1.00  0.00     3.973 C  
HETATM    2  O   UNL     1     -12.228   6.743  74.070  1.00  0.00     2.775 OA 
ENDROOT
BRANCH   2   3
HETATM    3  C   UNL     1     -11.535   5.869  73.307  1.00  0.00     0.120 C  
HETATM    4  O   UNL     1     -12.041   4.948  72.677  1.00  0.00     0.094 OA 
BRANCH   3   5
HETATM    5  C   UNL     1     -10.069   6.124  73.389  1.00  0.00    -0.207 C  
HETATM    6  C   UNL     1      -9.605   7.385  73.223  1.00  0.00    -0.232 C  
HETATM    7  C   UNL     1     -10.431   8.645  73.073  1.00  0.00     0.517 C  
HETATM    8  N   UNL     1      -8.243   7.603  73.140  1.00  0.00    -0.122 NA 
HETATM    9  C   UNL     1      -7.283   6.616  73.013  1.00  0.00    -0.080 C  
HETATM   10  C   UNL     1      -5.906   7.127  72.654  1.00  0.00    -0.041 C  
HETATM   11  C   UNL     1      -7.620   5.309  73.175  1.00  0.00    -0.096 C  
HETATM   12  C   UNL     1      -9.084   4.918  73.488  1.00  0.00    -0.120 C  
BRANCH  11  13
HETATM   13  C   UNL     1      -6.573   4.265  72.958  1.00  0.00    -0.046 C  
HETATM   14  O   UNL     1      -5.996   3.686  73.869  1.00  0.00    -0.010 OA 
BRANCH  13  15
HETATM   15  O   UNL     1      -6.274   4.093  71.645  1.00  0.00    -0.016 OA 
BRANCH  15  16
HETATM   16  C   UNL     1      -6.291   2.719  71.206  1.00  0.00    -0.019 C  
HETATM   17  C   UNL     1      -7.979   3.071  69.320  1.00  0.00    -0.058 C  
HETATM   18  C   UNL     1      -6.606   2.530  69.715  1.00  0.00    -0.033 C  
HETATM   19  C   UNL     1      -5.524   3.137  68.824  1.00  0.00    -0.013 C  
ENDBRANCH  15  16
ENDBRANCH  13  15
ENDBRANCH  11  13
BRANCH  12  20
HETATM   20  C   UNL     1      -9.584   3.778  72.587  1.00  0.00    -0.187 A  
HETATM   21  O   UNL     1      -8.043   5.506  70.641  1.00  0.00    -0.109 OA 
HETATM   22  C   UNL     1     -10.074   2.607  73.204  1.00  0.00    -0.197 A  
HETATM   23  O   UNL     1      -9.929   5.336  69.534  1.00  0.00    -0.185 OA 
HETATM   24  C   UNL     1     -10.408   1.479  72.451  1.00  0.00    -0.223 A  
HETATM   25  N   UNL     1      -9.133   4.971  70.409  1.00  0.00    -0.125 N  
HETATM   26  C   UNL     1      -9.506   3.784  71.176  1.00  0.00    -0.166 A  
HETATM   27  C   UNL     1     -10.264   1.489  71.067  1.00  0.00     0.167 A  
HETATM   28  C   UNL     1      -9.825   2.642  70.423  1.00  0.00     0.112 A  
ENDBRANCH  12  20
ENDBRANCH   3   5
ENDBRANCH   2   3
TORSDOF 6
ENDMDL
MODEL      229
REMARK 921   NORMALIZED FREE ENERGY PREDICTED BY IDOCK:   15.49 KCAL/MOL
REMARK 922        TOTAL FREE ENERGY PREDICTED BY IDOCK:   20.32 KCAL/MOL
REMARK 923 INTER-LIGAND FREE ENERGY PREDICTED BY IDOCK:   -3.15 KCAL/MOL
REMARK 924 INTRA-LIGAND FREE ENERGY PREDICTED BY IDOCK:   23.47 KCAL/MOL
REMARK 927      BINDING AFFINITY PREDICTED BY RF-SCORE:    0.00 PKD
ROOT
HETATM    1  C   UNL     1     -10.172   5.799  72.400  1.00  0.00    -0.190 C  
HETATM    2  O   UNL     1     -10.199   5.896  70.971  1.00  0.00    -0.195 OA 
ENDROOT
BRANCH   2   3
HETATM    3  C   UNL     1      -8.982   5.867  70.382  1.00  0.00    -0.147 C  
HETATM    4  O   UNL     1      -8.376   4.841  70.097  1.00  0.00    -0.074 OA 
BRANCH   3   5
HETATM    5  C   UNL     1      -8.441   7.242  70.192  1.00  0.00    -0.138 C  
HETATM    6  C   UNL     1      -9.062   8.287  70.789  1.00  0.00    -0.150 C  
HETATM    7  C   UNL     1     -10.219   8.221  71.763  1.00  0.00    -0.297 C  
HETATM    8  N   UNL     1      -8.662   9.576  70.491  1.00  0.00    -0.229 NA 
HETATM    9  C   UNL     1      -7.797   9.928  69.471  1.00  0.00    -0.140 C  
HETATM   10  C   UNL     1      -7.751  11.409  69.174  1.00  0.00    -0.010 C  
HETATM   11  C   UNL     1      -7.100   8.970  68.805  1.00  0.00    -0.070 C  
HETATM   12  C   UNL     1      -7.283   7.478  69.175  1.00  0.00    -0.084 C  
BRANCH  11  13
HETATM   13  C   UNL     1      -6.230   9.379  67.660  1.00  0.00    -0.054 C  
HETATM   14  O   UNL     1      -5.632   8.584  66.947  1.00  0.00    -0.036 OA 
BRANCH  13  15
HETATM   15  O   UNL     1      -6.107  10.728  67.556  1.00  0.00    -0.051 OA 
BRANCH  15  16
HETATM   16  C   UNL     1      -6.304  11.241  66.222  1.00  0.00    -0.048 C  
HETATM   17  C   UNL     1      -7.035   9.018  65.195  1.00  0.00    -0.080 C  
HETATM   18  C   UNL     1      -7.366  10.495  65.402  1.00  0.00    -0.084 C  
HETATM   19  C   UNL     1      -8.759  10.642  66.010  1.00  0.00    -0.186 C  
ENDBRANCH  15  16
ENDBRANCH  13  15
ENDBRANCH  11  13
BRANCH  12  20
HETATM   20  C   UNL     1      -7.507   6.598  67.935  1.00  0.00    -0.098 A  
HETATM   21  O   UNL     1     -10.327   7.020  68.942  1.00  0.00    -0.178 OA 
HETATM   22  C   UNL     1      -6.445   6.458  67.016  1.00  0.00    -0.046 A  
HETATM   23  O   UNL     1     -10.343   4.833  68.777  1.00  0.00    -0.070 OA 
HETATM   24  C   UNL     1      -6.624   5.795  65.801  1.00  0.00    -0.044 A  
HETATM   25  N   UNL     1      -9.875   5.950  68.521  1.00  0.00    -0.129 N  
HETATM   26  C   UNL     1      -8.736   5.985  67.604  1.00  0.00    -0.104 A  
HETATM   27  C   UNL     1      -7.863   5.253  65.470  1.00  0.00    -0.093 A  
HETATM   28  C   UNL     1      -8.919   5.334  66.373  1.00  0.00    -0.128 A  
ENDBRANCH  12  20
ENDBRANCH   3   5
ENDBRANCH   2   3
TORSDOF 6
ENDMDL
MODEL      230
REMARK 921   NORMALIZED FREE ENERGY PREDICTED BY IDOCK:   20.03 KCAL/MOL
REMARK 922        TOTAL FREE ENERGY PREDICTED BY IDOCK:   26.45 KCAL/MOL
REMARK 923 INTER-LIGAND FREE ENERGY PREDICTED BY IDOCK:   13.52 KCAL/MOL
REMARK 924 INTRA-LIGAND FREE ENERGY PREDICTED BY IDOCK:   12.93 KCAL/MOL
REMARK 927      BINDING AFFINITY PREDICTED BY RF-SCORE:    0.00 PKD
ROOT
HETATM    1  C   UNL     1      -6.032  17.608  67.425  1.00  0.00    -0.147 C  
HETATM    2  O   UNL     1      -5.832  16.351  68.080  1.00  0.00    -0.103 OA 
ENDROOT
BRANCH   2   3
HETATM    3  C   UNL     1      -6.959  15.781  68.562  1.00  0.00    -0.117 C  
HETATM    4  O   UNL     1      -7.652  16.263  69.450  1.00  0.00    -0.230 OA 
BRANCH   3   5
HETATM    5  C   UNL     1      -7.209  14.456  67.929  1.00  0.00    -0.169 C  
HETATM    6  C   UNL     1      -6.790  14.239  66.659  1.00  0.00     2.080 C  
HETATM    7  C   UNL     1      -5.961  15.173  65.803  1.00  0.00     7.512 C  
HETATM    8  N   UNL     1      -7.157  13.074  66.012  1.00  0.00     2.446 NA 
HETATM    9  C   UNL     1      -8.094  12.167  66.471  1.00  0.00     0.107 C  
HETATM   10  C   UNL     1      -8.519  11.137  65.449  1.00  0.00     0.043 C  
HETATM   11  C   UNL     1      -8.579  12.267  67.736  1.00  0.00    -0.170 C  
HETATM   12  C   UNL     1      -8.098  13.407  68.665  1.00  0.00    -0.040 C  
BRANCH  11  13
HETATM   13  C   UNL     1      -9.644  11.314  68.175  1.00  0.00    -0.186 C  
HETATM   14  O   UNL     1     -10.764  11.277  67.683  1.00  0.00    -0.201 OA 
BRANCH  13  15
HETATM   15  O   UNL     1      -9.260  10.556  69.235  1.00  0.00    -0.191 OA 
BRANCH  15  16
HETATM   16  C   UNL     1     -10.235  10.479  70.295  1.00  0.00     0.263 C  
HETATM   17  C   UNL     1     -11.553   8.532  69.293  1.00  0.00     0.802 C  
HETATM   18  C   UNL     1     -10.823   9.079  70.519  1.00  0.00    -0.296 C  
HETATM   19  C   UNL     1      -9.763   8.085  70.987  1.00  0.00    -0.185 C  
ENDBRANCH  15  16
ENDBRANCH  13  15
ENDBRANCH  11  13
BRANCH  12  20
HETATM   20  C   UNL     1      -9.268  14.126  69.354  1.00  0.00     0.478 A  
HETATM   21  O   UNL     1     -10.656  12.639  67.116  1.00  0.00    -0.233 OA 
HETATM   22  C   UNL     1      -9.054  14.666  70.640  1.00  0.00     2.151 A  
HETATM   23  O   UNL     1     -11.462  14.645  66.749  1.00  0.00    -0.352 OA 
HETATM   24  C   UNL     1     -10.107  15.203  71.383  1.00  0.00     1.499 A  
HETATM   25  N   UNL     1     -10.904  13.799  67.461  1.00  0.00    -0.263 N  
HETATM   26  C   UNL     1     -10.576  14.208  68.825  1.00  0.00    -0.253 A  
HETATM   27  C   UNL     1     -11.399  15.217  70.864  1.00  0.00    -0.380 A  
HETATM   28  C   UNL     1     -11.637  14.732  69.581  1.00  0.00    -0.342 A  
ENDBRANCH  12  20
ENDBRANCH   3   5
ENDBRANCH   2   3
TORSDOF 6
ENDMDL
MODEL      231
REMARK 921   NORMALIZED FREE ENERGY PREDICTED BY IDOCK:   23.98 KCAL/MOL
REMARK 922        TOTAL FREE ENERGY PREDICTED BY IDOCK:   31.78 KCAL/MOL
REMARK 923 INTER-LIGAND FREE ENERGY PREDICTED BY IDOCK:   13.78 KCAL/MOL
REMARK 924 INTRA-LIGAND FREE ENERGY PREDICTED BY IDOCK:   18.00 KCAL/MOL
REMARK 927      BINDING AFFINITY PREDICTED BY RF-SCORE:    0.00 PKD
ROOT
HETATM    1  C   UNL     1      -7.341  14.742  68.845  1.00  0.00    -0.130 C  
HETATM    2  O   UNL     1      -8.297  15.466  68.061  1.00  0.00    -0.139 OA 
ENDROOT
BRANCH   2   3
HETATM    3  C   UNL     1      -8.486  14.980  66.814  1.00  0.00    -0.204 C  
HETATM    4  O   UNL     1      -8.475  15.663  65.797  1.00  0.00     0.182 OA 
BRANCH   3   5
HETATM    5  C   UNL     1      -8.785  13.521  66.841  1.00  0.00    -0.158 C  
HETATM    6  C   UNL     1      -9.398  12.950  65.777  1.00  0.00     0.115 C  
HETATM    7  C   UNL     1      -9.728  13.611  64.456  1.00  0.00     0.539 C  
HETATM    8  N   UNL     1      -9.820  11.637  65.859  1.00  0.00    -0.226 NA 
HETATM    9  C   UNL     1      -9.855  10.880  67.017  1.00  0.00    -0.183 C  
HETATM   10  C   UNL     1     -10.623   9.584  66.892  1.00  0.00    -0.241 C  
HETATM   11  C   UNL     1      -9.260  11.336  68.150  1.00  0.00    -0.170 C  
HETATM   12  C   UNL     1      -8.552  12.713  68.155  1.00  0.00    -0.188 C  
BRANCH  11  13
HETATM   13  C   UNL     1      -9.380  10.528  69.401  1.00  0.00    -0.117 C  
HETATM   14  O   UNL     1      -9.611  11.012  70.501  1.00  0.00     1.587 OA 
BRANCH  13  15
HETATM   15  O   UNL     1      -9.119   9.210  69.196  1.00  0.00    -0.140 OA 
BRANCH  15  16
HETATM   16  C   UNL     1      -7.734   8.846  69.359  1.00  0.00    -0.093 C  
HETATM   17  C   UNL     1      -6.794  10.781  67.980  1.00  0.00    -0.068 C  
HETATM   18  C   UNL     1      -6.754  10.027  69.308  1.00  0.00    -0.057 C  
HETATM   19  C   UNL     1      -6.968  10.993  70.470  1.00  0.00     0.786 C  
ENDBRANCH  15  16
ENDBRANCH  13  15
ENDBRANCH  11  13
BRANCH  12  20
HETATM   20  C   UNL     1      -8.964  13.571  69.361  1.00  0.00     0.975 A  
HETATM   21  O   UNL     1     -11.615  13.070  67.992  1.00  0.00    -0.299 OA 
HETATM   22  C   UNL     1      -8.037  13.735  70.412  1.00  0.00     2.823 A  
HETATM   23  O   UNL     1     -11.725  15.254  68.169  1.00  0.00    -0.345 OA 
HETATM   24  C   UNL     1      -8.394  14.379  71.598  1.00  0.00     5.640 A  
HETATM   25  N   UNL     1     -11.256  14.149  68.476  1.00  0.00    -0.247 N  
HETATM   26  C   UNL     1     -10.247  14.140  69.533  1.00  0.00     0.248 A  
HETATM   27  C   UNL     1      -9.683  14.877  71.768  1.00  0.00     3.542 A  
HETATM   28  C   UNL     1     -10.610  14.771  70.734  1.00  0.00     0.343 A  
ENDBRANCH  12  20
ENDBRANCH   3   5
ENDBRANCH   2   3
TORSDOF 6
ENDMDL
MODEL      232
REMARK 921   NORMALIZED FREE ENERGY PREDICTED BY IDOCK:   24.17 KCAL/MOL
REMARK 922        TOTAL FREE ENERGY PREDICTED BY IDOCK:   32.04 KCAL/MOL
REMARK 923 INTER-LIGAND FREE ENERGY PREDICTED BY IDOCK:   20.91 KCAL/MOL
REMARK 924 INTRA-LIGAND FREE ENERGY PREDICTED BY IDOCK:   11.12 KCAL/MOL
REMARK 927      BINDING AFFINITY PREDICTED BY RF-SCORE:    0.00 PKD
ROOT
HETATM    1  C   UNL     1     -10.996  21.110  64.896  1.00  0.00     2.863 C  
HETATM    2  O   UNL     1     -10.089  20.172  65.486  1.00  0.00    -0.339 OA 
ENDROOT
BRANCH   2   3
HETATM    3  C   UNL     1      -9.593  19.252  64.628  1.00  0.00     4.414 C  
HETATM    4  O   UNL     1      -9.154  19.512  63.514  1.00  0.00     9.687 OA 
BRANCH   3   5
HETATM    5  C   UNL     1      -9.717  17.874  65.180  1.00  0.00     1.776 C  
HETATM    6  C   UNL     1     -10.855  17.173  64.961  1.00  0.00     0.073 C  
HETATM    7  C   UNL     1     -12.022  17.584  64.089  1.00  0.00     4.842 C  
HETATM    8  N   UNL     1     -11.041  15.962  65.601  1.00  0.00    -0.176 NA 
HETATM    9  C   UNL     1     -10.248  15.468  66.620  1.00  0.00    -0.276 C  
HETATM   10  C   UNL     1     -10.830  14.271  67.339  1.00  0.00    -0.288 C  
HETATM   11  C   UNL     1      -9.071  16.074  66.927  1.00  0.00    -0.251 C  
HETATM   12  C   UNL     1      -8.619  17.331  66.145  1.00  0.00    -0.207 C  
BRANCH  11  13
HETATM   13  C   UNL     1      -8.276  15.558  68.082  1.00  0.00    -0.144 C  
HETATM   14  O   UNL     1      -7.436  16.221  68.676  1.00  0.00    -0.163 OA 
BRANCH  13  15
HETATM   15  O   UNL     1      -8.526  14.248  68.342  1.00  0.00    -0.156 OA 
BRANCH  15  16
HETATM   16  C   UNL     1      -7.345  13.448  68.552  1.00  0.00    -0.111 C  
HETATM   17  C   UNL     1      -8.577  11.401  69.461  1.00  0.00     0.699 C  
HETATM   18  C   UNL     1      -7.572  11.933  68.440  1.00  0.00    -0.120 C  
HETATM   19  C   UNL     1      -7.987  11.525  67.029  1.00  0.00    -0.161 C  
ENDBRANCH  15  16
ENDBRANCH  13  15
ENDBRANCH  11  13
BRANCH  12  20
HETATM   20  C   UNL     1      -8.159  18.460  67.080  1.00  0.00    -0.244 A  
HETATM   21  O   UNL     1     -11.157  18.479  67.478  1.00  0.00    -0.284 OA 
HETATM   22  C   UNL     1      -6.788  18.538  67.407  1.00  0.00    -0.207 A  
HETATM   23  O   UNL     1     -10.853  20.606  67.040  1.00  0.00     0.460 OA 
HETATM   24  C   UNL     1      -6.323  19.445  68.361  1.00  0.00    -0.271 A  
HETATM   25  N   UNL     1     -10.447  19.484  67.371  1.00  0.00    -0.444 N  
HETATM   26  C   UNL     1      -9.029  19.378  67.710  1.00  0.00    -0.313 A  
HETATM   27  C   UNL     1      -7.209  20.298  69.013  1.00  0.00    -0.016 A  
HETATM   28  C   UNL     1      -8.562  20.277  68.683  1.00  0.00     0.267 A  
ENDBRANCH  12  20
ENDBRANCH   3   5
ENDBRANCH   2   3
TORSDOF 6
ENDMDL
MODEL      233
REMARK 921   NORMALIZED FREE ENERGY PREDICTED BY IDOCK:   24.27 KCAL/MOL
REMARK 922        TOTAL FREE ENERGY PREDICTED BY IDOCK:   32.17 KCAL/MOL
REMARK 923 INTER-LIGAND FREE ENERGY PREDICTED BY IDOCK:   20.98 KCAL/MOL
REMARK 924 INTRA-LIGAND FREE ENERGY PREDICTED BY IDOCK:   11.19 KCAL/MOL
REMARK 927      BINDING AFFINITY PREDICTED BY RF-SCORE:    0.00 PKD
ROOT
HETATM    1  C   UNL     1     -10.514  15.235  63.329  1.00  0.00     6.360 C  
HETATM    2  O   UNL     1     -10.253  15.583  64.693  1.00  0.00    -0.262 OA 
ENDROOT
BRANCH   2   3
HETATM    3  C   UNL     1     -11.344  15.593  65.491  1.00  0.00    -0.037 C  
HETATM    4  O   UNL     1     -12.498  15.643  65.083  1.00  0.00     0.550 OA 
BRANCH   3   5
HETATM    5  C   UNL     1     -10.961  15.611  66.931  1.00  0.00    -0.243 C  
HETATM    6  C   UNL     1     -11.615  14.804  67.800  1.00  0.00    -0.357 C  
HETATM    7  C   UNL     1     -12.652  13.754  67.462  1.00  0.00     0.375 C  
HETATM    8  N   UNL     1     -11.376  14.931  69.155  1.00  0.00    -0.275 NA 
HETATM    9  C   UNL     1     -10.662  15.955  69.748  1.00  0.00    -0.324 C  
HETATM   10  C   UNL     1     -10.792  16.018  71.253  1.00  0.00     0.250 C  
HETATM   11  C   UNL     1      -9.949  16.823  68.984  1.00  0.00    -0.272 C  
HETATM   12  C   UNL     1      -9.945  16.678  67.442  1.00  0.00    -0.265 C  
BRANCH  11  13
HETATM   13  C   UNL     1      -9.248  17.962  69.651  1.00  0.00     0.841 C  
HETATM   14  O   UNL     1      -9.639  18.483  70.688  1.00  0.00     2.288 OA 
BRANCH  13  15
HETATM   15  O   UNL     1      -8.183  18.409  68.937  1.00  0.00    -0.272 OA 
BRANCH  15  16
HETATM   16  C   UNL     1      -7.702  17.482  67.943  1.00  0.00    -0.213 C  
HETATM   17  C   UNL     1      -5.341  18.449  67.807  1.00  0.00    -0.160 C  
HETATM   18  C   UNL     1      -6.195  17.198  68.011  1.00  0.00    -0.138 C  
HETATM   19  C   UNL     1      -5.806  16.502  69.313  1.00  0.00    -0.154 C  
ENDBRANCH  15  16
ENDBRANCH  13  15
ENDBRANCH  11  13
BRANCH  12  20
HETATM   20  C   UNL     1     -10.212  18.016  66.735  1.00  0.00    -0.367 A  
HETATM   21  O   UNL     1     -11.155  18.581  69.552  1.00  0.00     1.517 OA 
HETATM   22  C   UNL     1      -9.603  18.240  65.482  1.00  0.00     0.835 A  
HETATM   23  O   UNL     1     -12.935  19.240  68.454  1.00  0.00     5.969 OA 
HETATM   24  C   UNL     1      -9.683  19.483  64.851  1.00  0.00     2.520 A  
HETATM   25  N   UNL     1     -11.736  18.939  68.522  1.00  0.00     2.395 N  
HETATM   26  C   UNL     1     -10.957  19.079  67.293  1.00  0.00    -0.277 A  
HETATM   27  C   UNL     1     -10.372  20.533  65.450  1.00  0.00     0.359 A  
HETATM   28  C   UNL     1     -11.021  20.334  66.666  1.00  0.00     0.341 A  
ENDBRANCH  12  20
ENDBRANCH   3   5
ENDBRANCH   2   3
TORSDOF 6
ENDMDL
MODEL      234
REMARK 921   NORMALIZED FREE ENERGY PREDICTED BY IDOCK:   29.82 KCAL/MOL
REMARK 922        TOTAL FREE ENERGY PREDICTED BY IDOCK:   39.67 KCAL/MOL
REMARK 923 INTER-LIGAND FREE ENERGY PREDICTED BY IDOCK:   30.87 KCAL/MOL
REMARK 924 INTRA-LIGAND FREE ENERGY PREDICTED BY IDOCK:    8.81 KCAL/MOL
REMARK 927      BINDING AFFINITY PREDICTED BY RF-SCORE:    0.00 PKD
ROOT
HETATM    1  C   UNL     1     -13.316  14.068  71.208  1.00  0.00    -0.272 C  
HETATM    2  O   UNL     1     -13.806  15.182  70.452  1.00  0.00     0.074 OA 
ENDROOT
BRANCH   2   3
HETATM    3  C   UNL     1     -12.985  16.256  70.435  1.00  0.00     1.657 C  
HETATM    4  O   UNL     1     -13.369  17.419  70.453  1.00  0.00     8.684 OA 
BRANCH   3   5
HETATM    5  C   UNL     1     -11.559  15.844  70.316  1.00  0.00    -0.365 C  
HETATM    6  C   UNL     1     -10.599  16.608  70.891  1.00  0.00     0.937 C  
HETATM    7  C   UNL     1     -10.809  17.817  71.777  1.00  0.00     2.681 C  
HETATM    8  N   UNL     1      -9.268  16.321  70.651  1.00  0.00     2.138 NA 
HETATM    9  C   UNL     1      -8.802  15.428  69.704  1.00  0.00    -0.138 C  
HETATM   10  C   UNL     1      -7.315  15.513  69.445  1.00  0.00    -0.215 C  
HETATM   11  C   UNL     1      -9.665  14.593  69.068  1.00  0.00    -0.161 C  
HETATM   12  C   UNL     1     -11.178  14.649  69.389  1.00  0.00    -0.307 C  
BRANCH  11  13
HETATM   13  C   UNL     1      -9.137  13.693  67.998  1.00  0.00    -0.192 C  
HETATM   14  O   UNL     1      -9.851  13.090  67.208  1.00  0.00    -0.219 OA 
BRANCH  13  15
HETATM   15  O   UNL     1      -7.788  13.550  68.057  1.00  0.00    -0.120 OA 
BRANCH  15  16
HETATM   16  C   UNL     1      -7.346  12.283  68.587  1.00  0.00    -0.106 C  
HETATM   17  C   UNL     1      -5.147  13.158  69.549  1.00  0.00    -0.076 C  
HETATM   18  C   UNL     1      -6.439  12.390  69.821  1.00  0.00    -0.025 C  
HETATM   19  C   UNL     1      -7.172  12.997  71.014  1.00  0.00     4.057 C  
ENDBRANCH  15  16
ENDBRANCH  13  15
ENDBRANCH  11  13
BRANCH  12  20
HETATM   20  C   UNL     1     -12.039  14.697  68.118  1.00  0.00    -0.199 A  
HETATM   21  O   UNL     1     -10.965  17.520  68.273  1.00  0.00    -0.290 OA 
HETATM   22  C   UNL     1     -12.447  13.474  67.542  1.00  0.00     0.140 A  
HETATM   23  O   UNL     1     -13.100  17.974  68.058  1.00  0.00     5.179 OA 
HETATM   24  C   UNL     1     -13.105  13.439  66.312  1.00  0.00     0.835 A  
HETATM   25  N   UNL     1     -12.125  17.215  67.976  1.00  0.00     1.378 N  
HETATM   26  C   UNL     1     -12.380  15.883  67.429  1.00  0.00     1.485 A  
HETATM   27  C   UNL     1     -13.375  14.618  65.623  1.00  0.00     0.878 A  
HETATM   28  C   UNL     1     -13.025  15.844  66.183  1.00  0.00     3.426 A  
ENDBRANCH  12  20
ENDBRANCH   3   5
ENDBRANCH   2   3
TORSDOF 6
ENDMDL
MODEL      235
REMARK 921   NORMALIZED FREE ENERGY PREDICTED BY IDOCK:   35.06 KCAL/MOL
REMARK 922        TOTAL FREE ENERGY PREDICTED BY IDOCK:   46.76 KCAL/MOL
REMARK 923 INTER-LIGAND FREE ENERGY PREDICTED BY IDOCK:   42.56 KCAL/MOL
REMARK 924 INTRA-LIGAND FREE ENERGY PREDICTED BY IDOCK:    4.20 KCAL/MOL
REMARK 927      BINDING AFFINITY PREDICTED BY RF-SCORE:    0.00 PKD
ROOT
HETATM    1  C   UNL     1      -7.834  19.551  64.340  1.00  0.00     3.275 C  
HETATM    2  O   UNL     1      -7.195  19.087  65.535  1.00  0.00    -0.466 OA 
ENDROOT
BRANCH   2   3
HETATM    3  C   UNL     1      -7.938  18.233  66.275  1.00  0.00    -0.234 C  
HETATM    4  O   UNL     1      -9.095  17.923  66.019  1.00  0.00    -0.504 OA 
BRANCH   3   5
HETATM    5  C   UNL     1      -7.194  17.778  67.483  1.00  0.00    -0.201 C  
HETATM    6  C   UNL     1      -5.971  17.216  67.335  1.00  0.00    -0.145 C  
HETATM    7  C   UNL     1      -5.177  17.092  66.052  1.00  0.00     0.349 C  
HETATM    8  N   UNL     1      -5.347  16.649  68.430  1.00  0.00    -0.115 NA 
HETATM    9  C   UNL     1      -5.941  16.418  69.657  1.00  0.00    -0.191 C  
HETATM   10  C   UNL     1      -5.139  15.531  70.582  1.00  0.00    -0.145 C  
HETATM   11  C   UNL     1      -7.163  16.943  69.935  1.00  0.00     0.673 C  
HETATM   12  C   UNL     1      -7.903  17.791  68.872  1.00  0.00    -0.186 C  
BRANCH  11  13
HETATM   13  C   UNL     1      -7.808  16.613  71.242  1.00  0.00     6.548 C  
HETATM   14  O   UNL     1      -7.430  15.707  71.974  1.00  0.00     4.438 OA 
BRANCH  13  15
HETATM   15  O   UNL     1      -8.909  17.369  71.485  1.00  0.00     8.438 OA 
BRANCH  15  16
HETATM   16  C   UNL     1      -8.739  18.349  72.529  1.00  0.00    13.408 C  
HETATM   17  C   UNL     1      -7.003  19.754  71.286  1.00  0.00     0.815 C  
HETATM   18  C   UNL     1      -8.336  19.745  72.034  1.00  0.00     3.433 C  
HETATM   19  C   UNL     1      -9.426  20.380  71.174  1.00  0.00     2.031 C  
ENDBRANCH  15  16
ENDBRANCH  13  15
ENDBRANCH  11  13
BRANCH  12  20
HETATM   20  C   UNL     1      -9.367  17.356  68.701  1.00  0.00    -0.267 A  
HETATM   21  O   UNL     1      -9.471  20.277  67.926  1.00  0.00    -0.335 OA 
HETATM   22  C   UNL     1      -9.652  15.974  68.664  1.00  0.00    -0.222 A  
HETATM   23  O   UNL     1     -11.093  20.253  69.401  1.00  0.00     0.918 OA 
HETATM   24  C   UNL     1     -10.934  15.508  68.368  1.00  0.00    -0.297 A  
HETATM   25  N   UNL     1     -10.310  19.695  68.622  1.00  0.00    -0.379 N  
HETATM   26  C   UNL     1     -10.444  18.246  68.489  1.00  0.00    -0.216 A  
HETATM   27  C   UNL     1     -11.965  16.404  68.102  1.00  0.00     0.568 A  
HETATM   28  C   UNL     1     -11.729  17.775  68.173  1.00  0.00     1.570 A  
ENDBRANCH  12  20
ENDBRANCH   3   5
ENDBRANCH   2   3
TORSDOF 6
ENDMDL
MODEL      236
REMARK 921   NORMALIZED FREE ENERGY PREDICTED BY IDOCK:   39.27 KCAL/MOL
REMARK 922        TOTAL FREE ENERGY PREDICTED BY IDOCK:   52.44 KCAL/MOL
REMARK 923 INTER-LIGAND FREE ENERGY PREDICTED BY IDOCK:   37.74 KCAL/MOL
REMARK 924 INTRA-LIGAND FREE ENERGY PREDICTED BY IDOCK:   14.70 KCAL/MOL
REMARK 927      BINDING AFFINITY PREDICTED BY RF-SCORE:    0.00 PKD
ROOT
HETATM    1  C   UNL     1     -10.221   5.763  72.374  1.00  0.00    -0.190 C  
HETATM    2  O   UNL     1     -10.760   5.521  71.070  1.00  0.00    -0.244 OA 
ENDROOT
BRANCH   2   3
HETATM    3  C   UNL     1      -9.837   5.256  70.119  1.00  0.00    -0.220 C  
HETATM    4  O   UNL     1      -9.313   4.162  69.950  1.00  0.00    -0.129 OA 
BRANCH   3   5
HETATM    5  C   UNL     1      -9.484   6.483  69.351  1.00  0.00    -0.147 C  
HETATM    6  C   UNL     1      -9.811   7.697  69.854  1.00  0.00    -0.184 C  
HETATM    7  C   UNL     1     -10.413   7.985  71.213  1.00  0.00    -0.238 C  
HETATM    8  N   UNL     1      -9.630   8.826  69.078  1.00  0.00    -0.160 NA 
HETATM    9  C   UNL     1      -9.320   8.827  67.730  1.00  0.00    -0.141 C  
HETATM   10  C   UNL     1      -9.463  10.174  67.058  1.00  0.00    -0.197 C  
HETATM   11  C   UNL     1      -8.959   7.673  67.111  1.00  0.00    -0.137 C  
HETATM   12  C   UNL     1      -8.907   6.347  67.908  1.00  0.00    -0.113 C  
BRANCH  11  13
HETATM   13  C   UNL     1      -8.703   7.697  65.639  1.00  0.00    -0.092 C  
HETATM   14  O   UNL     1      -8.802   6.712  64.918  1.00  0.00     0.150 OA 
BRANCH  13  15
HETATM   15  O   UNL     1      -8.264   8.907  65.206  1.00  0.00    -0.121 OA 
BRANCH  15  16
HETATM   16  C   UNL     1      -9.308   9.788  64.745  1.00  0.00    -0.265 C  
HETATM   17  C   UNL     1      -9.640   8.637  62.488  1.00  0.00     1.820 C  
HETATM   18  C   UNL     1     -10.302   9.143  63.769  1.00  0.00     4.187 C  
HETATM   19  C   UNL     1     -11.099   8.021  64.429  1.00  0.00    12.709 C  
ENDBRANCH  15  16
ENDBRANCH  13  15
ENDBRANCH  11  13
BRANCH  12  20
HETATM   20  C   UNL     1      -9.628   5.204  67.177  1.00  0.00    -0.156 A  
HETATM   21  O   UNL     1     -11.918   6.649  68.524  1.00  0.00     0.648 OA 
HETATM   22  C   UNL     1      -8.922   4.502  66.177  1.00  0.00    -0.120 A  
HETATM   23  O   UNL     1     -12.342   4.611  69.214  1.00  0.00     9.438 OA 
HETATM   24  C   UNL     1      -9.556   3.551  65.376  1.00  0.00    -0.132 A  
HETATM   25  N   UNL     1     -11.792   5.421  68.457  1.00  0.00     3.064 N  
HETATM   26  C   UNL     1     -10.984   4.860  67.376  1.00  0.00     0.935 A  
HETATM   27  C   UNL     1     -10.909   3.274  65.550  1.00  0.00     1.813 A  
HETATM   28  C   UNL     1     -11.625   3.917  66.557  1.00  0.00     5.967 A  
ENDBRANCH  12  20
ENDBRANCH   3   5
ENDBRANCH   2   3
TORSDOF 6
ENDMDL
MODEL      237
REMARK 921   NORMALIZED FREE ENERGY PREDICTED BY IDOCK:   43.64 KCAL/MOL
REMARK 922        TOTAL FREE ENERGY PREDICTED BY IDOCK:   58.34 KCAL/MOL
REMARK 923 INTER-LIGAND FREE ENERGY PREDICTED BY IDOCK:   51.87 KCAL/MOL
REMARK 924 INTRA-LIGAND FREE ENERGY PREDICTED BY IDOCK:    6.47 KCAL/MOL
REMARK 927      BINDING AFFINITY PREDICTED BY RF-SCORE:    0.00 PKD
ROOT
HETATM    1  C   UNL     1     -13.378  14.129  71.252  1.00  0.00    -0.302 C  
HETATM    2  O   UNL     1     -13.926  15.303  70.642  1.00  0.00    -0.181 OA 
ENDROOT
BRANCH   2   3
HETATM    3  C   UNL     1     -13.197  16.426  70.825  1.00  0.00     2.606 C  
HETATM    4  O   UNL     1     -13.673  17.551  70.927  1.00  0.00    11.090 OA 
BRANCH   3   5
HETATM    5  C   UNL     1     -11.737  16.131  70.813  1.00  0.00    -0.333 C  
HETATM    6  C   UNL     1     -10.905  16.872  71.583  1.00  0.00     1.621 C  
HETATM    7  C   UNL     1     -11.300  17.933  72.588  1.00  0.00     2.297 C  
HETATM    8  N   UNL     1      -9.538  16.710  71.457  1.00  0.00     5.208 NA 
HETATM    9  C   UNL     1      -8.908  15.987  70.461  1.00  0.00     2.066 C  
HETATM   10  C   UNL     1      -7.414  16.205  70.381  1.00  0.00     1.549 C  
HETATM   11  C   UNL     1      -9.632  15.190  69.632  1.00  0.00    -0.126 C  
HETATM   12  C   UNL     1     -11.169  15.101  69.789  1.00  0.00    -0.298 C  
BRANCH  11  13
HETATM   13  C   UNL     1      -8.928  14.481  68.521  1.00  0.00    -0.188 C  
HETATM   14  O   UNL     1      -9.504  13.995  67.556  1.00  0.00    -0.210 OA 
BRANCH  13  15
HETATM   15  O   UNL     1      -7.594  14.359  68.743  1.00  0.00    -0.123 OA 
BRANCH  15  16
HETATM   16  C   UNL     1      -7.174  13.035  69.132  1.00  0.00     0.084 C  
HETATM   17  C   UNL     1      -5.244  13.803  70.621  1.00  0.00    -0.117 C  
HETATM   18  C   UNL     1      -6.512  12.956  70.515  1.00  0.00     0.559 C  
HETATM   19  C   UNL     1      -7.485  13.324  71.632  1.00  0.00     6.971 C  
ENDBRANCH  15  16
ENDBRANCH  13  15
ENDBRANCH  11  13
BRANCH  12  20
HETATM   20  C   UNL     1     -11.898  15.263  68.446  1.00  0.00    -0.283 A  
HETATM   21  O   UNL     1     -13.380  12.946  69.705  1.00  0.00     1.484 OA 
HETATM   22  C   UNL     1     -11.696  16.454  67.717  1.00  0.00     0.360 A  
HETATM   23  O   UNL     1     -12.921  12.046  67.759  1.00  0.00     1.870 OA 
HETATM   24  C   UNL     1     -12.433  16.731  66.565  1.00  0.00     4.120 A  
HETATM   25  N   UNL     1     -13.045  13.016  68.517  1.00  0.00     2.203 N  
HETATM   26  C   UNL     1     -12.832  14.337  67.928  1.00  0.00     1.381 A  
HETATM   27  C   UNL     1     -13.391  15.830  66.109  1.00  0.00     4.143 A  
HETATM   28  C   UNL     1     -13.586  14.625  66.780  1.00  0.00     4.417 A  
ENDBRANCH  12  20
ENDBRANCH   3   5
ENDBRANCH   2   3
TORSDOF 6
ENDMDL
