MODEL        1
REMARK 921   NORMALIZED FREE ENERGY PREDICTED BY IDOCK:   -7.43 KCAL/MOL
REMARK 922        TOTAL FREE ENERGY PREDICTED BY IDOCK:   -8.66 KCAL/MOL
REMARK 923 INTER-LIGAND FREE ENERGY PREDICTED BY IDOCK:   -8.30 KCAL/MOL
REMARK 924 INTRA-LIGAND FREE ENERGY PREDICTED BY IDOCK:   -0.36 KCAL/MOL
REMARK 927      BINDING AFFINITY PREDICTED BY RF-SCORE:    0.00 PKD
ROOT
HETATM    1  O   UNL     1     -11.312  15.317  66.309  1.00  0.00    -0.280 OA 
HETATM    2  N   UNL     1     -10.769  15.423  67.417  1.00  0.00    -0.291 N  
HETATM    3  C   UNL     1     -11.220  14.498  68.447  1.00  0.00    -0.271 A  
HETATM    4  O   UNL     1      -9.969  16.300  67.766  1.00  0.00    -0.239 OA 
HETATM    5  C   UNL     1     -11.082  13.112  68.287  1.00  0.00    -0.295 A  
HETATM    6  C   UNL     1     -11.594  12.281  69.291  1.00  0.00    -0.383 A  
HETATM    7  C   UNL     1     -13.266  14.797  71.653  1.00  0.00    -0.349 C  
HETATM    8  C   UNL     1     -12.281  12.824  70.387  1.00  0.00    -0.371 A  
HETATM    9  C   UNL     1     -11.898  15.053  69.544  1.00  0.00    -0.360 A  
HETATM   10  F   UNL     1     -12.531  15.628  72.436  1.00  0.00    -0.365 F  
HETATM   11  C   UNL     1     -12.458  14.211  70.513  1.00  0.00    -0.431 A  
HETATM   12  F   UNL     1     -13.797  13.859  72.482  1.00  0.00    -0.518 F  
HETATM   13  F   UNL     1     -14.315  15.535  71.199  1.00  0.00    -0.555 F  
ENDROOT
BRANCH   5  14
HETATM   14  C   UNL     1     -10.384  12.519  67.112  1.00  0.00    -0.220 C  
HETATM   15  O   UNL     1      -9.199  12.800  66.956  1.00  0.00    -0.207 OA 
BRANCH  14  16
HETATM   16  C   UNL     1     -11.131  11.592  66.173  1.00  0.00    -0.335 C  
HETATM   17  C   UNL     1     -10.036  11.687  63.396  1.00  0.00    -0.468 C  
HETATM   18  C   UNL     1     -10.894  12.827  63.930  1.00  0.00    -0.447 C  
HETATM   19  C   UNL     1     -11.798  12.329  65.036  1.00  0.00    -0.357 C  
HETATM   20  O   UNL     1     -12.998  12.595  65.057  1.00  0.00    -0.812 OA 
HETATM   21  C   UNL     1      -9.276  10.960  64.501  1.00  0.00    -0.226 C  
HETATM   22  C   UNL     1     -10.236  10.521  65.589  1.00  0.00    -0.246 C  
HETATM   23  O   UNL     1     -10.273   9.358  65.989  1.00  0.00    -0.269 OA 
ENDBRANCH  14  16
ENDBRANCH   5  14
TORSDOF 2
ENDMDL
MODEL        2
REMARK 921   NORMALIZED FREE ENERGY PREDICTED BY IDOCK:   -7.34 KCAL/MOL
REMARK 922        TOTAL FREE ENERGY PREDICTED BY IDOCK:   -8.56 KCAL/MOL
REMARK 923 INTER-LIGAND FREE ENERGY PREDICTED BY IDOCK:   -7.82 KCAL/MOL
REMARK 924 INTRA-LIGAND FREE ENERGY PREDICTED BY IDOCK:   -0.74 KCAL/MOL
REMARK 927      BINDING AFFINITY PREDICTED BY RF-SCORE:    0.00 PKD
ROOT
HETATM    1  O   UNL     1     -10.739  14.819  70.066  1.00  0.00    -0.184 OA 
HETATM    2  N   UNL     1     -11.467  15.429  69.271  1.00  0.00    -0.309 N  
HETATM    3  C   UNL     1     -10.816  15.970  68.085  1.00  0.00    -0.322 A  
HETATM    4  O   UNL     1     -12.659  15.717  69.433  1.00  0.00    -0.087 OA 
HETATM    5  C   UNL     1     -10.172  15.130  67.165  1.00  0.00    -0.247 A  
HETATM    6  C   UNL     1      -9.515  15.726  66.082  1.00  0.00    -0.375 A  
HETATM    7  C   UNL     1      -9.927  19.463  66.837  1.00  0.00    -0.369 C  
HETATM    8  C   UNL     1      -9.452  17.122  65.963  1.00  0.00    -0.167 A  
HETATM    9  C   UNL     1     -10.767  17.369  67.972  1.00  0.00    -0.359 A  
HETATM   10  F   UNL     1     -11.129  20.082  66.707  1.00  0.00    -0.518 F  
HETATM   11  C   UNL     1     -10.058  17.955  66.917  1.00  0.00    -0.348 A  
HETATM   12  F   UNL     1      -9.163  19.887  65.795  1.00  0.00    -0.384 F  
HETATM   13  F   UNL     1      -9.354  19.979  67.958  1.00  0.00    -0.397 F  
ENDROOT
BRANCH   5  14
HETATM   14  C   UNL     1     -10.201  13.647  67.297  1.00  0.00    -0.246 C  
HETATM   15  O   UNL     1      -9.206  13.099  67.762  1.00  0.00    -0.186 OA 
BRANCH  14  16
HETATM   16  C   UNL     1     -11.437  12.872  66.881  1.00  0.00    -0.393 C  
HETATM   17  C   UNL     1     -11.019  11.382  64.326  1.00  0.00    -0.390 C  
HETATM   18  C   UNL     1     -11.221  12.891  64.318  1.00  0.00    -0.408 C  
HETATM   19  C   UNL     1     -11.987  13.324  65.549  1.00  0.00    -0.405 C  
HETATM   20  O   UNL     1     -12.950  14.084  65.476  1.00  0.00    -0.681 OA 
HETATM   21  C   UNL     1     -10.388  10.883  65.622  1.00  0.00    -0.305 C  
HETATM   22  C   UNL     1     -11.184  11.381  66.812  1.00  0.00    -0.252 C  
HETATM   23  O   UNL     1     -11.589  10.616  67.686  1.00  0.00    -0.492 OA 
ENDBRANCH  14  16
ENDBRANCH   5  14
TORSDOF 2
ENDMDL
MODEL        3
REMARK 921   NORMALIZED FREE ENERGY PREDICTED BY IDOCK:   -7.28 KCAL/MOL
REMARK 922        TOTAL FREE ENERGY PREDICTED BY IDOCK:   -8.49 KCAL/MOL
REMARK 923 INTER-LIGAND FREE ENERGY PREDICTED BY IDOCK:   -8.02 KCAL/MOL
REMARK 924 INTRA-LIGAND FREE ENERGY PREDICTED BY IDOCK:   -0.47 KCAL/MOL
REMARK 927      BINDING AFFINITY PREDICTED BY RF-SCORE:    0.00 PKD
ROOT
HETATM    1  O   UNL     1      -9.851  10.851  69.244  1.00  0.00    -0.185 OA 
HETATM    2  N   UNL     1     -11.081  10.955  69.339  1.00  0.00    -0.241 N  
HETATM    3  C   UNL     1     -11.612  12.309  69.411  1.00  0.00    -0.314 A  
HETATM    4  O   UNL     1     -11.890  10.030  69.489  1.00  0.00    -0.076 OA 
HETATM    5  C   UNL     1     -11.413  13.221  68.365  1.00  0.00    -0.349 A  
HETATM    6  C   UNL     1     -11.898  14.525  68.530  1.00  0.00    -0.355 A  
HETATM    7  C   UNL     1     -13.233  14.446  72.123  1.00  0.00    -0.384 C  
HETATM    8  C   UNL     1     -12.503  14.915  69.733  1.00  0.00    -0.222 A  
HETATM    9  C   UNL     1     -12.223  12.687  70.617  1.00  0.00    -0.373 A  
HETATM   10  F   UNL     1     -14.367  13.769  72.442  1.00  0.00    -0.574 F  
HETATM   11  C   UNL     1     -12.652  14.008  70.794  1.00  0.00    -0.431 A  
HETATM   12  F   UNL     1     -13.550  15.767  72.169  1.00  0.00    -0.485 F  
HETATM   13  F   UNL     1     -12.364  14.231  73.148  1.00  0.00    -0.332 F  
ENDROOT
BRANCH   5  14
HETATM   14  C   UNL     1     -10.742  12.830  67.094  1.00  0.00    -0.245 C  
HETATM   15  O   UNL     1      -9.657  13.346  66.844  1.00  0.00    -0.241 OA 
BRANCH  14  16
HETATM   16  C   UNL     1     -11.391  11.813  66.174  1.00  0.00    -0.342 C  
HETATM   17  C   UNL     1     -10.164  11.821  63.451  1.00  0.00    -0.482 C  
HETATM   18  C   UNL     1     -11.106  12.938  63.879  1.00  0.00    -0.454 C  
HETATM   19  C   UNL     1     -12.037  12.450  64.966  1.00  0.00    -0.407 C  
HETATM   20  O   UNL     1     -13.249  12.649  64.916  1.00  0.00    -0.819 OA 
HETATM   21  C   UNL     1      -9.423  11.198  64.630  1.00  0.00    -0.245 C  
HETATM   22  C   UNL     1     -10.411  10.765  65.693  1.00  0.00    -0.230 C  
HETATM   23  O   UNL     1     -10.406   9.624  66.156  1.00  0.00    -0.230 OA 
ENDBRANCH  14  16
ENDBRANCH   5  14
TORSDOF 2
ENDMDL
MODEL        4
REMARK 921   NORMALIZED FREE ENERGY PREDICTED BY IDOCK:   -7.25 KCAL/MOL
REMARK 922        TOTAL FREE ENERGY PREDICTED BY IDOCK:   -8.46 KCAL/MOL
REMARK 923 INTER-LIGAND FREE ENERGY PREDICTED BY IDOCK:   -8.10 KCAL/MOL
REMARK 924 INTRA-LIGAND FREE ENERGY PREDICTED BY IDOCK:   -0.36 KCAL/MOL
REMARK 927      BINDING AFFINITY PREDICTED BY RF-SCORE:    0.00 PKD
ROOT
HETATM    1  O   UNL     1     -10.603  10.744  69.434  1.00  0.00    -0.219 OA 
HETATM    2  N   UNL     1     -11.710  11.206  69.738  1.00  0.00    -0.312 N  
HETATM    3  C   UNL     1     -11.845  12.655  69.675  1.00  0.00    -0.311 A  
HETATM    4  O   UNL     1     -12.673  10.576  70.193  1.00  0.00    -0.287 OA 
HETATM    5  C   UNL     1     -11.662  13.347  68.469  1.00  0.00    -0.392 A  
HETATM    6  C   UNL     1     -11.745  14.745  68.496  1.00  0.00    -0.347 A  
HETATM    7  C   UNL     1     -12.204  15.459  72.235  1.00  0.00    -0.391 C  
HETATM    8  C   UNL     1     -11.941  15.426  69.707  1.00  0.00    -0.381 A  
HETATM    9  C   UNL     1     -12.049  13.326  70.891  1.00  0.00    -0.242 A  
HETATM   10  F   UNL     1     -13.370  15.177  72.872  1.00  0.00    -0.435 F  
HETATM   11  C   UNL     1     -12.073  14.726  70.916  1.00  0.00    -0.387 A  
HETATM   12  F   UNL     1     -12.153  16.812  72.113  1.00  0.00    -0.430 F  
HETATM   13  F   UNL     1     -11.209  15.122  73.101  1.00  0.00    -0.458 F  
ENDROOT
BRANCH   5  14
HETATM   14  C   UNL     1     -11.421  12.638  67.182  1.00  0.00    -0.346 C  
HETATM   15  O   UNL     1     -12.286  11.859  66.793  1.00  0.00    -0.489 OA 
BRANCH  14  16
HETATM   16  C   UNL     1     -10.154  12.907  66.393  1.00  0.00    -0.272 C  
HETATM   17  C   UNL     1     -10.277  11.745  63.644  1.00  0.00    -0.461 C  
HETATM   18  C   UNL     1     -10.057  10.848  64.855  1.00  0.00    -0.374 C  
HETATM   19  C   UNL     1      -9.441  11.638  65.987  1.00  0.00    -0.229 C  
HETATM   20  O   UNL     1      -8.467  11.221  66.610  1.00  0.00    -0.158 OA 
HETATM   21  C   UNL     1     -11.067  13.004  63.985  1.00  0.00    -0.433 C  
HETATM   22  C   UNL     1     -10.415  13.727  65.147  1.00  0.00    -0.384 C  
HETATM   23  O   UNL     1     -10.128  14.922  65.089  1.00  0.00    -0.365 OA 
ENDBRANCH  14  16
ENDBRANCH   5  14
TORSDOF 2
ENDMDL
MODEL        5
REMARK 921   NORMALIZED FREE ENERGY PREDICTED BY IDOCK:   -7.19 KCAL/MOL
REMARK 922        TOTAL FREE ENERGY PREDICTED BY IDOCK:   -8.40 KCAL/MOL
REMARK 923 INTER-LIGAND FREE ENERGY PREDICTED BY IDOCK:   -7.92 KCAL/MOL
REMARK 924 INTRA-LIGAND FREE ENERGY PREDICTED BY IDOCK:   -0.48 KCAL/MOL
REMARK 927      BINDING AFFINITY PREDICTED BY RF-SCORE:    0.00 PKD
ROOT
HETATM    1  O   UNL     1      -7.735  15.178  68.716  1.00  0.00    -0.125 OA 
HETATM    2  N   UNL     1      -7.682  14.593  67.627  1.00  0.00    -0.161 N  
HETATM    3  C   UNL     1      -8.818  14.780  66.736  1.00  0.00    -0.252 A  
HETATM    4  O   UNL     1      -6.818  13.783  67.266  1.00  0.00    -0.194 OA 
HETATM    5  C   UNL     1      -9.165  16.054  66.263  1.00  0.00    -0.368 A  
HETATM    6  C   UNL     1     -10.307  16.168  65.460  1.00  0.00    -0.391 A  
HETATM    7  C   UNL     1     -11.687  12.590  65.501  1.00  0.00    -0.409 C  
HETATM    8  C   UNL     1     -11.109  15.048  65.197  1.00  0.00    -0.408 A  
HETATM    9  C   UNL     1      -9.610  13.651  66.472  1.00  0.00    -0.294 A  
HETATM   10  F   UNL     1     -11.068  11.586  64.828  1.00  0.00    -0.356 F  
HETATM   11  C   UNL     1     -10.781  13.786  65.716  1.00  0.00    -0.281 A  
HETATM   12  F   UNL     1     -12.815  12.882  64.801  1.00  0.00    -0.487 F  
HETATM   13  F   UNL     1     -12.104  12.055  66.680  1.00  0.00    -0.368 F  
ENDROOT
BRANCH   5  14
HETATM   14  C   UNL     1      -8.340  17.258  66.562  1.00  0.00    -0.277 C  
HETATM   15  O   UNL     1      -7.539  17.623  65.707  1.00  0.00    -0.530 OA 
BRANCH  14  16
HETATM   16  C   UNL     1      -8.522  17.996  67.874  1.00  0.00    -0.253 C  
HETATM   17  C   UNL     1      -9.993  20.571  67.519  1.00  0.00    -0.497 C  
HETATM   18  C   UNL     1      -8.536  20.446  67.092  1.00  0.00    -0.402 C  
HETATM   19  C   UNL     1      -7.852  19.350  67.878  1.00  0.00    -0.290 C  
HETATM   20  O   UNL     1      -6.758  19.525  68.411  1.00  0.00    -0.260 OA 
HETATM   21  C   UNL     1     -10.737  19.242  67.454  1.00  0.00    -0.594 C  
HETATM   22  C   UNL     1      -9.981  18.184  68.232  1.00  0.00    -0.369 C  
HETATM   23  O   UNL     1     -10.527  17.501  69.097  1.00  0.00    -0.347 OA 
ENDBRANCH  14  16
ENDBRANCH   5  14
TORSDOF 2
ENDMDL
MODEL        6
REMARK 921   NORMALIZED FREE ENERGY PREDICTED BY IDOCK:   -7.09 KCAL/MOL
REMARK 922        TOTAL FREE ENERGY PREDICTED BY IDOCK:   -8.28 KCAL/MOL
REMARK 923 INTER-LIGAND FREE ENERGY PREDICTED BY IDOCK:   -7.85 KCAL/MOL
REMARK 924 INTRA-LIGAND FREE ENERGY PREDICTED BY IDOCK:   -0.43 KCAL/MOL
REMARK 927      BINDING AFFINITY PREDICTED BY RF-SCORE:    0.00 PKD
ROOT
HETATM    1  O   UNL     1     -11.312  16.547  63.889  1.00  0.00    -1.057 OA 
HETATM    2  N   UNL     1     -11.864  15.546  64.363  1.00  0.00    -0.322 N  
HETATM    3  C   UNL     1     -11.014  14.637  65.118  1.00  0.00    -0.386 A  
HETATM    4  O   UNL     1     -13.032  15.186  64.168  1.00  0.00    -0.477 OA 
HETATM    5  C   UNL     1     -10.344  15.063  66.274  1.00  0.00    -0.304 A  
HETATM    6  C   UNL     1      -9.495  14.152  66.914  1.00  0.00    -0.275 A  
HETATM    7  C   UNL     1      -9.619  11.131  64.556  1.00  0.00    -0.250 C  
HETATM    8  C   UNL     1      -9.276  12.877  66.373  1.00  0.00    -0.144 A  
HETATM    9  C   UNL     1     -10.809  13.360  64.572  1.00  0.00    -0.419 A  
HETATM   10  F   UNL     1     -10.724  10.347  64.469  1.00  0.00    -0.348 F  
HETATM   11  C   UNL     1      -9.912  12.477  65.188  1.00  0.00    -0.212 A  
HETATM   12  F   UNL     1      -8.687  10.406  65.231  1.00  0.00    -0.152 F  
HETATM   13  F   UNL     1      -9.147  11.262  63.287  1.00  0.00    -0.219 F  
ENDROOT
BRANCH   5  14
HETATM   14  C   UNL     1     -10.541  16.426  66.842  1.00  0.00    -0.252 C  
HETATM   15  O   UNL     1     -11.406  16.562  67.703  1.00  0.00    -0.119 OA 
BRANCH  14  16
HETATM   16  C   UNL     1      -9.677  17.579  66.369  1.00  0.00    -0.299 C  
HETATM   17  C   UNL     1      -8.795  19.321  68.629  1.00  0.00    -0.415 C  
HETATM   18  C   UNL     1     -10.226  19.387  68.113  1.00  0.00    -0.537 C  
HETATM   19  C   UNL     1     -10.286  18.927  66.674  1.00  0.00    -0.417 C  
HETATM   20  O   UNL     1     -10.886  19.570  65.815  1.00  0.00    -0.453 OA 
HETATM   21  C   UNL     1      -8.160  17.950  68.418  1.00  0.00    -0.302 C  
HETATM   22  C   UNL     1      -8.286  17.538  66.965  1.00  0.00    -0.219 C  
HETATM   23  O   UNL     1      -7.312  17.171  66.309  1.00  0.00    -0.273 OA 
ENDBRANCH  14  16
ENDBRANCH   5  14
TORSDOF 2
ENDMDL
MODEL        7
REMARK 921   NORMALIZED FREE ENERGY PREDICTED BY IDOCK:   -6.89 KCAL/MOL
REMARK 922        TOTAL FREE ENERGY PREDICTED BY IDOCK:   -8.06 KCAL/MOL
REMARK 923 INTER-LIGAND FREE ENERGY PREDICTED BY IDOCK:   -7.26 KCAL/MOL
REMARK 924 INTRA-LIGAND FREE ENERGY PREDICTED BY IDOCK:   -0.80 KCAL/MOL
REMARK 927      BINDING AFFINITY PREDICTED BY RF-SCORE:    0.00 PKD
ROOT
HETATM    1  O   UNL     1     -11.110  17.132  67.745  1.00  0.00    -0.263 OA 
HETATM    2  N   UNL     1     -10.441  16.521  68.589  1.00  0.00    -0.284 N  
HETATM    3  C   UNL     1     -11.137  15.483  69.337  1.00  0.00    -0.291 A  
HETATM    4  O   UNL     1      -9.280  16.775  68.936  1.00  0.00    -0.252 OA 
HETATM    5  C   UNL     1     -11.700  14.375  68.686  1.00  0.00    -0.367 A  
HETATM    6  C   UNL     1     -12.408  13.449  69.461  1.00  0.00    -0.155 A  
HETATM    7  C   UNL     1     -12.344  15.077  72.932  1.00  0.00    -0.363 C  
HETATM    8  C   UNL     1     -12.599  13.663  70.834  1.00  0.00    -0.421 A  
HETATM    9  C   UNL     1     -11.315  15.703  70.712  1.00  0.00    -0.400 A  
HETATM   10  F   UNL     1     -11.205  15.126  73.670  1.00  0.00    -0.224 F  
HETATM   11  C   UNL     1     -12.074  14.801  71.467  1.00  0.00    -0.411 A  
HETATM   12  F   UNL     1     -13.143  14.149  73.522  1.00  0.00    -0.512 F  
HETATM   13  F   UNL     1     -12.964  16.276  73.113  1.00  0.00    -0.499 F  
ENDROOT
BRANCH   5  14
HETATM   14  C   UNL     1     -11.533  14.152  67.223  1.00  0.00    -0.350 C  
HETATM   15  O   UNL     1     -12.513  14.337  66.506  1.00  0.00    -0.428 OA 
BRANCH  14  16
HETATM   16  C   UNL     1     -10.187  13.730  66.667  1.00  0.00    -0.276 C  
HETATM   17  C   UNL     1      -9.964  10.764  66.394  1.00  0.00    -0.264 C  
HETATM   18  C   UNL     1      -9.873  11.426  67.763  1.00  0.00    -0.186 C  
HETATM   19  C   UNL     1      -9.409  12.858  67.624  1.00  0.00    -0.195 C  
HETATM   20  O   UNL     1      -8.509  13.316  68.324  1.00  0.00    -0.161 OA 
HETATM   21  C   UNL     1     -10.810  11.568  65.412  1.00  0.00    -0.318 C  
HETATM   22  C   UNL     1     -10.313  12.998  65.348  1.00  0.00    -0.300 C  
HETATM   23  O   UNL     1     -10.042  13.543  64.278  1.00  0.00    -0.336 OA 
ENDBRANCH  14  16
ENDBRANCH   5  14
TORSDOF 2
ENDMDL
MODEL        8
REMARK 921   NORMALIZED FREE ENERGY PREDICTED BY IDOCK:   -6.86 KCAL/MOL
REMARK 922        TOTAL FREE ENERGY PREDICTED BY IDOCK:   -8.02 KCAL/MOL
REMARK 923 INTER-LIGAND FREE ENERGY PREDICTED BY IDOCK:   -7.23 KCAL/MOL
REMARK 924 INTRA-LIGAND FREE ENERGY PREDICTED BY IDOCK:   -0.80 KCAL/MOL
REMARK 927      BINDING AFFINITY PREDICTED BY RF-SCORE:    0.00 PKD
ROOT
HETATM    1  O   UNL     1     -11.506  15.158  66.697  1.00  0.00    -0.300 OA 
HETATM    2  N   UNL     1     -10.768  15.043  67.685  1.00  0.00    -0.268 N  
HETATM    3  C   UNL     1     -11.281  14.240  68.785  1.00  0.00    -0.262 A  
HETATM    4  O   UNL     1      -9.694  15.629  67.875  1.00  0.00    -0.211 OA 
HETATM    5  C   UNL     1     -11.591  12.883  68.608  1.00  0.00    -0.353 A  
HETATM    6  C   UNL     1     -12.139  12.189  69.693  1.00  0.00    -0.283 A  
HETATM    7  C   UNL     1     -12.538  14.959  72.313  1.00  0.00    -0.334 C  
HETATM    8  C   UNL     1     -12.426  12.852  70.895  1.00  0.00    -0.383 A  
HETATM    9  C   UNL     1     -11.556  14.912  69.987  1.00  0.00    -0.331 A  
HETATM   10  F   UNL     1     -11.462  15.498  72.943  1.00  0.00    -0.526 F  
HETATM   11  C   UNL     1     -12.158  14.221  71.046  1.00  0.00    -0.416 A  
HETATM   12  F   UNL     1     -13.166  14.177  73.231  1.00  0.00    -0.592 F  
HETATM   13  F   UNL     1     -13.385  15.994  72.059  1.00  0.00    -0.513 F  
ENDROOT
BRANCH   5  14
HETATM   14  C   UNL     1     -11.323  12.174  67.326  1.00  0.00    -0.334 C  
HETATM   15  O   UNL     1     -12.285  11.921  66.606  1.00  0.00    -0.493 OA 
BRANCH  14  16
HETATM   16  C   UNL     1      -9.902  11.808  66.943  1.00  0.00    -0.221 C  
HETATM   17  C   UNL     1      -9.224   8.999  67.700  1.00  0.00    -0.150 C  
HETATM   18  C   UNL     1      -9.303  10.090  68.760  1.00  0.00    -0.162 C  
HETATM   19  C   UNL     1      -9.052  11.445  68.138  1.00  0.00    -0.174 C  
HETATM   20  O   UNL     1      -8.267  12.249  68.636  1.00  0.00    -0.115 OA 
HETATM   21  C   UNL     1     -10.130   9.279  66.505  1.00  0.00    -0.343 C  
HETATM   22  C   UNL     1      -9.850  10.663  65.954  1.00  0.00    -0.243 C  
HETATM   23  O   UNL     1      -9.609  10.849  64.762  1.00  0.00    -0.219 OA 
ENDBRANCH  14  16
ENDBRANCH   5  14
TORSDOF 2
ENDMDL
MODEL        9
REMARK 921   NORMALIZED FREE ENERGY PREDICTED BY IDOCK:   -6.84 KCAL/MOL
REMARK 922        TOTAL FREE ENERGY PREDICTED BY IDOCK:   -8.00 KCAL/MOL
REMARK 923 INTER-LIGAND FREE ENERGY PREDICTED BY IDOCK:   -7.54 KCAL/MOL
REMARK 924 INTRA-LIGAND FREE ENERGY PREDICTED BY IDOCK:   -0.47 KCAL/MOL
REMARK 927      BINDING AFFINITY PREDICTED BY RF-SCORE:    0.00 PKD
ROOT
HETATM    1  O   UNL     1      -8.425  14.631  68.827  1.00  0.00    -0.162 OA 
HETATM    2  N   UNL     1      -9.391  15.346  69.123  1.00  0.00    -0.230 N  
HETATM    3  C   UNL     1      -9.814  16.308  68.116  1.00  0.00    -0.229 A  
HETATM    4  O   UNL     1      -9.958  15.402  70.222  1.00  0.00    -0.217 OA 
HETATM    5  C   UNL     1     -10.256  15.887  66.853  1.00  0.00    -0.277 A  
HETATM    6  C   UNL     1     -10.588  16.871  65.913  1.00  0.00    -0.239 A  
HETATM    7  C   UNL     1      -9.673  20.103  67.761  1.00  0.00    -0.394 C  
HETATM    8  C   UNL     1     -10.420  18.231  66.212  1.00  0.00    -0.397 A  
HETATM    9  C   UNL     1      -9.650  17.667  68.428  1.00  0.00    -0.310 A  
HETATM   10  F   UNL     1     -10.419  20.559  68.801  1.00  0.00    -0.463 F  
HETATM   11  C   UNL     1      -9.931  18.641  67.462  1.00  0.00    -0.371 A  
HETATM   12  F   UNL     1      -9.934  20.927  66.712  1.00  0.00    -0.534 F  
HETATM   13  F   UNL     1      -8.374  20.327  68.101  1.00  0.00    -0.308 F  
ENDROOT
BRANCH   5  14
HETATM   14  C   UNL     1     -10.407  14.446  66.510  1.00  0.00    -0.281 C  
HETATM   15  O   UNL     1      -9.442  13.879  66.007  1.00  0.00    -0.228 OA 
BRANCH  14  16
HETATM   16  C   UNL     1     -11.711  13.728  66.803  1.00  0.00    -0.420 C  
HETATM   17  C   UNL     1     -11.273  10.873  67.562  1.00  0.00    -0.364 C  
HETATM   18  C   UNL     1     -11.140  11.318  66.111  1.00  0.00    -0.207 C  
HETATM   19  C   UNL     1     -11.958  12.567  65.869  1.00  0.00    -0.409 C  
HETATM   20  O   UNL     1     -12.713  12.667  64.905  1.00  0.00    -0.648 OA 
HETATM   21  C   UNL     1     -10.953  11.992  68.548  1.00  0.00    -0.280 C  
HETATM   22  C   UNL     1     -11.780  13.220  68.227  1.00  0.00    -0.353 C  
HETATM   23  O   UNL     1     -12.460  13.785  69.082  1.00  0.00    -0.216 OA 
ENDBRANCH  14  16
ENDBRANCH   5  14
TORSDOF 2
ENDMDL
MODEL       10
REMARK 921   NORMALIZED FREE ENERGY PREDICTED BY IDOCK:   -6.83 KCAL/MOL
REMARK 922        TOTAL FREE ENERGY PREDICTED BY IDOCK:   -7.99 KCAL/MOL
REMARK 923 INTER-LIGAND FREE ENERGY PREDICTED BY IDOCK:   -7.61 KCAL/MOL
REMARK 924 INTRA-LIGAND FREE ENERGY PREDICTED BY IDOCK:   -0.38 KCAL/MOL
REMARK 927      BINDING AFFINITY PREDICTED BY RF-SCORE:    0.00 PKD
ROOT
HETATM    1  O   UNL     1     -12.242  15.980  69.324  1.00  0.00    -0.226 OA 
HETATM    2  N   UNL     1     -11.552  14.985  69.065  1.00  0.00    -0.302 N  
HETATM    3  C   UNL     1     -11.085  14.864  67.691  1.00  0.00    -0.311 A  
HETATM    4  O   UNL     1     -11.314  14.036  69.822  1.00  0.00    -0.243 OA 
HETATM    5  C   UNL     1     -10.255  15.839  67.120  1.00  0.00    -0.279 A  
HETATM    6  C   UNL     1      -9.896  15.688  65.774  1.00  0.00    -0.386 A  
HETATM    7  C   UNL     1     -11.896  12.583  64.743  1.00  0.00    -0.383 C  
HETATM    8  C   UNL     1     -10.407  14.627  65.013  1.00  0.00    -0.432 A  
HETATM    9  C   UNL     1     -11.597  13.793  66.940  1.00  0.00    -0.394 A  
HETATM   10  F   UNL     1     -11.554  11.344  65.182  1.00  0.00    -0.247 F  
HETATM   11  C   UNL     1     -11.278  13.684  65.581  1.00  0.00    -0.305 A  
HETATM   12  F   UNL     1     -11.543  12.635  63.431  1.00  0.00    -0.476 F  
HETATM   13  F   UNL     1     -13.256  12.632  64.769  1.00  0.00    -0.471 F  
ENDROOT
BRANCH   5  14
HETATM   14  C   UNL     1      -9.730  16.989  67.907  1.00  0.00    -0.263 C  
HETATM   15  O   UNL     1      -8.827  16.762  68.708  1.00  0.00    -0.252 OA 
BRANCH  14  16
HETATM   16  C   UNL     1     -10.297  18.379  67.692  1.00  0.00    -0.427 C  
HETATM   17  C   UNL     1      -8.175  20.358  66.983  1.00  0.00    -0.349 C  
HETATM   18  C   UNL     1      -8.323  19.860  68.415  1.00  0.00    -0.223 C  
HETATM   19  C   UNL     1      -9.739  19.392  68.664  1.00  0.00    -0.433 C  
HETATM   20  O   UNL     1     -10.369  19.742  69.659  1.00  0.00    -0.151 OA 
HETATM   21  C   UNL     1      -8.651  19.335  65.957  1.00  0.00    -0.155 C  
HETATM   22  C   UNL     1     -10.060  18.885  66.285  1.00  0.00    -0.414 C  
HETATM   23  O   UNL     1     -10.961  18.913  65.448  1.00  0.00    -0.493 OA 
ENDBRANCH  14  16
ENDBRANCH   5  14
TORSDOF 2
ENDMDL
MODEL       11
REMARK 921   NORMALIZED FREE ENERGY PREDICTED BY IDOCK:   -6.77 KCAL/MOL
REMARK 922        TOTAL FREE ENERGY PREDICTED BY IDOCK:   -7.93 KCAL/MOL
REMARK 923 INTER-LIGAND FREE ENERGY PREDICTED BY IDOCK:   -7.12 KCAL/MOL
REMARK 924 INTRA-LIGAND FREE ENERGY PREDICTED BY IDOCK:   -0.80 KCAL/MOL
REMARK 927      BINDING AFFINITY PREDICTED BY RF-SCORE:    0.00 PKD
ROOT
HETATM    1  O   UNL     1     -11.769  15.552  66.151  1.00  0.00     0.081 OA 
HETATM    2  N   UNL     1     -10.961  15.392  67.075  1.00  0.00    -0.321 N  
HETATM    3  C   UNL     1     -11.338  14.431  68.102  1.00  0.00    -0.294 A  
HETATM    4  O   UNL     1      -9.925  16.040  67.271  1.00  0.00    -0.235 OA 
HETATM    5  C   UNL     1     -11.554  13.082  67.788  1.00  0.00    -0.385 A  
HETATM    6  C   UNL     1     -11.975  12.228  68.815  1.00  0.00    -0.281 A  
HETATM    7  C   UNL     1     -12.413  14.649  71.755  1.00  0.00    -0.345 C  
HETATM    8  C   UNL     1     -12.233  12.728  70.100  1.00  0.00    -0.320 A  
HETATM    9  C   UNL     1     -11.585  14.941  69.387  1.00  0.00    -0.337 A  
HETATM   10  F   UNL     1     -11.343  15.203  72.382  1.00  0.00    -0.494 F  
HETATM   11  C   UNL     1     -12.061  14.090  70.392  1.00  0.00    -0.426 A  
HETATM   12  F   UNL     1     -12.918  13.720  72.610  1.00  0.00    -0.462 F  
HETATM   13  F   UNL     1     -13.352  15.632  71.670  1.00  0.00    -0.461 F  
ENDROOT
BRANCH   5  14
HETATM   14  C   UNL     1     -11.317  12.543  66.420  1.00  0.00    -0.329 C  
HETATM   15  O   UNL     1     -12.300  12.222  65.759  1.00  0.00    -0.622 OA 
BRANCH  14  16
HETATM   16  C   UNL     1      -9.903  12.426  65.884  1.00  0.00    -0.265 C  
HETATM   17  C   UNL     1      -8.875   9.626  66.033  1.00  0.00    -0.178 C  
HETATM   18  C   UNL     1      -8.977  10.481  67.289  1.00  0.00    -0.145 C  
HETATM   19  C   UNL     1      -8.922  11.949  66.929  1.00  0.00    -0.196 C  
HETATM   20  O   UNL     1      -8.186  12.733  67.524  1.00  0.00    -0.157 OA 
HETATM   21  C   UNL     1      -9.902  10.015  64.976  1.00  0.00    -0.374 C  
HETATM   22  C   UNL     1      -9.815  11.500  64.689  1.00  0.00    -0.246 C  
HETATM   23  O   UNL     1      -9.697  11.934  63.544  1.00  0.00    -0.330 OA 
ENDBRANCH  14  16
ENDBRANCH   5  14
TORSDOF 2
ENDMDL
MODEL       12
REMARK 921   NORMALIZED FREE ENERGY PREDICTED BY IDOCK:   -6.74 KCAL/MOL
REMARK 922        TOTAL FREE ENERGY PREDICTED BY IDOCK:   -7.90 KCAL/MOL
REMARK 923 INTER-LIGAND FREE ENERGY PREDICTED BY IDOCK:   -7.55 KCAL/MOL
REMARK 924 INTRA-LIGAND FREE ENERGY PREDICTED BY IDOCK:   -0.35 KCAL/MOL
REMARK 927      BINDING AFFINITY PREDICTED BY RF-SCORE:    0.00 PKD
ROOT
HETATM    1  O   UNL     1      -9.789  12.587  66.742  1.00  0.00    -0.219 OA 
HETATM    2  N   UNL     1     -10.982  12.304  66.913  1.00  0.00    -0.254 N  
HETATM    3  C   UNL     1     -11.552  12.664  68.204  1.00  0.00    -0.338 A  
HETATM    4  O   UNL     1     -11.704  11.653  66.147  1.00  0.00    -0.415 OA 
HETATM    5  C   UNL     1     -11.600  14.000  68.627  1.00  0.00    -0.360 A  
HETATM    6  C   UNL     1     -12.104  14.266  69.906  1.00  0.00    -0.404 A  
HETATM    7  C   UNL     1     -12.726  10.741  71.281  1.00  0.00    -0.441 C  
HETATM    8  C   UNL     1     -12.487  13.217  70.755  1.00  0.00    -0.403 A  
HETATM    9  C   UNL     1     -11.940  11.607  69.042  1.00  0.00    -0.368 A  
HETATM   10  F   UNL     1     -13.746   9.971  70.820  1.00  0.00    -0.414 F  
HETATM   11  C   UNL     1     -12.389  11.880  70.341  1.00  0.00    -0.334 A  
HETATM   12  F   UNL     1     -13.090  11.153  72.525  1.00  0.00    -0.437 F  
HETATM   13  F   UNL     1     -11.669   9.902  71.457  1.00  0.00    -0.410 F  
ENDROOT
BRANCH   5  14
HETATM   14  C   UNL     1     -11.165  15.122  67.749  1.00  0.00    -0.323 C  
HETATM   15  O   UNL     1     -11.651  15.181  66.623  1.00  0.00    -0.263 OA 
BRANCH  14  16
HETATM   16  C   UNL     1     -10.174  16.148  68.262  1.00  0.00    -0.248 C  
HETATM   17  C   UNL     1      -8.064  16.777  66.243  1.00  0.00    -0.365 C  
HETATM   18  C   UNL     1      -8.031  15.464  67.015  1.00  0.00    -0.259 C  
HETATM   19  C   UNL     1      -8.763  15.612  68.330  1.00  0.00    -0.178 C  
HETATM   20  O   UNL     1      -8.274  15.224  69.389  1.00  0.00    -0.227 OA 
HETATM   21  C   UNL     1      -9.479  17.320  66.075  1.00  0.00    -0.143 C  
HETATM   22  C   UNL     1     -10.165  17.409  67.423  1.00  0.00    -0.326 C  
HETATM   23  O   UNL     1     -10.702  18.446  67.810  1.00  0.00    -0.414 OA 
ENDBRANCH  14  16
ENDBRANCH   5  14
TORSDOF 2
ENDMDL
MODEL       13
REMARK 921   NORMALIZED FREE ENERGY PREDICTED BY IDOCK:   -6.72 KCAL/MOL
REMARK 922        TOTAL FREE ENERGY PREDICTED BY IDOCK:   -7.87 KCAL/MOL
REMARK 923 INTER-LIGAND FREE ENERGY PREDICTED BY IDOCK:   -7.34 KCAL/MOL
REMARK 924 INTRA-LIGAND FREE ENERGY PREDICTED BY IDOCK:   -0.53 KCAL/MOL
REMARK 927      BINDING AFFINITY PREDICTED BY RF-SCORE:    0.00 PKD
ROOT
HETATM    1  O   UNL     1      -9.873  14.959  69.262  1.00  0.00    -0.211 OA 
HETATM    2  N   UNL     1      -9.322  14.522  68.243  1.00  0.00    -0.197 N  
HETATM    3  C   UNL     1      -9.887  14.950  66.971  1.00  0.00    -0.237 A  
HETATM    4  O   UNL     1      -8.418  13.678  68.197  1.00  0.00    -0.159 OA 
HETATM    5  C   UNL     1      -9.923  16.305  66.614  1.00  0.00    -0.274 A  
HETATM    6  C   UNL     1     -10.537  16.649  65.402  1.00  0.00    -0.254 A  
HETATM    7  C   UNL     1     -11.881  13.270  64.187  1.00  0.00    -0.443 C  
HETATM    8  C   UNL     1     -11.150  15.668  64.609  1.00  0.00    -0.387 A  
HETATM    9  C   UNL     1     -10.491  13.959  66.180  1.00  0.00    -0.297 A  
HETATM   10  F   UNL     1     -11.048  12.303  63.722  1.00  0.00    -0.347 F  
HETATM   11  C   UNL     1     -11.152  14.320  64.999  1.00  0.00    -0.377 A  
HETATM   12  F   UNL     1     -12.526  13.773  63.101  1.00  0.00    -0.527 F  
HETATM   13  F   UNL     1     -12.829  12.630  64.924  1.00  0.00    -0.546 F  
ENDROOT
BRANCH   5  14
HETATM   14  C   UNL     1      -9.305  17.361  67.463  1.00  0.00    -0.233 C  
HETATM   15  O   UNL     1     -10.044  17.986  68.218  1.00  0.00    -0.342 OA 
BRANCH  14  16
HETATM   16  C   UNL     1      -7.812  17.619  67.389  1.00  0.00    -0.217 C  
HETATM   17  C   UNL     1      -7.137  20.476  67.940  1.00  0.00    -0.312 C  
HETATM   18  C   UNL     1      -7.748  20.067  66.606  1.00  0.00    -0.326 C  
HETATM   19  C   UNL     1      -7.445  18.614  66.314  1.00  0.00    -0.260 C  
HETATM   20  O   UNL     1      -7.015  18.251  65.221  1.00  0.00    -0.516 OA 
HETATM   21  C   UNL     1      -7.545  19.545  69.078  1.00  0.00    -0.356 C  
HETATM   22  C   UNL     1      -7.247  18.107  68.705  1.00  0.00    -0.279 C  
HETATM   23  O   UNL     1      -6.594  17.369  69.442  1.00  0.00    -0.244 OA 
ENDBRANCH  14  16
ENDBRANCH   5  14
TORSDOF 2
ENDMDL
MODEL       14
REMARK 921   NORMALIZED FREE ENERGY PREDICTED BY IDOCK:   -6.68 KCAL/MOL
REMARK 922        TOTAL FREE ENERGY PREDICTED BY IDOCK:   -7.83 KCAL/MOL
REMARK 923 INTER-LIGAND FREE ENERGY PREDICTED BY IDOCK:   -7.52 KCAL/MOL
REMARK 924 INTRA-LIGAND FREE ENERGY PREDICTED BY IDOCK:   -0.30 KCAL/MOL
REMARK 927      BINDING AFFINITY PREDICTED BY RF-SCORE:    0.00 PKD
ROOT
HETATM    1  O   UNL     1     -10.374  13.324  66.193  1.00  0.00    -0.278 OA 
HETATM    2  N   UNL     1     -11.234  14.180  66.440  1.00  0.00    -0.321 N  
HETATM    3  C   UNL     1     -11.092  14.891  67.703  1.00  0.00    -0.311 A  
HETATM    4  O   UNL     1     -12.254  14.414  65.780  1.00  0.00    -0.389 OA 
HETATM    5  C   UNL     1      -9.954  15.664  67.976  1.00  0.00    -0.222 A  
HETATM    6  C   UNL     1      -9.858  16.269  69.235  1.00  0.00    -0.252 A  
HETATM    7  C   UNL     1     -12.977  14.931  71.019  1.00  0.00    -0.377 C  
HETATM    8  C   UNL     1     -10.842  16.051  70.210  1.00  0.00    -0.327 A  
HETATM    9  C   UNL     1     -12.088  14.672  68.669  1.00  0.00    -0.237 A  
HETATM   10  F   UNL     1     -14.222  15.361  70.685  1.00  0.00    -0.296 F  
HETATM   11  C   UNL     1     -11.953  15.235  69.945  1.00  0.00    -0.373 A  
HETATM   12  F   UNL     1     -12.687  15.496  72.221  1.00  0.00    -0.352 F  
HETATM   13  F   UNL     1     -13.087  13.594  71.248  1.00  0.00    -0.389 F  
ENDROOT
BRANCH   5  14
HETATM   14  C   UNL     1      -8.885  15.878  66.961  1.00  0.00    -0.215 C  
HETATM   15  O   UNL     1      -7.968  15.063  66.924  1.00  0.00    -0.195 OA 
BRANCH  14  16
HETATM   16  C   UNL     1      -8.964  17.057  66.011  1.00  0.00    -0.168 C  
HETATM   17  C   UNL     1      -9.655  19.595  67.426  1.00  0.00    -0.455 C  
HETATM   18  C   UNL     1     -10.720  18.537  67.168  1.00  0.00    -0.396 C  
HETATM   19  C   UNL     1     -10.336  17.687  65.978  1.00  0.00    -0.304 C  
HETATM   20  O   UNL     1     -11.135  17.441  65.076  1.00  0.00    -0.662 OA 
HETATM   21  C   UNL     1      -8.257  18.998  67.550  1.00  0.00    -0.301 C  
HETATM   22  C   UNL     1      -7.953  18.133  66.344  1.00  0.00    -0.266 C  
HETATM   23  O   UNL     1      -6.928  18.285  65.679  1.00  0.00    -0.437 OA 
ENDBRANCH  14  16
ENDBRANCH   5  14
TORSDOF 2
ENDMDL
MODEL       15
REMARK 921   NORMALIZED FREE ENERGY PREDICTED BY IDOCK:   -6.68 KCAL/MOL
REMARK 922        TOTAL FREE ENERGY PREDICTED BY IDOCK:   -7.82 KCAL/MOL
REMARK 923 INTER-LIGAND FREE ENERGY PREDICTED BY IDOCK:   -7.38 KCAL/MOL
REMARK 924 INTRA-LIGAND FREE ENERGY PREDICTED BY IDOCK:   -0.44 KCAL/MOL
REMARK 927      BINDING AFFINITY PREDICTED BY RF-SCORE:    0.00 PKD
ROOT
HETATM    1  O   UNL     1      -9.139  12.243  66.888  1.00  0.00    -0.197 OA 
HETATM    2  N   UNL     1     -10.304  11.827  66.929  1.00  0.00    -0.212 N  
HETATM    3  C   UNL     1     -11.115  12.290  68.047  1.00  0.00    -0.239 A  
HETATM    4  O   UNL     1     -10.812  10.980  66.184  1.00  0.00    -0.234 OA 
HETATM    5  C   UNL     1     -11.381  13.654  68.233  1.00  0.00    -0.322 A  
HETATM    6  C   UNL     1     -12.115  14.030  69.365  1.00  0.00    -0.386 A  
HETATM    7  C   UNL     1     -12.555  10.690  71.196  1.00  0.00    -0.423 C  
HETATM    8  C   UNL     1     -12.513  13.073  70.310  1.00  0.00    -0.217 A  
HETATM    9  C   UNL     1     -11.515  11.322  68.982  1.00  0.00    -0.369 A  
HETATM   10  F   UNL     1     -13.392   9.730  70.724  1.00  0.00    -0.373 F  
HETATM   11  C   UNL     1     -12.198  11.716  70.140  1.00  0.00    -0.367 A  
HETATM   12  F   UNL     1     -13.163  11.224  72.289  1.00  0.00    -0.590 F  
HETATM   13  F   UNL     1     -11.454  10.038  71.658  1.00  0.00    -0.424 F  
ENDROOT
BRANCH   5  14
HETATM   14  C   UNL     1     -10.937  14.685  67.255  1.00  0.00    -0.317 C  
HETATM   15  O   UNL     1     -11.641  14.868  66.266  1.00  0.00    -0.328 OA 
BRANCH  14  16
HETATM   16  C   UNL     1      -9.669  15.477  67.508  1.00  0.00    -0.215 C  
HETATM   17  C   UNL     1     -10.249  18.282  68.356  1.00  0.00    -0.402 C  
HETATM   18  C   UNL     1     -10.419  17.861  66.902  1.00  0.00    -0.334 C  
HETATM   19  C   UNL     1      -9.536  16.672  66.594  1.00  0.00    -0.263 C  
HETATM   20  O   UNL     1      -8.820  16.641  65.595  1.00  0.00    -0.448 OA 
HETATM   21  C   UNL     1     -10.454  17.123  69.327  1.00  0.00    -0.267 C  
HETATM   22  C   UNL     1      -9.567  15.957  68.940  1.00  0.00    -0.230 C  
HETATM   23  O   UNL     1      -8.816  15.417  69.751  1.00  0.00    -0.225 OA 
ENDBRANCH  14  16
ENDBRANCH   5  14
TORSDOF 2
ENDMDL
MODEL       16
REMARK 921   NORMALIZED FREE ENERGY PREDICTED BY IDOCK:   -6.66 KCAL/MOL
REMARK 922        TOTAL FREE ENERGY PREDICTED BY IDOCK:   -7.81 KCAL/MOL
REMARK 923 INTER-LIGAND FREE ENERGY PREDICTED BY IDOCK:   -7.38 KCAL/MOL
REMARK 924 INTRA-LIGAND FREE ENERGY PREDICTED BY IDOCK:   -0.42 KCAL/MOL
REMARK 927      BINDING AFFINITY PREDICTED BY RF-SCORE:    0.00 PKD
ROOT
HETATM    1  O   UNL     1     -11.477   9.893  71.006  1.00  0.00    -0.334 OA 
HETATM    2  N   UNL     1     -12.522  10.549  70.909  1.00  0.00    -0.356 N  
HETATM    3  C   UNL     1     -12.369  11.977  70.668  1.00  0.00    -0.304 A  
HETATM    4  O   UNL     1     -13.673  10.137  71.103  1.00  0.00    -0.200 OA 
HETATM    5  C   UNL     1     -11.725  12.453  69.517  1.00  0.00    -0.388 A  
HETATM    6  C   UNL     1     -11.559  13.837  69.382  1.00  0.00    -0.365 A  
HETATM    7  C   UNL     1     -12.935  15.147  72.712  1.00  0.00    -0.427 C  
HETATM    8  C   UNL     1     -11.967  14.708  70.403  1.00  0.00    -0.375 A  
HETATM    9  C   UNL     1     -12.789  12.841  71.693  1.00  0.00    -0.363 A  
HETATM   10  F   UNL     1     -14.266  15.131  72.983  1.00  0.00    -0.411 F  
HETATM   11  C   UNL     1     -12.565  14.219  71.574  1.00  0.00    -0.432 A  
HETATM   12  F   UNL     1     -12.607  16.446  72.482  1.00  0.00    -0.480 F  
HETATM   13  F   UNL     1     -12.310  14.801  73.870  1.00  0.00    -0.585 F  
ENDROOT
BRANCH   5  14
HETATM   14  C   UNL     1     -11.257  11.537  68.440  1.00  0.00    -0.255 C  
HETATM   15  O   UNL     1     -12.099  11.101  67.660  1.00  0.00    -0.537 OA 
BRANCH  14  16
HETATM   16  C   UNL     1      -9.785  11.189  68.325  1.00  0.00    -0.190 C  
HETATM   17  C   UNL     1      -9.118   9.995  65.670  1.00  0.00    -0.222 C  
HETATM   18  C   UNL     1      -9.852   9.177  66.725  1.00  0.00    -0.291 C  
HETATM   19  C   UNL     1      -9.550   9.713  68.107  1.00  0.00    -0.143 C  
HETATM   20  O   UNL     1      -9.226   8.970  69.030  1.00  0.00    -0.139 OA 
HETATM   21  C   UNL     1      -9.388  11.491  65.798  1.00  0.00    -0.238 C  
HETATM   22  C   UNL     1      -9.099  11.952  67.212  1.00  0.00    -0.178 C  
HETATM   23  O   UNL     1      -8.359  12.907  67.444  1.00  0.00    -0.171 OA 
ENDBRANCH  14  16
ENDBRANCH   5  14
TORSDOF 2
ENDMDL
MODEL       17
REMARK 921   NORMALIZED FREE ENERGY PREDICTED BY IDOCK:   -6.65 KCAL/MOL
REMARK 922        TOTAL FREE ENERGY PREDICTED BY IDOCK:   -7.79 KCAL/MOL
REMARK 923 INTER-LIGAND FREE ENERGY PREDICTED BY IDOCK:   -7.31 KCAL/MOL
REMARK 924 INTRA-LIGAND FREE ENERGY PREDICTED BY IDOCK:   -0.49 KCAL/MOL
REMARK 927      BINDING AFFINITY PREDICTED BY RF-SCORE:    0.00 PKD
ROOT
HETATM    1  O   UNL     1     -11.254  14.538  66.992  1.00  0.00    -0.315 OA 
HETATM    2  N   UNL     1     -10.597  14.566  68.041  1.00  0.00    -0.235 N  
HETATM    3  C   UNL     1     -11.211  13.943  69.205  1.00  0.00    -0.269 A  
HETATM    4  O   UNL     1      -9.528  15.162  68.227  1.00  0.00    -0.193 OA 
HETATM    5  C   UNL     1     -11.536  12.579  69.208  1.00  0.00    -0.378 A  
HETATM    6  C   UNL     1     -12.182  12.061  70.338  1.00  0.00    -0.379 A  
HETATM    7  C   UNL     1     -12.721  15.199  72.475  1.00  0.00    -0.356 C  
HETATM    8  C   UNL     1     -12.546  12.901  71.401  1.00  0.00    -0.319 A  
HETATM    9  C   UNL     1     -11.563  14.791  70.266  1.00  0.00    -0.333 A  
HETATM   10  F   UNL     1     -11.685  15.815  73.101  1.00  0.00    -0.514 F  
HETATM   11  C   UNL     1     -12.260  14.274  71.366  1.00  0.00    -0.408 A  
HETATM   12  F   UNL     1     -13.435  14.570  73.445  1.00  0.00    -0.509 F  
HETATM   13  F   UNL     1     -13.522  16.193  72.002  1.00  0.00    -0.453 F  
ENDROOT
BRANCH   5  14
HETATM   14  C   UNL     1     -11.186  11.681  68.072  1.00  0.00    -0.263 C  
HETATM   15  O   UNL     1     -12.030  11.520  67.196  1.00  0.00    -0.581 OA 
BRANCH  14  16
HETATM   16  C   UNL     1      -9.822  11.021  68.018  1.00  0.00    -0.183 C  
HETATM   17  C   UNL     1      -9.929   8.327  66.732  1.00  0.00    -0.355 C  
HETATM   18  C   UNL     1     -10.447   8.530  68.150  1.00  0.00    -0.236 C  
HETATM   19  C   UNL     1      -9.772   9.723  68.789  1.00  0.00    -0.161 C  
HETATM   20  O   UNL     1      -9.294   9.664  69.920  1.00  0.00    -0.199 OA 
HETATM   21  C   UNL     1     -10.033   9.592  65.885  1.00  0.00    -0.351 C  
HETATM   22  C   UNL     1      -9.369  10.752  66.599  1.00  0.00    -0.166 C  
HETATM   23  O   UNL     1      -8.518  11.449  66.050  1.00  0.00    -0.151 OA 
ENDBRANCH  14  16
ENDBRANCH   5  14
TORSDOF 2
ENDMDL
MODEL       18
REMARK 921   NORMALIZED FREE ENERGY PREDICTED BY IDOCK:   -6.58 KCAL/MOL
REMARK 922        TOTAL FREE ENERGY PREDICTED BY IDOCK:   -7.72 KCAL/MOL
REMARK 923 INTER-LIGAND FREE ENERGY PREDICTED BY IDOCK:   -7.41 KCAL/MOL
REMARK 924 INTRA-LIGAND FREE ENERGY PREDICTED BY IDOCK:   -0.31 KCAL/MOL
REMARK 927      BINDING AFFINITY PREDICTED BY RF-SCORE:    0.00 PKD
ROOT
HETATM    1  O   UNL     1     -10.199  16.574  67.910  1.00  0.00    -0.256 OA 
HETATM    2  N   UNL     1      -9.809  15.951  68.906  1.00  0.00    -0.214 N  
HETATM    3  C   UNL     1     -10.741  14.982  69.467  1.00  0.00    -0.256 A  
HETATM    4  O   UNL     1      -8.760  16.144  69.534  1.00  0.00    -0.173 OA 
HETATM    5  C   UNL     1     -11.193  13.891  68.711  1.00  0.00    -0.302 A  
HETATM    6  C   UNL     1     -12.136  13.035  69.294  1.00  0.00    -0.251 A  
HETATM    7  C   UNL     1     -12.846  14.768  72.641  1.00  0.00    -0.405 C  
HETATM    8  C   UNL     1     -12.655  13.305  70.569  1.00  0.00    -0.259 A  
HETATM    9  C   UNL     1     -11.247  15.258  70.747  1.00  0.00    -0.353 A  
HETATM   10  F   UNL     1     -11.930  14.770  73.644  1.00  0.00    -0.433 F  
HETATM   11  C   UNL     1     -12.232  14.428  71.298  1.00  0.00    -0.429 A  
HETATM   12  F   UNL     1     -13.829  13.909  73.021  1.00  0.00    -0.494 F  
HETATM   13  F   UNL     1     -13.408  16.007  72.639  1.00  0.00    -0.505 F  
ENDROOT
BRANCH   5  14
HETATM   14  C   UNL     1     -10.677  13.611  67.343  1.00  0.00    -0.267 C  
HETATM   15  O   UNL     1      -9.769  12.791  67.237  1.00  0.00    -0.199 OA 
BRANCH  14  16
HETATM   16  C   UNL     1     -11.283  14.312  66.143  1.00  0.00    -0.331 C  
HETATM   17  C   UNL     1     -11.219  12.604  63.693  1.00  0.00    -0.525 C  
HETATM   18  C   UNL     1      -9.950  13.271  64.206  1.00  0.00     0.085 C  
HETATM   19  C   UNL     1     -10.294  14.500  65.017  1.00  0.00    -0.413 C  
HETATM   20  O   UNL     1      -9.726  15.575  64.833  1.00  0.00    -0.176 OA 
HETATM   21  C   UNL     1     -12.220  12.318  64.809  1.00  0.00    -0.438 C  
HETATM   22  C   UNL     1     -12.492  13.581  65.599  1.00  0.00    -0.479 C  
HETATM   23  O   UNL     1     -13.637  13.983  65.805  1.00  0.00    -0.335 OA 
ENDBRANCH  14  16
ENDBRANCH   5  14
TORSDOF 2
ENDMDL
MODEL       19
REMARK 921   NORMALIZED FREE ENERGY PREDICTED BY IDOCK:   -6.55 KCAL/MOL
REMARK 922        TOTAL FREE ENERGY PREDICTED BY IDOCK:   -7.68 KCAL/MOL
REMARK 923 INTER-LIGAND FREE ENERGY PREDICTED BY IDOCK:   -7.19 KCAL/MOL
REMARK 924 INTRA-LIGAND FREE ENERGY PREDICTED BY IDOCK:   -0.50 KCAL/MOL
REMARK 927      BINDING AFFINITY PREDICTED BY RF-SCORE:    0.00 PKD
ROOT
HETATM    1  O   UNL     1     -11.366  13.807  64.182  1.00  0.00    -0.353 OA 
HETATM    2  N   UNL     1     -11.982  13.008  64.900  1.00  0.00    -0.372 N  
HETATM    3  C   UNL     1     -11.222  12.387  65.975  1.00  0.00    -0.335 A  
HETATM    4  O   UNL     1     -13.140  12.604  64.730  1.00  0.00    -0.852 OA 
HETATM    5  C   UNL     1     -10.638  13.160  66.990  1.00  0.00    -0.259 A  
HETATM    6  C   UNL     1      -9.869  12.501  67.956  1.00  0.00    -0.214 A  
HETATM    7  C   UNL     1      -9.880   8.886  66.676  1.00  0.00    -0.262 C  
HETATM    8  C   UNL     1      -9.640  11.120  67.868  1.00  0.00    -0.181 A  
HETATM    9  C   UNL     1     -11.007  11.003  65.882  1.00  0.00    -0.115 A  
HETATM   10  F   UNL     1     -10.995   8.114  66.747  1.00  0.00    -0.352 F  
HETATM   11  C   UNL     1     -10.188  10.363  66.821  1.00  0.00    -0.282 A  
HETATM   12  F   UNL     1      -9.027   8.414  67.623  1.00  0.00    -0.132 F  
HETATM   13  F   UNL     1      -9.302   8.607  65.476  1.00  0.00    -0.251 F  
ENDROOT
BRANCH   5  14
HETATM   14  C   UNL     1     -10.844  14.633  67.077  1.00  0.00    -0.304 C  
HETATM   15  O   UNL     1     -11.847  15.030  67.663  1.00  0.00    -0.328 OA 
BRANCH  14  16
HETATM   16  C   UNL     1      -9.826  15.580  66.472  1.00  0.00    -0.281 C  
HETATM   17  C   UNL     1      -9.361  17.975  68.194  1.00  0.00    -0.287 C  
HETATM   18  C   UNL     1     -10.635  17.850  67.370  1.00  0.00    -0.370 C  
HETATM   19  C   UNL     1     -10.402  16.945  66.180  1.00  0.00    -0.320 C  
HETATM   20  O   UNL     1     -10.755  17.265  65.047  1.00  0.00    -0.708 OA 
HETATM   21  C   UNL     1      -8.782  16.619  68.586  1.00  0.00    -0.250 C  
HETATM   22  C   UNL     1      -8.608  15.754  67.354  1.00  0.00    -0.175 C  
HETATM   23  O   UNL     1      -7.537  15.207  67.092  1.00  0.00    -0.205 OA 
ENDBRANCH  14  16
ENDBRANCH   5  14
TORSDOF 2
ENDMDL
MODEL       20
REMARK 921   NORMALIZED FREE ENERGY PREDICTED BY IDOCK:   -6.51 KCAL/MOL
REMARK 922        TOTAL FREE ENERGY PREDICTED BY IDOCK:   -7.64 KCAL/MOL
REMARK 923 INTER-LIGAND FREE ENERGY PREDICTED BY IDOCK:   -7.16 KCAL/MOL
REMARK 924 INTRA-LIGAND FREE ENERGY PREDICTED BY IDOCK:   -0.48 KCAL/MOL
REMARK 927      BINDING AFFINITY PREDICTED BY RF-SCORE:    0.00 PKD
ROOT
HETATM    1  O   UNL     1      -9.191  14.946  68.643  1.00  0.00    -0.182 OA 
HETATM    2  N   UNL     1      -8.723  14.821  67.504  1.00  0.00    -0.176 N  
HETATM    3  C   UNL     1      -9.664  14.953  66.401  1.00  0.00    -0.285 A  
HETATM    4  O   UNL     1      -7.567  14.487  67.214  1.00  0.00    -0.189 OA 
HETATM    5  C   UNL     1     -10.376  16.144  66.196  1.00  0.00    -0.350 A  
HETATM    6  C   UNL     1     -11.310  16.178  65.153  1.00  0.00    -0.030 A  
HETATM    7  C   UNL     1     -11.213  12.570  63.857  1.00  0.00    -0.436 C  
HETATM    8  C   UNL     1     -11.566  15.033  64.385  1.00  0.00    -0.281 A  
HETATM    9  C   UNL     1      -9.906  13.803  65.633  1.00  0.00    -0.216 A  
HETATM   10  F   UNL     1     -10.148  12.099  63.157  1.00  0.00    -0.414 F  
HETATM   11  C   UNL     1     -10.884  13.831  64.630  1.00  0.00    -0.416 A  
HETATM   12  F   UNL     1     -12.220  12.732  62.958  1.00  0.00    -0.573 F  
HETATM   13  F   UNL     1     -11.601  11.560  64.681  1.00  0.00    -0.339 F  
ENDROOT
BRANCH   5  14
HETATM   14  C   UNL     1     -10.139  17.358  67.025  1.00  0.00    -0.313 C  
HETATM   15  O   UNL     1     -10.690  17.412  68.121  1.00  0.00    -0.377 OA 
BRANCH  14  16
HETATM   16  C   UNL     1      -9.229  18.459  66.517  1.00  0.00    -0.300 C  
HETATM   17  C   UNL     1      -7.180  19.246  68.543  1.00  0.00    -0.349 C  
HETATM   18  C   UNL     1      -8.630  19.683  68.698  1.00  0.00    -0.304 C  
HETATM   19  C   UNL     1      -9.315  19.716  67.350  1.00  0.00    -0.326 C  
HETATM   20  O   UNL     1      -9.989  20.680  66.993  1.00  0.00    -0.441 OA 
HETATM   21  C   UNL     1      -7.044  17.934  67.776  1.00  0.00    -0.207 C  
HETATM   22  C   UNL     1      -7.780  18.026  66.455  1.00  0.00    -0.269 C  
HETATM   23  O   UNL     1      -7.235  17.746  65.388  1.00  0.00    -0.388 OA 
ENDBRANCH  14  16
ENDBRANCH   5  14
TORSDOF 2
ENDMDL
MODEL       21
REMARK 921   NORMALIZED FREE ENERGY PREDICTED BY IDOCK:   -6.50 KCAL/MOL
REMARK 922        TOTAL FREE ENERGY PREDICTED BY IDOCK:   -7.63 KCAL/MOL
REMARK 923 INTER-LIGAND FREE ENERGY PREDICTED BY IDOCK:   -7.28 KCAL/MOL
REMARK 924 INTRA-LIGAND FREE ENERGY PREDICTED BY IDOCK:   -0.34 KCAL/MOL
REMARK 927      BINDING AFFINITY PREDICTED BY RF-SCORE:    0.00 PKD
ROOT
HETATM    1  O   UNL     1     -12.001  10.574  68.169  1.00  0.00    -0.375 OA 
HETATM    2  N   UNL     1     -11.270  11.144  68.990  1.00  0.00    -0.231 N  
HETATM    3  C   UNL     1     -11.924  11.672  70.180  1.00  0.00    -0.359 A  
HETATM    4  O   UNL     1     -10.069  11.406  68.852  1.00  0.00    -0.204 OA 
HETATM    5  C   UNL     1     -12.603  10.825  71.068  1.00  0.00    -0.520 A  
HETATM    6  C   UNL     1     -13.262  11.410  72.157  1.00  0.00    -0.293 A  
HETATM    7  C   UNL     1     -12.745  15.153  71.506  1.00  0.00    -0.358 C  
HETATM    8  C   UNL     1     -13.291  12.803  72.311  1.00  0.00    -0.563 A  
HETATM    9  C   UNL     1     -11.940  13.068  70.328  1.00  0.00    -0.360 A  
HETATM   10  F   UNL     1     -11.530  15.738  71.669  1.00  0.00    -0.378 F  
HETATM   11  C   UNL     1     -12.650  13.645  71.389  1.00  0.00    -0.415 A  
HETATM   12  F   UNL     1     -13.513  15.570  72.547  1.00  0.00    -0.423 F  
HETATM   13  F   UNL     1     -13.288  15.712  70.390  1.00  0.00    -0.407 F  
ENDROOT
BRANCH   5  14
HETATM   14  C   UNL     1     -12.609   9.345  70.899  1.00  0.00    -0.137 C  
HETATM   15  O   UNL     1     -13.696   8.776  70.933  1.00  0.00     0.016 OA 
BRANCH  14  16
HETATM   16  C   UNL     1     -11.307   8.601  70.675  1.00  0.00    -0.277 C  
HETATM   17  C   UNL     1     -10.853   6.489  72.738  1.00  0.00    -0.280 C  
HETATM   18  C   UNL     1     -10.657   7.961  73.079  1.00  0.00    -0.406 C  
HETATM   19  C   UNL     1     -10.344   8.752  71.829  1.00  0.00    -0.343 C  
HETATM   20  O   UNL     1      -9.411   9.551  71.788  1.00  0.00    -0.099 OA 
HETATM   21  C   UNL     1     -11.880   6.278  71.630  1.00  0.00    -0.315 C  
HETATM   22  C   UNL     1     -11.525   7.124  70.424  1.00  0.00    -0.278 C  
HETATM   23  O   UNL     1     -11.434   6.640  69.297  1.00  0.00    -0.280 OA 
ENDBRANCH  14  16
ENDBRANCH   5  14
TORSDOF 2
ENDMDL
MODEL       22
REMARK 921   NORMALIZED FREE ENERGY PREDICTED BY IDOCK:   -6.48 KCAL/MOL
REMARK 922        TOTAL FREE ENERGY PREDICTED BY IDOCK:   -7.60 KCAL/MOL
REMARK 923 INTER-LIGAND FREE ENERGY PREDICTED BY IDOCK:   -7.05 KCAL/MOL
REMARK 924 INTRA-LIGAND FREE ENERGY PREDICTED BY IDOCK:   -0.54 KCAL/MOL
REMARK 927      BINDING AFFINITY PREDICTED BY RF-SCORE:    0.00 PKD
ROOT
HETATM    1  O   UNL     1     -13.503  14.963  70.729  1.00  0.00    -0.345 OA 
HETATM    2  N   UNL     1     -12.634  14.306  71.317  1.00  0.00    -0.343 N  
HETATM    3  C   UNL     1     -12.311  13.005  70.747  1.00  0.00    -0.310 A  
HETATM    4  O   UNL     1     -12.094  14.593  72.394  1.00  0.00    -0.283 OA 
HETATM    5  C   UNL     1     -11.803  12.891  69.445  1.00  0.00    -0.371 A  
HETATM    6  C   UNL     1     -11.575  11.605  68.941  1.00  0.00    -0.377 A  
HETATM    7  C   UNL     1     -12.898   9.377  71.767  1.00  0.00    -0.399 C  
HETATM    8  C   UNL     1     -11.908  10.471  69.696  1.00  0.00    -0.306 A  
HETATM    9  C   UNL     1     -12.641  11.877  71.516  1.00  0.00    -0.298 A  
HETATM   10  F   UNL     1     -12.228   9.253  72.942  1.00  0.00    -0.177 F  
HETATM   11  C   UNL     1     -12.463  10.596  70.979  1.00  0.00    -0.515 A  
HETATM   12  F   UNL     1     -12.719   8.206  71.100  1.00  0.00    -0.306 F  
HETATM   13  F   UNL     1     -14.219   9.430  72.089  1.00  0.00    -0.388 F  
ENDROOT
BRANCH   5  14
HETATM   14  C   UNL     1     -11.476  14.086  68.618  1.00  0.00    -0.302 C  
HETATM   15  O   UNL     1     -12.270  14.399  67.736  1.00  0.00    -0.314 OA 
BRANCH  14  16
HETATM   16  C   UNL     1     -10.212  14.878  68.894  1.00  0.00    -0.238 C  
HETATM   17  C   UNL     1      -9.102  16.117  66.413  1.00  0.00    -0.339 C  
HETATM   18  C   UNL     1      -8.948  14.623  66.669  1.00  0.00    -0.267 C  
HETATM   19  C   UNL     1      -9.013  14.336  68.153  1.00  0.00    -0.189 C  
HETATM   20  O   UNL     1      -8.185  13.617  68.707  1.00  0.00    -0.097 OA 
HETATM   21  C   UNL     1     -10.347  16.698  67.076  1.00  0.00    -0.301 C  
HETATM   22  C   UNL     1     -10.365  16.344  68.549  1.00  0.00    -0.270 C  
HETATM   23  O   UNL     1     -10.514  17.200  69.420  1.00  0.00    -0.321 OA 
ENDBRANCH  14  16
ENDBRANCH   5  14
TORSDOF 2
ENDMDL
MODEL       23
REMARK 921   NORMALIZED FREE ENERGY PREDICTED BY IDOCK:   -6.43 KCAL/MOL
REMARK 922        TOTAL FREE ENERGY PREDICTED BY IDOCK:   -7.55 KCAL/MOL
REMARK 923 INTER-LIGAND FREE ENERGY PREDICTED BY IDOCK:   -7.21 KCAL/MOL
REMARK 924 INTRA-LIGAND FREE ENERGY PREDICTED BY IDOCK:   -0.33 KCAL/MOL
REMARK 927      BINDING AFFINITY PREDICTED BY RF-SCORE:    0.00 PKD
ROOT
HETATM    1  O   UNL     1     -12.907  13.937  65.579  1.00  0.00    -0.609 OA 
HETATM    2  N   UNL     1     -12.291  14.722  64.845  1.00  0.00    -0.315 N  
HETATM    3  C   UNL     1     -11.108  15.347  65.419  1.00  0.00    -0.326 A  
HETATM    4  O   UNL     1     -12.639  15.110  63.723  1.00  0.00    -0.752 OA 
HETATM    5  C   UNL     1     -10.018  14.577  65.849  1.00  0.00    -0.352 A  
HETATM    6  C   UNL     1      -8.940  15.241  66.447  1.00  0.00    -0.339 A  
HETATM    7  C   UNL     1     -10.191  18.863  66.580  1.00  0.00    -0.405 C  
HETATM    8  C   UNL     1      -8.986  16.626  66.665  1.00  0.00    -0.285 A  
HETATM    9  C   UNL     1     -11.161  16.735  65.625  1.00  0.00     0.147 A  
HETATM   10  F   UNL     1     -10.292  19.618  65.456  1.00  0.00    -0.461 F  
HETATM   11  C   UNL     1     -10.103  17.381  66.276  1.00  0.00    -0.328 A  
HETATM   12  F   UNL     1      -9.120  19.342  67.267  1.00  0.00    -0.297 F  
HETATM   13  F   UNL     1     -11.285  19.159  67.334  1.00  0.00    -0.535 F  
ENDROOT
BRANCH   5  14
HETATM   14  C   UNL     1      -9.970  13.101  65.654  1.00  0.00    -0.227 C  
HETATM   15  O   UNL     1     -10.039  12.678  64.504  1.00  0.00    -0.302 OA 
BRANCH  14  16
HETATM   16  C   UNL     1      -9.821  12.181  66.851  1.00  0.00    -0.213 C  
HETATM   17  C   UNL     1      -8.766   9.496  66.078  1.00  0.00    -0.166 C  
HETATM   18  C   UNL     1     -10.211   9.875  65.782  1.00  0.00    -0.251 C  
HETATM   19  C   UNL     1     -10.680  10.943  66.745  1.00  0.00    -0.252 C  
HETATM   20  O   UNL     1     -11.754  10.853  67.336  1.00  0.00    -0.510 OA 
HETATM   21  C   UNL     1      -7.840  10.707  66.115  1.00  0.00    -0.152 C  
HETATM   22  C   UNL     1      -8.386  11.749  67.069  1.00  0.00    -0.172 C  
HETATM   23  O   UNL     1      -7.695  12.233  67.965  1.00  0.00    -0.112 OA 
ENDBRANCH  14  16
ENDBRANCH   5  14
TORSDOF 2
ENDMDL
MODEL       24
REMARK 921   NORMALIZED FREE ENERGY PREDICTED BY IDOCK:   -6.42 KCAL/MOL
REMARK 922        TOTAL FREE ENERGY PREDICTED BY IDOCK:   -7.54 KCAL/MOL
REMARK 923 INTER-LIGAND FREE ENERGY PREDICTED BY IDOCK:   -7.08 KCAL/MOL
REMARK 924 INTRA-LIGAND FREE ENERGY PREDICTED BY IDOCK:   -0.45 KCAL/MOL
REMARK 927      BINDING AFFINITY PREDICTED BY RF-SCORE:    0.00 PKD
ROOT
HETATM    1  O   UNL     1     -10.474   7.868  66.710  1.00  0.00    -0.327 OA 
HETATM    2  N   UNL     1      -9.848   8.923  66.542  1.00  0.00    -0.253 N  
HETATM    3  C   UNL     1     -10.443  10.123  67.112  1.00  0.00    -0.246 A  
HETATM    4  O   UNL     1      -8.834   9.077  65.849  1.00  0.00    -0.153 OA 
HETATM    5  C   UNL     1     -10.662  10.237  68.493  1.00  0.00    -0.262 A  
HETATM    6  C   UNL     1     -11.295  11.395  68.963  1.00  0.00    -0.345 A  
HETATM    7  C   UNL     1     -12.130  13.244  65.710  1.00  0.00    -0.441 C  
HETATM    8  C   UNL     1     -11.750  12.374  68.069  1.00  0.00    -0.414 A  
HETATM    9  C   UNL     1     -10.887  11.102  66.208  1.00  0.00    -0.266 A  
HETATM   10  F   UNL     1     -11.161  13.835  64.963  1.00  0.00    -0.304 F  
HETATM   11  C   UNL     1     -11.570  12.228  66.685  1.00  0.00    -0.438 A  
HETATM   12  F   UNL     1     -12.818  14.251  66.310  1.00  0.00    -0.474 F  
HETATM   13  F   UNL     1     -12.993  12.672  64.826  1.00  0.00    -0.535 F  
ENDROOT
BRANCH   5  14
HETATM   14  C   UNL     1     -10.214   9.189  69.452  1.00  0.00    -0.210 C  
HETATM   15  O   UNL     1      -9.005   9.062  69.627  1.00  0.00    -0.142 OA 
BRANCH  14  16
HETATM   16  C   UNL     1     -11.236   8.341  70.183  1.00  0.00    -0.132 C  
HETATM   17  C   UNL     1     -10.007   6.772  72.408  1.00  0.00    -0.184 C  
HETATM   18  C   UNL     1      -9.799   6.354  70.958  1.00  0.00    -0.200 C  
HETATM   19  C   UNL     1     -10.934   6.864  70.098  1.00  0.00    -0.281 C  
HETATM   20  O   UNL     1     -11.517   6.133  69.299  1.00  0.00    -0.404 OA 
HETATM   21  C   UNL     1     -10.235   8.273  72.556  1.00  0.00    -0.386 C  
HETATM   22  C   UNL     1     -11.359   8.720  71.643  1.00  0.00    -0.320 C  
HETATM   23  O   UNL     1     -12.314   9.373  72.063  1.00  0.00    -0.366 OA 
ENDBRANCH  14  16
ENDBRANCH   5  14
TORSDOF 2
ENDMDL
MODEL       25
REMARK 921   NORMALIZED FREE ENERGY PREDICTED BY IDOCK:   -6.39 KCAL/MOL
REMARK 922        TOTAL FREE ENERGY PREDICTED BY IDOCK:   -7.50 KCAL/MOL
REMARK 923 INTER-LIGAND FREE ENERGY PREDICTED BY IDOCK:   -7.23 KCAL/MOL
REMARK 924 INTRA-LIGAND FREE ENERGY PREDICTED BY IDOCK:   -0.28 KCAL/MOL
REMARK 927      BINDING AFFINITY PREDICTED BY RF-SCORE:    0.00 PKD
ROOT
HETATM    1  O   UNL     1      -9.884  14.439  65.483  1.00  0.00    -0.324 OA 
HETATM    2  N   UNL     1     -10.972  14.842  65.915  1.00  0.00    -0.331 N  
HETATM    3  C   UNL     1     -10.964  15.408  67.257  1.00  0.00    -0.317 A  
HETATM    4  O   UNL     1     -12.076  14.715  65.371  1.00  0.00    -0.333 OA 
HETATM    5  C   UNL     1     -10.194  16.540  67.562  1.00  0.00    -0.283 A  
HETATM    6  C   UNL     1     -10.186  16.990  68.888  1.00  0.00    -0.322 A  
HETATM    7  C   UNL     1     -12.286  14.321  70.666  1.00  0.00    -0.361 C  
HETATM    8  C   UNL     1     -10.877  16.288  69.886  1.00  0.00    -0.352 A  
HETATM    9  C   UNL     1     -11.666  14.701  68.247  1.00  0.00    -0.359 A  
HETATM   10  F   UNL     1     -13.631  14.244  70.489  1.00  0.00    -0.265 F  
HETATM   11  C   UNL     1     -11.604  15.127  69.580  1.00  0.00    -0.340 A  
HETATM   12  F   UNL     1     -12.093  14.819  71.916  1.00  0.00    -0.352 F  
HETATM   13  F   UNL     1     -11.836  13.037  70.699  1.00  0.00    -0.378 F  
ENDROOT
BRANCH   5  14
HETATM   14  C   UNL     1      -9.428  17.277  66.519  1.00  0.00    -0.269 C  
HETATM   15  O   UNL     1     -10.031  18.123  65.865  1.00  0.00    -0.540 OA 
BRANCH  14  16
HETATM   16  C   UNL     1      -7.955  16.984  66.309  1.00  0.00    -0.343 C  
HETATM   17  C   UNL     1      -6.250  18.238  68.417  1.00  0.00    -0.195 C  
HETATM   18  C   UNL     1      -6.863  19.086  67.310  1.00  0.00    -0.214 C  
HETATM   19  C   UNL     1      -7.138  18.236  66.090  1.00  0.00    -0.269 C  
HETATM   20  O   UNL     1      -6.800  18.594  64.964  1.00  0.00    -0.511 OA 
HETATM   21  C   UNL     1      -7.084  17.000  68.733  1.00  0.00    -0.219 C  
HETATM   22  C   UNL     1      -7.350  16.216  67.464  1.00  0.00    -0.159 C  
HETATM   23  O   UNL     1      -7.105  15.013  67.382  1.00  0.00    -0.191 OA 
ENDBRANCH  14  16
ENDBRANCH   5  14
TORSDOF 2
ENDMDL
MODEL       26
REMARK 921   NORMALIZED FREE ENERGY PREDICTED BY IDOCK:   -6.37 KCAL/MOL
REMARK 922        TOTAL FREE ENERGY PREDICTED BY IDOCK:   -7.48 KCAL/MOL
REMARK 923 INTER-LIGAND FREE ENERGY PREDICTED BY IDOCK:   -6.69 KCAL/MOL
REMARK 924 INTRA-LIGAND FREE ENERGY PREDICTED BY IDOCK:   -0.79 KCAL/MOL
REMARK 927      BINDING AFFINITY PREDICTED BY RF-SCORE:    0.00 PKD
ROOT
HETATM    1  O   UNL     1      -7.646  14.859  69.562  1.00  0.00    -0.177 OA 
HETATM    2  N   UNL     1      -7.608  14.792  68.326  1.00  0.00    -0.108 N  
HETATM    3  C   UNL     1      -8.885  14.623  67.649  1.00  0.00    -0.182 A  
HETATM    4  O   UNL     1      -6.592  14.743  67.621  1.00  0.00    -0.163 OA 
HETATM    5  C   UNL     1      -9.900  15.585  67.766  1.00  0.00    -0.213 A  
HETATM    6  C   UNL     1     -11.124  15.326  67.137  1.00  0.00    -0.323 A  
HETATM    7  C   UNL     1     -10.594  11.792  65.748  1.00  0.00    -0.268 C  
HETATM    8  C   UNL     1     -11.343  14.113  66.469  1.00  0.00    -0.348 A  
HETATM    9  C   UNL     1      -9.090  13.409  66.975  1.00  0.00    -0.245 A  
HETATM   10  F   UNL     1      -9.774  11.564  64.690  1.00  0.00    -0.244 F  
HETATM   11  C   UNL     1     -10.338  13.136  66.400  1.00  0.00    -0.289 A  
HETATM   12  F   UNL     1     -11.865  11.646  65.286  1.00  0.00    -0.290 F  
HETATM   13  F   UNL     1     -10.389  10.764  66.615  1.00  0.00    -0.247 F  
ENDROOT
BRANCH   5  14
HETATM   14  C   UNL     1      -9.693  16.864  68.501  1.00  0.00    -0.264 C  
HETATM   15  O   UNL     1     -10.287  17.007  69.566  1.00  0.00    -0.262 OA 
BRANCH  14  16
HETATM   16  C   UNL     1      -8.763  17.921  67.939  1.00  0.00    -0.252 C  
HETATM   17  C   UNL     1     -10.260  20.207  66.734  1.00  0.00    -0.562 C  
HETATM   18  C   UNL     1     -10.167  18.872  66.007  1.00  0.00    -0.437 C  
HETATM   19  C   UNL     1      -8.935  18.117  66.452  1.00  0.00    -0.239 C  
HETATM   20  O   UNL     1      -8.164  17.605  65.642  1.00  0.00    -0.501 OA 
HETATM   21  C   UNL     1     -10.173  20.054  68.249  1.00  0.00    -0.527 C  
HETATM   22  C   UNL     1      -8.937  19.261  68.621  1.00  0.00    -0.374 C  
HETATM   23  O   UNL     1      -8.125  19.676  69.447  1.00  0.00    -0.180 OA 
ENDBRANCH  14  16
ENDBRANCH   5  14
TORSDOF 2
ENDMDL
MODEL       27
REMARK 921   NORMALIZED FREE ENERGY PREDICTED BY IDOCK:   -6.37 KCAL/MOL
REMARK 922        TOTAL FREE ENERGY PREDICTED BY IDOCK:   -7.48 KCAL/MOL
REMARK 923 INTER-LIGAND FREE ENERGY PREDICTED BY IDOCK:   -7.14 KCAL/MOL
REMARK 924 INTRA-LIGAND FREE ENERGY PREDICTED BY IDOCK:   -0.34 KCAL/MOL
REMARK 927      BINDING AFFINITY PREDICTED BY RF-SCORE:    0.00 PKD
ROOT
HETATM    1  O   UNL     1     -10.637  14.167  69.302  1.00  0.00    -0.205 OA 
HETATM    2  N   UNL     1     -11.358  15.161  69.147  1.00  0.00    -0.279 N  
HETATM    3  C   UNL     1     -10.919  16.129  68.151  1.00  0.00    -0.341 A  
HETATM    4  O   UNL     1     -12.347  15.468  69.825  1.00  0.00    -0.334 OA 
HETATM    5  C   UNL     1     -10.782  15.769  66.803  1.00  0.00    -0.293 A  
HETATM    6  C   UNL     1     -10.295  16.734  65.912  1.00  0.00    -0.341 A  
HETATM    7  C   UNL     1      -9.495  19.666  68.250  1.00  0.00    -0.368 C  
HETATM    8  C   UNL     1      -9.899  17.998  66.374  1.00  0.00    -0.340 A  
HETATM    9  C   UNL     1     -10.534  17.393  68.623  1.00  0.00    -0.355 A  
HETATM   10  F   UNL     1     -10.481  20.402  68.825  1.00  0.00    -0.519 F  
HETATM   11  C   UNL     1      -9.994  18.332  67.734  1.00  0.00    -0.343 A  
HETATM   12  F   UNL     1      -8.944  20.450  67.286  1.00  0.00    -0.394 F  
HETATM   13  F   UNL     1      -8.535  19.510  69.203  1.00  0.00    -0.392 F  
ENDROOT
BRANCH   5  14
HETATM   14  C   UNL     1     -11.167  14.419  66.304  1.00  0.00    -0.338 C  
HETATM   15  O   UNL     1     -12.339  14.079  66.436  1.00  0.00    -0.460 OA 
BRANCH  14  16
HETATM   16  C   UNL     1     -10.132  13.530  65.642  1.00  0.00    -0.292 C  
HETATM   17  C   UNL     1     -10.566  10.643  66.273  1.00  0.00    -0.229 C  
HETATM   18  C   UNL     1      -9.978  11.584  67.316  1.00  0.00    -0.212 C  
HETATM   19  C   UNL     1      -9.304  12.758  66.642  1.00  0.00    -0.242 C  
HETATM   20  O   UNL     1      -8.175  13.125  66.962  1.00  0.00    -0.149 OA 
HETATM   21  C   UNL     1     -11.479  11.363  65.285  1.00  0.00     0.013 C  
HETATM   22  C   UNL     1     -10.753  12.545  64.675  1.00  0.00    -0.311 C  
HETATM   23  O   UNL     1     -10.687  12.707  63.457  1.00  0.00    -0.417 OA 
ENDBRANCH  14  16
ENDBRANCH   5  14
TORSDOF 2
ENDMDL
MODEL       28
REMARK 921   NORMALIZED FREE ENERGY PREDICTED BY IDOCK:   -6.36 KCAL/MOL
REMARK 922        TOTAL FREE ENERGY PREDICTED BY IDOCK:   -7.47 KCAL/MOL
REMARK 923 INTER-LIGAND FREE ENERGY PREDICTED BY IDOCK:   -6.74 KCAL/MOL
REMARK 924 INTRA-LIGAND FREE ENERGY PREDICTED BY IDOCK:   -0.73 KCAL/MOL
REMARK 927      BINDING AFFINITY PREDICTED BY RF-SCORE:    0.00 PKD
ROOT
HETATM    1  O   UNL     1     -11.684  14.079  64.200  1.00  0.00    -0.381 OA 
HETATM    2  N   UNL     1     -12.155  13.871  65.326  1.00  0.00    -0.387 N  
HETATM    3  C   UNL     1     -11.216  13.431  66.347  1.00  0.00    -0.304 A  
HETATM    4  O   UNL     1     -13.352  13.893  65.640  1.00  0.00    -0.620 OA 
HETATM    5  C   UNL     1     -10.131  14.234  66.728  1.00  0.00    -0.264 A  
HETATM    6  C   UNL     1      -9.233  13.719  67.672  1.00  0.00    -0.207 A  
HETATM    7  C   UNL     1     -10.570  10.166  68.212  1.00  0.00    -0.226 C  
HETATM    8  C   UNL     1      -9.385  12.416  68.166  1.00  0.00    -0.209 A  
HETATM    9  C   UNL     1     -11.382  12.127  66.842  1.00  0.00    -0.402 A  
HETATM   10  F   UNL     1     -11.725   9.941  68.890  1.00  0.00    -0.128 F  
HETATM   11  C   UNL     1     -10.446  11.601  67.741  1.00  0.00    -0.213 A  
HETATM   12  F   UNL     1      -9.561   9.775  69.034  1.00  0.00    -0.154 F  
HETATM   13  F   UNL     1     -10.567   9.292  67.169  1.00  0.00    -0.300 F  
ENDROOT
BRANCH   5  14
HETATM   14  C   UNL     1      -9.938  15.608  66.186  1.00  0.00    -0.312 C  
HETATM   15  O   UNL     1      -9.099  15.755  65.302  1.00  0.00    -0.019 OA 
BRANCH  14  16
HETATM   16  C   UNL     1     -10.775  16.757  66.713  1.00  0.00    -0.117 C  
HETATM   17  C   UNL     1      -9.165  18.652  68.368  1.00  0.00    -0.355 C  
HETATM   18  C   UNL     1      -9.579  17.296  68.925  1.00  0.00    -0.229 C  
HETATM   19  C   UNL     1     -10.823  16.798  68.222  1.00  0.00    -0.366 C  
HETATM   20  O   UNL     1     -11.785  16.359  68.847  1.00  0.00    -0.261 OA 
HETATM   21  C   UNL     1      -9.023  18.640  66.850  1.00  0.00    -0.296 C  
HETATM   22  C   UNL     1     -10.287  18.100  66.214  1.00  0.00    -0.397 C  
HETATM   23  O   UNL     1     -10.879  18.712  65.325  1.00  0.00    -0.591 OA 
ENDBRANCH  14  16
ENDBRANCH   5  14
TORSDOF 2
ENDMDL
MODEL       29
REMARK 921   NORMALIZED FREE ENERGY PREDICTED BY IDOCK:   -6.34 KCAL/MOL
REMARK 922        TOTAL FREE ENERGY PREDICTED BY IDOCK:   -7.45 KCAL/MOL
REMARK 923 INTER-LIGAND FREE ENERGY PREDICTED BY IDOCK:   -7.33 KCAL/MOL
REMARK 924 INTRA-LIGAND FREE ENERGY PREDICTED BY IDOCK:   -0.12 KCAL/MOL
REMARK 927      BINDING AFFINITY PREDICTED BY RF-SCORE:    0.00 PKD
ROOT
HETATM    1  O   UNL     1     -10.933  19.059  67.369  1.00  0.00    -0.459 OA 
HETATM    2  N   UNL     1     -10.312  18.602  68.337  1.00  0.00    -0.353 N  
HETATM    3  C   UNL     1     -10.378  17.159  68.524  1.00  0.00    -0.364 A  
HETATM    4  O   UNL     1      -9.737  19.252  69.219  1.00  0.00    -0.349 OA 
HETATM    5  C   UNL     1      -9.897  16.279  67.543  1.00  0.00    -0.238 A  
HETATM    6  C   UNL     1     -10.050  14.905  67.763  1.00  0.00    -0.234 A  
HETATM    7  C   UNL     1     -12.041  14.823  71.039  1.00  0.00    -0.330 C  
HETATM    8  C   UNL     1     -10.723  14.433  68.900  1.00  0.00    -0.260 A  
HETATM    9  C   UNL     1     -11.046  16.698  69.670  1.00  0.00    -0.146 A  
HETATM   10  F   UNL     1     -11.465  15.152  72.225  1.00  0.00    -0.451 F  
HETATM   11  C   UNL     1     -11.245  15.323  69.851  1.00  0.00    -0.305 A  
HETATM   12  F   UNL     1     -12.203  13.473  71.055  1.00  0.00    -0.400 F  
HETATM   13  F   UNL     1     -13.294  15.353  71.067  1.00  0.00    -0.450 F  
ENDROOT
BRANCH   5  14
HETATM   14  C   UNL     1      -9.210  16.766  66.315  1.00  0.00    -0.279 C  
HETATM   15  O   UNL     1      -9.913  17.197  65.406  1.00  0.00    -0.547 OA 
BRANCH  14  16
HETATM   16  C   UNL     1      -7.696  16.737  66.229  1.00  0.00    -0.310 C  
HETATM   17  C   UNL     1      -6.417  18.276  68.446  1.00  0.00    -0.208 C  
HETATM   18  C   UNL     1      -7.075  19.001  67.280  1.00  0.00    -0.219 C  
HETATM   19  C   UNL     1      -7.097  18.113  66.056  1.00  0.00    -0.283 C  
HETATM   20  O   UNL     1      -6.735  18.523  64.955  1.00  0.00    -0.463 OA 
HETATM   21  C   UNL     1      -7.043  16.911  68.714  1.00  0.00    -0.216 C  
HETATM   22  C   UNL     1      -7.063  16.090  67.441  1.00  0.00    -0.189 C  
HETATM   23  O   UNL     1      -6.605  14.948  67.399  1.00  0.00    -0.272 OA 
ENDBRANCH  14  16
ENDBRANCH   5  14
TORSDOF 2
ENDMDL
MODEL       30
REMARK 921   NORMALIZED FREE ENERGY PREDICTED BY IDOCK:   -6.29 KCAL/MOL
REMARK 922        TOTAL FREE ENERGY PREDICTED BY IDOCK:   -7.39 KCAL/MOL
REMARK 923 INTER-LIGAND FREE ENERGY PREDICTED BY IDOCK:   -6.85 KCAL/MOL
REMARK 924 INTRA-LIGAND FREE ENERGY PREDICTED BY IDOCK:   -0.54 KCAL/MOL
REMARK 927      BINDING AFFINITY PREDICTED BY RF-SCORE:    0.00 PKD
ROOT
HETATM    1  O   UNL     1      -7.571  15.566  69.558  1.00  0.00    -0.215 OA 
HETATM    2  N   UNL     1      -7.693  14.923  68.507  1.00  0.00    -0.117 N  
HETATM    3  C   UNL     1      -9.023  14.404  68.218  1.00  0.00    -0.187 A  
HETATM    4  O   UNL     1      -6.784  14.586  67.738  1.00  0.00    -0.149 OA 
HETATM    5  C   UNL     1     -10.117  15.266  68.055  1.00  0.00    -0.229 A  
HETATM    6  C   UNL     1     -11.377  14.694  67.842  1.00  0.00    -0.332 A  
HETATM    7  C   UNL     1     -10.632  10.946  68.166  1.00  0.00    -0.198 C  
HETATM    8  C   UNL     1     -11.541  13.301  67.857  1.00  0.00    -0.370 A  
HETATM    9  C   UNL     1      -9.174  13.008  68.227  1.00  0.00    -0.191 A  
HETATM   10  F   UNL     1      -9.943  10.276  67.206  1.00  0.00    -0.190 F  
HETATM   11  C   UNL     1     -10.448  12.447  68.070  1.00  0.00    -0.227 A  
HETATM   12  F   UNL     1     -11.928  10.550  68.054  1.00  0.00    -0.252 F  
HETATM   13  F   UNL     1     -10.192  10.459  69.358  1.00  0.00    -0.200 F  
ENDROOT
BRANCH   5  14
HETATM   14  C   UNL     1      -9.964  16.748  68.071  1.00  0.00    -0.272 C  
HETATM   15  O   UNL     1     -10.350  17.347  69.070  1.00  0.00    -0.343 OA 
BRANCH  14  16
HETATM   16  C   UNL     1      -9.331  17.458  66.890  1.00  0.00    -0.271 C  
HETATM   17  C   UNL     1      -9.572  20.427  67.106  1.00  0.00    -0.587 C  
HETATM   18  C   UNL     1     -10.778  19.578  66.726  1.00  0.00    -0.569 C  
HETATM   19  C   UNL     1     -10.326  18.277  66.102  1.00  0.00    -0.398 C  
HETATM   20  O   UNL     1     -10.816  17.859  65.055  1.00  0.00    -0.767 OA 
HETATM   21  C   UNL     1      -8.573  19.668  67.974  1.00  0.00    -0.355 C  
HETATM   22  C   UNL     1      -8.191  18.363  67.306  1.00  0.00    -0.245 C  
HETATM   23  O   UNL     1      -7.016  18.046  67.126  1.00  0.00    -0.185 OA 
ENDBRANCH  14  16
ENDBRANCH   5  14
TORSDOF 2
ENDMDL
MODEL       31
REMARK 921   NORMALIZED FREE ENERGY PREDICTED BY IDOCK:   -6.29 KCAL/MOL
REMARK 922        TOTAL FREE ENERGY PREDICTED BY IDOCK:   -7.38 KCAL/MOL
REMARK 923 INTER-LIGAND FREE ENERGY PREDICTED BY IDOCK:   -6.87 KCAL/MOL
REMARK 924 INTRA-LIGAND FREE ENERGY PREDICTED BY IDOCK:   -0.52 KCAL/MOL
REMARK 927      BINDING AFFINITY PREDICTED BY RF-SCORE:    0.00 PKD
ROOT
HETATM    1  O   UNL     1     -10.110  15.125  70.721  1.00  0.00     0.153 OA 
HETATM    2  N   UNL     1     -10.966  15.593  69.959  1.00  0.00    -0.298 N  
HETATM    3  C   UNL     1     -10.506  15.984  68.634  1.00  0.00    -0.251 A  
HETATM    4  O   UNL     1     -12.140  15.862  70.243  1.00  0.00    -0.353 OA 
HETATM    5  C   UNL     1      -9.945  15.046  67.756  1.00  0.00    -0.229 A  
HETATM    6  C   UNL     1      -9.467  15.505  66.522  1.00  0.00    -0.299 A  
HETATM    7  C   UNL     1      -9.969  19.295  66.818  1.00  0.00    -0.361 C  
HETATM    8  C   UNL     1      -9.493  16.872  66.210  1.00  0.00    -0.298 A  
HETATM    9  C   UNL     1     -10.544  17.354  68.328  1.00  0.00    -0.366 A  
HETATM   10  F   UNL     1     -11.207  19.850  66.772  1.00  0.00    -0.511 F  
HETATM   11  C   UNL     1     -10.011  17.810  67.116  1.00  0.00    -0.322 A  
HETATM   12  F   UNL     1      -9.371  19.594  65.634  1.00  0.00    -0.286 F  
HETATM   13  F   UNL     1      -9.281  19.982  67.770  1.00  0.00    -0.377 F  
ENDROOT
BRANCH   5  14
HETATM   14  C   UNL     1      -9.880  13.595  68.087  1.00  0.00    -0.236 C  
HETATM   15  O   UNL     1      -8.776  13.119  68.332  1.00  0.00    -0.174 OA 
BRANCH  14  16
HETATM   16  C   UNL     1     -11.151  12.769  68.133  1.00  0.00    -0.288 C  
HETATM   17  C   UNL     1     -10.607   9.853  67.778  1.00  0.00    -0.313 C  
HETATM   18  C   UNL     1     -10.545  10.803  66.589  1.00  0.00    -0.291 C  
HETATM   19  C   UNL     1     -11.405  12.020  66.846  1.00  0.00    -0.341 C  
HETATM   20  O   UNL     1     -12.202  12.436  66.007  1.00  0.00    -0.636 OA 
HETATM   21  C   UNL     1     -10.276  10.546  69.097  1.00  0.00    -0.241 C  
HETATM   22  C   UNL     1     -11.148  11.772  69.272  1.00  0.00    -0.218 C  
HETATM   23  O   UNL     1     -11.807  11.958  70.295  1.00  0.00    -0.331 OA 
ENDBRANCH  14  16
ENDBRANCH   5  14
TORSDOF 2
ENDMDL
MODEL       32
REMARK 921   NORMALIZED FREE ENERGY PREDICTED BY IDOCK:   -6.28 KCAL/MOL
REMARK 922        TOTAL FREE ENERGY PREDICTED BY IDOCK:   -7.38 KCAL/MOL
REMARK 923 INTER-LIGAND FREE ENERGY PREDICTED BY IDOCK:   -6.96 KCAL/MOL
REMARK 924 INTRA-LIGAND FREE ENERGY PREDICTED BY IDOCK:   -0.42 KCAL/MOL
REMARK 927      BINDING AFFINITY PREDICTED BY RF-SCORE:    0.00 PKD
ROOT
HETATM    1  O   UNL     1     -12.355  14.318  65.769  1.00  0.00    -0.426 OA 
HETATM    2  N   UNL     1     -11.212  14.794  65.769  1.00  0.00    -0.334 N  
HETATM    3  C   UNL     1     -10.800  15.482  66.984  1.00  0.00    -0.314 A  
HETATM    4  O   UNL     1     -10.432  14.840  64.809  1.00  0.00    -0.406 OA 
HETATM    5  C   UNL     1     -10.737  14.808  68.212  1.00  0.00    -0.242 A  
HETATM    6  C   UNL     1     -10.393  15.548  69.350  1.00  0.00    -0.258 A  
HETATM    7  C   UNL     1     -10.148  19.112  67.957  1.00  0.00    -0.397 C  
HETATM    8  C   UNL     1     -10.182  16.932  69.266  1.00  0.00    -0.262 A  
HETATM    9  C   UNL     1     -10.583  16.866  66.886  1.00  0.00    -0.214 A  
HETATM   10  F   UNL     1      -9.119  19.489  67.154  1.00  0.00    -0.307 F  
HETATM   11  C   UNL     1     -10.296  17.607  68.040  1.00  0.00    -0.375 A  
HETATM   12  F   UNL     1      -9.930  19.704  69.161  1.00  0.00    -0.466 F  
HETATM   13  F   UNL     1     -11.263  19.701  67.444  1.00  0.00    -0.554 F  
ENDROOT
BRANCH   5  14
HETATM   14  C   UNL     1     -10.991  13.344  68.323  1.00  0.00    -0.259 C  
HETATM   15  O   UNL     1     -12.161  12.973  68.359  1.00  0.00    -0.305 OA 
BRANCH  14  16
HETATM   16  C   UNL     1      -9.828  12.373  68.366  1.00  0.00    -0.198 C  
HETATM   17  C   UNL     1     -10.028  10.286  66.238  1.00  0.00    -0.295 C  
HETATM   18  C   UNL     1     -10.917  10.221  67.473  1.00  0.00    -0.344 C  
HETATM   19  C   UNL     1     -10.266  10.951  68.627  1.00  0.00    -0.189 C  
HETATM   20  O   UNL     1     -10.186  10.448  69.746  1.00  0.00    -0.236 OA 
HETATM   21  C   UNL     1      -9.624  11.713  65.884  1.00  0.00    -0.250 C  
HETATM   22  C   UNL     1      -9.012  12.395  67.092  1.00  0.00    -0.195 C  
HETATM   23  O   UNL     1      -7.916  12.952  67.035  1.00  0.00    -0.131 OA 
ENDBRANCH  14  16
ENDBRANCH   5  14
TORSDOF 2
ENDMDL
MODEL       33
REMARK 921   NORMALIZED FREE ENERGY PREDICTED BY IDOCK:   -6.26 KCAL/MOL
REMARK 922        TOTAL FREE ENERGY PREDICTED BY IDOCK:   -7.36 KCAL/MOL
REMARK 923 INTER-LIGAND FREE ENERGY PREDICTED BY IDOCK:   -7.20 KCAL/MOL
REMARK 924 INTRA-LIGAND FREE ENERGY PREDICTED BY IDOCK:   -0.16 KCAL/MOL
REMARK 927      BINDING AFFINITY PREDICTED BY RF-SCORE:    0.00 PKD
ROOT
HETATM    1  O   UNL     1     -13.034  12.996  65.296  1.00  0.00    -0.697 OA 
HETATM    2  N   UNL     1     -12.354  13.821  64.673  1.00  0.00    -0.390 N  
HETATM    3  C   UNL     1     -11.160  14.313  65.346  1.00  0.00    -0.327 A  
HETATM    4  O   UNL     1     -12.642  14.349  63.591  1.00  0.00    -0.817 OA 
HETATM    5  C   UNL     1     -10.127  13.441  65.718  1.00  0.00    -0.297 A  
HETATM    6  C   UNL     1      -9.037  13.975  66.417  1.00  0.00    -0.120 A  
HETATM    7  C   UNL     1     -10.103  17.624  66.918  1.00  0.00    -0.331 C  
HETATM    8  C   UNL     1      -9.019  15.328  66.787  1.00  0.00    -0.291 A  
HETATM    9  C   UNL     1     -11.148  15.671  65.703  1.00  0.00    -0.195 A  
HETATM   10  F   UNL     1     -10.125  18.503  65.882  1.00  0.00    -0.345 F  
HETATM   11  C   UNL     1     -10.081  16.182  66.453  1.00  0.00    -0.321 A  
HETATM   12  F   UNL     1      -9.033  17.964  67.685  1.00  0.00    -0.241 F  
HETATM   13  F   UNL     1     -11.205  17.895  67.669  1.00  0.00    -0.302 F  
ENDROOT
BRANCH   5  14
HETATM   14  C   UNL     1     -10.149  11.995  65.361  1.00  0.00    -0.256 C  
HETATM   15  O   UNL     1      -9.720  11.678  64.256  1.00  0.00    -0.230 OA 
BRANCH  14  16
HETATM   16  C   UNL     1     -10.668  10.975  66.356  1.00  0.00    -0.286 C  
HETATM   17  C   UNL     1      -8.892  10.732  68.745  1.00  0.00    -0.163 C  
HETATM   18  C   UNL     1      -8.484  10.122  67.411  1.00  0.00    -0.122 C  
HETATM   19  C   UNL     1      -9.707   9.830  66.571  1.00  0.00    -0.209 C  
HETATM   20  O   UNL     1      -9.863   8.746  66.012  1.00  0.00    -0.258 OA 
HETATM   21  C   UNL     1      -9.801  11.946  68.579  1.00  0.00    -0.187 C  
HETATM   22  C   UNL     1     -10.984  11.593  67.701  1.00  0.00    -0.239 C  
HETATM   23  O   UNL     1     -12.142  11.812  68.056  1.00  0.00    -0.572 OA 
ENDBRANCH  14  16
ENDBRANCH   5  14
TORSDOF 2
ENDMDL
MODEL       34
REMARK 921   NORMALIZED FREE ENERGY PREDICTED BY IDOCK:   -6.24 KCAL/MOL
REMARK 922        TOTAL FREE ENERGY PREDICTED BY IDOCK:   -7.34 KCAL/MOL
REMARK 923 INTER-LIGAND FREE ENERGY PREDICTED BY IDOCK:   -7.06 KCAL/MOL
REMARK 924 INTRA-LIGAND FREE ENERGY PREDICTED BY IDOCK:   -0.27 KCAL/MOL
REMARK 927      BINDING AFFINITY PREDICTED BY RF-SCORE:    0.00 PKD
ROOT
HETATM    1  O   UNL     1      -8.345  11.542  67.201  1.00  0.00    -0.146 OA 
HETATM    2  N   UNL     1      -8.888  10.437  67.329  1.00  0.00    -0.132 N  
HETATM    3  C   UNL     1      -9.993  10.367  68.275  1.00  0.00    -0.151 A  
HETATM    4  O   UNL     1      -8.521   9.370  66.821  1.00  0.00    -0.125 OA 
HETATM    5  C   UNL     1     -11.149  11.141  68.098  1.00  0.00    -0.324 A  
HETATM    6  C   UNL     1     -12.144  11.069  69.081  1.00  0.00    -0.333 A  
HETATM    7  C   UNL     1     -10.529   8.789  71.706  1.00  0.00    -0.346 C  
HETATM    8  C   UNL     1     -11.954  10.295  70.235  1.00  0.00    -0.348 A  
HETATM    9  C   UNL     1      -9.796   9.582  69.423  1.00  0.00    -0.194 A  
HETATM   10  F   UNL     1     -10.369   7.459  71.486  1.00  0.00    -0.199 F  
HETATM   11  C   UNL     1     -10.772   9.563  70.427  1.00  0.00    -0.341 A  
HETATM   12  F   UNL     1     -11.534   8.909  72.613  1.00  0.00    -0.366 F  
HETATM   13  F   UNL     1      -9.399   9.206  72.341  1.00  0.00    -0.246 F  
ENDROOT
BRANCH   5  14
HETATM   14  C   UNL     1     -11.350  11.993  66.893  1.00  0.00    -0.341 C  
HETATM   15  O   UNL     1     -11.087  11.500  65.800  1.00  0.00    -0.284 OA 
BRANCH  14  16
HETATM   16  C   UNL     1     -11.880  13.406  67.042  1.00  0.00    -0.443 C  
HETATM   17  C   UNL     1     -10.032  15.429  65.854  1.00  0.00    -0.374 C  
HETATM   18  C   UNL     1      -9.701  14.764  67.183  1.00  0.00    -0.234 C  
HETATM   19  C   UNL     1     -10.967  14.288  67.860  1.00  0.00    -0.267 C  
HETATM   20  O   UNL     1     -11.193  14.524  69.045  1.00  0.00    -0.243 OA 
HETATM   21  C   UNL     1     -10.888  14.543  64.954  1.00  0.00    -0.436 C  
HETATM   22  C   UNL     1     -12.118  14.075  65.705  1.00  0.00    -0.427 C  
HETATM   23  O   UNL     1     -13.251  14.216  65.245  1.00  0.00    -0.760 OA 
ENDBRANCH  14  16
ENDBRANCH   5  14
TORSDOF 2
ENDMDL
MODEL       35
REMARK 921   NORMALIZED FREE ENERGY PREDICTED BY IDOCK:   -6.23 KCAL/MOL
REMARK 922        TOTAL FREE ENERGY PREDICTED BY IDOCK:   -7.32 KCAL/MOL
REMARK 923 INTER-LIGAND FREE ENERGY PREDICTED BY IDOCK:   -6.57 KCAL/MOL
REMARK 924 INTRA-LIGAND FREE ENERGY PREDICTED BY IDOCK:   -0.75 KCAL/MOL
REMARK 927      BINDING AFFINITY PREDICTED BY RF-SCORE:    0.00 PKD
ROOT
HETATM    1  O   UNL     1     -13.341   9.223  72.917  1.00  0.00    -0.277 OA 
HETATM    2  N   UNL     1     -13.380   9.103  71.686  1.00  0.00    -0.366 N  
HETATM    3  C   UNL     1     -12.182   9.503  70.960  1.00  0.00    -0.304 A  
HETATM    4  O   UNL     1     -14.363   8.785  71.006  1.00  0.00    -0.179 OA 
HETATM    5  C   UNL     1     -10.953   8.867  71.185  1.00  0.00    -0.356 A  
HETATM    6  C   UNL     1      -9.830   9.346  70.497  1.00  0.00    -0.331 A  
HETATM    7  C   UNL     1     -11.251  12.385  68.641  1.00  0.00    -0.271 C  
HETATM    8  C   UNL     1      -9.929  10.467  69.661  1.00  0.00    -0.209 A  
HETATM    9  C   UNL     1     -12.294  10.621  70.119  1.00  0.00    -0.370 A  
HETATM   10  F   UNL     1     -12.088  12.239  67.582  1.00  0.00    -0.405 F  
HETATM   11  C   UNL     1     -11.155  11.127  69.480  1.00  0.00    -0.311 A  
HETATM   12  F   UNL     1     -10.058  12.792  68.133  1.00  0.00    -0.210 F  
HETATM   13  F   UNL     1     -11.731  13.436  69.361  1.00  0.00    -0.295 F  
ENDROOT
BRANCH   5  14
HETATM   14  C   UNL     1     -10.826   7.696  72.097  1.00  0.00    -0.247 C  
HETATM   15  O   UNL     1     -10.339   7.892  73.207  1.00  0.00    -0.335 OA 
BRANCH  14  16
HETATM   16  C   UNL     1     -11.307   6.329  71.649  1.00  0.00    -0.347 C  
HETATM   17  C   UNL     1      -9.039   4.468  71.090  1.00  0.00    -0.183 C  
HETATM   18  C   UNL     1      -9.386   5.582  70.111  1.00  0.00    -0.185 C  
HETATM   19  C   UNL     1     -10.839   5.974  70.258  1.00  0.00    -0.329 C  
HETATM   20  O   UNL     1     -11.577   6.093  69.281  1.00  0.00    -0.329 OA 
HETATM   21  C   UNL     1      -9.418   4.813  72.527  1.00  0.00    -0.165 C  
HETATM   22  C   UNL     1     -10.874   5.229  72.594  1.00  0.00    -0.253 C  
HETATM   23  O   UNL     1     -11.660   4.712  73.387  1.00  0.00    -0.317 OA 
ENDBRANCH  14  16
ENDBRANCH   5  14
TORSDOF 2
ENDMDL
MODEL       36
REMARK 921   NORMALIZED FREE ENERGY PREDICTED BY IDOCK:   -6.20 KCAL/MOL
REMARK 922        TOTAL FREE ENERGY PREDICTED BY IDOCK:   -7.29 KCAL/MOL
REMARK 923 INTER-LIGAND FREE ENERGY PREDICTED BY IDOCK:   -6.81 KCAL/MOL
REMARK 924 INTRA-LIGAND FREE ENERGY PREDICTED BY IDOCK:   -0.47 KCAL/MOL
REMARK 927      BINDING AFFINITY PREDICTED BY RF-SCORE:    0.00 PKD
ROOT
HETATM    1  O   UNL     1     -12.489  11.266  69.216  1.00  0.00    -0.331 OA 
HETATM    2  N   UNL     1     -11.456  10.643  69.493  1.00  0.00    -0.269 N  
HETATM    3  C   UNL     1     -10.671  10.159  68.365  1.00  0.00    -0.230 A  
HETATM    4  O   UNL     1     -11.083  10.296  70.621  1.00  0.00    -0.315 OA 
HETATM    5  C   UNL     1     -10.124  11.049  67.429  1.00  0.00    -0.216 A  
HETATM    6  C   UNL     1      -9.435  10.509  66.336  1.00  0.00    -0.208 A  
HETATM    7  C   UNL     1      -9.933   6.741  66.842  1.00  0.00    -0.191 C  
HETATM    8  C   UNL     1      -9.354   9.120  66.157  1.00  0.00    -0.288 A  
HETATM    9  C   UNL     1     -10.590   8.767  68.200  1.00  0.00    -0.203 A  
HETATM   10  F   UNL     1      -9.293   6.069  67.834  1.00  0.00    -0.115 F  
HETATM   11  C   UNL     1      -9.948   8.238  67.073  1.00  0.00    -0.325 A  
HETATM   12  F   UNL     1      -9.327   6.376  65.681  1.00  0.00    -0.114 F  
HETATM   13  F   UNL     1     -11.192   6.226  66.788  1.00  0.00    -0.408 F  
ENDROOT
BRANCH   5  14
HETATM   14  C   UNL     1     -10.230  12.526  67.589  1.00  0.00    -0.219 C  
HETATM   15  O   UNL     1      -9.310  13.101  68.162  1.00  0.00    -0.208 OA 
BRANCH  14  16
HETATM   16  C   UNL     1     -11.432  13.265  67.035  1.00  0.00    -0.378 C  
HETATM   17  C   UNL     1     -10.680  15.137  64.832  1.00  0.00    -0.421 C  
HETATM   18  C   UNL     1     -10.372  15.484  66.283  1.00  0.00    -0.312 C  
HETATM   19  C   UNL     1     -11.326  14.762  67.208  1.00  0.00    -0.357 C  
HETATM   20  O   UNL     1     -11.909  15.347  68.118  1.00  0.00    -0.320 OA 
HETATM   21  C   UNL     1     -10.719  13.632  64.587  1.00  0.00    -0.433 C  
HETATM   22  C   UNL     1     -11.664  12.970  65.568  1.00  0.00    -0.368 C  
HETATM   23  O   UNL     1     -12.563  12.217  65.195  1.00  0.00    -0.585 OA 
ENDBRANCH  14  16
ENDBRANCH   5  14
TORSDOF 2
ENDMDL
MODEL       37
REMARK 921   NORMALIZED FREE ENERGY PREDICTED BY IDOCK:   -6.19 KCAL/MOL
REMARK 922        TOTAL FREE ENERGY PREDICTED BY IDOCK:   -7.28 KCAL/MOL
REMARK 923 INTER-LIGAND FREE ENERGY PREDICTED BY IDOCK:   -6.86 KCAL/MOL
REMARK 924 INTRA-LIGAND FREE ENERGY PREDICTED BY IDOCK:   -0.42 KCAL/MOL
REMARK 927      BINDING AFFINITY PREDICTED BY RF-SCORE:    0.00 PKD
ROOT
HETATM    1  O   UNL     1      -8.761  12.024  68.294  1.00  0.00    -0.174 OA 
HETATM    2  N   UNL     1      -9.905  11.621  68.051  1.00  0.00    -0.184 N  
HETATM    3  C   UNL     1     -10.929  11.955  69.031  1.00  0.00    -0.219 A  
HETATM    4  O   UNL     1     -10.244  10.873  67.124  1.00  0.00    -0.194 OA 
HETATM    5  C   UNL     1     -11.244  13.291  69.322  1.00  0.00    -0.266 A  
HETATM    6  C   UNL     1     -12.195  13.538  70.320  1.00  0.00    -0.417 A  
HETATM    7  C   UNL     1     -12.950  10.009  71.615  1.00  0.00    -0.449 C  
HETATM    8  C   UNL     1     -12.761  12.480  71.046  1.00  0.00    -0.316 A  
HETATM    9  C   UNL     1     -11.495  10.888  69.746  1.00  0.00    -0.390 A  
HETATM   10  F   UNL     1     -13.663   9.121  70.875  1.00  0.00    -0.285 F  
HETATM   11  C   UNL     1     -12.402  11.149  70.782  1.00  0.00    -0.504 A  
HETATM   12  F   UNL     1     -13.770  10.416  72.620  1.00  0.00    -0.305 F  
HETATM   13  F   UNL     1     -11.955   9.294  72.208  1.00  0.00    -0.417 F  
ENDROOT
BRANCH   5  14
HETATM   14  C   UNL     1     -10.627  14.426  68.582  1.00  0.00    -0.252 C  
HETATM   15  O   UNL     1      -9.477  14.737  68.879  1.00  0.00    -0.203 OA 
BRANCH  14  16
HETATM   16  C   UNL     1     -11.407  15.138  67.494  1.00  0.00    -0.325 C  
HETATM   17  C   UNL     1      -9.822  15.419  64.977  1.00  0.00     0.008 C  
HETATM   18  C   UNL     1      -9.523  16.300  66.183  1.00  0.00    -0.373 C  
HETATM   19  C   UNL     1     -10.752  16.427  67.056  1.00  0.00    -0.217 C  
HETATM   20  O   UNL     1     -11.140  17.518  67.469  1.00  0.00    -0.181 OA 
HETATM   21  C   UNL     1     -10.411  14.068  65.372  1.00  0.00    -0.377 C  
HETATM   22  C   UNL     1     -11.613  14.269  66.272  1.00  0.00    -0.372 C  
HETATM   23  O   UNL     1     -12.698  13.739  66.032  1.00  0.00    -0.444 OA 
ENDBRANCH  14  16
ENDBRANCH   5  14
TORSDOF 2
ENDMDL
MODEL       38
REMARK 921   NORMALIZED FREE ENERGY PREDICTED BY IDOCK:   -6.18 KCAL/MOL
REMARK 922        TOTAL FREE ENERGY PREDICTED BY IDOCK:   -7.27 KCAL/MOL
REMARK 923 INTER-LIGAND FREE ENERGY PREDICTED BY IDOCK:   -6.85 KCAL/MOL
REMARK 924 INTRA-LIGAND FREE ENERGY PREDICTED BY IDOCK:   -0.42 KCAL/MOL
REMARK 927      BINDING AFFINITY PREDICTED BY RF-SCORE:    0.00 PKD
ROOT
HETATM    1  O   UNL     1      -9.116   9.636  67.242  1.00  0.00    -0.133 OA 
HETATM    2  N   UNL     1     -10.147   9.001  67.500  1.00  0.00    -0.211 N  
HETATM    3  C   UNL     1     -10.779   9.288  68.780  1.00  0.00    -0.154 A  
HETATM    4  O   UNL     1     -10.630   8.076  66.834  1.00  0.00    -0.338 OA 
HETATM    5  C   UNL     1     -11.253  10.573  69.081  1.00  0.00    -0.314 A  
HETATM    6  C   UNL     1     -11.793  10.792  70.355  1.00  0.00    -0.450 A  
HETATM    7  C   UNL     1     -11.202   7.417  72.076  1.00  0.00    -0.251 C  
HETATM    8  C   UNL     1     -11.796   9.769  71.315  1.00  0.00    -0.481 A  
HETATM    9  C   UNL     1     -10.784   8.255  69.730  1.00  0.00    -0.221 A  
HETATM   10  F   UNL     1     -11.922   6.315  71.740  1.00  0.00    -0.347 F  
HETATM   11  C   UNL     1     -11.273   8.500  71.020  1.00  0.00    -0.312 A  
HETATM   12  F   UNL     1     -11.657   7.814  73.294  1.00  0.00    -0.387 F  
HETATM   13  F   UNL     1      -9.925   6.989  72.274  1.00  0.00    -0.173 F  
ENDROOT
BRANCH   5  14
HETATM   14  C   UNL     1     -11.226  11.678  68.083  1.00  0.00    -0.263 C  
HETATM   15  O   UNL     1     -11.990  11.596  67.125  1.00  0.00    -0.614 OA 
BRANCH  14  16
HETATM   16  C   UNL     1     -10.293  12.858  68.280  1.00  0.00    -0.248 C  
HETATM   17  C   UNL     1     -10.804  15.035  66.300  1.00  0.00    -0.333 C  
HETATM   18  C   UNL     1     -10.085  13.759  65.880  1.00  0.00    -0.325 C  
HETATM   19  C   UNL     1      -9.419  13.116  67.076  1.00  0.00    -0.242 C  
HETATM   20  O   UNL     1      -8.251  12.733  67.035  1.00  0.00    -0.169 OA 
HETATM   21  C   UNL     1     -11.763  14.809  67.464  1.00  0.00    -0.370 C  
HETATM   22  C   UNL     1     -11.040  14.132  68.610  1.00  0.00    -0.262 C  
HETATM   23  O   UNL     1     -11.071  14.585  69.754  1.00  0.00    -0.251 OA 
ENDBRANCH  14  16
ENDBRANCH   5  14
TORSDOF 2
ENDMDL
MODEL       39
REMARK 921   NORMALIZED FREE ENERGY PREDICTED BY IDOCK:   -6.17 KCAL/MOL
REMARK 922        TOTAL FREE ENERGY PREDICTED BY IDOCK:   -7.25 KCAL/MOL
REMARK 923 INTER-LIGAND FREE ENERGY PREDICTED BY IDOCK:   -7.14 KCAL/MOL
REMARK 924 INTRA-LIGAND FREE ENERGY PREDICTED BY IDOCK:   -0.11 KCAL/MOL
REMARK 927      BINDING AFFINITY PREDICTED BY RF-SCORE:    0.00 PKD
ROOT
HETATM    1  O   UNL     1     -10.722  16.530  69.687  1.00  0.00    -0.322 OA 
HETATM    2  N   UNL     1     -10.041  15.845  68.912  1.00  0.00    -0.214 N  
HETATM    3  C   UNL     1     -10.330  15.995  67.493  1.00  0.00    -0.287 A  
HETATM    4  O   UNL     1      -9.222  14.972  69.226  1.00  0.00    -0.206 OA 
HETATM    5  C   UNL     1     -10.182  17.233  66.851  1.00  0.00    -0.322 A  
HETATM    6  C   UNL     1     -10.539  17.317  65.499  1.00  0.00    -0.136 A  
HETATM    7  C   UNL     1     -11.942  13.816  64.809  1.00  0.00    -0.404 C  
HETATM    8  C   UNL     1     -11.087  16.210  64.834  1.00  0.00    -0.336 A  
HETATM    9  C   UNL     1     -10.871  14.879  66.835  1.00  0.00    -0.319 A  
HETATM   10  F   UNL     1     -11.130  12.730  64.735  1.00  0.00    -0.297 F  
HETATM   11  C   UNL     1     -11.278  14.990  65.500  1.00  0.00    -0.344 A  
HETATM   12  F   UNL     1     -12.337  14.087  63.537  1.00  0.00    -0.518 F  
HETATM   13  F   UNL     1     -13.059  13.408  65.471  1.00  0.00    -0.495 F  
ENDROOT
BRANCH   5  14
HETATM   14  C   UNL     1      -9.632  18.425  67.553  1.00  0.00    -0.284 C  
HETATM   15  O   UNL     1     -10.395  19.056  68.280  1.00  0.00    -0.373 OA 
BRANCH  14  16
HETATM   16  C   UNL     1      -8.176  18.809  67.374  1.00  0.00    -0.278 C  
HETATM   17  C   UNL     1      -6.329  16.588  68.133  1.00  0.00    -0.138 C  
HETATM   18  C   UNL     1      -7.042  17.403  69.204  1.00  0.00    -0.196 C  
HETATM   19  C   UNL     1      -7.400  18.771  68.669  1.00  0.00    -0.307 C  
HETATM   20  O   UNL     1      -7.159  19.796  69.304  1.00  0.00    -0.352 OA 
HETATM   21  C   UNL     1      -7.114  16.526  66.827  1.00  0.00    -0.253 C  
HETATM   22  C   UNL     1      -7.469  17.926  66.368  1.00  0.00    -0.273 C  
HETATM   23  O   UNL     1      -7.211  18.320  65.231  1.00  0.00    -0.494 OA 
ENDBRANCH  14  16
ENDBRANCH   5  14
TORSDOF 2
ENDMDL
MODEL       40
REMARK 921   NORMALIZED FREE ENERGY PREDICTED BY IDOCK:   -6.11 KCAL/MOL
REMARK 922        TOTAL FREE ENERGY PREDICTED BY IDOCK:   -7.19 KCAL/MOL
REMARK 923 INTER-LIGAND FREE ENERGY PREDICTED BY IDOCK:   -6.99 KCAL/MOL
REMARK 924 INTRA-LIGAND FREE ENERGY PREDICTED BY IDOCK:   -0.20 KCAL/MOL
REMARK 927      BINDING AFFINITY PREDICTED BY RF-SCORE:    0.00 PKD
ROOT
HETATM    1  O   UNL     1     -10.800   9.447  71.244  1.00  0.00    -0.314 OA 
HETATM    2  N   UNL     1     -11.882   9.944  70.905  1.00  0.00    -0.329 N  
HETATM    3  C   UNL     1     -11.838  11.316  70.417  1.00  0.00    -0.350 A  
HETATM    4  O   UNL     1     -13.003   9.437  71.041  1.00  0.00    -0.269 OA 
HETATM    5  C   UNL     1     -11.095  11.655  69.278  1.00  0.00    -0.291 A  
HETATM    6  C   UNL     1     -11.048  13.004  68.903  1.00  0.00    -0.307 A  
HETATM    7  C   UNL     1     -12.983  14.704  71.743  1.00  0.00    -0.335 C  
HETATM    8  C   UNL     1     -11.673  13.985  69.685  1.00  0.00    -0.368 A  
HETATM    9  C   UNL     1     -12.475  12.289  71.204  1.00  0.00    -0.328 A  
HETATM   10  F   UNL     1     -14.330  14.575  71.857  1.00  0.00    -0.470 F  
HETATM   11  C   UNL     1     -12.373  13.641  70.852  1.00  0.00    -0.450 A  
HETATM   12  F   UNL     1     -12.755  15.973  71.309  1.00  0.00    -0.483 F  
HETATM   13  F   UNL     1     -12.488  14.645  73.009  1.00  0.00    -0.416 F  
ENDROOT
BRANCH   5  14
HETATM   14  C   UNL     1     -10.398  10.627  68.455  1.00  0.00    -0.183 C  
HETATM   15  O   UNL     1      -9.317  10.212  68.865  1.00  0.00    -0.160 OA 
BRANCH  14  16
HETATM   16  C   UNL     1     -11.033  10.118  67.176  1.00  0.00    -0.204 C  
HETATM   17  C   UNL     1      -9.058   9.918  64.945  1.00  0.00    -0.271 C  
HETATM   18  C   UNL     1      -9.591  11.274  65.387  1.00  0.00    -0.261 C  
HETATM   19  C   UNL     1     -10.944  11.115  66.045  1.00  0.00    -0.123 C  
HETATM   20  O   UNL     1     -11.897  11.830  65.742  1.00  0.00    -0.379 OA 
HETATM   21  C   UNL     1      -9.051   8.895  66.076  1.00  0.00    -0.265 C  
HETATM   22  C   UNL     1     -10.424   8.813  66.711  1.00  0.00    -0.213 C  
HETATM   23  O   UNL     1     -11.008   7.740  66.857  1.00  0.00    -0.217 OA 
ENDBRANCH  14  16
ENDBRANCH   5  14
TORSDOF 2
ENDMDL
MODEL       41
REMARK 921   NORMALIZED FREE ENERGY PREDICTED BY IDOCK:   -6.07 KCAL/MOL
REMARK 922        TOTAL FREE ENERGY PREDICTED BY IDOCK:   -7.15 KCAL/MOL
REMARK 923 INTER-LIGAND FREE ENERGY PREDICTED BY IDOCK:   -6.79 KCAL/MOL
REMARK 924 INTRA-LIGAND FREE ENERGY PREDICTED BY IDOCK:   -0.36 KCAL/MOL
REMARK 927      BINDING AFFINITY PREDICTED BY RF-SCORE:    0.00 PKD
ROOT
HETATM    1  O   UNL     1     -10.476  10.730  69.659  1.00  0.00    -0.219 OA 
HETATM    2  N   UNL     1     -11.324  10.645  68.761  1.00  0.00    -0.271 N  
HETATM    3  C   UNL     1     -10.821  10.368  67.423  1.00  0.00    -0.286 A  
HETATM    4  O   UNL     1     -12.535  10.880  68.865  1.00  0.00    -0.431 OA 
HETATM    5  C   UNL     1     -10.115   9.189  67.144  1.00  0.00    -0.301 A  
HETATM    6  C   UNL     1      -9.607   9.019  65.850  1.00  0.00    -0.317 A  
HETATM    7  C   UNL     1     -10.502  12.353  64.181  1.00  0.00    -0.389 C  
HETATM    8  C   UNL     1      -9.749  10.029  64.887  1.00  0.00    -0.377 A  
HETATM    9  C   UNL     1     -10.976  11.383  66.465  1.00  0.00    -0.328 A  
HETATM   10  F   UNL     1     -11.784  12.659  63.854  1.00  0.00    -0.378 F  
HETATM   11  C   UNL     1     -10.415  11.227  65.191  1.00  0.00    -0.351 A  
HETATM   12  F   UNL     1      -9.863  12.085  63.011  1.00  0.00    -0.400 F  
HETATM   13  F   UNL     1      -9.948  13.502  64.657  1.00  0.00    -0.354 F  
ENDROOT
BRANCH   5  14
HETATM   14  C   UNL     1      -9.927   8.122  68.166  1.00  0.00    -0.186 C  
HETATM   15  O   UNL     1      -8.972   8.230  68.929  1.00  0.00    -0.143 OA 
BRANCH  14  16
HETATM   16  C   UNL     1     -10.908   6.968  68.248  1.00  0.00    -0.198 C  
HETATM   17  C   UNL     1      -9.695   4.553  69.521  1.00  0.00    -0.282 C  
HETATM   18  C   UNL     1      -9.334   4.940  68.092  1.00  0.00    -0.164 C  
HETATM   19  C   UNL     1     -10.447   5.756  67.473  1.00  0.00    -0.245 C  
HETATM   20  O   UNL     1     -10.886   5.503  66.353  1.00  0.00    -0.270 OA 
HETATM   21  C   UNL     1     -10.090   5.757  70.370  1.00  0.00    -0.271 C  
HETATM   22  C   UNL     1     -11.182   6.547  69.676  1.00  0.00    -0.384 C  
HETATM   23  O   UNL     1     -12.229   6.845  70.247  1.00  0.00    -0.243 OA 
ENDBRANCH  14  16
ENDBRANCH   5  14
TORSDOF 2
ENDMDL
MODEL       42
REMARK 921   NORMALIZED FREE ENERGY PREDICTED BY IDOCK:   -6.04 KCAL/MOL
REMARK 922        TOTAL FREE ENERGY PREDICTED BY IDOCK:   -7.11 KCAL/MOL
REMARK 923 INTER-LIGAND FREE ENERGY PREDICTED BY IDOCK:   -6.59 KCAL/MOL
REMARK 924 INTRA-LIGAND FREE ENERGY PREDICTED BY IDOCK:   -0.53 KCAL/MOL
REMARK 927      BINDING AFFINITY PREDICTED BY RF-SCORE:    0.00 PKD
ROOT
HETATM    1  O   UNL     1      -8.394  11.180  65.896  1.00  0.00    -0.153 OA 
HETATM    2  N   UNL     1      -9.464  10.557  65.914  1.00  0.00    -0.180 N  
HETATM    3  C   UNL     1     -10.018  10.264  67.229  1.00  0.00    -0.190 A  
HETATM    4  O   UNL     1     -10.048  10.065  64.941  1.00  0.00    -0.316 OA 
HETATM    5  C   UNL     1     -10.371  11.295  68.112  1.00  0.00    -0.205 A  
HETATM    6  C   UNL     1     -10.839  10.939  69.383  1.00  0.00    -0.286 A  
HETATM    7  C   UNL     1     -10.465   7.123  69.346  1.00  0.00    -0.222 C  
HETATM    8  C   UNL     1     -10.890   9.593  69.775  1.00  0.00    -0.274 A  
HETATM    9  C   UNL     1     -10.072   8.913  67.608  1.00  0.00    -0.274 A  
HETATM   10  F   UNL     1     -11.287   6.339  68.603  1.00  0.00    -0.381 F  
HETATM   11  C   UNL     1     -10.487   8.571  68.901  1.00  0.00    -0.207 A  
HETATM   12  F   UNL     1     -10.837   6.947  70.642  1.00  0.00    -0.236 F  
HETATM   13  F   UNL     1      -9.221   6.581  69.235  1.00  0.00    -0.137 F  
ENDROOT
BRANCH   5  14
HETATM   14  C   UNL     1     -10.291  12.730  67.721  1.00  0.00    -0.221 C  
HETATM   15  O   UNL     1      -9.213  13.299  67.869  1.00  0.00    -0.196 OA 
BRANCH  14  16
HETATM   16  C   UNL     1     -11.507  13.430  67.146  1.00  0.00    -0.373 C  
HETATM   17  C   UNL     1     -10.772  15.379  65.005  1.00  0.00    -0.460 C  
HETATM   18  C   UNL     1     -10.522  15.707  66.471  1.00  0.00    -0.303 C  
HETATM   19  C   UNL     1     -11.470  14.925  67.352  1.00  0.00    -0.343 C  
HETATM   20  O   UNL     1     -12.105  15.466  68.256  1.00  0.00    -0.191 OA 
HETATM   21  C   UNL     1     -10.738  13.879  64.729  1.00  0.00    -0.437 C  
HETATM   22  C   UNL     1     -11.682  13.156  65.667  1.00  0.00    -0.364 C  
HETATM   23  O   UNL     1     -12.536  12.374  65.252  1.00  0.00    -0.636 OA 
ENDBRANCH  14  16
ENDBRANCH   5  14
TORSDOF 2
ENDMDL
MODEL       43
REMARK 921   NORMALIZED FREE ENERGY PREDICTED BY IDOCK:   -6.04 KCAL/MOL
REMARK 922        TOTAL FREE ENERGY PREDICTED BY IDOCK:   -7.11 KCAL/MOL
REMARK 923 INTER-LIGAND FREE ENERGY PREDICTED BY IDOCK:   -6.99 KCAL/MOL
REMARK 924 INTRA-LIGAND FREE ENERGY PREDICTED BY IDOCK:   -0.12 KCAL/MOL
REMARK 927      BINDING AFFINITY PREDICTED BY RF-SCORE:    0.00 PKD
ROOT
HETATM    1  O   UNL     1     -12.671  14.248  64.572  1.00  0.00    -0.662 OA 
HETATM    2  N   UNL     1     -12.632  13.020  64.728  1.00  0.00    -0.424 N  
HETATM    3  C   UNL     1     -11.356  12.465  65.157  1.00  0.00    -0.323 A  
HETATM    4  O   UNL     1     -13.528  12.212  64.451  1.00  0.00    -0.675 OA 
HETATM    5  C   UNL     1     -10.776  12.841  66.377  1.00  0.00    -0.282 A  
HETATM    6  C   UNL     1      -9.518  12.314  66.696  1.00  0.00    -0.227 A  
HETATM    7  C   UNL     1      -8.643  10.332  63.532  1.00  0.00    -0.195 C  
HETATM    8  C   UNL     1      -8.839  11.488  65.788  1.00  0.00    -0.060 A  
HETATM    9  C   UNL     1     -10.688  11.632  64.244  1.00  0.00    -0.398 A  
HETATM   10  F   UNL     1      -9.276   9.169  63.228  1.00  0.00    -0.195 F  
HETATM   11  C   UNL     1      -9.406  11.157  64.548  1.00  0.00    -0.191 A  
HETATM   12  F   UNL     1      -7.391   9.991  63.939  1.00  0.00    -0.120 F  
HETATM   13  F   UNL     1      -8.488  10.997  62.355  1.00  0.00    -0.237 F  
ENDROOT
BRANCH   5  14
HETATM   14  C   UNL     1     -11.472  13.743  67.336  1.00  0.00    -0.345 C  
HETATM   15  O   UNL     1     -12.211  13.225  68.168  1.00  0.00    -0.266 OA 
BRANCH  14  16
HETATM   16  C   UNL     1     -11.240  15.241  67.275  1.00  0.00    -0.306 C  
HETATM   17  C   UNL     1      -8.478  15.984  68.135  1.00  0.00    -0.169 C  
HETATM   18  C   UNL     1      -9.526  15.576  69.162  1.00  0.00    -0.246 C  
HETATM   19  C   UNL     1     -10.916  15.835  68.625  1.00  0.00    -0.307 C  
HETATM   20  O   UNL     1     -11.768  16.415  69.294  1.00  0.00    -0.195 OA 
HETATM   21  C   UNL     1      -8.716  15.343  66.771  1.00  0.00    -0.304 C  
HETATM   22  C   UNL     1     -10.134  15.612  66.311  1.00  0.00    -0.299 C  
HETATM   23  O   UNL     1     -10.376  16.092  65.204  1.00  0.00    -0.560 OA 
ENDBRANCH  14  16
ENDBRANCH   5  14
TORSDOF 2
ENDMDL
MODEL       44
REMARK 921   NORMALIZED FREE ENERGY PREDICTED BY IDOCK:   -6.02 KCAL/MOL
REMARK 922        TOTAL FREE ENERGY PREDICTED BY IDOCK:   -7.09 KCAL/MOL
REMARK 923 INTER-LIGAND FREE ENERGY PREDICTED BY IDOCK:   -6.77 KCAL/MOL
REMARK 924 INTRA-LIGAND FREE ENERGY PREDICTED BY IDOCK:   -0.32 KCAL/MOL
REMARK 927      BINDING AFFINITY PREDICTED BY RF-SCORE:    0.00 PKD
ROOT
HETATM    1  O   UNL     1     -10.942  15.848  64.936  1.00  0.00    -0.443 OA 
HETATM    2  N   UNL     1     -11.545  14.822  64.592  1.00  0.00    -0.407 N  
HETATM    3  C   UNL     1     -10.947  13.557  64.994  1.00  0.00    -0.335 A  
HETATM    4  O   UNL     1     -12.537  14.761  63.854  1.00  0.00    -0.834 OA 
HETATM    5  C   UNL     1     -10.765  13.239  66.347  1.00  0.00    -0.291 A  
HETATM    6  C   UNL     1     -10.126  12.032  66.658  1.00  0.00    -0.220 A  
HETATM    7  C   UNL     1      -9.169  10.704  63.190  1.00  0.00    -0.294 C  
HETATM    8  C   UNL     1      -9.630  11.204  65.641  1.00  0.00    -0.259 A  
HETATM    9  C   UNL     1     -10.461  12.731  63.967  1.00  0.00    -0.433 A  
HETATM   10  F   UNL     1     -10.106  10.220  62.335  1.00  0.00    -0.195 F  
HETATM   11  C   UNL     1      -9.773  11.555  64.289  1.00  0.00    -0.229 A  
HETATM   12  F   UNL     1      -8.481   9.627  63.653  1.00  0.00    -0.140 F  
HETATM   13  F   UNL     1      -8.291  11.413  62.429  1.00  0.00    -0.288 F  
ENDROOT
BRANCH   5  14
HETATM   14  C   UNL     1     -11.257  14.125  67.439  1.00  0.00    -0.318 C  
HETATM   15  O   UNL     1     -12.446  14.433  67.426  1.00  0.00    -0.184 OA 
BRANCH  14  16
HETATM   16  C   UNL     1     -10.307  14.596  68.522  1.00  0.00    -0.238 C  
HETATM   17  C   UNL     1      -9.322  17.371  68.021  1.00  0.00    -0.276 C  
HETATM   18  C   UNL     1      -8.783  16.200  67.211  1.00  0.00    -0.202 C  
HETATM   19  C   UNL     1      -8.929  14.912  67.990  1.00  0.00    -0.172 C  
HETATM   20  O   UNL     1      -7.998  14.116  68.102  1.00  0.00    -0.122 OA 
HETATM   21  C   UNL     1     -10.746  17.135  68.514  1.00  0.00    -0.326 C  
HETATM   22  C   UNL     1     -10.827  15.815  69.254  1.00  0.00    -0.255 C  
HETATM   23  O   UNL     1     -11.307  15.734  70.384  1.00  0.00    -0.310 OA 
ENDBRANCH  14  16
ENDBRANCH   5  14
TORSDOF 2
ENDMDL
MODEL       45
REMARK 921   NORMALIZED FREE ENERGY PREDICTED BY IDOCK:   -5.98 KCAL/MOL
REMARK 922        TOTAL FREE ENERGY PREDICTED BY IDOCK:   -7.05 KCAL/MOL
REMARK 923 INTER-LIGAND FREE ENERGY PREDICTED BY IDOCK:   -6.49 KCAL/MOL
REMARK 924 INTRA-LIGAND FREE ENERGY PREDICTED BY IDOCK:   -0.55 KCAL/MOL
REMARK 927      BINDING AFFINITY PREDICTED BY RF-SCORE:    0.00 PKD
ROOT
HETATM    1  O   UNL     1     -12.925  12.700  65.073  1.00  0.00    -0.812 OA 
HETATM    2  N   UNL     1     -11.757  13.023  64.823  1.00  0.00    -0.329 N  
HETATM    3  C   UNL     1     -11.002  13.616  65.918  1.00  0.00    -0.282 A  
HETATM    4  O   UNL     1     -11.204  12.995  63.716  1.00  0.00    -0.406 OA 
HETATM    5  C   UNL     1     -10.764  12.904  67.103  1.00  0.00    -0.268 A  
HETATM    6  C   UNL     1     -10.085  13.559  68.137  1.00  0.00    -0.250 A  
HETATM    7  C   UNL     1      -9.675  17.100  66.724  1.00  0.00    -0.271 C  
HETATM    8  C   UNL     1      -9.715  14.906  68.008  1.00  0.00    -0.212 A  
HETATM    9  C   UNL     1     -10.629  14.962  65.775  1.00  0.00    -0.342 A  
HETATM   10  F   UNL     1      -8.804  17.362  65.715  1.00  0.00    -0.175 F  
HETATM   11  C   UNL     1     -10.001  15.625  66.838  1.00  0.00    -0.252 A  
HETATM   12  F   UNL     1      -9.123  17.623  67.851  1.00  0.00    -0.242 F  
HETATM   13  F   UNL     1     -10.786  17.844  66.468  1.00  0.00    -0.330 F  
ENDROOT
BRANCH   5  14
HETATM   14  C   UNL     1     -11.181  11.483  67.266  1.00  0.00    -0.301 C  
HETATM   15  O   UNL     1     -12.214  11.264  67.893  1.00  0.00    -0.570 OA 
BRANCH  14  16
HETATM   16  C   UNL     1     -10.351  10.372  66.653  1.00  0.00    -0.292 C  
HETATM   17  C   UNL     1      -7.745  10.007  68.066  1.00  0.00    -0.089 C  
HETATM   18  C   UNL     1      -7.960  11.190  67.130  1.00  0.00    -0.139 C  
HETATM   19  C   UNL     1      -9.030  10.864  66.111  1.00  0.00    -0.183 C  
HETATM   20  O   UNL     1      -8.867  11.081  64.912  1.00  0.00    -0.159 OA 
HETATM   21  C   UNL     1      -9.043   9.523  68.703  1.00  0.00    -0.132 C  
HETATM   22  C   UNL     1     -10.079   9.250  67.631  1.00  0.00    -0.214 C  
HETATM   23  O   UNL     1     -10.680   8.178  67.569  1.00  0.00    -0.242 OA 
ENDBRANCH  14  16
ENDBRANCH   5  14
TORSDOF 2
ENDMDL
MODEL       46
REMARK 921   NORMALIZED FREE ENERGY PREDICTED BY IDOCK:   -5.96 KCAL/MOL
REMARK 922        TOTAL FREE ENERGY PREDICTED BY IDOCK:   -7.03 KCAL/MOL
REMARK 923 INTER-LIGAND FREE ENERGY PREDICTED BY IDOCK:   -6.52 KCAL/MOL
REMARK 924 INTRA-LIGAND FREE ENERGY PREDICTED BY IDOCK:   -0.50 KCAL/MOL
REMARK 927      BINDING AFFINITY PREDICTED BY RF-SCORE:    0.00 PKD
ROOT
HETATM    1  O   UNL     1     -10.416  15.805  64.812  1.00  0.00    -0.490 OA 
HETATM    2  N   UNL     1     -10.603  15.183  65.866  1.00  0.00    -0.320 N  
HETATM    3  C   UNL     1      -9.438  14.530  66.445  1.00  0.00    -0.291 A  
HETATM    4  O   UNL     1     -11.692  14.970  66.414  1.00  0.00    -0.256 OA 
HETATM    5  C   UNL     1      -8.317  15.272  66.846  1.00  0.00    -0.278 A  
HETATM    6  C   UNL     1      -7.208  14.571  67.337  1.00  0.00    -0.165 A  
HETATM    7  C   UNL     1      -8.281  10.920  66.866  1.00  0.00    -0.135 C  
HETATM    8  C   UNL     1      -7.203  13.169  67.363  1.00  0.00    -0.119 A  
HETATM    9  C   UNL     1      -9.447  13.127  66.475  1.00  0.00    -0.246 A  
HETATM   10  F   UNL     1      -9.237  10.357  67.650  1.00  0.00    -0.144 F  
HETATM   11  C   UNL     1      -8.311  12.434  66.914  1.00  0.00    -0.117 A  
HETATM   12  F   UNL     1      -7.096  10.387  67.266  1.00  0.00    -0.082 F  
HETATM   13  F   UNL     1      -8.499  10.451  65.607  1.00  0.00    -0.141 F  
ENDROOT
BRANCH   5  14
HETATM   14  C   UNL     1      -8.295  16.760  66.792  1.00  0.00    -0.237 C  
HETATM   15  O   UNL     1      -7.928  17.284  65.744  1.00  0.00    -0.511 OA 
BRANCH  14  16
HETATM   16  C   UNL     1      -8.734  17.570  67.996  1.00  0.00    -0.254 C  
HETATM   17  C   UNL     1      -9.792  20.253  67.218  1.00  0.00    -0.593 C  
HETATM   18  C   UNL     1      -8.295  19.973  67.191  1.00  0.00    -0.381 C  
HETATM   19  C   UNL     1      -7.953  18.854  68.150  1.00  0.00    -0.300 C  
HETATM   20  O   UNL     1      -7.023  18.950  68.948  1.00  0.00    -0.291 OA 
HETATM   21  C   UNL     1     -10.626  18.997  66.986  1.00  0.00    -0.543 C  
HETATM   22  C   UNL     1     -10.208  17.910  67.955  1.00  0.00    -0.371 C  
HETATM   23  O   UNL     1     -11.027  17.320  68.659  1.00  0.00    -0.260 OA 
ENDBRANCH  14  16
ENDBRANCH   5  14
TORSDOF 2
ENDMDL
MODEL       47
REMARK 921   NORMALIZED FREE ENERGY PREDICTED BY IDOCK:   -5.95 KCAL/MOL
REMARK 922        TOTAL FREE ENERGY PREDICTED BY IDOCK:   -7.01 KCAL/MOL
REMARK 923 INTER-LIGAND FREE ENERGY PREDICTED BY IDOCK:   -6.65 KCAL/MOL
REMARK 924 INTRA-LIGAND FREE ENERGY PREDICTED BY IDOCK:   -0.37 KCAL/MOL
REMARK 927      BINDING AFFINITY PREDICTED BY RF-SCORE:    0.00 PKD
ROOT
HETATM    1  O   UNL     1      -8.857  14.550  66.093  1.00  0.00    -0.061 OA 
HETATM    2  N   UNL     1      -8.143  15.290  66.783  1.00  0.00    -0.195 N  
HETATM    3  C   UNL     1      -8.811  16.413  67.426  1.00  0.00    -0.183 A  
HETATM    4  O   UNL     1      -6.912  15.237  66.891  1.00  0.00    -0.181 OA 
HETATM    5  C   UNL     1      -9.843  16.207  68.353  1.00  0.00    -0.222 A  
HETATM    6  C   UNL     1     -10.482  17.334  68.885  1.00  0.00    -0.327 A  
HETATM    7  C   UNL     1      -8.816  20.198  66.954  1.00  0.00    -0.332 C  
HETATM    8  C   UNL     1     -10.137  18.623  68.450  1.00  0.00    -0.426 A  
HETATM    9  C   UNL     1      -8.453  17.698  66.990  1.00  0.00    -0.252 A  
HETATM   10  F   UNL     1      -7.530  20.562  67.198  1.00  0.00    -0.300 F  
HETATM   11  C   UNL     1      -9.137  18.816  67.485  1.00  0.00    -0.296 A  
HETATM   12  F   UNL     1      -9.598  21.177  67.481  1.00  0.00    -0.572 F  
HETATM   13  F   UNL     1      -8.980  20.270  65.605  1.00  0.00    -0.292 F  
ENDROOT
BRANCH   5  14
HETATM   14  C   UNL     1     -10.242  14.843  68.800  1.00  0.00    -0.243 C  
HETATM   15  O   UNL     1      -9.376  14.138  69.309  1.00  0.00     0.104 OA 
BRANCH  14  16
HETATM   16  C   UNL     1     -11.677  14.380  68.636  1.00  0.00    -0.367 C  
HETATM   17  C   UNL     1     -11.867  11.419  68.291  1.00  0.00    -0.320 C  
HETATM   18  C   UNL     1     -11.382  12.302  67.149  1.00  0.00    -0.398 C  
HETATM   19  C   UNL     1     -11.923  13.706  67.307  1.00  0.00    -0.381 C  
HETATM   20  O   UNL     1     -12.448  14.304  66.370  1.00  0.00    -0.441 OA 
HETATM   21  C   UNL     1     -11.567  12.019  69.661  1.00  0.00    -0.371 C  
HETATM   22  C   UNL     1     -12.105  13.434  69.737  1.00  0.00    -0.310 C  
HETATM   23  O   UNL     1     -12.837  13.800  70.655  1.00  0.00    -0.280 OA 
ENDBRANCH  14  16
ENDBRANCH   5  14
TORSDOF 2
ENDMDL
MODEL       48
REMARK 921   NORMALIZED FREE ENERGY PREDICTED BY IDOCK:   -5.91 KCAL/MOL
REMARK 922        TOTAL FREE ENERGY PREDICTED BY IDOCK:   -6.96 KCAL/MOL
REMARK 923 INTER-LIGAND FREE ENERGY PREDICTED BY IDOCK:   -6.42 KCAL/MOL
REMARK 924 INTRA-LIGAND FREE ENERGY PREDICTED BY IDOCK:   -0.54 KCAL/MOL
REMARK 927      BINDING AFFINITY PREDICTED BY RF-SCORE:    0.00 PKD
ROOT
HETATM    1  O   UNL     1     -10.444   8.221  67.975  1.00  0.00    -0.215 OA 
HETATM    2  N   UNL     1      -9.891   9.084  68.670  1.00  0.00    -0.161 N  
HETATM    3  C   UNL     1     -10.751   9.829  69.578  1.00  0.00    -0.233 A  
HETATM    4  O   UNL     1      -8.712   9.450  68.592  1.00  0.00    -0.128 OA 
HETATM    5  C   UNL     1     -11.467   9.180  70.595  1.00  0.00    -0.310 A  
HETATM    6  C   UNL     1     -12.322   9.951  71.391  1.00  0.00    -0.498 A  
HETATM    7  C   UNL     1     -12.068  13.405  69.745  1.00  0.00    -0.310 C  
HETATM    8  C   UNL     1     -12.501  11.318  71.131  1.00  0.00    -0.479 A  
HETATM    9  C   UNL     1     -10.917  11.198  69.314  1.00  0.00    -0.300 A  
HETATM   10  F   UNL     1     -10.948  14.164  69.862  1.00  0.00    -0.229 F  
HETATM   11  C   UNL     1     -11.819  11.949  70.080  1.00  0.00    -0.407 A  
HETATM   12  F   UNL     1     -13.010  13.990  70.532  1.00  0.00    -0.374 F  
HETATM   13  F   UNL     1     -12.499  13.561  68.464  1.00  0.00    -0.323 F  
ENDROOT
BRANCH   5  14
HETATM   14  C   UNL     1     -11.312   7.722  70.861  1.00  0.00    -0.275 C  
HETATM   15  O   UNL     1     -12.214   6.979  70.488  1.00  0.00    -0.293 OA 
BRANCH  14  16
HETATM   16  C   UNL     1     -10.065   7.204  71.551  1.00  0.00    -0.197 C  
HETATM   17  C   UNL     1     -10.321   4.330  72.323  1.00  0.00    -0.214 C  
HETATM   18  C   UNL     1     -11.046   5.413  73.114  1.00  0.00    -0.363 C  
HETATM   19  C   UNL     1     -10.332   6.738  72.963  1.00  0.00    -0.228 C  
HETATM   20  O   UNL     1     -10.071   7.444  73.934  1.00  0.00    -0.313 OA 
HETATM   21  C   UNL     1     -10.099   4.721  70.866  1.00  0.00    -0.275 C  
HETATM   22  C   UNL     1      -9.414   6.071  70.789  1.00  0.00    -0.168 C  
HETATM   23  O   UNL     1      -8.391   6.241  70.127  1.00  0.00    -0.125 OA 
ENDBRANCH  14  16
ENDBRANCH   5  14
TORSDOF 2
ENDMDL
MODEL       49
REMARK 921   NORMALIZED FREE ENERGY PREDICTED BY IDOCK:   -5.91 KCAL/MOL
REMARK 922        TOTAL FREE ENERGY PREDICTED BY IDOCK:   -6.96 KCAL/MOL
REMARK 923 INTER-LIGAND FREE ENERGY PREDICTED BY IDOCK:   -7.02 KCAL/MOL
REMARK 924 INTRA-LIGAND FREE ENERGY PREDICTED BY IDOCK:    0.06 KCAL/MOL
REMARK 927      BINDING AFFINITY PREDICTED BY RF-SCORE:    0.00 PKD
ROOT
HETATM    1  O   UNL     1      -8.211  10.434  67.790  1.00  0.00    -0.110 OA 
HETATM    2  N   UNL     1      -9.427  10.314  67.589  1.00  0.00    -0.151 N  
HETATM    3  C   UNL     1     -10.299  11.188  68.361  1.00  0.00    -0.186 A  
HETATM    4  O   UNL     1      -9.977   9.457  66.885  1.00  0.00    -0.196 OA 
HETATM    5  C   UNL     1     -10.213  12.583  68.245  1.00  0.00    -0.235 A  
HETATM    6  C   UNL     1     -11.040  13.361  69.064  1.00  0.00    -0.293 A  
HETATM    7  C   UNL     1     -12.762  10.710  71.234  1.00  0.00    -0.433 C  
HETATM    8  C   UNL     1     -11.877  12.758  70.014  1.00  0.00    -0.352 A  
HETATM    9  C   UNL     1     -11.139  10.573  69.303  1.00  0.00    -0.298 A  
HETATM   10  F   UNL     1     -13.710   9.883  70.721  1.00  0.00    -0.408 F  
HETATM   11  C   UNL     1     -11.920  11.362  70.157  1.00  0.00    -0.460 A  
HETATM   12  F   UNL     1     -13.418  11.600  72.025  1.00  0.00    -0.535 F  
HETATM   13  F   UNL     1     -12.007   9.947  72.072  1.00  0.00    -0.440 F  
ENDROOT
BRANCH   5  14
HETATM   14  C   UNL     1      -9.304  13.238  67.264  1.00  0.00    -0.226 C  
HETATM   15  O   UNL     1      -8.166  13.506  67.638  1.00  0.00    -0.151 OA 
BRANCH  14  16
HETATM   16  C   UNL     1      -9.789  13.532  65.858  1.00  0.00    -0.255 C  
HETATM   17  C   UNL     1     -12.759  13.819  65.732  1.00  0.00    -0.494 C  
HETATM   18  C   UNL     1     -12.119  12.445  65.876  1.00  0.00    -0.352 C  
HETATM   19  C   UNL     1     -10.711  12.462  65.324  1.00  0.00    -0.287 C  
HETATM   20  O   UNL     1     -10.309  11.591  64.556  1.00  0.00    -0.262 OA 
HETATM   21  C   UNL     1     -11.901  14.929  66.331  1.00  0.00    -0.137 C  
HETATM   22  C   UNL     1     -10.498  14.866  65.761  1.00  0.00    -0.330 C  
HETATM   23  O   UNL     1      -9.957  15.851  65.261  1.00  0.00    -0.424 OA 
ENDBRANCH  14  16
ENDBRANCH   5  14
TORSDOF 2
ENDMDL
MODEL       50
REMARK 921   NORMALIZED FREE ENERGY PREDICTED BY IDOCK:   -5.88 KCAL/MOL
REMARK 922        TOTAL FREE ENERGY PREDICTED BY IDOCK:   -6.93 KCAL/MOL
REMARK 923 INTER-LIGAND FREE ENERGY PREDICTED BY IDOCK:   -6.46 KCAL/MOL
REMARK 924 INTRA-LIGAND FREE ENERGY PREDICTED BY IDOCK:   -0.47 KCAL/MOL
REMARK 927      BINDING AFFINITY PREDICTED BY RF-SCORE:    0.00 PKD
ROOT
HETATM    1  O   UNL     1     -11.116  14.162  70.194  1.00  0.00    -0.080 OA 
HETATM    2  N   UNL     1     -11.845  14.906  69.524  1.00  0.00    -0.308 N  
HETATM    3  C   UNL     1     -11.277  15.423  68.287  1.00  0.00    -0.323 A  
HETATM    4  O   UNL     1     -12.957  15.339  69.851  1.00  0.00    -0.087 OA 
HETATM    5  C   UNL     1     -10.872  14.559  67.259  1.00  0.00    -0.297 A  
HETATM    6  C   UNL     1     -10.277  15.124  66.124  1.00  0.00    -0.310 A  
HETATM    7  C   UNL     1     -10.074  18.833  67.073  1.00  0.00    -0.358 C  
HETATM    8  C   UNL     1     -10.038  16.504  66.054  1.00  0.00    -0.368 A  
HETATM    9  C   UNL     1     -11.050  16.807  68.224  1.00  0.00    -0.259 A  
HETATM   10  F   UNL     1     -11.186  19.612  67.125  1.00  0.00    -0.567 F  
HETATM   11  C   UNL     1     -10.402  17.354  67.110  1.00  0.00    -0.325 A  
HETATM   12  F   UNL     1      -9.393  19.212  65.959  1.00  0.00    -0.337 F  
HETATM   13  F   UNL     1      -9.302  19.205  68.131  1.00  0.00    -0.321 F  
ENDROOT
BRANCH   5  14
HETATM   14  C   UNL     1     -11.090  13.088  67.334  1.00  0.00    -0.272 C  
HETATM   15  O   UNL     1     -12.153  12.649  66.904  1.00  0.00    -0.490 OA 
BRANCH  14  16
HETATM   16  C   UNL     1     -10.011  12.188  67.906  1.00  0.00    -0.200 C  
HETATM   17  C   UNL     1      -9.916   9.537  66.534  1.00  0.00    -0.329 C  
HETATM   18  C   UNL     1     -11.027   9.857  67.525  1.00  0.00    -0.239 C  
HETATM   19  C   UNL     1     -10.569  10.917  68.502  1.00  0.00    -0.190 C  
HETATM   20  O   UNL     1     -10.732  10.792  69.713  1.00  0.00    -0.245 OA 
HETATM   21  C   UNL     1      -9.373  10.784  65.843  1.00  0.00    -0.220 C  
HETATM   22  C   UNL     1      -8.967  11.815  66.876  1.00  0.00    -0.195 C  
HETATM   23  O   UNL     1      -7.852  12.336  66.869  1.00  0.00    -0.138 OA 
ENDBRANCH  14  16
ENDBRANCH   5  14
TORSDOF 2
ENDMDL
MODEL       51
REMARK 921   NORMALIZED FREE ENERGY PREDICTED BY IDOCK:   -5.84 KCAL/MOL
REMARK 922        TOTAL FREE ENERGY PREDICTED BY IDOCK:   -6.89 KCAL/MOL
REMARK 923 INTER-LIGAND FREE ENERGY PREDICTED BY IDOCK:   -6.39 KCAL/MOL
REMARK 924 INTRA-LIGAND FREE ENERGY PREDICTED BY IDOCK:   -0.49 KCAL/MOL
REMARK 927      BINDING AFFINITY PREDICTED BY RF-SCORE:    0.00 PKD
ROOT
HETATM    1  O   UNL     1      -9.026  13.869  68.357  1.00  0.00    -0.186 OA 
HETATM    2  N   UNL     1     -10.245  14.065  68.263  1.00  0.00    -0.242 N  
HETATM    3  C   UNL     1     -10.870  14.778  69.368  1.00  0.00    -0.255 A  
HETATM    4  O   UNL     1     -10.998  13.624  67.386  1.00  0.00    -0.269 OA 
HETATM    5  C   UNL     1     -10.482  16.083  69.701  1.00  0.00    -0.300 A  
HETATM    6  C   UNL     1     -11.083  16.683  70.814  1.00  0.00     0.131 A  
HETATM    7  C   UNL     1     -13.265  13.845  72.187  1.00  0.00    -0.444 C  
HETATM    8  C   UNL     1     -11.996  15.970  71.605  1.00  0.00    -0.569 A  
HETATM    9  C   UNL     1     -11.789  14.057  70.148  1.00  0.00    -0.377 A  
HETATM   10  F   UNL     1     -14.392  13.444  71.543  1.00  0.00    -0.112 F  
HETATM   11  C   UNL     1     -12.341  14.646  71.292  1.00  0.00    -0.407 A  
HETATM   12  F   UNL     1     -13.677  14.524  73.290  1.00  0.00    -0.436 F  
HETATM   13  F   UNL     1     -12.667  12.711  72.644  1.00  0.00    -0.180 F  
ENDROOT
BRANCH   5  14
HETATM   14  C   UNL     1      -9.489  16.842  68.890  1.00  0.00    -0.246 C  
HETATM   15  O   UNL     1      -8.310  16.766  69.223  1.00  0.00    -0.145 OA 
BRANCH  14  16
HETATM   16  C   UNL     1      -9.945  17.651  67.692  1.00  0.00    -0.323 C  
HETATM   17  C   UNL     1      -7.652  18.523  65.988  1.00  0.00    -0.232 C  
HETATM   18  C   UNL     1      -7.930  19.206  67.321  1.00  0.00    -0.277 C  
HETATM   19  C   UNL     1      -9.389  19.055  67.692  1.00  0.00    -0.298 C  
HETATM   20  O   UNL     1     -10.061  20.013  68.069  1.00  0.00    -0.407 OA 
HETATM   21  C   UNL     1      -8.123  17.072  65.965  1.00  0.00    -0.178 C  
HETATM   22  C   UNL     1      -9.578  16.992  66.379  1.00  0.00    -0.282 C  
HETATM   23  O   UNL     1     -10.416  16.407  65.694  1.00  0.00    -0.361 OA 
ENDBRANCH  14  16
ENDBRANCH   5  14
TORSDOF 2
ENDMDL
MODEL       52
REMARK 921   NORMALIZED FREE ENERGY PREDICTED BY IDOCK:   -5.83 KCAL/MOL
REMARK 922        TOTAL FREE ENERGY PREDICTED BY IDOCK:   -6.88 KCAL/MOL
REMARK 923 INTER-LIGAND FREE ENERGY PREDICTED BY IDOCK:   -6.49 KCAL/MOL
REMARK 924 INTRA-LIGAND FREE ENERGY PREDICTED BY IDOCK:   -0.39 KCAL/MOL
REMARK 927      BINDING AFFINITY PREDICTED BY RF-SCORE:    0.00 PKD
ROOT
HETATM    1  O   UNL     1     -10.933  14.110  64.605  1.00  0.00    -0.391 OA 
HETATM    2  N   UNL     1     -11.341  13.372  65.512  1.00  0.00    -0.291 N  
HETATM    3  C   UNL     1     -10.391  13.065  66.571  1.00  0.00    -0.274 A  
HETATM    4  O   UNL     1     -12.430  12.785  65.551  1.00  0.00    -0.573 OA 
HETATM    5  C   UNL     1      -9.843  14.080  67.370  1.00  0.00    -0.240 A  
HETATM    6  C   UNL     1      -8.888  13.717  68.328  1.00  0.00    -0.185 A  
HETATM    7  C   UNL     1      -8.445   9.968  67.655  1.00  0.00    -0.114 C  
HETATM    8  C   UNL     1      -8.452  12.389  68.435  1.00  0.00    -0.131 A  
HETATM    9  C   UNL     1      -9.967  11.730  66.675  1.00  0.00    -0.224 A  
HETATM   10  F   UNL     1      -9.410   9.071  67.985  1.00  0.00    -0.139 F  
HETATM   11  C   UNL     1      -8.970  11.388  67.598  1.00  0.00    -0.140 A  
HETATM   12  F   UNL     1      -7.440   9.797  68.554  1.00  0.00    -0.075 F  
HETATM   13  F   UNL     1      -7.948   9.565  66.454  1.00  0.00    -0.106 F  
ENDROOT
BRANCH   5  14
HETATM   14  C   UNL     1     -10.272  15.500  67.244  1.00  0.00    -0.260 C  
HETATM   15  O   UNL     1     -11.170  15.888  67.986  1.00  0.00    -0.343 OA 
BRANCH  14  16
HETATM   16  C   UNL     1      -9.593  16.414  66.242  1.00  0.00    -0.338 C  
HETATM   17  C   UNL     1      -9.473  19.240  67.203  1.00  0.00    -0.388 C  
HETATM   18  C   UNL     1     -10.782  18.649  66.693  1.00  0.00    -0.316 C  
HETATM   19  C   UNL     1     -10.506  17.508  65.740  1.00  0.00    -0.207 C  
HETATM   20  O   UNL     1     -11.071  17.425  64.652  1.00  0.00    -1.029 OA 
HETATM   21  C   UNL     1      -8.547  18.182  67.796  1.00  0.00    -0.258 C  
HETATM   22  C   UNL     1      -8.343  17.055  66.805  1.00  0.00    -0.234 C  
HETATM   23  O   UNL     1      -7.219  16.669  66.485  1.00  0.00    -0.237 OA 
ENDBRANCH  14  16
ENDBRANCH   5  14
TORSDOF 2
ENDMDL
MODEL       53
REMARK 921   NORMALIZED FREE ENERGY PREDICTED BY IDOCK:   -5.83 KCAL/MOL
REMARK 922        TOTAL FREE ENERGY PREDICTED BY IDOCK:   -6.88 KCAL/MOL
REMARK 923 INTER-LIGAND FREE ENERGY PREDICTED BY IDOCK:   -6.44 KCAL/MOL
REMARK 924 INTRA-LIGAND FREE ENERGY PREDICTED BY IDOCK:   -0.43 KCAL/MOL
REMARK 927      BINDING AFFINITY PREDICTED BY RF-SCORE:    0.00 PKD
ROOT
HETATM    1  O   UNL     1      -8.993  15.655  67.842  1.00  0.00    -0.178 OA 
HETATM    2  N   UNL     1      -9.242  14.858  68.756  1.00  0.00    -0.189 N  
HETATM    3  C   UNL     1     -10.582  14.925  69.323  1.00  0.00    -0.243 A  
HETATM    4  O   UNL     1      -8.441  14.093  69.307  1.00  0.00     0.120 OA 
HETATM    5  C   UNL     1     -11.715  14.685  68.533  1.00  0.00    -0.348 A  
HETATM    6  C   UNL     1     -12.974  14.828  69.130  1.00  0.00     0.916 A  
HETATM    7  C   UNL     1     -12.070  16.089  72.637  1.00  0.00    -0.538 C  
HETATM    8  C   UNL     1     -13.089  15.260  70.460  1.00  0.00    -0.334 A  
HETATM    9  C   UNL     1     -10.685  15.351  70.657  1.00  0.00    -0.255 A  
HETATM   10  F   UNL     1     -11.502  15.269  73.559  1.00  0.00    -0.481 F  
HETATM   11  C   UNL     1     -11.950  15.546  71.228  1.00  0.00    -0.443 A  
HETATM   12  F   UNL     1     -13.355  16.283  73.037  1.00  0.00    -0.546 F  
HETATM   13  F   UNL     1     -11.449  17.293  72.768  1.00  0.00    -0.349 F  
ENDROOT
BRANCH   5  14
HETATM   14  C   UNL     1     -11.609  14.257  67.110  1.00  0.00    -0.380 C  
HETATM   15  O   UNL     1     -11.355  15.122  66.276  1.00  0.00    -0.317 OA 
BRANCH  14  16
HETATM   16  C   UNL     1     -11.792  12.798  66.740  1.00  0.00    -0.452 C  
HETATM   17  C   UNL     1      -9.706  11.858  64.819  1.00  0.00    -0.143 C  
HETATM   18  C   UNL     1     -10.847  12.750  64.348  1.00  0.00    -0.395 C  
HETATM   19  C   UNL     1     -12.042  12.599  65.264  1.00  0.00    -0.467 C  
HETATM   20  O   UNL     1     -13.175  12.422  64.822  1.00  0.00    -0.784 OA 
HETATM   21  C   UNL     1      -9.359  12.081  66.288  1.00  0.00    -0.228 C  
HETATM   22  C   UNL     1     -10.604  11.950  67.141  1.00  0.00    -0.231 C  
HETATM   23  O   UNL     1     -10.644  11.205  68.121  1.00  0.00    -0.176 OA 
ENDBRANCH  14  16
ENDBRANCH   5  14
TORSDOF 2
ENDMDL
MODEL       54
REMARK 921   NORMALIZED FREE ENERGY PREDICTED BY IDOCK:   -5.79 KCAL/MOL
REMARK 922        TOTAL FREE ENERGY PREDICTED BY IDOCK:   -6.83 KCAL/MOL
REMARK 923 INTER-LIGAND FREE ENERGY PREDICTED BY IDOCK:   -6.53 KCAL/MOL
REMARK 924 INTRA-LIGAND FREE ENERGY PREDICTED BY IDOCK:   -0.30 KCAL/MOL
REMARK 927      BINDING AFFINITY PREDICTED BY RF-SCORE:    0.00 PKD
ROOT
HETATM    1  O   UNL     1     -12.267  11.496  67.970  1.00  0.00    -0.582 OA 
HETATM    2  N   UNL     1     -11.427  10.774  68.522  1.00  0.00    -0.296 N  
HETATM    3  C   UNL     1     -10.524  10.045  67.642  1.00  0.00    -0.246 A  
HETATM    4  O   UNL     1     -11.349  10.525  69.732  1.00  0.00    -0.257 OA 
HETATM    5  C   UNL     1      -9.662  10.722  66.767  1.00  0.00    -0.221 A  
HETATM    6  C   UNL     1      -8.867   9.956  65.906  1.00  0.00    -0.171 A  
HETATM    7  C   UNL     1     -10.068   6.391  66.648  1.00  0.00    -0.145 C  
HETATM    8  C   UNL     1      -8.982   8.558  65.881  1.00  0.00    -0.235 A  
HETATM    9  C   UNL     1     -10.641   8.646  67.632  1.00  0.00    -0.272 A  
HETATM   10  F   UNL     1      -9.758   5.768  67.815  1.00  0.00    -0.111 F  
HETATM   11  C   UNL     1      -9.883   7.892  66.727  1.00  0.00    -0.318 A  
HETATM   12  F   UNL     1      -9.312   5.800  65.686  1.00  0.00    -0.168 F  
HETATM   13  F   UNL     1     -11.358   6.056  66.372  1.00  0.00    -0.287 F  
ENDROOT
BRANCH   5  14
HETATM   14  C   UNL     1      -9.553  12.208  66.759  1.00  0.00    -0.211 C  
HETATM   15  O   UNL     1      -9.245  12.759  67.812  1.00  0.00    -0.183 OA 
BRANCH  14  16
HETATM   16  C   UNL     1      -9.801  12.980  65.478  1.00  0.00    -0.150 C  
HETATM   17  C   UNL     1     -12.623  13.937  65.272  1.00  0.00    -0.508 C  
HETATM   18  C   UNL     1     -12.283  12.471  65.038  1.00  0.00    -0.519 C  
HETATM   19  C   UNL     1     -10.842  12.331  64.598  1.00  0.00    -0.308 C  
HETATM   20  O   UNL     1     -10.527  11.642  63.630  1.00  0.00    -0.344 OA 
HETATM   21  C   UNL     1     -11.644  14.619  66.222  1.00  0.00    -0.344 C  
HETATM   22  C   UNL     1     -10.223  14.410  65.741  1.00  0.00    -0.337 C  
HETATM   23  O   UNL     1      -9.445  15.352  65.589  1.00  0.00    -0.318 OA 
ENDBRANCH  14  16
ENDBRANCH   5  14
TORSDOF 2
ENDMDL
MODEL       55
REMARK 921   NORMALIZED FREE ENERGY PREDICTED BY IDOCK:   -5.76 KCAL/MOL
REMARK 922        TOTAL FREE ENERGY PREDICTED BY IDOCK:   -6.80 KCAL/MOL
REMARK 923 INTER-LIGAND FREE ENERGY PREDICTED BY IDOCK:   -6.69 KCAL/MOL
REMARK 924 INTRA-LIGAND FREE ENERGY PREDICTED BY IDOCK:   -0.11 KCAL/MOL
REMARK 927      BINDING AFFINITY PREDICTED BY RF-SCORE:    0.00 PKD
ROOT
HETATM    1  O   UNL     1     -13.044  12.284  64.464  1.00  0.00    -0.791 OA 
HETATM    2  N   UNL     1     -12.613  13.399  64.788  1.00  0.00    -0.350 N  
HETATM    3  C   UNL     1     -11.684  13.430  65.908  1.00  0.00    -0.356 A  
HETATM    4  O   UNL     1     -12.973  14.491  64.331  1.00  0.00    -0.510 OA 
HETATM    5  C   UNL     1     -10.459  12.749  65.853  1.00  0.00    -0.295 A  
HETATM    6  C   UNL     1      -9.644  12.773  66.992  1.00  0.00    -0.229 A  
HETATM    7  C   UNL     1     -11.829  14.657  69.517  1.00  0.00    -0.330 C  
HETATM    8  C   UNL     1     -10.075  13.405  68.167  1.00  0.00    -0.244 A  
HETATM    9  C   UNL     1     -12.122  14.073  67.077  1.00  0.00    -0.455 A  
HETATM   10  F   UNL     1     -12.051  15.992  69.403  1.00  0.00    -0.337 F  
HETATM   11  C   UNL     1     -11.324  14.042  68.228  1.00  0.00    -0.317 A  
HETATM   12  F   UNL     1     -10.976  14.499  70.564  1.00  0.00    -0.201 F  
HETATM   13  F   UNL     1     -13.011  14.108  69.909  1.00  0.00    -0.301 F  
ENDROOT
BRANCH   5  14
HETATM   14  C   UNL     1     -10.002  12.045  64.623  1.00  0.00    -0.214 C  
HETATM   15  O   UNL     1      -9.650  12.737  63.672  1.00  0.00    -0.033 OA 
BRANCH  14  16
HETATM   16  C   UNL     1      -9.966  10.530  64.584  1.00  0.00    -0.415 C  
HETATM   17  C   UNL     1      -7.218   9.460  65.061  1.00  0.00    -0.105 C  
HETATM   18  C   UNL     1      -7.583  10.092  63.723  1.00  0.00    -0.141 C  
HETATM   19  C   UNL     1      -9.074   9.997  63.488  1.00  0.00    -0.272 C  
HETATM   20  O   UNL     1      -9.534   9.597  62.421  1.00  0.00    -0.216 OA 
HETATM   21  C   UNL     1      -8.038  10.026  66.216  1.00  0.00    -0.117 C  
HETATM   22  C   UNL     1      -9.517   9.931  65.899  1.00  0.00    -0.215 C  
HETATM   23  O   UNL     1     -10.314   9.410  66.678  1.00  0.00    -0.249 OA 
ENDBRANCH  14  16
ENDBRANCH   5  14
TORSDOF 2
ENDMDL
MODEL       56
REMARK 921   NORMALIZED FREE ENERGY PREDICTED BY IDOCK:   -5.74 KCAL/MOL
REMARK 922        TOTAL FREE ENERGY PREDICTED BY IDOCK:   -6.77 KCAL/MOL
REMARK 923 INTER-LIGAND FREE ENERGY PREDICTED BY IDOCK:   -6.27 KCAL/MOL
REMARK 924 INTRA-LIGAND FREE ENERGY PREDICTED BY IDOCK:   -0.50 KCAL/MOL
REMARK 927      BINDING AFFINITY PREDICTED BY RF-SCORE:    0.00 PKD
ROOT
HETATM    1  O   UNL     1     -11.586  11.308  66.664  1.00  0.00    -0.385 OA 
HETATM    2  N   UNL     1     -11.573  11.899  67.751  1.00  0.00    -0.327 N  
HETATM    3  C   UNL     1     -11.249  11.094  68.921  1.00  0.00    -0.256 A  
HETATM    4  O   UNL     1     -11.913  13.071  67.958  1.00  0.00    -0.350 OA 
HETATM    5  C   UNL     1     -10.012  10.443  69.031  1.00  0.00    -0.224 A  
HETATM    6  C   UNL     1      -9.793   9.636  70.154  1.00  0.00    -0.310 A  
HETATM    7  C   UNL     1     -13.188   9.780  71.931  1.00  0.00    -0.449 C  
HETATM    8  C   UNL     1     -10.809   9.437  71.101  1.00  0.00    -0.427 A  
HETATM    9  C   UNL     1     -12.271  10.909  69.866  1.00  0.00    -0.408 A  
HETATM   10  F   UNL     1     -13.604  10.904  72.571  1.00  0.00    -0.405 F  
HETATM   11  C   UNL     1     -12.062  10.054  70.955  1.00  0.00    -0.469 A  
HETATM   12  F   UNL     1     -12.861   8.887  72.902  1.00  0.00    -0.459 F  
HETATM   13  F   UNL     1     -14.285   9.272  71.306  1.00  0.00    -0.381 F  
ENDROOT
BRANCH   5  14
HETATM   14  C   UNL     1      -8.935  10.618  68.017  1.00  0.00    -0.140 C  
HETATM   15  O   UNL     1      -8.078  11.467  68.241  1.00  0.00    -0.133 OA 
BRANCH  14  16
HETATM   16  C   UNL     1      -8.915   9.750  66.774  1.00  0.00    -0.156 C  
HETATM   17  C   UNL     1      -6.943   7.517  66.997  1.00  0.00    -0.083 C  
HETATM   18  C   UNL     1      -6.473   8.944  66.746  1.00  0.00    -0.064 C  
HETATM   19  C   UNL     1      -7.570   9.749  66.086  1.00  0.00    -0.101 C  
HETATM   20  O   UNL     1      -7.353  10.445  65.097  1.00  0.00    -0.139 OA 
HETATM   21  C   UNL     1      -8.261   7.462  67.762  1.00  0.00    -0.119 C  
HETATM   22  C   UNL     1      -9.302   8.316  67.067  1.00  0.00    -0.160 C  
HETATM   23  O   UNL     1     -10.411   7.873  66.770  1.00  0.00    -0.327 OA 
ENDBRANCH  14  16
ENDBRANCH   5  14
TORSDOF 2
ENDMDL
MODEL       57
REMARK 921   NORMALIZED FREE ENERGY PREDICTED BY IDOCK:   -5.69 KCAL/MOL
REMARK 922        TOTAL FREE ENERGY PREDICTED BY IDOCK:   -6.71 KCAL/MOL
REMARK 923 INTER-LIGAND FREE ENERGY PREDICTED BY IDOCK:   -6.17 KCAL/MOL
REMARK 924 INTRA-LIGAND FREE ENERGY PREDICTED BY IDOCK:   -0.54 KCAL/MOL
REMARK 927      BINDING AFFINITY PREDICTED BY RF-SCORE:    0.00 PKD
ROOT
HETATM    1  O   UNL     1     -11.012   7.374  67.173  1.00  0.00    -0.312 OA 
HETATM    2  N   UNL     1     -10.205   8.313  67.171  1.00  0.00    -0.266 N  
HETATM    3  C   UNL     1     -10.622   9.522  67.867  1.00  0.00    -0.244 A  
HETATM    4  O   UNL     1      -9.137   8.367  66.549  1.00  0.00    -0.154 OA 
HETATM    5  C   UNL     1     -10.908   9.506  69.240  1.00  0.00    -0.211 A  
HETATM    6  C   UNL     1     -11.363  10.692  69.830  1.00  0.00    -0.371 A  
HETATM    7  C   UNL     1     -11.654  13.040  66.812  1.00  0.00    -0.368 C  
HETATM    8  C   UNL     1     -11.584  11.838  69.052  1.00  0.00    -0.372 A  
HETATM    9  C   UNL     1     -10.832  10.666  67.080  1.00  0.00    -0.328 A  
HETATM   10  F   UNL     1     -10.551  13.534  66.192  1.00  0.00    -0.277 F  
HETATM   11  C   UNL     1     -11.342  11.830  67.669  1.00  0.00    -0.370 A  
HETATM   12  F   UNL     1     -12.197  14.073  67.508  1.00  0.00    -0.406 F  
HETATM   13  F   UNL     1     -12.542  12.742  65.825  1.00  0.00    -0.496 F  
ENDROOT
BRANCH   5  14
HETATM   14  C   UNL     1     -10.710   8.287  70.072  1.00  0.00    -0.239 C  
HETATM   15  O   UNL     1     -11.703   7.617  70.342  1.00  0.00    -0.194 OA 
BRANCH  14  16
HETATM   16  C   UNL     1      -9.319   7.902  70.537  1.00  0.00    -0.162 C  
HETATM   17  C   UNL     1      -9.355   5.513  72.330  1.00  0.00    -0.159 C  
HETATM   18  C   UNL     1      -9.810   6.873  72.842  1.00  0.00    -0.195 C  
HETATM   19  C   UNL     1      -9.164   7.979  72.038  1.00  0.00    -0.171 C  
HETATM   20  O   UNL     1      -8.627   8.942  72.580  1.00  0.00    -0.384 OA 
HETATM   21  C   UNL     1      -9.567   5.354  70.828  1.00  0.00    -0.228 C  
HETATM   22  C   UNL     1      -8.926   6.511  70.088  1.00  0.00    -0.155 C  
HETATM   23  O   UNL     1      -8.140   6.330  69.158  1.00  0.00    -0.107 OA 
ENDBRANCH  14  16
ENDBRANCH   5  14
TORSDOF 2
ENDMDL
MODEL       58
REMARK 921   NORMALIZED FREE ENERGY PREDICTED BY IDOCK:   -5.68 KCAL/MOL
REMARK 922        TOTAL FREE ENERGY PREDICTED BY IDOCK:   -6.71 KCAL/MOL
REMARK 923 INTER-LIGAND FREE ENERGY PREDICTED BY IDOCK:   -5.94 KCAL/MOL
REMARK 924 INTRA-LIGAND FREE ENERGY PREDICTED BY IDOCK:   -0.77 KCAL/MOL
REMARK 927      BINDING AFFINITY PREDICTED BY RF-SCORE:    0.00 PKD
ROOT
HETATM    1  O   UNL     1      -7.664  10.605  65.150  1.00  0.00    -0.102 OA 
HETATM    2  N   UNL     1      -8.844  10.240  65.064  1.00  0.00    -0.176 N  
HETATM    3  C   UNL     1      -9.499   9.878  66.313  1.00  0.00    -0.193 A  
HETATM    4  O   UNL     1      -9.483  10.048  64.022  1.00  0.00    -0.279 OA 
HETATM    5  C   UNL     1      -9.652  10.811  67.348  1.00  0.00    -0.179 A  
HETATM    6  C   UNL     1     -10.237  10.375  68.544  1.00  0.00    -0.191 A  
HETATM    7  C   UNL     1     -10.704   6.624  67.898  1.00  0.00    -0.274 C  
HETATM    8  C   UNL     1     -10.595   9.030  68.715  1.00  0.00    -0.196 A  
HETATM    9  C   UNL     1      -9.862   8.530  66.470  1.00  0.00    -0.342 A  
HETATM   10  F   UNL     1     -11.649   6.167  67.035  1.00  0.00    -0.223 F  
HETATM   11  C   UNL     1     -10.392   8.092  67.690  1.00  0.00    -0.313 A  
HETATM   12  F   UNL     1     -11.156   6.336  69.148  1.00  0.00    -0.312 F  
HETATM   13  F   UNL     1      -9.606   5.843  67.706  1.00  0.00    -0.114 F  
ENDROOT
BRANCH   5  14
HETATM   14  C   UNL     1      -9.246  12.235  67.193  1.00  0.00    -0.196 C  
HETATM   15  O   UNL     1      -8.196  12.586  67.723  1.00  0.00    -0.142 OA 
BRANCH  14  16
HETATM   16  C   UNL     1     -10.107  13.188  66.386  1.00  0.00    -0.281 C  
HETATM   17  C   UNL     1     -11.745  14.973  68.133  1.00  0.00    -0.335 C  
HETATM   18  C   UNL     1     -12.124  13.509  67.948  1.00  0.00    -0.304 C  
HETATM   19  C   UNL     1     -11.583  12.990  66.635  1.00  0.00    -0.359 C  
HETATM   20  O   UNL     1     -12.287  12.353  65.854  1.00  0.00    -0.638 OA 
HETATM   21  C   UNL     1     -10.247  15.212  67.972  1.00  0.00    -0.230 C  
HETATM   22  C   UNL     1      -9.768  14.638  66.655  1.00  0.00    -0.270 C  
HETATM   23  O   UNL     1      -9.121  15.310  65.852  1.00  0.00    -0.291 OA 
ENDBRANCH  14  16
ENDBRANCH   5  14
TORSDOF 2
ENDMDL
MODEL       59
REMARK 921   NORMALIZED FREE ENERGY PREDICTED BY IDOCK:   -5.68 KCAL/MOL
REMARK 922        TOTAL FREE ENERGY PREDICTED BY IDOCK:   -6.71 KCAL/MOL
REMARK 923 INTER-LIGAND FREE ENERGY PREDICTED BY IDOCK:   -6.34 KCAL/MOL
REMARK 924 INTRA-LIGAND FREE ENERGY PREDICTED BY IDOCK:   -0.36 KCAL/MOL
REMARK 927      BINDING AFFINITY PREDICTED BY RF-SCORE:    0.00 PKD
ROOT
HETATM    1  O   UNL     1     -10.250  13.953  64.625  1.00  0.00    -0.417 OA 
HETATM    2  N   UNL     1     -10.771  12.943  64.136  1.00  0.00    -0.400 N  
HETATM    3  C   UNL     1     -10.336  11.664  64.681  1.00  0.00    -0.292 A  
HETATM    4  O   UNL     1     -11.536  12.904  63.165  1.00  0.00    -0.422 OA 
HETATM    5  C   UNL     1     -10.523  11.352  66.035  1.00  0.00    -0.305 A  
HETATM    6  C   UNL     1     -10.023  10.130  66.502  1.00  0.00    -0.283 A  
HETATM    7  C   UNL     1      -8.232   8.749  63.406  1.00  0.00    -0.170 C  
HETATM    8  C   UNL     1      -9.302   9.280  65.650  1.00  0.00    -0.308 A  
HETATM    9  C   UNL     1      -9.622  10.817  63.817  1.00  0.00    -0.339 A  
HETATM   10  F   UNL     1      -8.926   8.285  62.335  1.00  0.00    -0.119 F  
HETATM   11  C   UNL     1      -9.077   9.624  64.309  1.00  0.00    -0.267 A  
HETATM   12  F   UNL     1      -7.720   7.656  64.033  1.00  0.00    -0.097 F  
HETATM   13  F   UNL     1      -7.165   9.427  62.901  1.00  0.00    -0.102 F  
ENDROOT
BRANCH   5  14
HETATM   14  C   UNL     1     -11.258  12.260  66.959  1.00  0.00    -0.310 C  
HETATM   15  O   UNL     1     -12.374  12.637  66.614  1.00  0.00    -0.474 OA 
BRANCH  14  16
HETATM   16  C   UNL     1     -10.633  12.669  68.279  1.00  0.00    -0.250 C  
HETATM   17  C   UNL     1     -10.390  15.635  68.533  1.00  0.00    -0.219 C  
HETATM   18  C   UNL     1      -9.443  14.855  67.631  1.00  0.00    -0.199 C  
HETATM   19  C   UNL     1      -9.335  13.421  68.100  1.00  0.00    -0.217 C  
HETATM   20  O   UNL     1      -8.247  12.866  68.234  1.00  0.00    -0.150 OA 
HETATM   21  C   UNL     1     -11.748  14.956  68.681  1.00  0.00    -0.358 C  
HETATM   22  C   UNL     1     -11.564  13.517  69.118  1.00  0.00    -0.310 C  
HETATM   23  O   UNL     1     -12.155  13.056  70.094  1.00  0.00    -0.336 OA 
ENDBRANCH  14  16
ENDBRANCH   5  14
TORSDOF 2
ENDMDL
MODEL       60
REMARK 921   NORMALIZED FREE ENERGY PREDICTED BY IDOCK:   -5.67 KCAL/MOL
REMARK 922        TOTAL FREE ENERGY PREDICTED BY IDOCK:   -6.70 KCAL/MOL
REMARK 923 INTER-LIGAND FREE ENERGY PREDICTED BY IDOCK:   -6.26 KCAL/MOL
REMARK 924 INTRA-LIGAND FREE ENERGY PREDICTED BY IDOCK:   -0.45 KCAL/MOL
REMARK 927      BINDING AFFINITY PREDICTED BY RF-SCORE:    0.00 PKD
ROOT
HETATM    1  O   UNL     1      -8.006  17.167  65.501  1.00  0.00    -0.202 OA 
HETATM    2  N   UNL     1      -9.093  17.295  66.081  1.00  0.00    -0.206 N  
HETATM    3  C   UNL     1      -9.265  16.525  67.305  1.00  0.00    -0.216 A  
HETATM    4  O   UNL     1     -10.079  17.920  65.671  1.00  0.00    -0.567 OA 
HETATM    5  C   UNL     1      -8.423  16.722  68.409  1.00  0.00    -0.231 A  
HETATM    6  C   UNL     1      -8.609  15.903  69.530  1.00  0.00    -0.095 A  
HETATM    7  C   UNL     1     -11.349  13.501  68.336  1.00  0.00    -0.292 C  
HETATM    8  C   UNL     1      -9.565  14.877  69.515  1.00  0.00    -0.027 A  
HETATM    9  C   UNL     1     -10.232  15.507  67.283  1.00  0.00    -0.260 A  
HETATM   10  F   UNL     1     -12.632  13.915  68.176  1.00  0.00    -0.259 F  
HETATM   11  C   UNL     1     -10.370  14.656  68.387  1.00  0.00    -0.237 A  
HETATM   12  F   UNL     1     -11.333  12.726  69.453  1.00  0.00    -0.285 F  
HETATM   13  F   UNL     1     -11.089  12.665  67.294  1.00  0.00    -0.257 F  
ENDROOT
BRANCH   5  14
HETATM   14  C   UNL     1      -7.380  17.785  68.426  1.00  0.00    -0.257 C  
HETATM   15  O   UNL     1      -6.257  17.483  68.036  1.00  0.00    -0.148 OA 
BRANCH  14  16
HETATM   16  C   UNL     1      -7.730  19.185  68.894  1.00  0.00    -0.358 C  
HETATM   17  C   UNL     1      -6.285  21.283  67.335  1.00  0.00    -0.428 C  
HETATM   18  C   UNL     1      -5.554  20.458  68.386  1.00  0.00    -0.297 C  
HETATM   19  C   UNL     1      -6.531  19.940  69.418  1.00  0.00    -0.347 C  
HETATM   20  O   UNL     1      -6.311  20.042  70.623  1.00  0.00    -0.326 OA 
HETATM   21  C   UNL     1      -7.459  20.531  66.715  1.00  0.00    -0.307 C  
HETATM   22  C   UNL     1      -8.376  20.012  67.804  1.00  0.00    -0.285 C  
HETATM   23  O   UNL     1      -9.586  20.235  67.793  1.00  0.00    -0.369 OA 
ENDBRANCH  14  16
ENDBRANCH   5  14
TORSDOF 2
ENDMDL
MODEL       61
REMARK 921   NORMALIZED FREE ENERGY PREDICTED BY IDOCK:   -5.66 KCAL/MOL
REMARK 922        TOTAL FREE ENERGY PREDICTED BY IDOCK:   -6.69 KCAL/MOL
REMARK 923 INTER-LIGAND FREE ENERGY PREDICTED BY IDOCK:   -6.25 KCAL/MOL
REMARK 924 INTRA-LIGAND FREE ENERGY PREDICTED BY IDOCK:   -0.43 KCAL/MOL
REMARK 927      BINDING AFFINITY PREDICTED BY RF-SCORE:    0.00 PKD
ROOT
HETATM    1  O   UNL     1      -9.568   9.076  67.363  1.00  0.00    -0.143 OA 
HETATM    2  N   UNL     1      -9.176  10.009  68.076  1.00  0.00    -0.134 N  
HETATM    3  C   UNL     1     -10.152  10.572  68.997  1.00  0.00    -0.217 A  
HETATM    4  O   UNL     1      -8.079  10.580  68.008  1.00  0.00    -0.108 OA 
HETATM    5  C   UNL     1     -10.740   9.786  69.999  1.00  0.00    -0.326 A  
HETATM    6  C   UNL     1     -11.717  10.378  70.809  1.00  0.00    -0.464 A  
HETATM    7  C   UNL     1     -12.081  13.855  69.233  1.00  0.00    -0.339 C  
HETATM    8  C   UNL     1     -12.136  11.697  70.576  1.00  0.00    -0.458 A  
HETATM    9  C   UNL     1     -10.558  11.895  68.760  1.00  0.00    -0.234 A  
HETATM   10  F   UNL     1     -11.112  14.797  69.367  1.00  0.00    -0.240 F  
HETATM   11  C   UNL     1     -11.577  12.459  69.539  1.00  0.00    -0.353 A  
HETATM   12  F   UNL     1     -13.110  14.248  70.029  1.00  0.00    -0.294 F  
HETATM   13  F   UNL     1     -12.535  13.958  67.954  1.00  0.00    -0.334 F  
ENDROOT
BRANCH   5  14
HETATM   14  C   UNL     1     -10.329   8.375  70.237  1.00  0.00    -0.205 C  
HETATM   15  O   UNL     1      -9.186   8.177  70.639  1.00  0.00    -0.150 OA 
BRANCH  14  16
HETATM   16  C   UNL     1     -11.315   7.247  70.001  1.00  0.00    -0.195 C  
HETATM   17  C   UNL     1     -10.365   4.665  71.167  1.00  0.00    -0.142 C  
HETATM   18  C   UNL     1      -9.750   5.209  69.884  1.00  0.00    -0.269 C  
HETATM   19  C   UNL     1     -10.728   6.123  69.180  1.00  0.00    -0.316 C  
HETATM   20  O   UNL     1     -10.959   6.017  67.977  1.00  0.00    -0.304 OA 
HETATM   21  C   UNL     1     -10.901   5.770  72.071  1.00  0.00    -0.306 C  
HETATM   22  C   UNL     1     -11.844   6.666  71.295  1.00  0.00    -0.350 C  
HETATM   23  O   UNL     1     -12.977   6.923  71.703  1.00  0.00    -0.370 OA 
ENDBRANCH  14  16
ENDBRANCH   5  14
TORSDOF 2
ENDMDL
MODEL       62
REMARK 921   NORMALIZED FREE ENERGY PREDICTED BY IDOCK:   -5.66 KCAL/MOL
REMARK 922        TOTAL FREE ENERGY PREDICTED BY IDOCK:   -6.68 KCAL/MOL
REMARK 923 INTER-LIGAND FREE ENERGY PREDICTED BY IDOCK:   -6.30 KCAL/MOL
REMARK 924 INTRA-LIGAND FREE ENERGY PREDICTED BY IDOCK:   -0.38 KCAL/MOL
REMARK 927      BINDING AFFINITY PREDICTED BY RF-SCORE:    0.00 PKD
ROOT
HETATM    1  O   UNL     1      -7.038  14.908  68.438  1.00  0.00    -0.103 OA 
HETATM    2  N   UNL     1      -7.489  14.056  67.661  1.00  0.00    -0.161 N  
HETATM    3  C   UNL     1      -8.933  13.871  67.675  1.00  0.00    -0.192 A  
HETATM    4  O   UNL     1      -6.833  13.275  66.960  1.00  0.00    -0.050 OA 
HETATM    5  C   UNL     1      -9.802  14.922  67.347  1.00  0.00    -0.221 A  
HETATM    6  C   UNL     1     -11.179  14.689  67.442  1.00  0.00    -0.351 A  
HETATM    7  C   UNL     1     -11.305  11.133  68.871  1.00  0.00    -0.278 C  
HETATM    8  C   UNL     1     -11.666  13.461  67.913  1.00  0.00    -0.396 A  
HETATM    9  C   UNL     1      -9.410  12.634  68.141  1.00  0.00    -0.210 A  
HETATM   10  F   UNL     1     -10.972  10.055  68.116  1.00  0.00    -0.258 F  
HETATM   11  C   UNL     1     -10.788  12.432  68.287  1.00  0.00    -0.264 A  
HETATM   12  F   UNL     1     -12.658  11.100  69.009  1.00  0.00    -0.312 F  
HETATM   13  F   UNL     1     -10.795  10.899  70.111  1.00  0.00    -0.300 F  
ENDROOT
BRANCH   5  14
HETATM   14  C   UNL     1      -9.299  16.243  66.876  1.00  0.00    -0.224 C  
HETATM   15  O   UNL     1      -9.231  16.424  65.664  1.00  0.00    -0.465 OA 
BRANCH  14  16
HETATM   16  C   UNL     1      -8.912  17.310  67.881  1.00  0.00    -0.235 C  
HETATM   17  C   UNL     1      -9.725  20.041  66.985  1.00  0.00    -0.555 C  
HETATM   18  C   UNL     1      -8.527  19.343  66.353  1.00  0.00    -0.361 C  
HETATM   19  C   UNL     1      -7.949  18.325  67.311  1.00  0.00    -0.224 C  
HETATM   20  O   UNL     1      -6.743  18.265  67.538  1.00  0.00    -0.189 OA 
HETATM   21  C   UNL     1     -10.768  19.057  67.505  1.00  0.00    -0.532 C  
HETATM   22  C   UNL     1     -10.115  18.048  68.428  1.00  0.00    -0.387 C  
HETATM   23  O   UNL     1     -10.551  17.827  69.557  1.00  0.00    -0.033 OA 
ENDBRANCH  14  16
ENDBRANCH   5  14
TORSDOF 2
ENDMDL
MODEL       63
REMARK 921   NORMALIZED FREE ENERGY PREDICTED BY IDOCK:   -5.65 KCAL/MOL
REMARK 922        TOTAL FREE ENERGY PREDICTED BY IDOCK:   -6.67 KCAL/MOL
REMARK 923 INTER-LIGAND FREE ENERGY PREDICTED BY IDOCK:   -6.67 KCAL/MOL
REMARK 924 INTRA-LIGAND FREE ENERGY PREDICTED BY IDOCK:   -0.00 KCAL/MOL
REMARK 927      BINDING AFFINITY PREDICTED BY RF-SCORE:    0.00 PKD
ROOT
HETATM    1  O   UNL     1     -11.756  16.057  68.551  1.00  0.00    -0.375 OA 
HETATM    2  N   UNL     1     -10.711  15.395  68.489  1.00  0.00    -0.248 N  
HETATM    3  C   UNL     1     -10.435  14.742  67.218  1.00  0.00    -0.264 A  
HETATM    4  O   UNL     1      -9.940  15.144  69.425  1.00  0.00    -0.231 OA 
HETATM    5  C   UNL     1     -10.270  15.487  66.041  1.00  0.00    -0.349 A  
HETATM    6  C   UNL     1     -10.069  14.788  64.844  1.00  0.00    -0.213 A  
HETATM    7  C   UNL     1     -10.423  11.139  65.966  1.00  0.00    -0.256 C  
HETATM    8  C   UNL     1     -10.098  13.386  64.822  1.00  0.00    -0.262 A  
HETATM    9  C   UNL     1     -10.457  13.338  67.208  1.00  0.00    -0.247 A  
HETATM   10  F   UNL     1      -9.466  10.533  66.715  1.00  0.00    -0.169 F  
HETATM   11  C   UNL     1     -10.313  12.650  65.997  1.00  0.00    -0.287 A  
HETATM   12  F   UNL     1     -10.322  10.612  64.717  1.00  0.00    -0.360 F  
HETATM   13  F   UNL     1     -11.617  10.710  66.459  1.00  0.00    -0.017 F  
ENDROOT
BRANCH   5  14
HETATM   14  C   UNL     1     -10.271  16.977  66.045  1.00  0.00    -0.325 C  
HETATM   15  O   UNL     1     -10.862  17.545  65.130  1.00  0.00    -0.642 OA 
BRANCH  14  16
HETATM   16  C   UNL     1      -9.578  17.735  67.160  1.00  0.00    -0.276 C  
HETATM   17  C   UNL     1      -7.851  19.937  66.115  1.00  0.00    -0.340 C  
HETATM   18  C   UNL     1      -7.406  18.484  66.003  1.00  0.00    -0.275 C  
HETATM   19  C   UNL     1      -8.072  17.648  67.074  1.00  0.00    -0.222 C  
HETATM   20  O   UNL     1      -7.432  16.865  67.772  1.00  0.00    -0.158 OA 
HETATM   21  C   UNL     1      -9.369  20.084  66.124  1.00  0.00    -0.415 C  
HETATM   22  C   UNL     1      -9.971  19.196  67.194  1.00  0.00    -0.356 C  
HETATM   23  O   UNL     1     -10.753  19.635  68.037  1.00  0.00    -0.381 OA 
ENDBRANCH  14  16
ENDBRANCH   5  14
TORSDOF 2
ENDMDL
MODEL       64
REMARK 921   NORMALIZED FREE ENERGY PREDICTED BY IDOCK:   -5.63 KCAL/MOL
REMARK 922        TOTAL FREE ENERGY PREDICTED BY IDOCK:   -6.65 KCAL/MOL
REMARK 923 INTER-LIGAND FREE ENERGY PREDICTED BY IDOCK:   -6.29 KCAL/MOL
REMARK 924 INTRA-LIGAND FREE ENERGY PREDICTED BY IDOCK:   -0.35 KCAL/MOL
REMARK 927      BINDING AFFINITY PREDICTED BY RF-SCORE:    0.00 PKD
ROOT
HETATM    1  O   UNL     1     -11.542  11.235  66.667  1.00  0.00    -0.385 OA 
HETATM    2  N   UNL     1     -11.546  11.848  67.742  1.00  0.00    -0.327 N  
HETATM    3  C   UNL     1     -11.241  11.066  68.932  1.00  0.00    -0.265 A  
HETATM    4  O   UNL     1     -11.888  13.024  67.920  1.00  0.00    -0.344 OA 
HETATM    5  C   UNL     1     -10.007  10.417  69.076  1.00  0.00    -0.224 A  
HETATM    6  C   UNL     1      -9.807   9.632  70.218  1.00  0.00    -0.321 A  
HETATM    7  C   UNL     1     -13.229   9.816  71.938  1.00  0.00    -0.449 C  
HETATM    8  C   UNL     1     -10.838   9.454  71.152  1.00  0.00    -0.427 A  
HETATM    9  C   UNL     1     -12.278  10.902  69.865  1.00  0.00    -0.408 A  
HETATM   10  F   UNL     1     -13.654  10.952  72.548  1.00  0.00    -0.405 F  
HETATM   11  C   UNL     1     -12.088  10.068  70.974  1.00  0.00    -0.469 A  
HETATM   12  F   UNL     1     -12.918   8.941  72.931  1.00  0.00    -0.464 F  
HETATM   13  F   UNL     1     -14.317   9.296  71.306  1.00  0.00    -0.334 F  
ENDROOT
BRANCH   5  14
HETATM   14  C   UNL     1      -8.914  10.570  68.075  1.00  0.00    -0.135 C  
HETATM   15  O   UNL     1      -8.556  11.711  67.797  1.00  0.00    -0.134 OA 
BRANCH  14  16
HETATM   16  C   UNL     1      -8.273   9.343  67.456  1.00  0.00    -0.117 C  
HETATM   17  C   UNL     1      -7.640   9.747  64.565  1.00  0.00    -0.134 C  
HETATM   18  C   UNL     1      -9.076   9.516  65.018  1.00  0.00    -0.281 C  
HETATM   19  C   UNL     1      -9.096   8.763  66.330  1.00  0.00    -0.193 C  
HETATM   20  O   UNL     1      -9.821   7.785  66.501  1.00  0.00    -0.221 OA 
HETATM   21  C   UNL     1      -6.786  10.408  65.642  1.00  0.00    -0.133 C  
HETATM   22  C   UNL     1      -6.880   9.623  66.934  1.00  0.00    -0.080 C  
HETATM   23  O   UNL     1      -5.877   9.246  67.538  1.00  0.00    -0.045 OA 
ENDBRANCH  14  16
ENDBRANCH   5  14
TORSDOF 2
ENDMDL
MODEL       65
REMARK 921   NORMALIZED FREE ENERGY PREDICTED BY IDOCK:   -5.61 KCAL/MOL
REMARK 922        TOTAL FREE ENERGY PREDICTED BY IDOCK:   -6.63 KCAL/MOL
REMARK 923 INTER-LIGAND FREE ENERGY PREDICTED BY IDOCK:   -6.10 KCAL/MOL
REMARK 924 INTRA-LIGAND FREE ENERGY PREDICTED BY IDOCK:   -0.53 KCAL/MOL
REMARK 927      BINDING AFFINITY PREDICTED BY RF-SCORE:    0.00 PKD
ROOT
HETATM    1  O   UNL     1      -6.519  14.842  67.113  1.00  0.00    -0.250 OA 
HETATM    2  N   UNL     1      -7.162  15.594  67.856  1.00  0.00    -0.126 N  
HETATM    3  C   UNL     1      -8.320  16.250  67.265  1.00  0.00    -0.180 A  
HETATM    4  O   UNL     1      -6.859  15.928  69.009  1.00  0.00    -0.133 OA 
HETATM    5  C   UNL     1      -9.393  15.505  66.756  1.00  0.00    -0.267 A  
HETATM    6  C   UNL     1     -10.444  16.201  66.146  1.00  0.00    -0.334 A  
HETATM    7  C   UNL     1      -9.180  19.820  66.233  1.00  0.00    -0.388 C  
HETATM    8  C   UNL     1     -10.386  17.594  65.995  1.00  0.00    -0.305 A  
HETATM    9  C   UNL     1      -8.255  17.646  67.127  1.00  0.00    -0.229 A  
HETATM   10  F   UNL     1      -9.123  20.522  67.395  1.00  0.00    -0.434 F  
HETATM   11  C   UNL     1      -9.284  18.326  66.464  1.00  0.00    -0.298 A  
HETATM   12  F   UNL     1     -10.221  20.335  65.526  1.00  0.00    -0.535 F  
HETATM   13  F   UNL     1      -8.056  20.146  65.538  1.00  0.00    -0.313 F  
ENDROOT
BRANCH   5  14
HETATM   14  C   UNL     1      -9.452  14.022  66.879  1.00  0.00    -0.265 C  
HETATM   15  O   UNL     1      -9.423  13.366  65.842  1.00  0.00    -0.166 OA 
BRANCH  14  16
HETATM   16  C   UNL     1      -9.526  13.376  68.249  1.00  0.00    -0.209 C  
HETATM   17  C   UNL     1     -11.703  11.337  68.412  1.00  0.00    -0.365 C  
HETATM   18  C   UNL     1     -12.032  12.824  68.426  1.00  0.00    -0.275 C  
HETATM   19  C   UNL     1     -10.850  13.617  68.936  1.00  0.00    -0.235 C  
HETATM   20  O   UNL     1     -10.978  14.484  69.798  1.00  0.00    -0.230 OA 
HETATM   21  C   UNL     1     -10.413  11.031  67.657  1.00  0.00    -0.239 C  
HETATM   22  C   UNL     1      -9.282  11.883  68.195  1.00  0.00    -0.187 C  
HETATM   23  O   UNL     1      -8.213  11.390  68.553  1.00  0.00    -0.143 OA 
ENDBRANCH  14  16
ENDBRANCH   5  14
TORSDOF 2
ENDMDL
MODEL       66
REMARK 921   NORMALIZED FREE ENERGY PREDICTED BY IDOCK:   -5.61 KCAL/MOL
REMARK 922        TOTAL FREE ENERGY PREDICTED BY IDOCK:   -6.63 KCAL/MOL
REMARK 923 INTER-LIGAND FREE ENERGY PREDICTED BY IDOCK:   -6.14 KCAL/MOL
REMARK 924 INTRA-LIGAND FREE ENERGY PREDICTED BY IDOCK:   -0.49 KCAL/MOL
REMARK 927      BINDING AFFINITY PREDICTED BY RF-SCORE:    0.00 PKD
ROOT
HETATM    1  O   UNL     1     -13.474  10.685  69.711  1.00  0.00     0.213 OA 
HETATM    2  N   UNL     1     -12.649  10.967  70.590  1.00  0.00    -0.345 N  
HETATM    3  C   UNL     1     -11.368  10.279  70.517  1.00  0.00    -0.341 A  
HETATM    4  O   UNL     1     -12.842  11.685  71.579  1.00  0.00    -0.407 OA 
HETATM    5  C   UNL     1     -10.531  10.425  69.401  1.00  0.00    -0.261 A  
HETATM    6  C   UNL     1      -9.342   9.684  69.372  1.00  0.00    -0.201 A  
HETATM    7  C   UNL     1      -9.622   7.572  72.559  1.00  0.00    -0.165 C  
HETATM    8  C   UNL     1      -9.038   8.780  70.399  1.00  0.00    -0.198 A  
HETATM    9  C   UNL     1     -11.069   9.382  71.555  1.00  0.00    -0.446 A  
HETATM   10  F   UNL     1      -9.481   8.128  73.791  1.00  0.00    -0.322 F  
HETATM   11  C   UNL     1      -9.906   8.604  71.488  1.00  0.00    -0.342 A  
HETATM   12  F   UNL     1      -8.491   6.852  72.333  1.00  0.00    -0.114 F  
HETATM   13  F   UNL     1     -10.631   6.665  72.666  1.00  0.00    -0.197 F  
ENDROOT
BRANCH   5  14
HETATM   14  C   UNL     1     -10.857  11.357  68.286  1.00  0.00    -0.209 C  
HETATM   15  O   UNL     1     -11.455  10.895  67.319  1.00  0.00    -0.458 OA 
BRANCH  14  16
HETATM   16  C   UNL     1     -10.469  12.820  68.381  1.00  0.00    -0.253 C  
HETATM   17  C   UNL     1     -11.179  14.331  65.904  1.00  0.00    -0.319 C  
HETATM   18  C   UNL     1      -9.984  13.386  65.920  1.00  0.00    -0.287 C  
HETATM   19  C   UNL     1      -9.463  13.224  67.330  1.00  0.00    -0.233 C  
HETATM   20  O   UNL     1      -8.265  13.321  67.590  1.00  0.00    -0.153 OA 
HETATM   21  C   UNL     1     -12.264  13.917  66.893  1.00  0.00    -0.415 C  
HETATM   22  C   UNL     1     -11.667  13.740  68.275  1.00  0.00    -0.359 C  
HETATM   23  O   UNL     1     -12.140  14.301  69.262  1.00  0.00    -0.325 OA 
ENDBRANCH  14  16
ENDBRANCH   5  14
TORSDOF 2
ENDMDL
MODEL       67
REMARK 921   NORMALIZED FREE ENERGY PREDICTED BY IDOCK:   -5.59 KCAL/MOL
REMARK 922        TOTAL FREE ENERGY PREDICTED BY IDOCK:   -6.61 KCAL/MOL
REMARK 923 INTER-LIGAND FREE ENERGY PREDICTED BY IDOCK:   -6.12 KCAL/MOL
REMARK 924 INTRA-LIGAND FREE ENERGY PREDICTED BY IDOCK:   -0.49 KCAL/MOL
REMARK 927      BINDING AFFINITY PREDICTED BY RF-SCORE:    0.00 PKD
ROOT
HETATM    1  O   UNL     1      -7.049  14.303  67.909  1.00  0.00    -0.124 OA 
HETATM    2  N   UNL     1      -7.380  15.113  68.785  1.00  0.00    -0.123 N  
HETATM    3  C   UNL     1      -7.995  16.349  68.323  1.00  0.00    -0.170 A  
HETATM    4  O   UNL     1      -7.142  15.028  69.997  1.00  0.00    -0.178 OA 
HETATM    5  C   UNL     1      -9.197  16.333  67.600  1.00  0.00    -0.206 A  
HETATM    6  C   UNL     1      -9.697  17.555  67.133  1.00  0.00    -0.279 A  
HETATM    7  C   UNL     1      -6.937  20.010  68.160  1.00  0.00    -0.295 C  
HETATM    8  C   UNL     1      -8.980  18.744  67.331  1.00  0.00    -0.288 A  
HETATM    9  C   UNL     1      -7.273  17.534  68.533  1.00  0.00    -0.240 A  
HETATM   10  F   UNL     1      -6.745  20.356  69.459  1.00  0.00    -0.308 F  
HETATM   11  C   UNL     1      -7.753  18.742  68.013  1.00  0.00    -0.286 A  
HETATM   12  F   UNL     1      -7.497  21.091  67.555  1.00  0.00    -0.376 F  
HETATM   13  F   UNL     1      -5.696  19.876  67.616  1.00  0.00    -0.183 F  
ENDROOT
BRANCH   5  14
HETATM   14  C   UNL     1      -9.952  15.074  67.353  1.00  0.00    -0.226 C  
HETATM   15  O   UNL     1     -10.529  14.563  68.309  1.00  0.00    -0.233 OA 
BRANCH  14  16
HETATM   16  C   UNL     1     -10.005  14.480  65.959  1.00  0.00    -0.343 C  
HETATM   17  C   UNL     1     -12.526  12.949  65.487  1.00  0.00    -0.462 C  
HETATM   18  C   UNL     1     -11.416  12.366  66.351  1.00  0.00    -0.427 C  
HETATM   19  C   UNL     1     -10.083  12.972  65.971  1.00  0.00    -0.284 C  
HETATM   20  O   UNL     1      -9.089  12.275  65.778  1.00  0.00    -0.057 OA 
HETATM   21  C   UNL     1     -12.541  14.474  65.506  1.00  0.00    -0.233 C  
HETATM   22  C   UNL     1     -11.170  15.012  65.151  1.00  0.00    -0.388 C  
HETATM   23  O   UNL     1     -11.012  15.850  64.265  1.00  0.00    -0.414 OA 
ENDBRANCH  14  16
ENDBRANCH   5  14
TORSDOF 2
ENDMDL
MODEL       68
REMARK 921   NORMALIZED FREE ENERGY PREDICTED BY IDOCK:   -5.58 KCAL/MOL
REMARK 922        TOTAL FREE ENERGY PREDICTED BY IDOCK:   -6.60 KCAL/MOL
REMARK 923 INTER-LIGAND FREE ENERGY PREDICTED BY IDOCK:   -6.40 KCAL/MOL
REMARK 924 INTRA-LIGAND FREE ENERGY PREDICTED BY IDOCK:   -0.20 KCAL/MOL
REMARK 927      BINDING AFFINITY PREDICTED BY RF-SCORE:    0.00 PKD
ROOT
HETATM    1  O   UNL     1      -9.388  15.208  65.715  1.00  0.00    -0.310 OA 
HETATM    2  N   UNL     1     -10.570  15.340  66.058  1.00  0.00    -0.306 N  
HETATM    3  C   UNL     1     -10.804  15.659  67.460  1.00  0.00    -0.316 A  
HETATM    4  O   UNL     1     -11.570  15.121  65.362  1.00  0.00    -0.288 OA 
HETATM    5  C   UNL     1     -10.297  16.837  68.028  1.00  0.00    -0.317 A  
HETATM    6  C   UNL     1     -10.508  17.048  69.397  1.00  0.00    -0.250 A  
HETATM    7  C   UNL     1     -12.231  13.794  70.465  1.00  0.00    -0.369 C  
HETATM    8  C   UNL     1     -11.149  16.077  70.179  1.00  0.00    -0.372 A  
HETATM    9  C   UNL     1     -11.455  14.684  68.232  1.00  0.00    -0.337 A  
HETATM   10  F   UNL     1     -13.512  13.520  70.105  1.00  0.00     0.220 F  
HETATM   11  C   UNL     1     -11.609  14.879  69.610  1.00  0.00    -0.337 A  
HETATM   12  F   UNL     1     -12.262  14.096  71.790  1.00  0.00    -0.382 F  
HETATM   13  F   UNL     1     -11.551  12.619  70.362  1.00  0.00    -0.313 F  
ENDROOT
BRANCH   5  14
HETATM   14  C   UNL     1      -9.584  17.862  67.216  1.00  0.00    -0.273 C  
HETATM   15  O   UNL     1     -10.067  18.157  66.127  1.00  0.00    -0.423 OA 
BRANCH  14  16
HETATM   16  C   UNL     1      -8.324  18.513  67.751  1.00  0.00    -0.273 C  
HETATM   17  C   UNL     1      -5.940  17.903  66.057  1.00  0.00    -0.257 C  
HETATM   18  C   UNL     1      -6.519  16.847  66.990  1.00  0.00    -0.235 C  
HETATM   19  C   UNL     1      -7.264  17.506  68.130  1.00  0.00    -0.216 C  
HETATM   20  O   UNL     1      -7.085  17.168  69.298  1.00  0.00    -0.235 OA 
HETATM   21  C   UNL     1      -6.992  18.900  65.580  1.00  0.00    -0.267 C  
HETATM   22  C   UNL     1      -7.721  19.494  66.768  1.00  0.00    -0.258 C  
HETATM   23  O   UNL     1      -7.834  20.710  66.918  1.00  0.00    -0.288 OA 
ENDBRANCH  14  16
ENDBRANCH   5  14
TORSDOF 2
ENDMDL
MODEL       69
REMARK 921   NORMALIZED FREE ENERGY PREDICTED BY IDOCK:   -5.56 KCAL/MOL
REMARK 922        TOTAL FREE ENERGY PREDICTED BY IDOCK:   -6.57 KCAL/MOL
REMARK 923 INTER-LIGAND FREE ENERGY PREDICTED BY IDOCK:   -6.06 KCAL/MOL
REMARK 924 INTRA-LIGAND FREE ENERGY PREDICTED BY IDOCK:   -0.51 KCAL/MOL
REMARK 927      BINDING AFFINITY PREDICTED BY RF-SCORE:    0.00 PKD
ROOT
HETATM    1  O   UNL     1      -6.492  15.357  67.848  1.00  0.00    -0.124 OA 
HETATM    2  N   UNL     1      -7.144  16.203  68.474  1.00  0.00    -0.133 N  
HETATM    3  C   UNL     1      -8.331  16.724  67.810  1.00  0.00    -0.188 A  
HETATM    4  O   UNL     1      -6.832  16.727  69.550  1.00  0.00    -0.231 OA 
HETATM    5  C   UNL     1      -9.390  15.878  67.451  1.00  0.00    -0.214 A  
HETATM    6  C   UNL     1     -10.472  16.437  66.760  1.00  0.00    -0.273 A  
HETATM    7  C   UNL     1      -9.315  20.055  66.233  1.00  0.00    -0.359 C  
HETATM    8  C   UNL     1     -10.458  17.789  66.385  1.00  0.00    -0.297 A  
HETATM    9  C   UNL     1      -8.310  18.080  67.446  1.00  0.00    -0.233 A  
HETATM   10  F   UNL     1      -9.259  20.937  67.265  1.00  0.00    -0.502 F  
HETATM   11  C   UNL     1      -9.371  18.616  66.705  1.00  0.00    -0.318 A  
HETATM   12  F   UNL     1     -10.383  20.420  65.475  1.00  0.00    -0.507 F  
HETATM   13  F   UNL     1      -8.213  20.293  65.471  1.00  0.00    -0.265 F  
ENDROOT
BRANCH   5  14
HETATM   14  C   UNL     1      -9.404  14.433  67.814  1.00  0.00    -0.200 C  
HETATM   15  O   UNL     1      -9.692  14.142  68.971  1.00  0.00    -0.129 OA 
BRANCH  14  16
HETATM   16  C   UNL     1      -9.088  13.384  66.766  1.00  0.00    -0.221 C  
HETATM   17  C   UNL     1     -10.717  10.907  67.132  1.00  0.00    -0.320 C  
HETATM   18  C   UNL     1      -9.546  11.208  68.058  1.00  0.00    -0.181 C  
HETATM   19  C   UNL     1      -8.547  12.107  67.365  1.00  0.00    -0.175 C  
HETATM   20  O   UNL     1      -7.343  11.860  67.374  1.00  0.00    -0.124 OA 
HETATM   21  C   UNL     1     -11.352  12.172  66.563  1.00  0.00    -0.405 C  
HETATM   22  C   UNL     1     -10.292  13.039  65.916  1.00  0.00    -0.288 C  
HETATM   23  O   UNL     1     -10.410  13.458  64.764  1.00  0.00    -0.378 OA 
ENDBRANCH  14  16
ENDBRANCH   5  14
TORSDOF 2
ENDMDL
MODEL       70
REMARK 921   NORMALIZED FREE ENERGY PREDICTED BY IDOCK:   -5.48 KCAL/MOL
REMARK 922        TOTAL FREE ENERGY PREDICTED BY IDOCK:   -6.48 KCAL/MOL
REMARK 923 INTER-LIGAND FREE ENERGY PREDICTED BY IDOCK:   -6.00 KCAL/MOL
REMARK 924 INTRA-LIGAND FREE ENERGY PREDICTED BY IDOCK:   -0.48 KCAL/MOL
REMARK 927      BINDING AFFINITY PREDICTED BY RF-SCORE:    0.00 PKD
ROOT
HETATM    1  O   UNL     1     -12.650  11.018  68.676  1.00  0.00    -0.304 OA 
HETATM    2  N   UNL     1     -11.467  10.703  68.858  1.00  0.00    -0.271 N  
HETATM    3  C   UNL     1     -10.782  10.087  67.731  1.00  0.00    -0.280 A  
HETATM    4  O   UNL     1     -10.845  10.758  69.926  1.00  0.00    -0.261 OA 
HETATM    5  C   UNL     1     -10.624  10.771  66.517  1.00  0.00    -0.279 A  
HETATM    6  C   UNL     1     -10.010  10.093  65.456  1.00  0.00    -0.363 A  
HETATM    7  C   UNL     1      -9.498   6.587  66.922  1.00  0.00    -0.152 C  
HETATM    8  C   UNL     1      -9.628   8.750  65.592  1.00  0.00    -0.105 A  
HETATM    9  C   UNL     1     -10.396   8.745  67.880  1.00  0.00    -0.281 A  
HETATM   10  F   UNL     1      -8.563   6.350  67.879  1.00  0.00    -0.116 F  
HETATM   11  C   UNL     1      -9.836   8.058  66.795  1.00  0.00    -0.327 A  
HETATM   12  F   UNL     1      -9.018   6.039  65.774  1.00  0.00    -0.152 F  
HETATM   13  F   UNL     1     -10.587   5.847  67.266  1.00  0.00    -0.203 F  
ENDROOT
BRANCH   5  14
HETATM   14  C   UNL     1     -11.055  12.187  66.348  1.00  0.00    -0.314 C  
HETATM   15  O   UNL     1     -12.244  12.393  66.120  1.00  0.00    -0.635 OA 
BRANCH  14  16
HETATM   16  C   UNL     1     -10.044  13.310  66.477  1.00  0.00    -0.275 C  
HETATM   17  C   UNL     1     -11.012  15.488  68.277  1.00  0.00    -0.305 C  
HETATM   18  C   UNL     1     -11.574  15.339  66.869  1.00  0.00    -0.068 C  
HETATM   19  C   UNL     1     -10.577  14.632  65.979  1.00  0.00    -0.309 C  
HETATM   20  O   UNL     1     -10.289  15.063  64.864  1.00  0.00    -0.383 OA 
HETATM   21  C   UNL     1     -10.534  14.161  68.859  1.00  0.00    -0.229 C  
HETATM   22  C   UNL     1      -9.568  13.493  67.902  1.00  0.00    -0.218 C  
HETATM   23  O   UNL     1      -8.459  13.103  68.268  1.00  0.00    -0.164 OA 
ENDBRANCH  14  16
ENDBRANCH   5  14
TORSDOF 2
ENDMDL
MODEL       71
REMARK 921   NORMALIZED FREE ENERGY PREDICTED BY IDOCK:   -5.47 KCAL/MOL
REMARK 922        TOTAL FREE ENERGY PREDICTED BY IDOCK:   -6.47 KCAL/MOL
REMARK 923 INTER-LIGAND FREE ENERGY PREDICTED BY IDOCK:   -5.70 KCAL/MOL
REMARK 924 INTRA-LIGAND FREE ENERGY PREDICTED BY IDOCK:   -0.77 KCAL/MOL
REMARK 927      BINDING AFFINITY PREDICTED BY RF-SCORE:    0.00 PKD
ROOT
HETATM    1  O   UNL     1      -8.957   5.948  70.638  1.00  0.00    -0.142 OA 
HETATM    2  N   UNL     1     -10.033   6.214  70.087  1.00  0.00    -0.170 N  
HETATM    3  C   UNL     1     -10.457   7.606  70.136  1.00  0.00    -0.227 A  
HETATM    4  O   UNL     1     -10.833   5.405  69.599  1.00  0.00    -0.289 OA 
HETATM    5  C   UNL     1      -9.679   8.620  69.558  1.00  0.00    -0.179 A  
HETATM    6  C   UNL     1     -10.117   9.943  69.698  1.00  0.00    -0.254 A  
HETATM    7  C   UNL     1     -13.200   9.545  71.942  1.00  0.00    -0.439 C  
HETATM    8  C   UNL     1     -11.263  10.241  70.449  1.00  0.00    -0.407 A  
HETATM    9  C   UNL     1     -11.611   7.892  70.883  1.00  0.00    -0.286 A  
HETATM   10  F   UNL     1     -14.353   9.002  71.471  1.00  0.00    -0.400 F  
HETATM   11  C   UNL     1     -12.008   9.223  71.065  1.00  0.00    -0.369 A  
HETATM   12  F   UNL     1     -13.433  10.878  72.076  1.00  0.00    -0.505 F  
HETATM   13  F   UNL     1     -13.042   9.062  73.205  1.00  0.00    -0.380 F  
ENDROOT
BRANCH   5  14
HETATM   14  C   UNL     1      -8.441   8.322  68.786  1.00  0.00    -0.125 C  
HETATM   15  O   UNL     1      -7.368   8.645  69.288  1.00  0.00    -0.071 OA 
BRANCH  14  16
HETATM   16  C   UNL     1      -8.533   7.626  67.442  1.00  0.00    -0.122 C  
HETATM   17  C   UNL     1      -8.714   9.572  65.182  1.00  0.00    -0.200 C  
HETATM   18  C   UNL     1      -9.916   9.314  66.081  1.00  0.00    -0.348 C  
HETATM   19  C   UNL     1      -9.816   7.942  66.710  1.00  0.00    -0.248 C  
HETATM   20  O   UNL     1     -10.765   7.161  66.710  1.00  0.00    -0.307 OA 
HETATM   21  C   UNL     1      -7.388   9.345  65.902  1.00  0.00    -0.095 C  
HETATM   22  C   UNL     1      -7.370   7.969  66.536  1.00  0.00    -0.084 C  
HETATM   23  O   UNL     1      -6.449   7.177  66.339  1.00  0.00    -0.048 OA 
ENDBRANCH  14  16
ENDBRANCH   5  14
TORSDOF 2
ENDMDL
MODEL       72
REMARK 921   NORMALIZED FREE ENERGY PREDICTED BY IDOCK:   -5.46 KCAL/MOL
REMARK 922        TOTAL FREE ENERGY PREDICTED BY IDOCK:   -6.46 KCAL/MOL
REMARK 923 INTER-LIGAND FREE ENERGY PREDICTED BY IDOCK:   -6.14 KCAL/MOL
REMARK 924 INTRA-LIGAND FREE ENERGY PREDICTED BY IDOCK:   -0.32 KCAL/MOL
REMARK 927      BINDING AFFINITY PREDICTED BY RF-SCORE:    0.00 PKD
ROOT
HETATM    1  O   UNL     1     -12.410   8.328  73.077  1.00  0.00    -0.205 OA 
HETATM    2  N   UNL     1     -13.149   8.873  72.246  1.00  0.00    -0.413 N  
HETATM    3  C   UNL     1     -12.507   9.788  71.313  1.00  0.00    -0.367 A  
HETATM    4  O   UNL     1     -14.383   8.803  72.199  1.00  0.00    -0.440 OA 
HETATM    5  C   UNL     1     -11.509   9.344  70.434  1.00  0.00    -0.272 A  
HETATM    6  C   UNL     1     -10.892  10.293  69.609  1.00  0.00    -0.311 A  
HETATM    7  C   UNL     1     -12.492  13.568  70.799  1.00  0.00    -0.353 C  
HETATM    8  C   UNL     1     -11.222  11.652  69.711  1.00  0.00    -0.203 A  
HETATM    9  C   UNL     1     -12.851  11.145  71.418  1.00  0.00    -0.544 A  
HETATM   10  F   UNL     1     -13.786  13.867  70.516  1.00  0.00    -0.045 F  
HETATM   11  C   UNL     1     -12.188  12.093  70.629  1.00  0.00    -0.392 A  
HETATM   12  F   UNL     1     -11.731  14.374  70.012  1.00  0.00    -0.280 F  
HETATM   13  F   UNL     1     -12.279  13.982  72.078  1.00  0.00    -0.338 F  
ENDROOT
BRANCH   5  14
HETATM   14  C   UNL     1     -11.123   7.909  70.338  1.00  0.00    -0.245 C  
HETATM   15  O   UNL     1     -12.006   7.103  70.057  1.00  0.00    -0.077 OA 
BRANCH  14  16
HETATM   16  C   UNL     1      -9.683   7.492  70.564  1.00  0.00    -0.179 C  
HETATM   17  C   UNL     1      -9.232   6.474  73.336  1.00  0.00    -0.145 C  
HETATM   18  C   UNL     1      -9.396   7.966  73.075  1.00  0.00    -0.329 C  
HETATM   19  C   UNL     1      -9.008   8.295  71.651  1.00  0.00    -0.180 C  
HETATM   20  O   UNL     1      -8.258   9.232  71.386  1.00  0.00    -0.330 OA 
HETATM   21  C   UNL     1      -9.965   5.618  72.309  1.00  0.00    -0.204 C  
HETATM   22  C   UNL     1      -9.557   6.023  70.907  1.00  0.00    -0.169 C  
HETATM   23  O   UNL     1      -9.159   5.199  70.084  1.00  0.00    -0.122 OA 
ENDBRANCH  14  16
ENDBRANCH   5  14
TORSDOF 2
ENDMDL
MODEL       73
REMARK 921   NORMALIZED FREE ENERGY PREDICTED BY IDOCK:   -5.45 KCAL/MOL
REMARK 922        TOTAL FREE ENERGY PREDICTED BY IDOCK:   -6.45 KCAL/MOL
REMARK 923 INTER-LIGAND FREE ENERGY PREDICTED BY IDOCK:   -6.01 KCAL/MOL
REMARK 924 INTRA-LIGAND FREE ENERGY PREDICTED BY IDOCK:   -0.45 KCAL/MOL
REMARK 927      BINDING AFFINITY PREDICTED BY RF-SCORE:    0.00 PKD
ROOT
HETATM    1  O   UNL     1     -13.531  10.302  69.934  1.00  0.00     0.170 OA 
HETATM    2  N   UNL     1     -12.808  10.372  70.937  1.00  0.00    -0.377 N  
HETATM    3  C   UNL     1     -11.658   9.479  70.967  1.00  0.00    -0.344 A  
HETATM    4  O   UNL     1     -13.024  11.039  71.957  1.00  0.00    -0.452 OA 
HETATM    5  C   UNL     1     -10.655   9.557  69.990  1.00  0.00    -0.280 A  
HETATM    6  C   UNL     1      -9.610   8.626  70.047  1.00  0.00    -0.175 A  
HETATM    7  C   UNL     1     -10.690   6.370  72.953  1.00  0.00    -0.249 C  
HETATM    8  C   UNL     1      -9.610   7.611  71.014  1.00  0.00    -0.169 A  
HETATM    9  C   UNL     1     -11.663   8.472  71.945  1.00  0.00    -0.409 A  
HETATM   10  F   UNL     1     -10.642   6.803  74.240  1.00  0.00    -0.376 F  
HETATM   11  C   UNL     1     -10.644   7.511  71.957  1.00  0.00    -0.248 A  
HETATM   12  F   UNL     1      -9.670   5.483  72.810  1.00  0.00    -0.152 F  
HETATM   13  F   UNL     1     -11.837   5.647  72.840  1.00  0.00    -0.314 F  
ENDROOT
BRANCH   5  14
HETATM   14  C   UNL     1     -10.660  10.610  68.937  1.00  0.00    -0.212 C  
HETATM   15  O   UNL     1     -10.262  11.728  69.251  1.00  0.00    -0.010 OA 
BRANCH  14  16
HETATM   16  C   UNL     1     -11.126  10.277  67.532  1.00  0.00    -0.302 C  
HETATM   17  C   UNL     1      -8.987  10.743  65.501  1.00  0.00    -0.210 C  
HETATM   18  C   UNL     1      -9.733  11.916  66.124  1.00  0.00    -0.251 C  
HETATM   19  C   UNL     1     -11.094  11.472  66.610  1.00  0.00    -0.295 C  
HETATM   20  O   UNL     1     -12.112  12.109  66.348  1.00  0.00    -0.630 OA 
HETATM   21  C   UNL     1      -8.920   9.535  66.429  1.00  0.00    -0.182 C  
HETATM   22  C   UNL     1     -10.310   9.167  66.904  1.00  0.00    -0.251 C  
HETATM   23  O   UNL     1     -10.749   8.022  66.801  1.00  0.00    -0.289 OA 
ENDBRANCH  14  16
ENDBRANCH   5  14
TORSDOF 2
ENDMDL
MODEL       74
REMARK 921   NORMALIZED FREE ENERGY PREDICTED BY IDOCK:   -5.45 KCAL/MOL
REMARK 922        TOTAL FREE ENERGY PREDICTED BY IDOCK:   -6.45 KCAL/MOL
REMARK 923 INTER-LIGAND FREE ENERGY PREDICTED BY IDOCK:   -6.12 KCAL/MOL
REMARK 924 INTRA-LIGAND FREE ENERGY PREDICTED BY IDOCK:   -0.33 KCAL/MOL
REMARK 927      BINDING AFFINITY PREDICTED BY RF-SCORE:    0.00 PKD
ROOT
HETATM    1  O   UNL     1      -8.805  10.720  66.035  1.00  0.00    -0.168 OA 
HETATM    2  N   UNL     1      -9.694   9.903  66.309  1.00  0.00    -0.206 N  
HETATM    3  C   UNL     1     -10.463  10.167  67.517  1.00  0.00    -0.253 A  
HETATM    4  O   UNL     1      -9.921   8.835  65.726  1.00  0.00    -0.130 OA 
HETATM    5  C   UNL     1     -11.219  11.340  67.653  1.00  0.00    -0.357 A  
HETATM    6  C   UNL     1     -11.882  11.556  68.867  1.00  0.00    -0.406 A  
HETATM    7  C   UNL     1     -10.713   8.573  70.974  1.00  0.00    -0.228 C  
HETATM    8  C   UNL     1     -11.737  10.655  69.932  1.00  0.00    -0.395 A  
HETATM    9  C   UNL     1     -10.316   9.254  68.574  1.00  0.00    -0.237 A  
HETATM   10  F   UNL     1     -11.157   7.314  70.725  1.00  0.00    -0.251 F  
HETATM   11  C   UNL     1     -10.938   9.508  69.803  1.00  0.00    -0.245 A  
HETATM   12  F   UNL     1     -11.329   8.977  72.117  1.00  0.00    -0.409 F  
HETATM   13  F   UNL     1      -9.392   8.456  71.279  1.00  0.00    -0.168 F  
ENDROOT
BRANCH   5  14
HETATM   14  C   UNL     1     -11.356  12.323  66.543  1.00  0.00    -0.351 C  
HETATM   15  O   UNL     1     -12.326  12.208  65.800  1.00  0.00    -0.564 OA 
BRANCH  14  16
HETATM   16  C   UNL     1     -10.329  13.427  66.374  1.00  0.00    -0.288 C  
HETATM   17  C   UNL     1     -10.852  15.733  68.199  1.00  0.00    -0.307 C  
HETATM   18  C   UNL     1     -11.713  15.514  66.962  1.00  0.00     0.177 C  
HETATM   19  C   UNL     1     -10.944  14.730  65.921  1.00  0.00    -0.335 C  
HETATM   20  O   UNL     1     -10.905  15.085  64.745  1.00  0.00    -0.394 OA 
HETATM   21  C   UNL     1     -10.272  14.433  68.745  1.00  0.00    -0.239 C  
HETATM   22  C   UNL     1      -9.547  13.684  67.645  1.00  0.00    -0.221 C  
HETATM   23  O   UNL     1      -8.390  13.290  67.782  1.00  0.00    -0.145 OA 
ENDBRANCH  14  16
ENDBRANCH   5  14
TORSDOF 2
ENDMDL
MODEL       75
REMARK 921   NORMALIZED FREE ENERGY PREDICTED BY IDOCK:   -5.43 KCAL/MOL
REMARK 922        TOTAL FREE ENERGY PREDICTED BY IDOCK:   -6.43 KCAL/MOL
REMARK 923 INTER-LIGAND FREE ENERGY PREDICTED BY IDOCK:   -5.98 KCAL/MOL
REMARK 924 INTRA-LIGAND FREE ENERGY PREDICTED BY IDOCK:   -0.45 KCAL/MOL
REMARK 927      BINDING AFFINITY PREDICTED BY RF-SCORE:    0.00 PKD
ROOT
HETATM    1  O   UNL     1     -12.024  12.335  67.500  1.00  0.00    -0.513 OA 
HETATM    2  N   UNL     1     -11.798  12.949  66.450  1.00  0.00    -0.400 N  
HETATM    3  C   UNL     1     -10.696  13.900  66.482  1.00  0.00    -0.277 A  
HETATM    4  O   UNL     1     -12.477  12.918  65.415  1.00  0.00    -0.480 OA 
HETATM    5  C   UNL     1      -9.386  13.481  66.757  1.00  0.00    -0.262 A  
HETATM    6  C   UNL     1      -8.386  14.460  66.833  1.00  0.00    -0.109 A  
HETATM    7  C   UNL     1     -10.390  17.702  66.415  1.00  0.00    -0.345 C  
HETATM    8  C   UNL     1      -8.706  15.819  66.703  1.00  0.00    -0.323 A  
HETATM    9  C   UNL     1     -11.025  15.258  66.342  1.00  0.00    -0.299 A  
HETATM   10  F   UNL     1     -10.924  18.054  65.217  1.00  0.00    -0.428 F  
HETATM   11  C   UNL     1     -10.028  16.232  66.478  1.00  0.00    -0.290 A  
HETATM   12  F   UNL     1      -9.333  18.531  66.623  1.00  0.00    -0.272 F  
HETATM   13  F   UNL     1     -11.318  18.033  67.355  1.00  0.00    -0.181 F  
ENDROOT
BRANCH   5  14
HETATM   14  C   UNL     1      -9.037  12.044  66.931  1.00  0.00    -0.196 C  
HETATM   15  O   UNL     1      -9.146  11.567  68.057  1.00  0.00    -0.161 OA 
BRANCH  14  16
HETATM   16  C   UNL     1      -8.588  11.221  65.738  1.00  0.00    -0.067 C  
HETATM   17  C   UNL     1      -8.726   8.287  66.283  1.00  0.00    -0.173 C  
HETATM   18  C   UNL     1      -7.615   9.136  66.887  1.00  0.00    -0.091 C  
HETATM   19  C   UNL     1      -7.379  10.368  66.042  1.00  0.00    -0.134 C  
HETATM   20  O   UNL     1      -6.249  10.712  65.703  1.00  0.00    -0.129 OA 
HETATM   21  C   UNL     1     -10.001   9.087  66.033  1.00  0.00    -0.246 C  
HETATM   22  C   UNL     1      -9.687  10.322  65.213  1.00  0.00    -0.291 C  
HETATM   23  O   UNL     1     -10.304  10.590  64.183  1.00  0.00    -0.313 OA 
ENDBRANCH  14  16
ENDBRANCH   5  14
TORSDOF 2
ENDMDL
MODEL       76
REMARK 921   NORMALIZED FREE ENERGY PREDICTED BY IDOCK:   -5.42 KCAL/MOL
REMARK 922        TOTAL FREE ENERGY PREDICTED BY IDOCK:   -6.42 KCAL/MOL
REMARK 923 INTER-LIGAND FREE ENERGY PREDICTED BY IDOCK:   -6.11 KCAL/MOL
REMARK 924 INTRA-LIGAND FREE ENERGY PREDICTED BY IDOCK:   -0.31 KCAL/MOL
REMARK 927      BINDING AFFINITY PREDICTED BY RF-SCORE:    0.00 PKD
ROOT
HETATM    1  O   UNL     1      -6.863  16.421  69.326  1.00  0.00    -0.199 OA 
HETATM    2  N   UNL     1      -7.490  15.413  68.976  1.00  0.00    -0.149 N  
HETATM    3  C   UNL     1      -8.934  15.559  68.859  1.00  0.00    -0.220 A  
HETATM    4  O   UNL     1      -7.031  14.274  68.823  1.00  0.00    -0.091 OA 
HETATM    5  C   UNL     1      -9.499  16.471  67.956  1.00  0.00    -0.222 A  
HETATM    6  C   UNL     1     -10.893  16.603  67.942  1.00  0.00    -0.321 A  
HETATM    7  C   UNL     1     -11.955  14.304  70.821  1.00  0.00    -0.320 C  
HETATM    8  C   UNL     1     -11.688  15.889  68.851  1.00  0.00    -0.376 A  
HETATM    9  C   UNL     1      -9.720  14.833  69.769  1.00  0.00     0.193 A  
HETATM   10  F   UNL     1     -11.880  12.952  70.711  1.00  0.00    -0.374 F  
HETATM   11  C   UNL     1     -11.109  15.016  69.786  1.00  0.00    -0.297 A  
HETATM   12  F   UNL     1     -13.275  14.621  70.756  1.00  0.00    -0.393 F  
HETATM   13  F   UNL     1     -11.558  14.603  72.088  1.00  0.00    -0.380 F  
ENDROOT
BRANCH   5  14
HETATM   14  C   UNL     1      -8.665  17.260  67.007  1.00  0.00    -0.231 C  
HETATM   15  O   UNL     1      -7.974  16.637  66.207  1.00  0.00    -0.305 OA 
BRANCH  14  16
HETATM   16  C   UNL     1      -8.706  18.776  67.039  1.00  0.00    -0.291 C  
HETATM   17  C   UNL     1      -6.371  19.930  68.500  1.00  0.00    -0.311 C  
HETATM   18  C   UNL     1      -7.516  19.278  69.263  1.00  0.00    -0.255 C  
HETATM   19  C   UNL     1      -8.786  19.326  68.444  1.00  0.00    -0.352 C  
HETATM   20  O   UNL     1      -9.852  19.703  68.927  1.00  0.00    -0.423 OA 
HETATM   21  C   UNL     1      -6.196  19.350  67.101  1.00  0.00    -0.191 C  
HETATM   22  C   UNL     1      -7.511  19.398  66.350  1.00  0.00    -0.260 C  
HETATM   23  O   UNL     1      -7.601  19.902  65.231  1.00  0.00    -0.344 OA 
ENDBRANCH  14  16
ENDBRANCH   5  14
TORSDOF 2
ENDMDL
MODEL       77
REMARK 921   NORMALIZED FREE ENERGY PREDICTED BY IDOCK:   -5.42 KCAL/MOL
REMARK 922        TOTAL FREE ENERGY PREDICTED BY IDOCK:   -6.41 KCAL/MOL
REMARK 923 INTER-LIGAND FREE ENERGY PREDICTED BY IDOCK:   -5.94 KCAL/MOL
REMARK 924 INTRA-LIGAND FREE ENERGY PREDICTED BY IDOCK:   -0.48 KCAL/MOL
REMARK 927      BINDING AFFINITY PREDICTED BY RF-SCORE:    0.00 PKD
ROOT
HETATM    1  O   UNL     1     -10.692  10.095  70.738  1.00  0.00    -0.282 OA 
HETATM    2  N   UNL     1      -9.664   9.570  70.289  1.00  0.00    -0.248 N  
HETATM    3  C   UNL     1      -9.849   8.602  69.218  1.00  0.00    -0.188 A  
HETATM    4  O   UNL     1      -8.515   9.703  70.729  1.00  0.00    -0.245 OA 
HETATM    5  C   UNL     1     -10.435   8.973  67.999  1.00  0.00    -0.270 A  
HETATM    6  C   UNL     1     -10.638   7.975  67.038  1.00  0.00    -0.364 A  
HETATM    7  C   UNL     1      -9.515   4.815  68.897  1.00  0.00    -0.146 C  
HETATM    8  C   UNL     1     -10.323   6.637  67.318  1.00  0.00    -0.296 A  
HETATM    9  C   UNL     1      -9.522   7.267  69.506  1.00  0.00    -0.155 A  
HETATM   10  F   UNL     1      -8.203   4.577  69.159  1.00  0.00    -0.076 F  
HETATM   11  C   UNL     1      -9.783   6.268  68.560  1.00  0.00    -0.137 A  
HETATM   12  F   UNL     1      -9.870   3.953  67.908  1.00  0.00    -0.223 F  
HETATM   13  F   UNL     1     -10.199   4.420  70.005  1.00  0.00    -0.296 F  
ENDROOT
BRANCH   5  14
HETATM   14  C   UNL     1     -10.806  10.384  67.699  1.00  0.00    -0.306 C  
HETATM   15  O   UNL     1     -11.927  10.758  68.031  1.00  0.00    -0.537 OA 
BRANCH  14  16
HETATM   16  C   UNL     1      -9.807  11.306  67.026  1.00  0.00    -0.217 C  
HETATM   17  C   UNL     1     -10.681  12.095  64.281  1.00  0.00    -0.380 C  
HETATM   18  C   UNL     1     -10.132  10.699  64.548  1.00  0.00    -0.421 C  
HETATM   19  C   UNL     1      -9.230  10.715  65.762  1.00  0.00    -0.189 C  
HETATM   20  O   UNL     1      -8.120  10.186  65.748  1.00  0.00    -0.130 OA 
HETATM   21  C   UNL     1     -11.350  12.704  65.510  1.00  0.00    -0.356 C  
HETATM   22  C   UNL     1     -10.405  12.656  66.693  1.00  0.00    -0.236 C  
HETATM   23  O   UNL     1     -10.149  13.658  67.360  1.00  0.00    -0.236 OA 
ENDBRANCH  14  16
ENDBRANCH   5  14
TORSDOF 2
ENDMDL
MODEL       78
REMARK 921   NORMALIZED FREE ENERGY PREDICTED BY IDOCK:   -5.42 KCAL/MOL
REMARK 922        TOTAL FREE ENERGY PREDICTED BY IDOCK:   -6.41 KCAL/MOL
REMARK 923 INTER-LIGAND FREE ENERGY PREDICTED BY IDOCK:   -6.35 KCAL/MOL
REMARK 924 INTRA-LIGAND FREE ENERGY PREDICTED BY IDOCK:   -0.06 KCAL/MOL
REMARK 927      BINDING AFFINITY PREDICTED BY RF-SCORE:    0.00 PKD
ROOT
HETATM    1  O   UNL     1      -8.562   8.514  66.594  1.00  0.00    -0.110 OA 
HETATM    2  N   UNL     1      -8.373   9.727  66.751  1.00  0.00    -0.123 N  
HETATM    3  C   UNL     1      -9.555  10.576  66.701  1.00  0.00    -0.172 A  
HETATM    4  O   UNL     1      -7.279  10.299  66.835  1.00  0.00    -0.089 OA 
HETATM    5  C   UNL     1     -10.602  10.415  67.621  1.00  0.00    -0.304 A  
HETATM    6  C   UNL     1     -11.735  11.225  67.474  1.00  0.00    -0.166 A  
HETATM    7  C   UNL     1     -10.947  13.147  64.251  1.00  0.00    -0.403 C  
HETATM    8  C   UNL     1     -11.839  12.121  66.400  1.00  0.00    -0.321 A  
HETATM    9  C   UNL     1      -9.645  11.475  65.627  1.00  0.00    -0.256 A  
HETATM   10  F   UNL     1      -9.999  14.120  64.221  1.00  0.00    -0.258 F  
HETATM   11  C   UNL     1     -10.806  12.239  65.456  1.00  0.00    -0.319 A  
HETATM   12  F   UNL     1     -12.148  13.780  64.184  1.00  0.00    -0.422 F  
HETATM   13  F   UNL     1     -10.819  12.459  63.084  1.00  0.00    -0.469 F  
ENDROOT
BRANCH   5  14
HETATM   14  C   UNL     1     -10.520   9.443  68.747  1.00  0.00    -0.212 C  
HETATM   15  O   UNL     1     -10.635   8.251  68.476  1.00  0.00    -0.187 OA 
BRANCH  14  16
HETATM   16  C   UNL     1     -10.283   9.938  70.161  1.00  0.00    -0.326 C  
HETATM   17  C   UNL     1     -11.096   7.919  72.206  1.00  0.00    -0.376 C  
HETATM   18  C   UNL     1     -12.147   8.724  71.452  1.00  0.00    -0.361 C  
HETATM   19  C   UNL     1     -11.557  10.029  70.967  1.00  0.00    -0.393 C  
HETATM   20  O   UNL     1     -12.135  11.101  71.135  1.00  0.00    -0.301 OA 
HETATM   21  C   UNL     1      -9.816   7.727  71.399  1.00  0.00    -0.195 C  
HETATM   22  C   UNL     1      -9.301   9.068  70.917  1.00  0.00    -0.264 C  
HETATM   23  O   UNL     1      -8.140   9.425  71.113  1.00  0.00    -0.322 OA 
ENDBRANCH  14  16
ENDBRANCH   5  14
TORSDOF 2
ENDMDL
MODEL       79
REMARK 921   NORMALIZED FREE ENERGY PREDICTED BY IDOCK:   -5.41 KCAL/MOL
REMARK 922        TOTAL FREE ENERGY PREDICTED BY IDOCK:   -6.40 KCAL/MOL
REMARK 923 INTER-LIGAND FREE ENERGY PREDICTED BY IDOCK:   -5.66 KCAL/MOL
REMARK 924 INTRA-LIGAND FREE ENERGY PREDICTED BY IDOCK:   -0.74 KCAL/MOL
REMARK 927      BINDING AFFINITY PREDICTED BY RF-SCORE:    0.00 PKD
ROOT
HETATM    1  O   UNL     1      -9.046  13.766  68.440  1.00  0.00    -0.192 OA 
HETATM    2  N   UNL     1     -10.152  13.223  68.316  1.00  0.00    -0.247 N  
HETATM    3  C   UNL     1     -10.296  12.298  67.201  1.00  0.00    -0.218 A  
HETATM    4  O   UNL     1     -11.172  13.469  68.973  1.00  0.00    -0.251 OA 
HETATM    5  C   UNL     1      -9.497  11.150  67.104  1.00  0.00    -0.187 A  
HETATM    6  C   UNL     1      -9.647  10.339  65.972  1.00  0.00    -0.259 A  
HETATM    7  C   UNL     1     -12.174  12.325  63.881  1.00  0.00    -0.515 C  
HETATM    8  C   UNL     1     -10.525  10.706  64.942  1.00  0.00    -0.282 A  
HETATM    9  C   UNL     1     -11.184  12.671  66.179  1.00  0.00    -0.350 A  
HETATM   10  F   UNL     1     -13.480  12.409  64.242  1.00  0.00    -0.281 F  
HETATM   11  C   UNL     1     -11.284  11.884  65.025  1.00  0.00    -0.350 A  
HETATM   12  F   UNL     1     -12.127  11.496  62.805  1.00  0.00    -0.242 F  
HETATM   13  F   UNL     1     -11.828  13.558  63.420  1.00  0.00    -0.464 F  
ENDROOT
BRANCH   5  14
HETATM   14  C   UNL     1      -8.536  10.766  68.175  1.00  0.00    -0.125 C  
HETATM   15  O   UNL     1      -7.338  10.848  67.919  1.00  0.00    -0.085 OA 
BRANCH  14  16
HETATM   16  C   UNL     1      -9.048  10.312  69.529  1.00  0.00    -0.187 C  
HETATM   17  C   UNL     1      -9.456   7.355  69.641  1.00  0.00    -0.156 C  
HETATM   18  C   UNL     1     -10.437   8.245  68.889  1.00  0.00    -0.209 C  
HETATM   19  C   UNL     1     -10.403   9.650  69.446  1.00  0.00    -0.213 C  
HETATM   20  O   UNL     1     -11.434  10.259  69.725  1.00  0.00    -0.249 OA 
HETATM   21  C   UNL     1      -8.049   7.943  69.682  1.00  0.00    -0.117 C  
HETATM   22  C   UNL     1      -8.093   9.360  70.216  1.00  0.00    -0.164 C  
HETATM   23  O   UNL     1      -7.377   9.724  71.148  1.00  0.00    -0.316 OA 
ENDBRANCH  14  16
ENDBRANCH   5  14
TORSDOF 2
ENDMDL
MODEL       80
REMARK 921   NORMALIZED FREE ENERGY PREDICTED BY IDOCK:   -5.38 KCAL/MOL
REMARK 922        TOTAL FREE ENERGY PREDICTED BY IDOCK:   -6.37 KCAL/MOL
REMARK 923 INTER-LIGAND FREE ENERGY PREDICTED BY IDOCK:   -5.85 KCAL/MOL
REMARK 924 INTRA-LIGAND FREE ENERGY PREDICTED BY IDOCK:   -0.52 KCAL/MOL
REMARK 927      BINDING AFFINITY PREDICTED BY RF-SCORE:    0.00 PKD
ROOT
HETATM    1  O   UNL     1      -9.952  10.792  69.145  1.00  0.00    -0.208 OA 
HETATM    2  N   UNL     1     -11.074  10.827  68.622  1.00  0.00    -0.239 N  
HETATM    3  C   UNL     1     -11.118  11.181  67.211  1.00  0.00    -0.302 A  
HETATM    4  O   UNL     1     -12.161  10.700  69.200  1.00  0.00    -0.328 OA 
HETATM    5  C   UNL     1     -10.471  10.396  66.246  1.00  0.00    -0.229 A  
HETATM    6  C   UNL     1     -10.503  10.832  64.916  1.00  0.00    -0.324 A  
HETATM    7  C   UNL     1     -12.297  14.208  65.210  1.00  0.00    -0.460 C  
HETATM    8  C   UNL     1     -11.109  12.050  64.577  1.00  0.00    -0.384 A  
HETATM    9  C   UNL     1     -11.735  12.399  66.882  1.00  0.00    -0.432 A  
HETATM   10  F   UNL     1     -13.627  14.281  65.477  1.00  0.00    -0.386 F  
HETATM   11  C   UNL     1     -11.711  12.854  65.558  1.00  0.00    -0.423 A  
HETATM   12  F   UNL     1     -12.150  14.544  63.901  1.00  0.00    -0.451 F  
HETATM   13  F   UNL     1     -11.712  15.208  65.924  1.00  0.00    -0.302 F  
ENDROOT
BRANCH   5  14
HETATM   14  C   UNL     1      -9.794   9.116  66.596  1.00  0.00    -0.240 C  
HETATM   15  O   UNL     1     -10.504   8.130  66.776  1.00  0.00    -0.326 OA 
BRANCH  14  16
HETATM   16  C   UNL     1      -8.282   9.059  66.699  1.00  0.00    -0.118 C  
HETATM   17  C   UNL     1      -7.202   6.395  65.887  1.00  0.00    -0.078 C  
HETATM   18  C   UNL     1      -7.894   6.574  67.232  1.00  0.00    -0.105 C  
HETATM   19  C   UNL     1      -7.805   8.015  67.681  1.00  0.00    -0.122 C  
HETATM   20  O   UNL     1      -7.454   8.317  68.820  1.00  0.00    -0.092 OA 
HETATM   21  C   UNL     1      -7.709   7.376  64.835  1.00  0.00    -0.113 C  
HETATM   22  C   UNL     1      -7.624   8.794  65.362  1.00  0.00    -0.087 C  
HETATM   23  O   UNL     1      -7.065   9.688  64.729  1.00  0.00    -0.104 OA 
ENDBRANCH  14  16
ENDBRANCH   5  14
TORSDOF 2
ENDMDL
MODEL       81
REMARK 921   NORMALIZED FREE ENERGY PREDICTED BY IDOCK:   -5.36 KCAL/MOL
REMARK 922        TOTAL FREE ENERGY PREDICTED BY IDOCK:   -6.34 KCAL/MOL
REMARK 923 INTER-LIGAND FREE ENERGY PREDICTED BY IDOCK:   -6.10 KCAL/MOL
REMARK 924 INTRA-LIGAND FREE ENERGY PREDICTED BY IDOCK:   -0.24 KCAL/MOL
REMARK 927      BINDING AFFINITY PREDICTED BY RF-SCORE:    0.00 PKD
ROOT
HETATM    1  O   UNL     1     -11.804  16.524  68.005  1.00  0.00     0.130 OA 
HETATM    2  N   UNL     1     -11.035  15.868  68.719  1.00  0.00    -0.281 N  
HETATM    3  C   UNL     1     -10.567  14.603  68.170  1.00  0.00    -0.237 A  
HETATM    4  O   UNL     1     -10.713  16.123  69.887  1.00  0.00    -0.303 OA 
HETATM    5  C   UNL     1      -9.824  14.559  66.981  1.00  0.00    -0.249 A  
HETATM    6  C   UNL     1      -9.462  13.303  66.480  1.00  0.00    -0.251 A  
HETATM    7  C   UNL     1     -11.200  10.918  68.928  1.00  0.00    -0.267 C  
HETATM    8  C   UNL     1      -9.887  12.129  67.118  1.00  0.00    -0.205 A  
HETATM    9  C   UNL     1     -10.991  13.434  68.822  1.00  0.00    -0.290 A  
HETATM   10  F   UNL     1     -10.753  10.762  70.201  1.00  0.00    -0.300 F  
HETATM   11  C   UNL     1     -10.672  12.182  68.280  1.00  0.00    -0.248 A  
HETATM   12  F   UNL     1     -10.860   9.783  68.262  1.00  0.00    -0.249 F  
HETATM   13  F   UNL     1     -12.559  10.919  69.001  1.00  0.00    -0.311 F  
ENDROOT
BRANCH   5  14
HETATM   14  C   UNL     1      -9.394  15.798  66.275  1.00  0.00    -0.325 C  
HETATM   15  O   UNL     1     -10.250  16.424  65.657  1.00  0.00    -0.432 OA 
BRANCH  14  16
HETATM   16  C   UNL     1      -7.950  16.253  66.351  1.00  0.00    -0.299 C  
HETATM   17  C   UNL     1      -7.380  17.762  68.865  1.00  0.00    -0.245 C  
HETATM   18  C   UNL     1      -8.161  18.413  67.730  1.00  0.00    -0.264 C  
HETATM   19  C   UNL     1      -7.816  17.756  66.412  1.00  0.00    -0.277 C  
HETATM   20  O   UNL     1      -7.536  18.418  65.415  1.00  0.00    -0.494 OA 
HETATM   21  C   UNL     1      -7.549  16.247  68.895  1.00  0.00    -0.212 C  
HETATM   22  C   UNL     1      -7.221  15.660  67.538  1.00  0.00    -0.191 C  
HETATM   23  O   UNL     1      -6.418  14.737  67.407  1.00  0.00    -0.302 OA 
ENDBRANCH  14  16
ENDBRANCH   5  14
TORSDOF 2
ENDMDL
MODEL       82
REMARK 921   NORMALIZED FREE ENERGY PREDICTED BY IDOCK:   -5.35 KCAL/MOL
REMARK 922        TOTAL FREE ENERGY PREDICTED BY IDOCK:   -6.34 KCAL/MOL
REMARK 923 INTER-LIGAND FREE ENERGY PREDICTED BY IDOCK:   -5.66 KCAL/MOL
REMARK 924 INTRA-LIGAND FREE ENERGY PREDICTED BY IDOCK:   -0.68 KCAL/MOL
REMARK 927      BINDING AFFINITY PREDICTED BY RF-SCORE:    0.00 PKD
ROOT
HETATM    1  O   UNL     1      -8.867   8.963  64.895  1.00  0.00    -0.186 OA 
HETATM    2  N   UNL     1      -8.479   9.931  65.561  1.00  0.00    -0.134 N  
HETATM    3  C   UNL     1      -9.513  10.728  66.206  1.00  0.00    -0.181 A  
HETATM    4  O   UNL     1      -7.318  10.352  65.644  1.00  0.00    -0.143 OA 
HETATM    5  C   UNL     1     -10.376  10.163  67.157  1.00  0.00    -0.295 A  
HETATM    6  C   UNL     1     -11.386  10.973  67.689  1.00  0.00    -0.355 A  
HETATM    7  C   UNL     1     -10.963  14.218  65.691  1.00  0.00    -0.309 C  
HETATM    8  C   UNL     1     -11.564  12.287  67.232  1.00  0.00    -0.427 A  
HETATM    9  C   UNL     1      -9.677  12.045  65.747  1.00  0.00    -0.254 A  
HETATM   10  F   UNL     1      -9.909  15.048  65.904  1.00  0.00    -0.276 F  
HETATM   11  C   UNL     1     -10.726  12.828  66.244  1.00  0.00    -0.291 A  
HETATM   12  F   UNL     1     -12.050  14.837  66.223  1.00  0.00    -0.339 F  
HETATM   13  F   UNL     1     -11.163  14.198  64.345  1.00  0.00    -0.367 F  
ENDROOT
BRANCH   5  14
HETATM   14  C   UNL     1     -10.220   8.758  67.627  1.00  0.00    -0.239 C  
HETATM   15  O   UNL     1     -10.925   7.903  67.100  1.00  0.00    -0.219 OA 
BRANCH  14  16
HETATM   16  C   UNL     1      -9.205   8.425  68.703  1.00  0.00    -0.143 C  
HETATM   17  C   UNL     1     -10.479   8.109  71.386  1.00  0.00    -0.261 C  
HETATM   18  C   UNL     1     -10.286   9.492  70.779  1.00  0.00    -0.363 C  
HETATM   19  C   UNL     1      -9.143   9.474  69.789  1.00  0.00    -0.205 C  
HETATM   20  O   UNL     1      -8.260  10.329  69.806  1.00  0.00    -0.164 OA 
HETATM   21  C   UNL     1     -10.630   7.022  70.327  1.00  0.00    -0.247 C  
HETATM   22  C   UNL     1      -9.473   7.083  69.351  1.00  0.00    -0.145 C  
HETATM   23  O   UNL     1      -8.796   6.091  69.084  1.00  0.00    -0.118 OA 
ENDBRANCH  14  16
ENDBRANCH   5  14
TORSDOF 2
ENDMDL
MODEL       83
REMARK 921   NORMALIZED FREE ENERGY PREDICTED BY IDOCK:   -5.35 KCAL/MOL
REMARK 922        TOTAL FREE ENERGY PREDICTED BY IDOCK:   -6.34 KCAL/MOL
REMARK 923 INTER-LIGAND FREE ENERGY PREDICTED BY IDOCK:   -6.12 KCAL/MOL
REMARK 924 INTRA-LIGAND FREE ENERGY PREDICTED BY IDOCK:   -0.22 KCAL/MOL
REMARK 927      BINDING AFFINITY PREDICTED BY RF-SCORE:    0.00 PKD
ROOT
HETATM    1  O   UNL     1      -9.568  11.337  68.888  1.00  0.00    -0.183 OA 
HETATM    2  N   UNL     1      -8.924  11.814  67.945  1.00  0.00    -0.172 N  
HETATM    3  C   UNL     1      -9.511  11.664  66.621  1.00  0.00    -0.201 A  
HETATM    4  O   UNL     1      -7.789  12.304  67.999  1.00  0.00    -0.126 OA 
HETATM    5  C   UNL     1     -10.760  12.223  66.315  1.00  0.00    -0.293 A  
HETATM    6  C   UNL     1     -11.291  11.986  65.041  1.00  0.00    -0.365 A  
HETATM    7  C   UNL     1      -8.700   9.607  63.512  1.00  0.00    -0.222 C  
HETATM    8  C   UNL     1     -10.618  11.159  64.129  1.00  0.00    -0.436 A  
HETATM    9  C   UNL     1      -8.825  10.842  65.713  1.00  0.00    -0.201 A  
HETATM   10  F   UNL     1      -7.471  10.047  63.138  1.00  0.00    -0.120 F  
HETATM   11  C   UNL     1      -9.392  10.563  64.463  1.00  0.00    -0.299 A  
HETATM   12  F   UNL     1      -9.394   9.386  62.364  1.00  0.00    -0.276 F  
HETATM   13  F   UNL     1      -8.509   8.384  64.078  1.00  0.00    -0.165 F  
ENDROOT
BRANCH   5  14
HETATM   14  C   UNL     1     -11.502  13.076  67.285  1.00  0.00    -0.332 C  
HETATM   15  O   UNL     1     -12.032  12.516  68.240  1.00  0.00    -0.328 OA 
BRANCH  14  16
HETATM   16  C   UNL     1     -11.564  14.578  67.084  1.00  0.00    -0.406 C  
HETATM   17  C   UNL     1      -9.003  15.918  67.836  1.00  0.00    -0.181 C  
HETATM   18  C   UNL     1      -9.956  15.410  68.910  1.00  0.00    -0.219 C  
HETATM   19  C   UNL     1     -11.367  15.345  68.370  1.00  0.00    -0.339 C  
HETATM   20  O   UNL     1     -12.319  15.809  68.994  1.00  0.00    -0.180 OA 
HETATM   21  C   UNL     1      -9.105  15.120  66.540  1.00  0.00    -0.328 C  
HETATM   22  C   UNL     1     -10.546  15.066  66.076  1.00  0.00    -0.322 C  
HETATM   23  O   UNL     1     -10.871  15.386  64.933  1.00  0.00    -0.421 OA 
ENDBRANCH  14  16
ENDBRANCH   5  14
TORSDOF 2
ENDMDL
MODEL       84
REMARK 921   NORMALIZED FREE ENERGY PREDICTED BY IDOCK:   -5.35 KCAL/MOL
REMARK 922        TOTAL FREE ENERGY PREDICTED BY IDOCK:   -6.33 KCAL/MOL
REMARK 923 INTER-LIGAND FREE ENERGY PREDICTED BY IDOCK:   -5.75 KCAL/MOL
REMARK 924 INTRA-LIGAND FREE ENERGY PREDICTED BY IDOCK:   -0.59 KCAL/MOL
REMARK 927      BINDING AFFINITY PREDICTED BY RF-SCORE:    0.00 PKD
ROOT
HETATM    1  O   UNL     1      -9.922  13.236  66.075  1.00  0.00    -0.289 OA 
HETATM    2  N   UNL     1      -9.459  13.223  67.223  1.00  0.00    -0.225 N  
HETATM    3  C   UNL     1     -10.381  12.854  68.288  1.00  0.00    -0.244 A  
HETATM    4  O   UNL     1      -8.330  13.597  67.567  1.00  0.00    -0.164 OA 
HETATM    5  C   UNL     1     -10.999  11.595  68.306  1.00  0.00    -0.273 A  
HETATM    6  C   UNL     1     -11.922  11.332  69.326  1.00  0.00    -0.411 A  
HETATM    7  C   UNL     1     -12.094  14.699  71.154  1.00  0.00    -0.342 C  
HETATM    8  C   UNL     1     -12.260  12.325  70.257  1.00  0.00    -0.342 A  
HETATM    9  C   UNL     1     -10.707  13.853  69.219  1.00  0.00    -0.117 A  
HETATM   10  F   UNL     1     -11.065  15.139  71.923  1.00  0.00    -0.460 F  
HETATM   11  C   UNL     1     -11.674  13.599  70.200  1.00  0.00    -0.288 A  
HETATM   12  F   UNL     1     -13.081  14.327  72.011  1.00  0.00    -0.366 F  
HETATM   13  F   UNL     1     -12.564  15.790  70.489  1.00  0.00    -0.423 F  
ENDROOT
BRANCH   5  14
HETATM   14  C   UNL     1     -10.674  10.542  67.304  1.00  0.00    -0.277 C  
HETATM   15  O   UNL     1     -11.373  10.484  66.297  1.00  0.00     0.129 OA 
BRANCH  14  16
HETATM   16  C   UNL     1      -9.505   9.605  67.539  1.00  0.00    -0.157 C  
HETATM   17  C   UNL     1     -10.400   6.883  68.382  1.00  0.00    -0.213 C  
HETATM   18  C   UNL     1     -10.445   8.051  69.359  1.00  0.00    -0.223 C  
HETATM   19  C   UNL     1      -9.436   9.105  68.962  1.00  0.00    -0.152 C  
HETATM   20  O   UNL     1      -8.664   9.600  69.781  1.00  0.00    -0.173 OA 
HETATM   21  C   UNL     1     -10.548   7.330  66.931  1.00  0.00    -0.375 C  
HETATM   22  C   UNL     1      -9.532   8.408  66.613  1.00  0.00    -0.205 C  
HETATM   23  O   UNL     1      -8.780   8.324  65.642  1.00  0.00    -0.160 OA 
ENDBRANCH  14  16
ENDBRANCH   5  14
TORSDOF 2
ENDMDL
MODEL       85
REMARK 921   NORMALIZED FREE ENERGY PREDICTED BY IDOCK:   -5.33 KCAL/MOL
REMARK 922        TOTAL FREE ENERGY PREDICTED BY IDOCK:   -6.32 KCAL/MOL
REMARK 923 INTER-LIGAND FREE ENERGY PREDICTED BY IDOCK:   -6.05 KCAL/MOL
REMARK 924 INTRA-LIGAND FREE ENERGY PREDICTED BY IDOCK:   -0.27 KCAL/MOL
REMARK 927      BINDING AFFINITY PREDICTED BY RF-SCORE:    0.00 PKD
ROOT
HETATM    1  O   UNL     1      -7.587  12.537  67.804  1.00  0.00    -0.113 OA 
HETATM    2  N   UNL     1      -8.273  11.556  67.488  1.00  0.00    -0.135 N  
HETATM    3  C   UNL     1      -9.621  11.508  68.037  1.00  0.00    -0.180 A  
HETATM    4  O   UNL     1      -7.896  10.566  66.849  1.00  0.00    -0.111 OA 
HETATM    5  C   UNL     1     -10.557  12.511  67.747  1.00  0.00    -0.235 A  
HETATM    6  C   UNL     1     -11.814  12.433  68.360  1.00  0.00    -0.361 A  
HETATM    7  C   UNL     1     -11.408   9.393  70.661  1.00  0.00    -0.292 C  
HETATM    8  C   UNL     1     -12.097  11.416  69.284  1.00  0.00    -0.356 A  
HETATM    9  C   UNL     1      -9.896  10.482  68.955  1.00  0.00    -0.209 A  
HETATM   10  F   UNL     1     -11.349   8.131  70.163  1.00  0.00    -0.260 F  
HETATM   11  C   UNL     1     -11.136  10.446  69.606  1.00  0.00    -0.328 A  
HETATM   12  F   UNL     1     -12.627   9.516  71.250  1.00  0.00    -0.339 F  
HETATM   13  F   UNL     1     -10.496   9.444  71.671  1.00  0.00    -0.385 F  
ENDROOT
BRANCH   5  14
HETATM   14  C   UNL     1     -10.260  13.616  66.793  1.00  0.00    -0.268 C  
HETATM   15  O   UNL     1      -9.990  13.307  65.635  1.00  0.00    -0.280 OA 
BRANCH  14  16
HETATM   16  C   UNL     1     -10.316  15.058  67.258  1.00  0.00    -0.249 C  
HETATM   17  C   UNL     1      -7.650  16.044  68.176  1.00  0.00    -0.139 C  
HETATM   18  C   UNL     1      -8.466  15.096  69.044  1.00  0.00    -0.214 C  
HETATM   19  C   UNL     1      -9.936  15.215  68.712  1.00  0.00    -0.229 C  
HETATM   20  O   UNL     1     -10.789  15.335  69.589  1.00  0.00    -0.255 OA 
HETATM   21  C   UNL     1      -7.938  15.867  66.688  1.00  0.00    -0.270 C  
HETATM   22  C   UNL     1      -9.428  15.964  66.432  1.00  0.00    -0.295 C  
HETATM   23  O   UNL     1      -9.892  16.726  65.585  1.00  0.00    -0.544 OA 
ENDBRANCH  14  16
ENDBRANCH   5  14
TORSDOF 2
ENDMDL
MODEL       86
REMARK 921   NORMALIZED FREE ENERGY PREDICTED BY IDOCK:   -5.32 KCAL/MOL
REMARK 922        TOTAL FREE ENERGY PREDICTED BY IDOCK:   -6.30 KCAL/MOL
REMARK 923 INTER-LIGAND FREE ENERGY PREDICTED BY IDOCK:   -5.79 KCAL/MOL
REMARK 924 INTRA-LIGAND FREE ENERGY PREDICTED BY IDOCK:   -0.51 KCAL/MOL
REMARK 927      BINDING AFFINITY PREDICTED BY RF-SCORE:    0.00 PKD
ROOT
HETATM    1  O   UNL     1     -12.454  10.008  72.310  1.00  0.00    -0.225 OA 
HETATM    2  N   UNL     1     -12.678   9.836  71.105  1.00  0.00    -0.334 N  
HETATM    3  C   UNL     1     -11.656  10.313  70.183  1.00  0.00    -0.299 A  
HETATM    4  O   UNL     1     -13.723   9.403  70.603  1.00  0.00     0.040 OA 
HETATM    5  C   UNL     1     -10.351   9.800  70.221  1.00  0.00    -0.348 A  
HETATM    6  C   UNL     1      -9.405  10.350  69.347  1.00  0.00    -0.186 A  
HETATM    7  C   UNL     1     -11.389  13.171  67.672  1.00  0.00    -0.298 C  
HETATM    8  C   UNL     1      -9.744  11.423  68.510  1.00  0.00    -0.199 A  
HETATM    9  C   UNL     1     -12.008  11.382  69.344  1.00  0.00    -0.407 A  
HETATM   10  F   UNL     1     -12.368  12.908  66.768  1.00  0.00    -0.414 F  
HETATM   11  C   UNL     1     -11.040  11.962  68.516  1.00  0.00    -0.290 A  
HETATM   12  F   UNL     1     -10.337  13.664  66.966  1.00  0.00    -0.251 F  
HETATM   13  F   UNL     1     -11.846  14.203  68.434  1.00  0.00    -0.320 F  
ENDROOT
BRANCH   5  14
HETATM   14  C   UNL     1      -9.968   8.683  71.128  1.00  0.00    -0.225 C  
HETATM   15  O   UNL     1      -9.671   8.968  72.284  1.00  0.00    -0.260 OA 
BRANCH  14  16
HETATM   16  C   UNL     1      -9.974   7.254  70.619  1.00  0.00    -0.187 C  
HETATM   17  C   UNL     1     -11.230   5.373  72.570  1.00  0.00    -0.305 C  
HETATM   18  C   UNL     1      -9.830   5.922  72.814  1.00  0.00    -0.181 C  
HETATM   19  C   UNL     1      -9.186   6.317  71.504  1.00  0.00    -0.145 C  
HETATM   20  O   UNL     1      -8.042   5.973  71.218  1.00  0.00    -0.114 OA 
HETATM   21  C   UNL     1     -12.094   6.322  71.747  1.00  0.00    -0.274 C  
HETATM   22  C   UNL     1     -11.376   6.703  70.469  1.00  0.00    -0.358 C  
HETATM   23  O   UNL     1     -11.910   6.587  69.366  1.00  0.00    -0.209 OA 
ENDBRANCH  14  16
ENDBRANCH   5  14
TORSDOF 2
ENDMDL
MODEL       87
REMARK 921   NORMALIZED FREE ENERGY PREDICTED BY IDOCK:   -5.28 KCAL/MOL
REMARK 922        TOTAL FREE ENERGY PREDICTED BY IDOCK:   -6.26 KCAL/MOL
REMARK 923 INTER-LIGAND FREE ENERGY PREDICTED BY IDOCK:   -5.69 KCAL/MOL
REMARK 924 INTRA-LIGAND FREE ENERGY PREDICTED BY IDOCK:   -0.57 KCAL/MOL
REMARK 927      BINDING AFFINITY PREDICTED BY RF-SCORE:    0.00 PKD
ROOT
HETATM    1  O   UNL     1      -8.496  11.612  68.578  1.00  0.00    -0.154 OA 
HETATM    2  N   UNL     1      -9.690  11.377  68.350  1.00  0.00    -0.198 N  
HETATM    3  C   UNL     1     -10.061  11.220  66.951  1.00  0.00    -0.212 A  
HETATM    4  O   UNL     1     -10.612  11.371  69.176  1.00  0.00    -0.211 OA 
HETATM    5  C   UNL     1      -9.502  10.203  66.163  1.00  0.00    -0.238 A  
HETATM    6  C   UNL     1      -9.859  10.151  64.810  1.00  0.00    -0.382 A  
HETATM    7  C   UNL     1     -12.055  13.270  64.428  1.00  0.00    -0.415 C  
HETATM    8  C   UNL     1     -10.698  11.127  64.254  1.00  0.00    -0.403 A  
HETATM    9  C   UNL     1     -10.909  12.198  66.407  1.00  0.00    -0.306 A  
HETATM   10  F   UNL     1     -13.303  13.327  64.961  1.00  0.00    -0.328 F  
HETATM   11  C   UNL     1     -11.213  12.170  65.040  1.00  0.00    -0.372 A  
HETATM   12  F   UNL     1     -12.219  13.146  63.084  1.00  0.00    -0.610 F  
HETATM   13  F   UNL     1     -11.503  14.498  64.627  1.00  0.00    -0.355 F  
ENDROOT
BRANCH   5  14
HETATM   14  C   UNL     1      -8.583   9.179  66.733  1.00  0.00    -0.127 C  
HETATM   15  O   UNL     1      -7.396   9.251  66.428  1.00  0.00    -0.090 OA 
BRANCH  14  16
HETATM   16  C   UNL     1      -9.119   8.112  67.667  1.00  0.00    -0.142 C  
HETATM   17  C   UNL     1      -8.049   5.402  67.008  1.00  0.00    -0.101 C  
HETATM   18  C   UNL     1      -9.125   6.043  66.140  1.00  0.00    -0.159 C  
HETATM   19  C   UNL     1      -9.915   7.052  66.944  1.00  0.00    -0.217 C  
HETATM   20  O   UNL     1     -11.144   7.067  66.930  1.00  0.00    -0.359 OA 
HETATM   21  C   UNL     1      -7.164   6.435  67.698  1.00  0.00    -0.086 C  
HETATM   22  C   UNL     1      -8.020   7.431  68.454  1.00  0.00    -0.124 C  
HETATM   23  O   UNL     1      -7.822   7.687  69.641  1.00  0.00    -0.104 OA 
ENDBRANCH  14  16
ENDBRANCH   5  14
TORSDOF 2
ENDMDL
MODEL       88
REMARK 921   NORMALIZED FREE ENERGY PREDICTED BY IDOCK:   -5.27 KCAL/MOL
REMARK 922        TOTAL FREE ENERGY PREDICTED BY IDOCK:   -6.25 KCAL/MOL
REMARK 923 INTER-LIGAND FREE ENERGY PREDICTED BY IDOCK:   -5.73 KCAL/MOL
REMARK 924 INTRA-LIGAND FREE ENERGY PREDICTED BY IDOCK:   -0.52 KCAL/MOL
REMARK 927      BINDING AFFINITY PREDICTED BY RF-SCORE:    0.00 PKD
ROOT
HETATM    1  O   UNL     1     -10.354   9.080  71.986  1.00  0.00    -0.339 OA 
HETATM    2  N   UNL     1     -11.324   9.404  71.287  1.00  0.00    -0.335 N  
HETATM    3  C   UNL     1     -11.090   9.475  69.852  1.00  0.00    -0.216 A  
HETATM    4  O   UNL     1     -12.433   9.777  71.691  1.00  0.00    -0.358 OA 
HETATM    5  C   UNL     1     -10.688   8.344  69.126  1.00  0.00    -0.123 A  
HETATM    6  C   UNL     1     -10.421   8.502  67.761  1.00  0.00    -0.287 A  
HETATM    7  C   UNL     1     -10.850  12.282  67.280  1.00  0.00    -0.245 C  
HETATM    8  C   UNL     1     -10.493   9.767  67.159  1.00  0.00    -0.316 A  
HETATM    9  C   UNL     1     -11.173  10.745  69.259  1.00  0.00    -0.333 A  
HETATM   10  F   UNL     1     -12.077  12.864  67.312  1.00  0.00    -0.414 F  
HETATM   11  C   UNL     1     -10.848  10.902  67.905  1.00  0.00    -0.295 A  
HETATM   12  F   UNL     1     -10.458  12.289  65.978  1.00  0.00    -0.254 F  
HETATM   13  F   UNL     1     -10.010  13.132  67.931  1.00  0.00    -0.208 F  
ENDROOT
BRANCH   5  14
HETATM   14  C   UNL     1     -10.575   7.001  69.759  1.00  0.00    -0.233 C  
HETATM   15  O   UNL     1     -11.617   6.396  69.995  1.00  0.00    -0.425 OA 
BRANCH  14  16
HETATM   16  C   UNL     1      -9.209   6.419  70.069  1.00  0.00    -0.159 C  
HETATM   17  C   UNL     1      -9.264   3.436  70.206  1.00  0.00    -0.226 C  
HETATM   18  C   UNL     1      -9.837   4.275  71.342  1.00  0.00    -0.260 C  
HETATM   19  C   UNL     1      -9.188   5.640  71.363  1.00  0.00    -0.146 C  
HETATM   20  O   UNL     1      -8.753   6.132  72.402  1.00  0.00    -0.126 OA 
HETATM   21  C   UNL     1      -9.338   4.148  68.859  1.00  0.00    -0.228 C  
HETATM   22  C   UNL     1      -8.702   5.520  68.962  1.00  0.00    -0.102 C  
HETATM   23  O   UNL     1      -7.831   5.891  68.175  1.00  0.00    -0.102 OA 
ENDBRANCH  14  16
ENDBRANCH   5  14
TORSDOF 2
ENDMDL
MODEL       89
REMARK 921   NORMALIZED FREE ENERGY PREDICTED BY IDOCK:   -5.26 KCAL/MOL
REMARK 922        TOTAL FREE ENERGY PREDICTED BY IDOCK:   -6.24 KCAL/MOL
REMARK 923 INTER-LIGAND FREE ENERGY PREDICTED BY IDOCK:   -5.90 KCAL/MOL
REMARK 924 INTRA-LIGAND FREE ENERGY PREDICTED BY IDOCK:   -0.34 KCAL/MOL
REMARK 927      BINDING AFFINITY PREDICTED BY RF-SCORE:    0.00 PKD
ROOT
HETATM    1  O   UNL     1     -10.823  18.942  67.529  1.00  0.00    -0.450 OA 
HETATM    2  N   UNL     1     -10.356  18.498  68.586  1.00  0.00    -0.312 N  
HETATM    3  C   UNL     1     -10.219  17.051  68.673  1.00  0.00    -0.321 A  
HETATM    4  O   UNL     1     -10.098  19.145  69.609  1.00  0.00    -0.072 OA 
HETATM    5  C   UNL     1      -9.401  16.345  67.779  1.00  0.00    -0.213 A  
HETATM    6  C   UNL     1      -9.367  14.949  67.883  1.00  0.00    -0.191 A  
HETATM    7  C   UNL     1     -11.966  14.274  70.620  1.00  0.00    -0.322 C  
HETATM    8  C   UNL     1     -10.178  14.281  68.812  1.00  0.00    -0.226 A  
HETATM    9  C   UNL     1     -11.029  16.393  69.613  1.00  0.00    -0.329 A  
HETATM   10  F   UNL     1     -11.719  14.578  71.920  1.00  0.00    -0.383 F  
HETATM   11  C   UNL     1     -11.031  14.993  69.670  1.00  0.00    -0.294 A  
HETATM   12  F   UNL     1     -11.902  12.920  70.524  1.00  0.00    -0.381 F  
HETATM   13  F   UNL     1     -13.267  14.606  70.394  1.00  0.00    -0.372 F  
ENDROOT
BRANCH   5  14
HETATM   14  C   UNL     1      -8.560  17.039  66.765  1.00  0.00    -0.237 C  
HETATM   15  O   UNL     1      -8.732  16.741  65.586  1.00  0.00    -0.441 OA 
BRANCH  14  16
HETATM   16  C   UNL     1      -7.550  18.083  67.201  1.00  0.00    -0.226 C  
HETATM   17  C   UNL     1      -5.186  18.188  65.377  1.00  0.00    -0.201 C  
HETATM   18  C   UNL     1      -5.346  17.047  66.374  1.00  0.00    -0.045 C  
HETATM   19  C   UNL     1      -6.204  17.486  67.539  1.00  0.00    -0.150 C  
HETATM   20  O   UNL     1      -5.868  17.278  68.703  1.00  0.00    -0.151 OA 
HETATM   21  C   UNL     1      -6.526  18.773  64.940  1.00  0.00    -0.053 C  
HETATM   22  C   UNL     1      -7.346  19.158  66.154  1.00  0.00    -0.271 C  
HETATM   23  O   UNL     1      -7.836  20.280  66.277  1.00  0.00    -0.262 OA 
ENDBRANCH  14  16
ENDBRANCH   5  14
TORSDOF 2
ENDMDL
MODEL       90
REMARK 921   NORMALIZED FREE ENERGY PREDICTED BY IDOCK:   -5.23 KCAL/MOL
REMARK 922        TOTAL FREE ENERGY PREDICTED BY IDOCK:   -6.21 KCAL/MOL
REMARK 923 INTER-LIGAND FREE ENERGY PREDICTED BY IDOCK:   -5.72 KCAL/MOL
REMARK 924 INTRA-LIGAND FREE ENERGY PREDICTED BY IDOCK:   -0.49 KCAL/MOL
REMARK 927      BINDING AFFINITY PREDICTED BY RF-SCORE:    0.00 PKD
ROOT
HETATM    1  O   UNL     1     -11.646   8.590  72.753  1.00  0.00    -0.312 OA 
HETATM    2  N   UNL     1     -12.587   9.100  72.131  1.00  0.00    -0.381 N  
HETATM    3  C   UNL     1     -12.264  10.253  71.302  1.00  0.00    -0.395 A  
HETATM    4  O   UNL     1     -13.784   8.800  72.226  1.00  0.00    -0.411 OA 
HETATM    5  C   UNL     1     -11.353  10.149  70.240  1.00  0.00    -0.387 A  
HETATM    6  C   UNL     1     -11.043  11.313  69.526  1.00  0.00    -0.299 A  
HETATM    7  C   UNL     1     -12.973  13.997  71.468  1.00  0.00    -0.351 C  
HETATM    8  C   UNL     1     -11.581  12.551  69.908  1.00  0.00    -0.242 A  
HETATM    9  C   UNL     1     -12.814  11.486  71.688  1.00  0.00    -0.475 A  
HETATM   10  F   UNL     1     -14.327  14.079  71.406  1.00  0.00    -0.369 F  
HETATM   11  C   UNL     1     -12.452  12.653  71.003  1.00  0.00    -0.354 A  
HETATM   12  F   UNL     1     -12.493  15.045  70.747  1.00  0.00    -0.307 F  
HETATM   13  F   UNL     1     -12.638  14.247  72.764  1.00  0.00    -0.396 F  
ENDROOT
BRANCH   5  14
HETATM   14  C   UNL     1     -10.749   8.847  69.844  1.00  0.00    -0.227 C  
HETATM   15  O   UNL     1     -11.368   8.156  69.040  1.00  0.00     0.301 OA 
BRANCH  14  16
HETATM   16  C   UNL     1      -9.408   8.427  70.414  1.00  0.00    -0.170 C  
HETATM   17  C   UNL     1      -7.767   6.916  68.427  1.00  0.00    -0.116 C  
HETATM   18  C   UNL     1      -8.953   6.253  69.117  1.00  0.00    -0.127 C  
HETATM   19  C   UNL     1      -9.231   6.927  70.442  1.00  0.00    -0.156 C  
HETATM   20  O   UNL     1      -9.402   6.279  71.473  1.00  0.00    -0.149 OA 
HETATM   21  C   UNL     1      -7.935   8.427  68.300  1.00  0.00    -0.119 C  
HETATM   22  C   UNL     1      -8.246   9.031  69.655  1.00  0.00    -0.116 C  
HETATM   23  O   UNL     1      -7.598   9.974  70.107  1.00  0.00    -0.162 OA 
ENDBRANCH  14  16
ENDBRANCH   5  14
TORSDOF 2
ENDMDL
MODEL       91
REMARK 921   NORMALIZED FREE ENERGY PREDICTED BY IDOCK:   -5.23 KCAL/MOL
REMARK 922        TOTAL FREE ENERGY PREDICTED BY IDOCK:   -6.20 KCAL/MOL
REMARK 923 INTER-LIGAND FREE ENERGY PREDICTED BY IDOCK:   -5.49 KCAL/MOL
REMARK 924 INTRA-LIGAND FREE ENERGY PREDICTED BY IDOCK:   -0.72 KCAL/MOL
REMARK 927      BINDING AFFINITY PREDICTED BY RF-SCORE:    0.00 PKD
ROOT
HETATM    1  O   UNL     1     -10.242   6.415  74.421  1.00  0.00    -0.335 OA 
HETATM    2  N   UNL     1     -10.893   6.366  73.369  1.00  0.00    -0.252 N  
HETATM    3  C   UNL     1     -10.697   7.468  72.437  1.00  0.00    -0.263 A  
HETATM    4  O   UNL     1     -11.769   5.541  73.080  1.00  0.00    -0.242 OA 
HETATM    5  C   UNL     1      -9.436   7.731  71.882  1.00  0.00    -0.197 A  
HETATM    6  C   UNL     1      -9.308   8.845  71.043  1.00  0.00    -0.313 A  
HETATM    7  C   UNL     1     -12.796  10.423  71.250  1.00  0.00    -0.433 C  
HETATM    8  C   UNL     1     -10.396   9.702  70.822  1.00  0.00    -0.356 A  
HETATM    9  C   UNL     1     -11.795   8.315  72.216  1.00  0.00    -0.451 A  
HETATM   10  F   UNL     1     -13.871   9.845  70.653  1.00  0.00    -0.353 F  
HETATM   11  C   UNL     1     -11.641   9.458  71.422  1.00  0.00    -0.451 A  
HETATM   12  F   UNL     1     -12.485  11.516  70.503  1.00  0.00    -0.377 F  
HETATM   13  F   UNL     1     -13.238  10.899  72.446  1.00  0.00    -0.538 F  
ENDROOT
BRANCH   5  14
HETATM   14  C   UNL     1      -8.263   6.848  72.135  1.00  0.00    -0.105 C  
HETATM   15  O   UNL     1      -7.365   7.289  72.846  1.00  0.00    -0.072 OA 
BRANCH  14  16
HETATM   16  C   UNL     1      -8.218   5.455  71.539  1.00  0.00    -0.118 C  
HETATM   17  C   UNL     1      -7.069   5.451  68.782  1.00  0.00    -0.061 C  
HETATM   18  C   UNL     1      -8.484   5.958  69.030  1.00  0.00    -0.105 C  
HETATM   19  C   UNL     1      -9.051   5.331  70.285  1.00  0.00    -0.134 C  
HETATM   20  O   UNL     1     -10.175   4.834  70.306  1.00  0.00    -0.247 OA 
HETATM   21  C   UNL     1      -6.163   5.629  69.996  1.00  0.00    -0.026 C  
HETATM   22  C   UNL     1      -6.807   5.011  71.220  1.00  0.00    -0.040 C  
HETATM   23  O   UNL     1      -6.209   4.202  71.929  1.00  0.00    -0.016 OA 
ENDBRANCH  14  16
ENDBRANCH   5  14
TORSDOF 2
ENDMDL
MODEL       92
REMARK 921   NORMALIZED FREE ENERGY PREDICTED BY IDOCK:   -5.23 KCAL/MOL
REMARK 922        TOTAL FREE ENERGY PREDICTED BY IDOCK:   -6.20 KCAL/MOL
REMARK 923 INTER-LIGAND FREE ENERGY PREDICTED BY IDOCK:   -5.41 KCAL/MOL
REMARK 924 INTRA-LIGAND FREE ENERGY PREDICTED BY IDOCK:   -0.79 KCAL/MOL
REMARK 927      BINDING AFFINITY PREDICTED BY RF-SCORE:    0.00 PKD
ROOT
HETATM    1  O   UNL     1      -7.697   8.184  70.791  1.00  0.00    -0.074 OA 
HETATM    2  N   UNL     1      -8.436   8.349  71.771  1.00  0.00    -0.151 N  
HETATM    3  C   UNL     1      -9.844   8.032  71.578  1.00  0.00    -0.170 A  
HETATM    4  O   UNL     1      -8.121   8.855  72.856  1.00  0.00    -0.380 OA 
HETATM    5  C   UNL     1     -10.255   6.737  71.232  1.00  0.00    -0.221 A  
HETATM    6  C   UNL     1     -11.619   6.521  71.001  1.00  0.00    -0.405 A  
HETATM    7  C   UNL     1     -13.069  10.055  71.332  1.00  0.00    -0.417 C  
HETATM    8  C   UNL     1     -12.530   7.585  71.053  1.00  0.00    -0.243 A  
HETATM    9  C   UNL     1     -10.749   9.104  71.641  1.00  0.00    -0.441 A  
HETATM   10  F   UNL     1     -13.165  10.670  72.539  1.00  0.00    -0.447 F  
HETATM   11  C   UNL     1     -12.102   8.888  71.352  1.00  0.00    -0.381 A  
HETATM   12  F   UNL     1     -14.334   9.706  70.978  1.00  0.00    -0.183 F  
HETATM   13  F   UNL     1     -12.682  11.015  70.447  1.00  0.00    -0.364 F  
ENDROOT
BRANCH   5  14
HETATM   14  C   UNL     1      -9.293   5.603  71.140  1.00  0.00    -0.153 C  
HETATM   15  O   UNL     1      -9.004   5.195  70.019  1.00  0.00    -0.117 OA 
BRANCH  14  16
HETATM   16  C   UNL     1      -8.696   5.010  72.401  1.00  0.00    -0.125 C  
HETATM   17  C   UNL     1     -10.309   2.719  73.437  1.00  0.00    -0.219 C  
HETATM   18  C   UNL     1     -10.795   4.151  73.614  1.00  0.00    -0.346 C  
HETATM   19  C   UNL     1      -9.625   5.109  73.588  1.00  0.00    -0.133 C  
HETATM   20  O   UNL     1      -9.491   5.987  74.438  1.00  0.00    -0.145 OA 
HETATM   21  C   UNL     1      -9.430   2.548  72.202  1.00  0.00    -0.178 C  
HETATM   22  C   UNL     1      -8.302   3.559  72.224  1.00  0.00    -0.083 C  
HETATM   23  O   UNL     1      -7.126   3.221  72.087  1.00  0.00    -0.036 OA 
ENDBRANCH  14  16
ENDBRANCH   5  14
TORSDOF 2
ENDMDL
MODEL       93
REMARK 921   NORMALIZED FREE ENERGY PREDICTED BY IDOCK:   -5.21 KCAL/MOL
REMARK 922        TOTAL FREE ENERGY PREDICTED BY IDOCK:   -6.18 KCAL/MOL
REMARK 923 INTER-LIGAND FREE ENERGY PREDICTED BY IDOCK:   -5.50 KCAL/MOL
REMARK 924 INTRA-LIGAND FREE ENERGY PREDICTED BY IDOCK:   -0.68 KCAL/MOL
REMARK 927      BINDING AFFINITY PREDICTED BY RF-SCORE:    0.00 PKD
ROOT
HETATM    1  O   UNL     1      -7.594   8.832  67.752  1.00  0.00    -0.095 OA 
HETATM    2  N   UNL     1      -7.795   9.675  68.637  1.00  0.00    -0.080 N  
HETATM    3  C   UNL     1      -9.051  10.409  68.556  1.00  0.00    -0.145 A  
HETATM    4  O   UNL     1      -6.996  10.032  69.512  1.00  0.00    -0.059 OA 
HETATM    5  C   UNL     1     -10.284   9.744  68.627  1.00  0.00    -0.210 A  
HETATM    6  C   UNL     1     -11.449  10.507  68.479  1.00  0.00    -0.284 A  
HETATM    7  C   UNL     1     -10.048  13.992  67.711  1.00  0.00    -0.240 C  
HETATM    8  C   UNL     1     -11.375  11.880  68.205  1.00  0.00    -0.350 A  
HETATM    9  C   UNL     1      -8.964  11.785  68.289  1.00  0.00    -0.180 A  
HETATM   10  F   UNL     1      -9.441  14.738  68.671  1.00  0.00    -0.187 F  
HETATM   11  C   UNL     1     -10.135  12.527  68.086  1.00  0.00    -0.225 A  
HETATM   12  F   UNL     1     -11.258  14.569  67.487  1.00  0.00    -0.278 F  
HETATM   13  F   UNL     1      -9.325  14.180  66.573  1.00  0.00    -0.261 F  
ENDROOT
BRANCH   5  14
HETATM   14  C   UNL     1     -10.377   8.281  68.885  1.00  0.00    -0.215 C  
HETATM   15  O   UNL     1     -10.689   7.558  67.943  1.00  0.00    -0.202 OA 
BRANCH  14  16
HETATM   16  C   UNL     1     -10.073   7.731  70.266  1.00  0.00    -0.195 C  
HETATM   17  C   UNL     1     -12.414   7.962  72.106  1.00  0.00    -0.304 C  
HETATM   18  C   UNL     1     -11.587   9.190  71.747  1.00  0.00    -0.457 C  
HETATM   19  C   UNL     1     -10.187   8.779  71.347  1.00  0.00    -0.280 C  
HETATM   20  O   UNL     1      -9.194   9.339  71.807  1.00  0.00    -0.306 OA 
HETATM   21  C   UNL     1     -12.397   6.905  71.007  1.00  0.00    -0.401 C  
HETATM   22  C   UNL     1     -10.969   6.568  70.632  1.00  0.00    -0.287 C  
HETATM   23  O   UNL     1     -10.561   5.407  70.609  1.00  0.00    -0.263 OA 
ENDBRANCH  14  16
ENDBRANCH   5  14
TORSDOF 2
ENDMDL
MODEL       94
REMARK 921   NORMALIZED FREE ENERGY PREDICTED BY IDOCK:   -5.19 KCAL/MOL
REMARK 922        TOTAL FREE ENERGY PREDICTED BY IDOCK:   -6.17 KCAL/MOL
REMARK 923 INTER-LIGAND FREE ENERGY PREDICTED BY IDOCK:   -6.13 KCAL/MOL
REMARK 924 INTRA-LIGAND FREE ENERGY PREDICTED BY IDOCK:   -0.03 KCAL/MOL
REMARK 927      BINDING AFFINITY PREDICTED BY RF-SCORE:    0.00 PKD
ROOT
HETATM    1  O   UNL     1     -12.653  14.360  68.893  1.00  0.00    -0.037 OA 
HETATM    2  N   UNL     1     -12.200  13.913  69.955  1.00  0.00    -0.339 N  
HETATM    3  C   UNL     1     -11.645  12.568  69.905  1.00  0.00    -0.169 A  
HETATM    4  O   UNL     1     -12.271  14.446  71.070  1.00  0.00    -0.313 OA 
HETATM    5  C   UNL     1     -10.554  12.265  69.078  1.00  0.00    -0.104 A  
HETATM    6  C   UNL     1     -10.113  10.937  69.033  1.00  0.00    -0.212 A  
HETATM    7  C   UNL     1     -12.690   9.151  71.240  1.00  0.00    -0.278 C  
HETATM    8  C   UNL     1     -10.788   9.935  69.746  1.00  0.00    -0.300 A  
HETATM    9  C   UNL     1     -12.324  11.574  70.629  1.00  0.00    -0.457 A  
HETATM   10  F   UNL     1     -12.700   9.313  72.588  1.00  0.00    -0.430 F  
HETATM   11  C   UNL     1     -11.910  10.240  70.532  1.00  0.00    -0.419 A  
HETATM   12  F   UNL     1     -12.210   7.900  71.009  1.00  0.00    -0.309 F  
HETATM   13  F   UNL     1     -13.994   9.131  70.851  1.00  0.00    -0.316 F  
ENDROOT
BRANCH   5  14
HETATM   14  C   UNL     1      -9.848  13.313  68.289  1.00  0.00    -0.231 C  
HETATM   15  O   UNL     1      -9.301  14.218  68.911  1.00  0.00    -0.160 OA 
BRANCH  14  16
HETATM   16  C   UNL     1      -9.807  13.226  66.775  1.00  0.00    -0.264 C  
HETATM   17  C   UNL     1     -12.354  14.162  65.528  1.00  0.00    -0.472 C  
HETATM   18  C   UNL     1     -12.281  12.804  66.214  1.00  0.00    -0.289 C  
HETATM   19  C   UNL     1     -10.857  12.295  66.217  1.00  0.00    -0.278 C  
HETATM   20  O   UNL     1     -10.582  11.147  65.874  1.00  0.00    -0.259 OA 
HETATM   21  C   UNL     1     -11.366  15.166  66.113  1.00  0.00    -0.220 C  
HETATM   22  C   UNL     1      -9.969  14.579  66.117  1.00  0.00    -0.311 C  
HETATM   23  O   UNL     1      -9.013  15.178  65.626  1.00  0.00     0.036 OA 
ENDBRANCH  14  16
ENDBRANCH   5  14
TORSDOF 2
ENDMDL
MODEL       95
REMARK 921   NORMALIZED FREE ENERGY PREDICTED BY IDOCK:   -5.19 KCAL/MOL
REMARK 922        TOTAL FREE ENERGY PREDICTED BY IDOCK:   -6.16 KCAL/MOL
REMARK 923 INTER-LIGAND FREE ENERGY PREDICTED BY IDOCK:   -5.62 KCAL/MOL
REMARK 924 INTRA-LIGAND FREE ENERGY PREDICTED BY IDOCK:   -0.54 KCAL/MOL
REMARK 927      BINDING AFFINITY PREDICTED BY RF-SCORE:    0.00 PKD
ROOT
HETATM    1  O   UNL     1     -10.401  11.870  68.885  1.00  0.00    -0.191 OA 
HETATM    2  N   UNL     1     -10.955  11.173  68.024  1.00  0.00    -0.231 N  
HETATM    3  C   UNL     1     -10.145  10.121  67.427  1.00  0.00    -0.205 A  
HETATM    4  O   UNL     1     -12.082  11.349  67.545  1.00  0.00    -0.592 OA 
HETATM    5  C   UNL     1      -9.609   9.087  68.209  1.00  0.00    -0.158 A  
HETATM    6  C   UNL     1      -8.788   8.144  67.577  1.00  0.00    -0.137 A  
HETATM    7  C   UNL     1      -8.557   9.530  64.009  1.00  0.00    -0.207 C  
HETATM    8  C   UNL     1      -8.465   8.274  66.218  1.00  0.00    -0.134 A  
HETATM    9  C   UNL     1      -9.834  10.256  66.064  1.00  0.00    -0.292 A  
HETATM   10  F   UNL     1      -9.616   9.476  63.159  1.00  0.00    -0.205 F  
HETATM   11  C   UNL     1      -8.966   9.340  65.455  1.00  0.00    -0.251 A  
HETATM   12  F   UNL     1      -7.666   8.602  63.570  1.00  0.00    -0.110 F  
HETATM   13  F   UNL     1      -7.970  10.741  63.806  1.00  0.00    -0.108 F  
ENDROOT
BRANCH   5  14
HETATM   14  C   UNL     1      -9.917   8.955  69.660  1.00  0.00    -0.191 C  
HETATM   15  O   UNL     1      -9.090   9.390  70.456  1.00  0.00    -0.236 OA 
BRANCH  14  16
HETATM   16  C   UNL     1     -11.220   8.321  70.106  1.00  0.00    -0.132 C  
HETATM   17  C   UNL     1     -10.879   6.670  72.571  1.00  0.00    -0.270 C  
HETATM   18  C   UNL     1     -10.388   6.159  71.223  1.00  0.00    -0.264 C  
HETATM   19  C   UNL     1     -11.165   6.812  70.101  1.00  0.00    -0.335 C  
HETATM   20  O   UNL     1     -11.644   6.154  69.180  1.00  0.00    -0.287 OA 
HETATM   21  C   UNL     1     -10.876   8.193  72.656  1.00  0.00    -0.429 C  
HETATM   22  C   UNL     1     -11.640   8.780  71.486  1.00  0.00    -0.303 C  
HETATM   23  O   UNL     1     -12.543   9.599  71.648  1.00  0.00    -0.346 OA 
ENDBRANCH  14  16
ENDBRANCH   5  14
TORSDOF 2
ENDMDL
MODEL       96
REMARK 921   NORMALIZED FREE ENERGY PREDICTED BY IDOCK:   -5.18 KCAL/MOL
REMARK 922        TOTAL FREE ENERGY PREDICTED BY IDOCK:   -6.15 KCAL/MOL
REMARK 923 INTER-LIGAND FREE ENERGY PREDICTED BY IDOCK:   -5.67 KCAL/MOL
REMARK 924 INTRA-LIGAND FREE ENERGY PREDICTED BY IDOCK:   -0.47 KCAL/MOL
REMARK 927      BINDING AFFINITY PREDICTED BY RF-SCORE:    0.00 PKD
ROOT
HETATM    1  O   UNL     1      -8.650   8.192  64.963  1.00  0.00    -0.143 OA 
HETATM    2  N   UNL     1      -8.513   9.349  64.545  1.00  0.00    -0.166 N  
HETATM    3  C   UNL     1      -9.363  10.362  65.155  1.00  0.00    -0.222 A  
HETATM    4  O   UNL     1      -7.811   9.711  63.592  1.00  0.00    -0.125 OA 
HETATM    5  C   UNL     1      -9.292  10.635  66.529  1.00  0.00    -0.192 A  
HETATM    6  C   UNL     1     -10.183  11.577  67.058  1.00  0.00    -0.244 A  
HETATM    7  C   UNL     1     -12.349  12.442  64.015  1.00  0.00    -0.488 C  
HETATM    8  C   UNL     1     -11.156  12.176  66.244  1.00  0.00    -0.353 A  
HETATM    9  C   UNL     1     -10.327  10.961  64.330  1.00  0.00    -0.436 A  
HETATM   10  F   UNL     1     -11.861  13.183  62.986  1.00  0.00    -0.562 F  
HETATM   11  C   UNL     1     -11.251  11.859  64.880  1.00  0.00    -0.350 A  
HETATM   12  F   UNL     1     -13.206  13.249  64.695  1.00  0.00    -0.192 F  
HETATM   13  F   UNL     1     -13.116  11.470  63.450  1.00  0.00    -0.559 F  
ENDROOT
BRANCH   5  14
HETATM   14  C   UNL     1      -8.286   9.982  67.412  1.00  0.00    -0.118 C  
HETATM   15  O   UNL     1      -7.223  10.569  67.591  1.00  0.00    -0.084 OA 
BRANCH  14  16
HETATM   16  C   UNL     1      -8.600   8.651  68.068  1.00  0.00    -0.137 C  
HETATM   17  C   UNL     1      -9.788   8.994  70.787  1.00  0.00    -0.304 C  
HETATM   18  C   UNL     1      -8.299   9.218  70.558  1.00  0.00    -0.237 C  
HETATM   19  C   UNL     1      -7.831   8.438  69.350  1.00  0.00    -0.103 C  
HETATM   20  O   UNL     1      -6.818   7.742  69.384  1.00  0.00    -0.042 OA 
HETATM   21  C   UNL     1     -10.620   9.276  69.541  1.00  0.00    -0.236 C  
HETATM   22  C   UNL     1     -10.076   8.490  68.364  1.00  0.00    -0.194 C  
HETATM   23  O   UNL     1     -10.799   7.773  67.675  1.00  0.00    -0.187 OA 
ENDBRANCH  14  16
ENDBRANCH   5  14
TORSDOF 2
ENDMDL
MODEL       97
REMARK 921   NORMALIZED FREE ENERGY PREDICTED BY IDOCK:   -5.17 KCAL/MOL
REMARK 922        TOTAL FREE ENERGY PREDICTED BY IDOCK:   -6.13 KCAL/MOL
REMARK 923 INTER-LIGAND FREE ENERGY PREDICTED BY IDOCK:   -6.12 KCAL/MOL
REMARK 924 INTRA-LIGAND FREE ENERGY PREDICTED BY IDOCK:   -0.01 KCAL/MOL
REMARK 927      BINDING AFFINITY PREDICTED BY RF-SCORE:    0.00 PKD
ROOT
HETATM    1  O   UNL     1     -11.165  13.785  70.543  1.00  0.00     0.127 OA 
HETATM    2  N   UNL     1     -12.103  13.888  69.742  1.00  0.00    -0.332 N  
HETATM    3  C   UNL     1     -11.944  13.198  68.470  1.00  0.00    -0.289 A  
HETATM    4  O   UNL     1     -13.106  14.602  69.868  1.00  0.00     0.015 OA 
HETATM    5  C   UNL     1     -11.785  11.806  68.416  1.00  0.00    -0.389 A  
HETATM    6  C   UNL     1     -11.575  11.217  67.162  1.00  0.00    -0.113 A  
HETATM    7  C   UNL     1     -11.376  14.273  64.854  1.00  0.00    -0.372 C  
HETATM    8  C   UNL     1     -11.463  12.010  66.010  1.00  0.00    -0.399 A  
HETATM    9  C   UNL     1     -11.842  14.000  67.322  1.00  0.00    -0.445 A  
HETATM   10  F   UNL     1     -12.480  15.003  64.550  1.00  0.00    -0.436 F  
HETATM   11  C   UNL     1     -11.574  13.407  66.082  1.00  0.00    -0.378 A  
HETATM   12  F   UNL     1     -11.064  13.566  63.735  1.00  0.00    -0.345 F  
HETATM   13  F   UNL     1     -10.366  15.169  65.027  1.00  0.00    -0.365 F  
ENDROOT
BRANCH   5  14
HETATM   14  C   UNL     1     -11.867  10.954  69.635  1.00  0.00    -0.344 C  
HETATM   15  O   UNL     1     -12.976  10.790  70.137  1.00  0.00    -0.215 OA 
BRANCH  14  16
HETATM   16  C   UNL     1     -10.615  10.312  70.200  1.00  0.00    -0.303 C  
HETATM   17  C   UNL     1     -10.166   7.572  69.099  1.00  0.00    -0.202 C  
HETATM   18  C   UNL     1     -11.244   7.819  70.146  1.00  0.00    -0.168 C  
HETATM   19  C   UNL     1     -10.907   9.044  70.967  1.00  0.00    -0.276 C  
HETATM   20  O   UNL     1     -10.962   9.034  72.195  1.00  0.00    -0.348 OA 
HETATM   21  C   UNL     1      -9.892   8.803  68.241  1.00  0.00    -0.185 C  
HETATM   22  C   UNL     1      -9.596   9.997  69.125  1.00  0.00    -0.210 C  
HETATM   23  O   UNL     1      -8.589  10.686  68.969  1.00  0.00    -0.148 OA 
ENDBRANCH  14  16
ENDBRANCH   5  14
TORSDOF 2
ENDMDL
MODEL       98
REMARK 921   NORMALIZED FREE ENERGY PREDICTED BY IDOCK:   -5.15 KCAL/MOL
REMARK 922        TOTAL FREE ENERGY PREDICTED BY IDOCK:   -6.12 KCAL/MOL
REMARK 923 INTER-LIGAND FREE ENERGY PREDICTED BY IDOCK:   -6.05 KCAL/MOL
REMARK 924 INTRA-LIGAND FREE ENERGY PREDICTED BY IDOCK:   -0.07 KCAL/MOL
REMARK 927      BINDING AFFINITY PREDICTED BY RF-SCORE:    0.00 PKD
ROOT
HETATM    1  O   UNL     1     -11.218  18.195  68.260  1.00  0.00     0.167 OA 
HETATM    2  N   UNL     1     -10.873  17.051  68.583  1.00  0.00    -0.321 N  
HETATM    3  C   UNL     1     -10.484  16.163  67.496  1.00  0.00    -0.302 A  
HETATM    4  O   UNL     1     -10.930  16.554  69.715  1.00  0.00    -0.344 OA 
HETATM    5  C   UNL     1      -9.401  16.472  66.661  1.00  0.00    -0.279 A  
HETATM    6  C   UNL     1      -9.123  15.603  65.598  1.00  0.00     0.023 A  
HETATM    7  C   UNL     1     -11.999  13.079  65.840  1.00  0.00    -0.435 C  
HETATM    8  C   UNL     1      -9.948  14.498  65.344  1.00  0.00    -0.352 A  
HETATM    9  C   UNL     1     -11.312  15.055  67.256  1.00  0.00    -0.337 A  
HETATM   10  F   UNL     1     -12.052  12.161  66.839  1.00  0.00    -0.390 F  
HETATM   11  C   UNL     1     -11.060  14.225  66.156  1.00  0.00    -0.324 A  
HETATM   12  F   UNL     1     -11.665  12.398  64.712  1.00  0.00    -0.356 F  
HETATM   13  F   UNL     1     -13.277  13.510  65.654  1.00  0.00    -0.449 F  
ENDROOT
BRANCH   5  14
HETATM   14  C   UNL     1      -8.536  17.661  66.898  1.00  0.00    -0.241 C  
HETATM   15  O   UNL     1      -8.355  18.427  65.956  1.00  0.00    -0.480 OA 
BRANCH  14  16
HETATM   16  C   UNL     1      -7.933  17.901  68.269  1.00  0.00    -0.292 C  
HETATM   17  C   UNL     1      -5.612  19.778  68.160  1.00  0.00    -0.226 C  
HETATM   18  C   UNL     1      -5.468  18.340  67.679  1.00  0.00    -0.150 C  
HETATM   19  C   UNL     1      -6.492  17.456  68.357  1.00  0.00    -0.177 C  
HETATM   20  O   UNL     1      -6.180  16.382  68.867  1.00  0.00    -0.134 OA 
HETATM   21  C   UNL     1      -7.036  20.303  68.016  1.00  0.00    -0.316 C  
HETATM   22  C   UNL     1      -8.010  19.354  68.685  1.00  0.00    -0.368 C  
HETATM   23  O   UNL     1      -8.833  19.746  69.512  1.00  0.00     0.031 OA 
ENDBRANCH  14  16
ENDBRANCH   5  14
TORSDOF 2
ENDMDL
MODEL       99
REMARK 921   NORMALIZED FREE ENERGY PREDICTED BY IDOCK:   -5.15 KCAL/MOL
REMARK 922        TOTAL FREE ENERGY PREDICTED BY IDOCK:   -6.11 KCAL/MOL
REMARK 923 INTER-LIGAND FREE ENERGY PREDICTED BY IDOCK:   -5.76 KCAL/MOL
REMARK 924 INTRA-LIGAND FREE ENERGY PREDICTED BY IDOCK:   -0.35 KCAL/MOL
REMARK 927      BINDING AFFINITY PREDICTED BY RF-SCORE:    0.00 PKD
ROOT
HETATM    1  O   UNL     1      -9.497  15.832  68.561  1.00  0.00    -0.192 OA 
HETATM    2  N   UNL     1     -10.097  15.595  67.504  1.00  0.00    -0.249 N  
HETATM    3  C   UNL     1     -10.575  14.231  67.325  1.00  0.00    -0.278 A  
HETATM    4  O   UNL     1     -10.234  16.365  66.545  1.00  0.00    -0.283 OA 
HETATM    5  C   UNL     1     -11.501  13.666  68.213  1.00  0.00    -0.348 A  
HETATM    6  C   UNL     1     -11.869  12.329  68.015  1.00  0.00    -0.368 A  
HETATM    7  C   UNL     1      -9.611  11.291  65.094  1.00  0.00    -0.235 C  
HETATM    8  C   UNL     1     -11.275  11.568  66.997  1.00  0.00    -0.365 A  
HETATM    9  C   UNL     1      -9.981  13.482  66.297  1.00  0.00    -0.302 A  
HETATM   10  F   UNL     1      -9.830  11.748  63.834  1.00  0.00    -0.268 F  
HETATM   11  C   UNL     1     -10.312  12.129  66.144  1.00  0.00    -0.264 A  
HETATM   12  F   UNL     1      -9.990   9.986  65.099  1.00  0.00    -0.343 F  
HETATM   13  F   UNL     1      -8.261  11.292  65.268  1.00  0.00    -0.049 F  
ENDROOT
BRANCH   5  14
HETATM   14  C   UNL     1     -12.115  14.452  69.319  1.00  0.00    -0.299 C  
HETATM   15  O   UNL     1     -12.764  15.448  69.014  1.00  0.00     0.181 OA 
BRANCH  14  16
HETATM   16  C   UNL     1     -11.944  14.002  70.757  1.00  0.00    -0.364 C  
HETATM   17  C   UNL     1     -13.977  15.230  72.567  1.00  0.00    -0.609 C  
HETATM   18  C   UNL     1     -12.806  16.053  72.047  1.00  0.00    -0.375 C  
HETATM   19  C   UNL     1     -11.646  15.148  71.695  1.00  0.00    -0.400 C  
HETATM   20  O   UNL     1     -10.501  15.390  72.072  1.00  0.00     0.520 OA 
HETATM   21  C   UNL     1     -14.371  14.106  71.614  1.00  0.00    -0.375 C  
HETATM   22  C   UNL     1     -13.158  13.263  71.277  1.00  0.00    -0.218 C  
HETATM   23  O   UNL     1     -13.164  12.039  71.403  1.00  0.00    -0.280 OA 
ENDBRANCH  14  16
ENDBRANCH   5  14
TORSDOF 2
ENDMDL
MODEL      100
REMARK 921   NORMALIZED FREE ENERGY PREDICTED BY IDOCK:   -5.15 KCAL/MOL
REMARK 922        TOTAL FREE ENERGY PREDICTED BY IDOCK:   -6.11 KCAL/MOL
REMARK 923 INTER-LIGAND FREE ENERGY PREDICTED BY IDOCK:   -6.36 KCAL/MOL
REMARK 924 INTRA-LIGAND FREE ENERGY PREDICTED BY IDOCK:    0.25 KCAL/MOL
REMARK 927      BINDING AFFINITY PREDICTED BY RF-SCORE:    0.00 PKD
ROOT
HETATM    1  O   UNL     1      -8.666  15.873  66.884  1.00  0.00    -0.202 OA 
HETATM    2  N   UNL     1      -9.602  16.193  66.139  1.00  0.00    -0.304 N  
HETATM    3  C   UNL     1     -10.704  15.246  66.045  1.00  0.00    -0.320 A  
HETATM    4  O   UNL     1      -9.644  17.175  65.387  1.00  0.00    -0.352 OA 
HETATM    5  C   UNL     1     -11.458  14.897  67.175  1.00  0.00    -0.344 A  
HETATM    6  C   UNL     1     -12.462  13.934  67.022  1.00  0.00    -0.142 A  
HETATM    7  C   UNL     1     -12.022  12.875  63.363  1.00  0.00    -0.537 C  
HETATM    8  C   UNL     1     -12.659  13.296  65.789  1.00  0.00    -0.413 A  
HETATM    9  C   UNL     1     -10.898  14.620  64.803  1.00  0.00    -0.402 A  
HETATM   10  F   UNL     1     -12.376  13.697  62.341  1.00  0.00     0.170 F  
HETATM   11  C   UNL     1     -11.867  13.617  64.675  1.00  0.00    -0.427 A  
HETATM   12  F   UNL     1     -12.958  11.890  63.403  1.00  0.00    -0.668 F  
HETATM   13  F   UNL     1     -10.861  12.276  62.982  1.00  0.00    -0.436 F  
ENDROOT
BRANCH   5  14
HETATM   14  C   UNL     1     -11.238  15.542  68.500  1.00  0.00    -0.333 C  
HETATM   15  O   UNL     1     -11.602  16.707  68.630  1.00  0.00    -0.190 OA 
BRANCH  14  16
HETATM   16  C   UNL     1     -10.603  14.757  69.631  1.00  0.00    -0.167 C  
HETATM   17  C   UNL     1     -12.402  12.598  70.644  1.00  0.00    -0.375 C  
HETATM   18  C   UNL     1     -12.668  14.056  70.995  1.00  0.00    -0.431 C  
HETATM   19  C   UNL     1     -11.386  14.856  70.919  1.00  0.00    -0.216 C  
HETATM   20  O   UNL     1     -11.050  15.622  71.819  1.00  0.00    -0.302 OA 
HETATM   21  C   UNL     1     -11.683  12.440  69.308  1.00  0.00    -0.386 C  
HETATM   22  C   UNL     1     -10.430  13.293  69.289  1.00  0.00     0.200 C  
HETATM   23  O   UNL     1      -9.332  12.824  68.993  1.00  0.00     0.218 OA 
ENDBRANCH  14  16
ENDBRANCH   5  14
TORSDOF 2
ENDMDL
MODEL      101
REMARK 921   NORMALIZED FREE ENERGY PREDICTED BY IDOCK:   -5.14 KCAL/MOL
REMARK 922        TOTAL FREE ENERGY PREDICTED BY IDOCK:   -6.11 KCAL/MOL
REMARK 923 INTER-LIGAND FREE ENERGY PREDICTED BY IDOCK:   -5.76 KCAL/MOL
REMARK 924 INTRA-LIGAND FREE ENERGY PREDICTED BY IDOCK:   -0.34 KCAL/MOL
REMARK 927      BINDING AFFINITY PREDICTED BY RF-SCORE:    0.00 PKD
ROOT
HETATM    1  O   UNL     1      -7.820  16.279  69.284  1.00  0.00    -0.238 OA 
HETATM    2  N   UNL     1      -7.031  15.567  68.649  1.00  0.00    -0.112 N  
HETATM    3  C   UNL     1      -7.608  14.426  67.952  1.00  0.00    -0.151 A  
HETATM    4  O   UNL     1      -5.797  15.661  68.637  1.00  0.00    -0.097 OA 
HETATM    5  C   UNL     1      -8.572  14.603  66.948  1.00  0.00    -0.233 A  
HETATM    6  C   UNL     1      -9.129  13.459  66.365  1.00  0.00    -0.063 A  
HETATM    7  C   UNL     1      -7.522  10.640  68.409  1.00  0.00    -0.093 C  
HETATM    8  C   UNL     1      -8.776  12.180  66.820  1.00  0.00    -0.183 A  
HETATM    9  C   UNL     1      -7.242  13.151  68.410  1.00  0.00    -0.107 A  
HETATM   10  F   UNL     1      -6.210  10.321  68.264  1.00  0.00    -0.048 F  
HETATM   11  C   UNL     1      -7.847  12.014  67.859  1.00  0.00    -0.144 A  
HETATM   12  F   UNL     1      -8.228   9.639  67.819  1.00  0.00    -0.110 F  
HETATM   13  F   UNL     1      -7.788  10.554  69.741  1.00  0.00    -0.150 F  
ENDROOT
BRANCH   5  14
HETATM   14  C   UNL     1      -8.981  15.956  66.477  1.00  0.00    -0.296 C  
HETATM   15  O   UNL     1      -8.102  16.695  66.045  1.00  0.00    -0.356 OA 
BRANCH  14  16
HETATM   16  C   UNL     1     -10.440  16.367  66.524  1.00  0.00    -0.282 C  
HETATM   17  C   UNL     1     -10.779  19.194  67.427  1.00  0.00    -0.578 C  
HETATM   18  C   UNL     1     -10.428  18.099  68.426  1.00  0.00    -0.308 C  
HETATM   19  C   UNL     1     -10.892  16.754  67.912  1.00  0.00    -0.311 C  
HETATM   20  O   UNL     1     -11.521  15.974  68.624  1.00  0.00    -0.370 OA 
HETATM   21  C   UNL     1     -10.272  18.889  66.022  1.00  0.00    -0.437 C  
HETATM   22  C   UNL     1     -10.743  17.516  65.586  1.00  0.00    -0.089 C  
HETATM   23  O   UNL     1     -11.328  17.341  64.518  1.00  0.00    -1.007 OA 
ENDBRANCH  14  16
ENDBRANCH   5  14
TORSDOF 2
ENDMDL
MODEL      102
REMARK 921   NORMALIZED FREE ENERGY PREDICTED BY IDOCK:   -5.13 KCAL/MOL
REMARK 922        TOTAL FREE ENERGY PREDICTED BY IDOCK:   -6.10 KCAL/MOL
REMARK 923 INTER-LIGAND FREE ENERGY PREDICTED BY IDOCK:   -5.75 KCAL/MOL
REMARK 924 INTRA-LIGAND FREE ENERGY PREDICTED BY IDOCK:   -0.35 KCAL/MOL
REMARK 927      BINDING AFFINITY PREDICTED BY RF-SCORE:    0.00 PKD
ROOT
HETATM    1  O   UNL     1     -10.204  10.618  69.302  1.00  0.00    -0.212 OA 
HETATM    2  N   UNL     1     -11.292  10.710  68.718  1.00  0.00    -0.271 N  
HETATM    3  C   UNL     1     -11.240  11.077  67.310  1.00  0.00    -0.258 A  
HETATM    4  O   UNL     1     -12.415  10.629  69.232  1.00  0.00    -0.304 OA 
HETATM    5  C   UNL     1     -10.577  10.269  66.375  1.00  0.00    -0.177 A  
HETATM    6  C   UNL     1     -10.514  10.716  65.049  1.00  0.00    -0.278 A  
HETATM    7  C   UNL     1     -12.164  14.170  65.278  1.00  0.00    -0.434 C  
HETATM    8  C   UNL     1     -11.044  11.964  64.690  1.00  0.00    -0.373 A  
HETATM    9  C   UNL     1     -11.781  12.325  66.960  1.00  0.00    -0.399 A  
HETATM   10  F   UNL     1     -13.501  14.304  65.471  1.00  0.00    -0.467 F  
HETATM   11  C   UNL     1     -11.661  12.788  65.644  1.00  0.00    -0.443 A  
HETATM   12  F   UNL     1     -11.928  14.509  63.983  1.00  0.00    -0.427 F  
HETATM   13  F   UNL     1     -11.574  15.137  66.033  1.00  0.00    -0.326 F  
ENDROOT
BRANCH   5  14
HETATM   14  C   UNL     1      -9.981   8.956  66.748  1.00  0.00    -0.267 C  
HETATM   15  O   UNL     1     -10.692   8.165  67.362  1.00  0.00    -0.269 OA 
BRANCH  14  16
HETATM   16  C   UNL     1      -8.554   8.630  66.354  1.00  0.00    -0.130 C  
HETATM   17  C   UNL     1      -6.783   8.289  68.736  1.00  0.00    -0.058 C  
HETATM   18  C   UNL     1      -7.230   9.677  68.295  1.00  0.00    -0.079 C  
HETATM   19  C   UNL     1      -7.568   9.675  66.821  1.00  0.00    -0.098 C  
HETATM   20  O   UNL     1      -7.139  10.540  66.059  1.00  0.00    -0.126 OA 
HETATM   21  C   UNL     1      -7.787   7.205  68.359  1.00  0.00    -0.122 C  
HETATM   22  C   UNL     1      -8.106   7.283  66.880  1.00  0.00    -0.120 C  
HETATM   23  O   UNL     1      -8.021   6.299  66.146  1.00  0.00    -0.105 OA 
ENDBRANCH  14  16
ENDBRANCH   5  14
TORSDOF 2
ENDMDL
MODEL      103
REMARK 921   NORMALIZED FREE ENERGY PREDICTED BY IDOCK:   -5.12 KCAL/MOL
REMARK 922        TOTAL FREE ENERGY PREDICTED BY IDOCK:   -6.08 KCAL/MOL
REMARK 923 INTER-LIGAND FREE ENERGY PREDICTED BY IDOCK:   -5.72 KCAL/MOL
REMARK 924 INTRA-LIGAND FREE ENERGY PREDICTED BY IDOCK:   -0.36 KCAL/MOL
REMARK 927      BINDING AFFINITY PREDICTED BY RF-SCORE:    0.00 PKD
ROOT
HETATM    1  O   UNL     1     -11.449  11.364  66.960  1.00  0.00    -0.452 OA 
HETATM    2  N   UNL     1     -11.517  11.898  68.075  1.00  0.00    -0.299 N  
HETATM    3  C   UNL     1     -11.249  11.038  69.219  1.00  0.00    -0.257 A  
HETATM    4  O   UNL     1     -11.894  13.051  68.320  1.00  0.00    -0.334 OA 
HETATM    5  C   UNL     1     -10.007  10.404  69.375  1.00  0.00    -0.240 A  
HETATM    6  C   UNL     1      -9.843   9.542  70.466  1.00  0.00    -0.331 A  
HETATM    7  C   UNL     1     -13.344   9.532  72.029  1.00  0.00    -0.452 C  
HETATM    8  C   UNL     1     -10.911   9.276  71.334  1.00  0.00    -0.429 A  
HETATM    9  C   UNL     1     -12.323  10.785  70.087  1.00  0.00    -0.401 A  
HETATM   10  F   UNL     1     -13.823  10.613  72.698  1.00  0.00    -0.192 F  
HETATM   11  C   UNL     1     -12.165   9.877  71.142  1.00  0.00    -0.468 A  
HETATM   12  F   UNL     1     -13.059   8.594  72.971  1.00  0.00    -0.364 F  
HETATM   13  F   UNL     1     -14.389   9.038  71.310  1.00  0.00    -0.412 F  
ENDROOT
BRANCH   5  14
HETATM   14  C   UNL     1      -8.874  10.651  68.441  1.00  0.00    -0.145 C  
HETATM   15  O   UNL     1      -8.819   9.968  67.423  1.00  0.00    -0.128 OA 
BRANCH  14  16
HETATM   16  C   UNL     1      -7.852  11.728  68.754  1.00  0.00    -0.076 C  
HETATM   17  C   UNL     1      -5.297  11.317  67.263  1.00  0.00    -0.055 C  
HETATM   18  C   UNL     1      -5.643  10.444  68.462  1.00  0.00    -0.037 C  
HETATM   19  C   UNL     1      -6.596  11.173  69.383  1.00  0.00    -0.109 C  
HETATM   20  O   UNL     1      -6.407  11.225  70.596  1.00  0.00    -0.329 OA 
HETATM   21  C   UNL     1      -6.536  11.838  66.542  1.00  0.00     0.105 C  
HETATM   22  C   UNL     1      -7.461  12.524  67.528  1.00  0.00    -0.151 C  
HETATM   23  O   UNL     1      -7.886  13.662  67.334  1.00  0.00    -0.166 OA 
ENDBRANCH  14  16
ENDBRANCH   5  14
TORSDOF 2
ENDMDL
MODEL      104
REMARK 921   NORMALIZED FREE ENERGY PREDICTED BY IDOCK:   -5.09 KCAL/MOL
REMARK 922        TOTAL FREE ENERGY PREDICTED BY IDOCK:   -6.05 KCAL/MOL
REMARK 923 INTER-LIGAND FREE ENERGY PREDICTED BY IDOCK:   -5.56 KCAL/MOL
REMARK 924 INTRA-LIGAND FREE ENERGY PREDICTED BY IDOCK:   -0.49 KCAL/MOL
REMARK 927      BINDING AFFINITY PREDICTED BY RF-SCORE:    0.00 PKD
ROOT
HETATM    1  O   UNL     1     -11.107   6.171  67.567  1.00  0.00    -0.330 OA 
HETATM    2  N   UNL     1     -10.227   6.933  67.144  1.00  0.00    -0.213 N  
HETATM    3  C   UNL     1     -10.093   8.209  67.832  1.00  0.00    -0.196 A  
HETATM    4  O   UNL     1      -9.530   6.767  66.135  1.00  0.00    -0.121 OA 
HETATM    5  C   UNL     1      -9.770   8.266  69.195  1.00  0.00    -0.171 A  
HETATM    6  C   UNL     1      -9.719   9.526  69.805  1.00  0.00    -0.234 A  
HETATM    7  C   UNL     1     -10.847  11.847  66.970  1.00  0.00    -0.259 C  
HETATM    8  C   UNL     1     -10.046  10.683  69.084  1.00  0.00    -0.234 A  
HETATM    9  C   UNL     1     -10.415   9.362  67.098  1.00  0.00    -0.315 A  
HETATM   10  F   UNL     1     -10.044  12.107  65.906  1.00  0.00    -0.234 F  
HETATM   11  C   UNL     1     -10.417  10.611  67.732  1.00  0.00    -0.258 A  
HETATM   12  F   UNL     1     -10.857  12.976  67.727  1.00  0.00    -0.229 F  
HETATM   13  F   UNL     1     -12.107  11.718  66.470  1.00  0.00    -0.284 F  
ENDROOT
BRANCH   5  14
HETATM   14  C   UNL     1      -9.453   7.042  69.983  1.00  0.00    -0.161 C  
HETATM   15  O   UNL     1      -8.282   6.677  70.014  1.00  0.00    -0.125 OA 
BRANCH  14  16
HETATM   16  C   UNL     1     -10.554   6.309  70.724  1.00  0.00    -0.297 C  
HETATM   17  C   UNL     1     -10.466   6.829  73.664  1.00  0.00    -0.374 C  
HETATM   18  C   UNL     1      -9.452   5.898  73.011  1.00  0.00    -0.151 C  
HETATM   19  C   UNL     1     -10.019   5.321  71.733  1.00  0.00    -0.190 C  
HETATM   20  O   UNL     1      -9.957   4.119  71.485  1.00  0.00    -0.182 OA 
HETATM   21  C   UNL     1     -10.978   7.900  72.706  1.00  0.00    -0.456 C  
HETATM   22  C   UNL     1     -11.497   7.256  71.437  1.00  0.00    -0.266 C  
HETATM   23  O   UNL     1     -12.619   7.502  70.997  1.00  0.00    -0.281 OA 
ENDBRANCH  14  16
ENDBRANCH   5  14
TORSDOF 2
ENDMDL
MODEL      105
REMARK 921   NORMALIZED FREE ENERGY PREDICTED BY IDOCK:   -5.09 KCAL/MOL
REMARK 922        TOTAL FREE ENERGY PREDICTED BY IDOCK:   -6.05 KCAL/MOL
REMARK 923 INTER-LIGAND FREE ENERGY PREDICTED BY IDOCK:   -5.56 KCAL/MOL
REMARK 924 INTRA-LIGAND FREE ENERGY PREDICTED BY IDOCK:   -0.49 KCAL/MOL
REMARK 927      BINDING AFFINITY PREDICTED BY RF-SCORE:    0.00 PKD
ROOT
HETATM    1  O   UNL     1      -7.817   8.155  68.472  1.00  0.00    -0.113 OA 
HETATM    2  N   UNL     1      -7.775   9.384  68.619  1.00  0.00    -0.083 N  
HETATM    3  C   UNL     1      -9.058  10.063  68.740  1.00  0.00    -0.148 A  
HETATM    4  O   UNL     1      -6.767  10.100  68.565  1.00  0.00    -0.057 OA 
HETATM    5  C   UNL     1      -9.940   9.765  69.788  1.00  0.00    -0.265 A  
HETATM    6  C   UNL     1     -11.182  10.412  69.804  1.00  0.00    -0.353 A  
HETATM    7  C   UNL     1     -11.099  12.412  66.534  1.00  0.00    -0.301 C  
HETATM    8  C   UNL     1     -11.549  11.282  68.767  1.00  0.00    -0.383 A  
HETATM    9  C   UNL     1      -9.411  10.938  67.700  1.00  0.00    -0.170 A  
HETATM   10  F   UNL     1     -10.305  13.505  66.393  1.00  0.00    -0.269 F  
HETATM   11  C   UNL     1     -10.678  11.536  67.696  1.00  0.00    -0.255 A  
HETATM   12  F   UNL     1     -12.373  12.875  66.637  1.00  0.00    -0.423 F  
HETATM   13  F   UNL     1     -11.037  11.743  65.350  1.00  0.00    -0.334 F  
ENDROOT
BRANCH   5  14
HETATM   14  C   UNL     1      -9.578   8.818  70.879  1.00  0.00    -0.221 C  
HETATM   15  O   UNL     1      -9.113   9.294  71.910  1.00  0.00    -0.290 OA 
BRANCH  14  16
HETATM   16  C   UNL     1      -9.805   7.329  70.700  1.00  0.00    -0.179 C  
HETATM   17  C   UNL     1     -12.121   6.347  72.310  1.00  0.00    -0.252 C  
HETATM   18  C   UNL     1     -10.796   6.680  72.983  1.00  0.00    -0.297 C  
HETATM   19  C   UNL     1      -9.660   6.559  71.991  1.00  0.00    -0.149 C  
HETATM   20  O   UNL     1      -8.630   5.946  72.261  1.00  0.00    -0.124 OA 
HETATM   21  C   UNL     1     -12.353   7.161  71.041  1.00  0.00    -0.376 C  
HETATM   22  C   UNL     1     -11.165   7.022  70.111  1.00  0.00    -0.284 C  
HETATM   23  O   UNL     1     -11.300   6.693  68.933  1.00  0.00    -0.231 OA 
ENDBRANCH  14  16
ENDBRANCH   5  14
TORSDOF 2
ENDMDL
MODEL      106
REMARK 921   NORMALIZED FREE ENERGY PREDICTED BY IDOCK:   -5.06 KCAL/MOL
REMARK 922        TOTAL FREE ENERGY PREDICTED BY IDOCK:   -6.01 KCAL/MOL
REMARK 923 INTER-LIGAND FREE ENERGY PREDICTED BY IDOCK:   -5.56 KCAL/MOL
REMARK 924 INTRA-LIGAND FREE ENERGY PREDICTED BY IDOCK:   -0.45 KCAL/MOL
REMARK 927      BINDING AFFINITY PREDICTED BY RF-SCORE:    0.00 PKD
ROOT
HETATM    1  O   UNL     1     -12.127  11.390  67.768  1.00  0.00    -0.637 OA 
HETATM    2  N   UNL     1     -11.686  11.591  68.907  1.00  0.00    -0.312 N  
HETATM    3  C   UNL     1     -10.313  11.172  69.151  1.00  0.00    -0.161 A  
HETATM    4  O   UNL     1     -12.324  12.007  69.883  1.00  0.00    -0.186 OA 
HETATM    5  C   UNL     1      -9.248  11.723  68.423  1.00  0.00    -0.175 A  
HETATM    6  C   UNL     1      -7.961  11.227  68.667  1.00  0.00    -0.145 A  
HETATM    7  C   UNL     1      -8.640   8.397  71.163  1.00  0.00    -0.154 C  
HETATM    8  C   UNL     1      -7.761  10.169  69.565  1.00  0.00    -0.155 A  
HETATM    9  C   UNL     1     -10.123  10.118  70.059  1.00  0.00    -0.241 A  
HETATM   10  F   UNL     1      -9.001   8.658  72.447  1.00  0.00    -0.268 F  
HETATM   11  C   UNL     1      -8.840   9.591  70.252  1.00  0.00    -0.281 A  
HETATM   12  F   UNL     1      -7.354   7.958  71.209  1.00  0.00    -0.060 F  
HETATM   13  F   UNL     1      -9.388   7.331  70.768  1.00  0.00    -0.157 F  
ENDROOT
BRANCH   5  14
HETATM   14  C   UNL     1      -9.450  12.824  67.441  1.00  0.00    -0.190 C  
HETATM   15  O   UNL     1      -9.212  12.582  66.261  1.00  0.00    -0.215 OA 
BRANCH  14  16
HETATM   16  C   UNL     1      -9.951  14.177  67.909  1.00  0.00    -0.231 C  
HETATM   17  C   UNL     1      -9.519  16.304  65.857  1.00  0.00    -0.318 C  
HETATM   18  C   UNL     1      -8.352  15.773  66.680  1.00  0.00    -0.319 C  
HETATM   19  C   UNL     1      -8.850  15.208  67.991  1.00  0.00    -0.170 C  
HETATM   20  O   UNL     1      -8.321  15.500  69.062  1.00  0.00    -0.188 OA 
HETATM   21  C   UNL     1     -10.624  15.269  65.675  1.00  0.00    -0.377 C  
HETATM   22  C   UNL     1     -11.050  14.722  67.022  1.00  0.00    -0.333 C  
HETATM   23  O   UNL     1     -12.230  14.704  67.371  1.00  0.00    -0.289 OA 
ENDBRANCH  14  16
ENDBRANCH   5  14
TORSDOF 2
ENDMDL
MODEL      107
REMARK 921   NORMALIZED FREE ENERGY PREDICTED BY IDOCK:   -5.04 KCAL/MOL
REMARK 922        TOTAL FREE ENERGY PREDICTED BY IDOCK:   -5.99 KCAL/MOL
REMARK 923 INTER-LIGAND FREE ENERGY PREDICTED BY IDOCK:   -5.92 KCAL/MOL
REMARK 924 INTRA-LIGAND FREE ENERGY PREDICTED BY IDOCK:   -0.07 KCAL/MOL
REMARK 927      BINDING AFFINITY PREDICTED BY RF-SCORE:    0.00 PKD
ROOT
HETATM    1  O   UNL     1     -12.221  14.567  66.562  1.00  0.00    -0.381 OA 
HETATM    2  N   UNL     1     -11.418  14.813  67.472  1.00  0.00    -0.344 N  
HETATM    3  C   UNL     1     -11.657  14.142  68.742  1.00  0.00    -0.327 A  
HETATM    4  O   UNL     1     -10.505  15.648  67.445  1.00  0.00    -0.277 OA 
HETATM    5  C   UNL     1     -11.646  12.743  68.836  1.00  0.00    -0.362 A  
HETATM    6  C   UNL     1     -11.946  12.167  70.076  1.00  0.00    -0.391 A  
HETATM    7  C   UNL     1     -12.833  15.231  72.204  1.00  0.00    -0.357 C  
HETATM    8  C   UNL     1     -12.309  12.968  71.168  1.00  0.00    -0.270 A  
HETATM    9  C   UNL     1     -12.011  14.955  69.831  1.00  0.00    -0.376 A  
HETATM   10  F   UNL     1     -11.879  16.106  72.615  1.00  0.00    -0.497 F  
HETATM   11  C   UNL     1     -12.366  14.366  71.051  1.00  0.00    -0.427 A  
HETATM   12  F   UNL     1     -13.200  14.520  73.303  1.00  0.00    -0.558 F  
HETATM   13  F   UNL     1     -13.915  15.983  71.863  1.00  0.00    -0.430 F  
ENDROOT
BRANCH   5  14
HETATM   14  C   UNL     1     -11.295  11.878  67.676  1.00  0.00    -0.304 C  
HETATM   15  O   UNL     1     -12.161  11.692  66.825  1.00  0.00    -0.472 OA 
BRANCH  14  16
HETATM   16  C   UNL     1      -9.906  11.279  67.567  1.00  0.00    -0.195 C  
HETATM   17  C   UNL     1      -7.772  13.365  67.701  1.00  0.00    -0.179 C  
HETATM   18  C   UNL     1      -8.607  13.191  66.439  1.00  0.00     0.289 C  
HETATM   19  C   UNL     1      -9.149  11.781  66.360  1.00  0.00    -0.213 C  
HETATM   20  O   UNL     1      -9.064  11.113  65.331  1.00  0.00    -0.203 OA 
HETATM   21  C   UNL     1      -8.524  12.947  68.961  1.00  0.00     0.454 C  
HETATM   22  C   UNL     1      -9.068  11.543  68.800  1.00  0.00    -0.056 C  
HETATM   23  O   UNL     1      -8.855  10.665  69.635  1.00  0.00    -0.045 OA 
ENDBRANCH  14  16
ENDBRANCH   5  14
TORSDOF 2
ENDMDL
MODEL      108
REMARK 921   NORMALIZED FREE ENERGY PREDICTED BY IDOCK:   -5.01 KCAL/MOL
REMARK 922        TOTAL FREE ENERGY PREDICTED BY IDOCK:   -5.96 KCAL/MOL
REMARK 923 INTER-LIGAND FREE ENERGY PREDICTED BY IDOCK:   -5.44 KCAL/MOL
REMARK 924 INTRA-LIGAND FREE ENERGY PREDICTED BY IDOCK:   -0.52 KCAL/MOL
REMARK 927      BINDING AFFINITY PREDICTED BY RF-SCORE:    0.00 PKD
ROOT
HETATM    1  O   UNL     1      -6.108  13.961  67.211  1.00  0.00    -0.314 OA 
HETATM    2  N   UNL     1      -5.988  15.048  67.792  1.00  0.00    -0.142 N  
HETATM    3  C   UNL     1      -6.783  16.150  67.268  1.00  0.00    -0.198 A  
HETATM    4  O   UNL     1      -5.186  15.318  68.695  1.00  0.00    -0.086 OA 
HETATM    5  C   UNL     1      -8.184  16.086  67.247  1.00  0.00    -0.209 A  
HETATM    6  C   UNL     1      -8.881  17.157  66.672  1.00  0.00    -0.279 A  
HETATM    7  C   UNL     1      -6.035  19.365  65.357  1.00  0.00    -0.213 C  
HETATM    8  C   UNL     1      -8.190  18.224  66.080  1.00  0.00    -0.171 A  
HETATM    9  C   UNL     1      -6.081  17.218  66.687  1.00  0.00    -0.247 A  
HETATM   10  F   UNL     1      -5.242  20.074  66.202  1.00  0.00    -0.163 F  
HETATM   11  C   UNL     1      -6.786  18.255  66.063  1.00  0.00    -0.311 A  
HETATM   12  F   UNL     1      -6.848  20.269  64.747  1.00  0.00    -0.319 F  
HETATM   13  F   UNL     1      -5.216  18.880  64.385  1.00  0.00    -0.187 F  
ENDROOT
BRANCH   5  14
HETATM   14  C   UNL     1      -8.931  14.943  67.841  1.00  0.00    -0.177 C  
HETATM   15  O   UNL     1      -9.026  14.903  69.064  1.00  0.00    -0.194 OA 
BRANCH  14  16
HETATM   16  C   UNL     1      -9.557  13.895  66.941  1.00  0.00    -0.271 C  
HETATM   17  C   UNL     1     -11.857  12.516  68.257  1.00  0.00    -0.361 C  
HETATM   18  C   UNL     1     -10.425  12.190  68.661  1.00  0.00    -0.237 C  
HETATM   19  C   UNL     1      -9.476  12.504  67.525  1.00  0.00    -0.185 C  
HETATM   20  O   UNL     1      -8.618  11.703  67.161  1.00  0.00    -0.151 OA 
HETATM   21  C   UNL     1     -12.007  13.942  67.736  1.00  0.00    -0.390 C  
HETATM   22  C   UNL     1     -11.006  14.197  66.627  1.00  0.00    -0.303 C  
HETATM   23  O   UNL     1     -11.351  14.645  65.534  1.00  0.00    -0.329 OA 
ENDBRANCH  14  16
ENDBRANCH   5  14
TORSDOF 2
ENDMDL
MODEL      109
REMARK 921   NORMALIZED FREE ENERGY PREDICTED BY IDOCK:   -5.01 KCAL/MOL
REMARK 922        TOTAL FREE ENERGY PREDICTED BY IDOCK:   -5.95 KCAL/MOL
REMARK 923 INTER-LIGAND FREE ENERGY PREDICTED BY IDOCK:   -5.17 KCAL/MOL
REMARK 924 INTRA-LIGAND FREE ENERGY PREDICTED BY IDOCK:   -0.79 KCAL/MOL
REMARK 927      BINDING AFFINITY PREDICTED BY RF-SCORE:    0.00 PKD
ROOT
HETATM    1  O   UNL     1     -10.016   9.782  70.355  1.00  0.00    -0.261 OA 
HETATM    2  N   UNL     1      -9.011  10.016  69.670  1.00  0.00    -0.209 N  
HETATM    3  C   UNL     1      -9.101   9.680  68.256  1.00  0.00    -0.123 A  
HETATM    4  O   UNL     1      -7.910  10.400  70.083  1.00  0.00    -0.100 OA 
HETATM    5  C   UNL     1     -10.056  10.288  67.427  1.00  0.00    -0.246 A  
HETATM    6  C   UNL     1     -10.126   9.870  66.092  1.00  0.00    -0.315 A  
HETATM    7  C   UNL     1      -7.561   7.021  65.996  1.00  0.00    -0.096 C  
HETATM    8  C   UNL     1      -9.308   8.831  65.624  1.00  0.00    -0.219 A  
HETATM    9  C   UNL     1      -8.272   8.645  67.796  1.00  0.00    -0.118 A  
HETATM   10  F   UNL     1      -6.227   7.268  66.059  1.00  0.00    -0.037 F  
HETATM   11  C   UNL     1      -8.390   8.196  66.475  1.00  0.00    -0.113 A  
HETATM   12  F   UNL     1      -7.823   6.658  64.713  1.00  0.00    -0.089 F  
HETATM   13  F   UNL     1      -7.777   5.911  66.753  1.00  0.00    -0.093 F  
ENDROOT
BRANCH   5  14
HETATM   14  C   UNL     1     -10.954  11.369  67.919  1.00  0.00    -0.240 C  
HETATM   15  O   UNL     1     -12.151  11.113  68.011  1.00  0.00    -0.635 OA 
BRANCH  14  16
HETATM   16  C   UNL     1     -10.379  12.719  68.303  1.00  0.00    -0.248 C  
HETATM   17  C   UNL     1     -10.878  14.788  66.208  1.00  0.00    -0.322 C  
HETATM   18  C   UNL     1      -9.817  13.715  66.000  1.00  0.00    -0.290 C  
HETATM   19  C   UNL     1      -9.325  13.200  67.333  1.00  0.00    -0.213 C  
HETATM   20  O   UNL     1      -8.126  13.086  67.579  1.00  0.00    -0.156 OA 
HETATM   21  C   UNL     1     -12.010  14.322  67.117  1.00  0.00    -0.449 C  
HETATM   22  C   UNL     1     -11.445  13.787  68.417  1.00  0.00    -0.316 C  
HETATM   23  O   UNL     1     -11.844  14.187  69.510  1.00  0.00    -0.280 OA 
ENDBRANCH  14  16
ENDBRANCH   5  14
TORSDOF 2
ENDMDL
MODEL      110
REMARK 921   NORMALIZED FREE ENERGY PREDICTED BY IDOCK:   -5.00 KCAL/MOL
REMARK 922        TOTAL FREE ENERGY PREDICTED BY IDOCK:   -5.95 KCAL/MOL
REMARK 923 INTER-LIGAND FREE ENERGY PREDICTED BY IDOCK:   -5.71 KCAL/MOL
REMARK 924 INTRA-LIGAND FREE ENERGY PREDICTED BY IDOCK:   -0.24 KCAL/MOL
REMARK 927      BINDING AFFINITY PREDICTED BY RF-SCORE:    0.00 PKD
ROOT
HETATM    1  O   UNL     1      -8.034  14.999  66.939  1.00  0.00    -0.195 OA 
HETATM    2  N   UNL     1      -8.336  14.357  67.954  1.00  0.00    -0.151 N  
HETATM    3  C   UNL     1      -9.745  14.353  68.319  1.00  0.00    -0.222 A  
HETATM    4  O   UNL     1      -7.553  13.815  68.744  1.00  0.00    -0.132 OA 
HETATM    5  C   UNL     1     -10.716  13.828  67.454  1.00  0.00    -0.279 A  
HETATM    6  C   UNL     1     -12.058  13.914  67.845  1.00  0.00    -0.318 A  
HETATM    7  C   UNL     1     -11.826  15.900  71.116  1.00  0.00    -0.438 C  
HETATM    8  C   UNL     1     -12.416  14.564  69.035  1.00  0.00     0.021 A  
HETATM    9  C   UNL     1     -10.091  14.998  69.517  1.00  0.00    -0.176 A  
HETATM   10  F   UNL     1     -11.323  15.343  72.248  1.00  0.00    -0.476 F  
HETATM   11  C   UNL     1     -11.440  15.129  69.871  1.00  0.00    -0.315 A  
HETATM   12  F   UNL     1     -13.169  15.997  71.301  1.00  0.00    -0.522 F  
HETATM   13  F   UNL     1     -11.358  17.178  71.084  1.00  0.00    -0.108 F  
ENDROOT
BRANCH   5  14
HETATM   14  C   UNL     1     -10.354  13.165  66.171  1.00  0.00    -0.284 C  
HETATM   15  O   UNL     1     -10.054  13.888  65.225  1.00  0.00    -0.334 OA 
BRANCH  14  16
HETATM   16  C   UNL     1     -10.345  11.652  66.073  1.00  0.00    -0.283 C  
HETATM   17  C   UNL     1      -8.167  10.434  67.715  1.00  0.00    -0.110 C  
HETATM   18  C   UNL     1      -7.848  11.128  66.397  1.00  0.00    -0.136 C  
HETATM   19  C   UNL     1      -9.060  11.114  65.491  1.00  0.00    -0.195 C  
HETATM   20  O   UNL     1      -8.980  10.774  64.312  1.00  0.00    -0.190 OA 
HETATM   21  C   UNL     1      -9.415  11.000  68.385  1.00  0.00    -0.182 C  
HETATM   22  C   UNL     1     -10.578  10.988  67.413  1.00  0.00    -0.237 C  
HETATM   23  O   UNL     1     -11.660  10.481  67.704  1.00  0.00    -0.447 OA 
ENDBRANCH  14  16
ENDBRANCH   5  14
TORSDOF 2
ENDMDL
MODEL      111
REMARK 921   NORMALIZED FREE ENERGY PREDICTED BY IDOCK:   -4.98 KCAL/MOL
REMARK 922        TOTAL FREE ENERGY PREDICTED BY IDOCK:   -5.93 KCAL/MOL
REMARK 923 INTER-LIGAND FREE ENERGY PREDICTED BY IDOCK:   -5.74 KCAL/MOL
REMARK 924 INTRA-LIGAND FREE ENERGY PREDICTED BY IDOCK:   -0.19 KCAL/MOL
REMARK 927      BINDING AFFINITY PREDICTED BY RF-SCORE:    0.00 PKD
ROOT
HETATM    1  O   UNL     1      -7.788  14.181  67.181  1.00  0.00    -0.158 OA 
HETATM    2  N   UNL     1      -8.808  14.704  67.649  1.00  0.00    -0.174 N  
HETATM    3  C   UNL     1      -9.623  15.474  66.720  1.00  0.00    -0.235 A  
HETATM    4  O   UNL     1      -9.144  14.731  68.840  1.00  0.00    -0.187 OA 
HETATM    5  C   UNL     1     -10.204  14.871  65.595  1.00  0.00    -0.382 A  
HETATM    6  C   UNL     1     -10.923  15.686  64.711  1.00  0.00    -0.418 A  
HETATM    7  C   UNL     1     -10.385  19.176  66.206  1.00  0.00    -0.474 C  
HETATM    8  C   UNL     1     -11.000  17.071  64.918  1.00  0.00     0.083 A  
HETATM    9  C   UNL     1      -9.700  16.859  66.941  1.00  0.00    -0.264 A  
HETATM   10  F   UNL     1     -10.990  19.552  67.362  1.00  0.00    -0.550 F  
HETATM   11  C   UNL     1     -10.373  17.673  66.021  1.00  0.00    -0.305 A  
HETATM   12  F   UNL     1     -11.023  19.842  65.206  1.00  0.00    -0.581 F  
HETATM   13  F   UNL     1      -9.125  19.689  66.255  1.00  0.00    -0.339 F  
ENDROOT
BRANCH   5  14
HETATM   14  C   UNL     1     -10.103  13.407  65.344  1.00  0.00    -0.254 C  
HETATM   15  O   UNL     1      -9.060  12.986  64.853  1.00  0.00     0.789 OA 
BRANCH  14  16
HETATM   16  C   UNL     1     -11.256  12.492  65.711  1.00  0.00    -0.356 C  
HETATM   17  C   UNL     1     -11.742  12.425  68.657  1.00  0.00    -0.372 C  
HETATM   18  C   UNL     1     -10.554  11.689  68.051  1.00  0.00    -0.232 C  
HETATM   19  C   UNL     1     -10.831  11.350  66.603  1.00  0.00    -0.289 C  
HETATM   20  O   UNL     1     -10.627  10.224  66.154  1.00  0.00    -0.161 OA 
HETATM   21  C   UNL     1     -12.159  13.639  67.833  1.00  0.00    -0.318 C  
HETATM   22  C   UNL     1     -12.386  13.235  66.391  1.00  0.00    -0.282 C  
HETATM   23  O   UNL     1     -13.428  13.510  65.796  1.00  0.00    -0.279 OA 
ENDBRANCH  14  16
ENDBRANCH   5  14
TORSDOF 2
ENDMDL
MODEL      112
REMARK 921   NORMALIZED FREE ENERGY PREDICTED BY IDOCK:   -4.97 KCAL/MOL
REMARK 922        TOTAL FREE ENERGY PREDICTED BY IDOCK:   -5.92 KCAL/MOL
REMARK 923 INTER-LIGAND FREE ENERGY PREDICTED BY IDOCK:   -5.42 KCAL/MOL
REMARK 924 INTRA-LIGAND FREE ENERGY PREDICTED BY IDOCK:   -0.50 KCAL/MOL
REMARK 927      BINDING AFFINITY PREDICTED BY RF-SCORE:    0.00 PKD
ROOT
HETATM    1  O   UNL     1      -8.495   8.039  69.088  1.00  0.00    -0.133 OA 
HETATM    2  N   UNL     1      -8.658   8.923  69.940  1.00  0.00    -0.129 N  
HETATM    3  C   UNL     1      -9.682   8.671  70.944  1.00  0.00    -0.204 A  
HETATM    4  O   UNL     1      -8.121  10.037  69.959  1.00  0.00    -0.180 OA 
HETATM    5  C   UNL     1      -9.592   7.571  71.810  1.00  0.00    -0.178 A  
HETATM    6  C   UNL     1     -10.645   7.356  72.709  1.00  0.00    -0.345 A  
HETATM    7  C   UNL     1     -13.137  10.093  71.711  1.00  0.00    -0.463 C  
HETATM    8  C   UNL     1     -11.779   8.180  72.692  1.00  0.00    -0.419 A  
HETATM    9  C   UNL     1     -10.809   9.507  70.924  1.00  0.00    -0.407 A  
HETATM   10  F   UNL     1     -12.901  11.401  71.990  1.00  0.00    -0.502 F  
HETATM   11  C   UNL     1     -11.882   9.249  71.787  1.00  0.00    -0.454 A  
HETATM   12  F   UNL     1     -14.116   9.691  72.565  1.00  0.00    -0.418 F  
HETATM   13  F   UNL     1     -13.689  10.065  70.467  1.00  0.00    -0.347 F  
ENDROOT
BRANCH   5  14
HETATM   14  C   UNL     1      -8.408   6.667  71.817  1.00  0.00    -0.111 C  
HETATM   15  O   UNL     1      -7.518   6.905  72.628  1.00  0.00    -0.088 OA 
BRANCH  14  16
HETATM   16  C   UNL     1      -8.344   5.493  70.859  1.00  0.00    -0.120 C  
HETATM   17  C   UNL     1      -8.949   2.902  72.216  1.00  0.00    -0.124 C  
HETATM   18  C   UNL     1      -7.605   3.590  72.422  1.00  0.00    -0.058 C  
HETATM   19  C   UNL     1      -7.288   4.484  71.245  1.00  0.00    -0.056 C  
HETATM   20  O   UNL     1      -6.190   4.459  70.692  1.00  0.00    -0.020 OA 
HETATM   21  C   UNL     1     -10.068   3.890  71.903  1.00  0.00    -0.204 C  
HETATM   22  C   UNL     1      -9.670   4.774  70.739  1.00  0.00    -0.197 C  
HETATM   23  O   UNL     1     -10.395   4.916  69.755  1.00  0.00    -0.260 OA 
ENDBRANCH  14  16
ENDBRANCH   5  14
TORSDOF 2
ENDMDL
MODEL      113
REMARK 921   NORMALIZED FREE ENERGY PREDICTED BY IDOCK:   -4.96 KCAL/MOL
REMARK 922        TOTAL FREE ENERGY PREDICTED BY IDOCK:   -5.91 KCAL/MOL
REMARK 923 INTER-LIGAND FREE ENERGY PREDICTED BY IDOCK:   -5.46 KCAL/MOL
REMARK 924 INTRA-LIGAND FREE ENERGY PREDICTED BY IDOCK:   -0.45 KCAL/MOL
REMARK 927      BINDING AFFINITY PREDICTED BY RF-SCORE:    0.00 PKD
ROOT
HETATM    1  O   UNL     1     -10.218  10.912  66.839  1.00  0.00    -0.211 OA 
HETATM    2  N   UNL     1     -10.234  11.552  67.899  1.00  0.00    -0.180 N  
HETATM    3  C   UNL     1     -10.305  10.770  69.125  1.00  0.00    -0.217 A  
HETATM    4  O   UNL     1     -10.308  12.782  68.016  1.00  0.00    -0.216 OA 
HETATM    5  C   UNL     1      -9.296   9.855  69.459  1.00  0.00    -0.236 A  
HETATM    6  C   UNL     1      -9.462   9.093  70.622  1.00  0.00    -0.316 A  
HETATM    7  C   UNL     1     -12.957  10.147  71.795  1.00  0.00    -0.462 C  
HETATM    8  C   UNL     1     -10.632   9.201  71.388  1.00  0.00    -0.412 A  
HETATM    9  C   UNL     1     -11.477  10.893  69.888  1.00  0.00    -0.402 A  
HETATM   10  F   UNL     1     -13.184  11.376  72.327  1.00  0.00    -0.603 F  
HETATM   11  C   UNL     1     -11.658  10.084  71.017  1.00  0.00    -0.476 A  
HETATM   12  F   UNL     1     -13.015   9.266  72.828  1.00  0.00    -0.453 F  
HETATM   13  F   UNL     1     -14.031   9.873  71.006  1.00  0.00    -0.319 F  
ENDROOT
BRANCH   5  14
HETATM   14  C   UNL     1      -8.063   9.705  68.638  1.00  0.00    -0.100 C  
HETATM   15  O   UNL     1      -7.067  10.330  68.992  1.00  0.00    -0.062 OA 
BRANCH  14  16
HETATM   16  C   UNL     1      -8.063   8.793  67.427  1.00  0.00    -0.105 C  
HETATM   17  C   UNL     1      -7.250   6.004  68.123  1.00  0.00    -0.080 C  
HETATM   18  C   UNL     1      -6.212   7.116  68.043  1.00  0.00    -0.035 C  
HETATM   19  C   UNL     1      -6.697   8.220  67.130  1.00  0.00    -0.063 C  
HETATM   20  O   UNL     1      -5.978   8.694  66.253  1.00  0.00    -0.049 OA 
HETATM   21  C   UNL     1      -8.634   6.523  68.502  1.00  0.00    -0.123 C  
HETATM   22  C   UNL     1      -9.040   7.646  67.570  1.00  0.00    -0.125 C  
HETATM   23  O   UNL     1     -10.117   7.637  66.974  1.00  0.00    -0.214 OA 
ENDBRANCH  14  16
ENDBRANCH   5  14
TORSDOF 2
ENDMDL
MODEL      114
REMARK 921   NORMALIZED FREE ENERGY PREDICTED BY IDOCK:   -4.96 KCAL/MOL
REMARK 922        TOTAL FREE ENERGY PREDICTED BY IDOCK:   -5.91 KCAL/MOL
REMARK 923 INTER-LIGAND FREE ENERGY PREDICTED BY IDOCK:   -5.40 KCAL/MOL
REMARK 924 INTRA-LIGAND FREE ENERGY PREDICTED BY IDOCK:   -0.50 KCAL/MOL
REMARK 927      BINDING AFFINITY PREDICTED BY RF-SCORE:    0.00 PKD
ROOT
HETATM    1  O   UNL     1      -8.472   8.820  65.945  1.00  0.00    -0.127 OA 
HETATM    2  N   UNL     1      -8.252   9.796  66.674  1.00  0.00    -0.120 N  
HETATM    3  C   UNL     1      -9.381  10.681  66.926  1.00  0.00    -0.159 A  
HETATM    4  O   UNL     1      -7.154  10.153  67.118  1.00  0.00    -0.087 OA 
HETATM    5  C   UNL     1     -10.541  10.213  67.560  1.00  0.00    -0.327 A  
HETATM    6  C   UNL     1     -11.610  11.105  67.712  1.00  0.00    -0.303 A  
HETATM    7  C   UNL     1     -10.340  14.219  65.870  1.00  0.00    -0.314 C  
HETATM    8  C   UNL     1     -11.539  12.403  67.186  1.00  0.00    -0.435 A  
HETATM    9  C   UNL     1      -9.296  11.981  66.402  1.00  0.00    -0.232 A  
HETATM   10  F   UNL     1      -9.356  14.996  66.390  1.00  0.00    -0.248 F  
HETATM   11  C   UNL     1     -10.392  12.846  66.509  1.00  0.00    -0.272 A  
HETATM   12  F   UNL     1     -11.495  14.924  66.003  1.00  0.00    -0.346 F  
HETATM   13  F   UNL     1     -10.097  14.144  64.533  1.00  0.00    -0.447 F  
ENDROOT
BRANCH   5  14
HETATM   14  C   UNL     1     -10.643   8.827  68.094  1.00  0.00    -0.147 C  
HETATM   15  O   UNL     1     -10.940   7.936  67.304  1.00  0.00    -0.199 OA 
BRANCH  14  16
HETATM   16  C   UNL     1     -10.366   8.555  69.560  1.00  0.00    -0.218 C  
HETATM   17  C   UNL     1      -8.755   6.071  69.955  1.00  0.00    -0.135 C  
HETATM   18  C   UNL     1     -10.233   5.987  69.594  1.00  0.00    -0.268 C  
HETATM   19  C   UNL     1     -10.951   7.244  70.030  1.00  0.00    -0.253 C  
HETATM   20  O   UNL     1     -12.010   7.199  70.652  1.00  0.00    -0.319 OA 
HETATM   21  C   UNL     1      -8.097   7.342  69.431  1.00  0.00    -0.129 C  
HETATM   22  C   UNL     1      -8.885   8.557  69.875  1.00  0.00    -0.137 C  
HETATM   23  O   UNL     1      -8.348   9.505  70.448  1.00  0.00    -0.179 OA 
ENDBRANCH  14  16
ENDBRANCH   5  14
TORSDOF 2
ENDMDL
MODEL      115
REMARK 921   NORMALIZED FREE ENERGY PREDICTED BY IDOCK:   -4.96 KCAL/MOL
REMARK 922        TOTAL FREE ENERGY PREDICTED BY IDOCK:   -5.91 KCAL/MOL
REMARK 923 INTER-LIGAND FREE ENERGY PREDICTED BY IDOCK:   -5.44 KCAL/MOL
REMARK 924 INTRA-LIGAND FREE ENERGY PREDICTED BY IDOCK:   -0.47 KCAL/MOL
REMARK 927      BINDING AFFINITY PREDICTED BY RF-SCORE:    0.00 PKD
ROOT
HETATM    1  O   UNL     1      -6.991  10.905  66.849  1.00  0.00    -0.103 OA 
HETATM    2  N   UNL     1      -7.562  11.870  67.374  1.00  0.00    -0.142 N  
HETATM    3  C   UNL     1      -9.017  11.863  67.327  1.00  0.00    -0.176 A  
HETATM    4  O   UNL     1      -7.023  12.886  67.832  1.00  0.00    -0.092 OA 
HETATM    5  C   UNL     1      -9.756  10.838  67.936  1.00  0.00    -0.181 A  
HETATM    6  C   UNL     1     -11.150  10.863  67.797  1.00  0.00    -0.371 A  
HETATM    7  C   UNL     1     -11.681  13.862  65.467  1.00  0.00    -0.349 C  
HETATM    8  C   UNL     1     -11.773  11.849  67.019  1.00  0.00    -0.304 A  
HETATM    9  C   UNL     1      -9.632  12.860  66.552  1.00  0.00    -0.259 A  
HETATM   10  F   UNL     1     -11.500  15.136  65.901  1.00  0.00    -0.340 F  
HETATM   11  C   UNL     1     -11.021  12.842  66.373  1.00  0.00    -0.310 A  
HETATM   12  F   UNL     1     -13.023  13.687  65.341  1.00  0.00    -0.513 F  
HETATM   13  F   UNL     1     -11.175  13.817  64.204  1.00  0.00    -0.381 F  
ENDROOT
BRANCH   5  14
HETATM   14  C   UNL     1      -9.105   9.766  68.738  1.00  0.00    -0.136 C  
HETATM   15  O   UNL     1      -9.045   9.924  69.954  1.00  0.00    -0.218 OA 
BRANCH  14  16
HETATM   16  C   UNL     1      -8.563   8.527  68.052  1.00  0.00    -0.134 C  
HETATM   17  C   UNL     1     -10.596   6.342  67.913  1.00  0.00    -0.327 C  
HETATM   18  C   UNL     1      -9.892   6.664  69.225  1.00  0.00    -0.157 C  
HETATM   19  C   UNL     1      -8.555   7.317  68.956  1.00  0.00    -0.129 C  
HETATM   20  O   UNL     1      -7.529   6.944  69.522  1.00  0.00    -0.091 OA 
HETATM   21  C   UNL     1     -10.703   7.555  66.995  1.00  0.00    -0.367 C  
HETATM   22  C   UNL     1      -9.336   8.179  66.797  1.00  0.00    -0.183 C  
HETATM   23  O   UNL     1      -8.884   8.408  65.676  1.00  0.00    -0.172 OA 
ENDBRANCH  14  16
ENDBRANCH   5  14
TORSDOF 2
ENDMDL
MODEL      116
REMARK 921   NORMALIZED FREE ENERGY PREDICTED BY IDOCK:   -4.96 KCAL/MOL
REMARK 922        TOTAL FREE ENERGY PREDICTED BY IDOCK:   -5.90 KCAL/MOL
REMARK 923 INTER-LIGAND FREE ENERGY PREDICTED BY IDOCK:   -5.43 KCAL/MOL
REMARK 924 INTRA-LIGAND FREE ENERGY PREDICTED BY IDOCK:   -0.47 KCAL/MOL
REMARK 927      BINDING AFFINITY PREDICTED BY RF-SCORE:    0.00 PKD
ROOT
HETATM    1  O   UNL     1      -8.343   9.323  68.812  1.00  0.00    -0.114 OA 
HETATM    2  N   UNL     1      -8.595   9.064  69.996  1.00  0.00    -0.137 N  
HETATM    3  C   UNL     1      -9.759   8.221  70.238  1.00  0.00    -0.175 A  
HETATM    4  O   UNL     1      -8.030   9.533  70.992  1.00  0.00    -0.321 OA 
HETATM    5  C   UNL     1      -9.827   6.917  69.727  1.00  0.00    -0.177 A  
HETATM    6  C   UNL     1     -11.003   6.188  69.946  1.00  0.00    -0.458 A  
HETATM    7  C   UNL     1     -13.239   8.760  71.702  1.00  0.00    -0.357 C  
HETATM    8  C   UNL     1     -12.096   6.774  70.601  1.00  0.00    -0.371 A  
HETATM    9  C   UNL     1     -10.844   8.815  70.902  1.00  0.00    -0.293 A  
HETATM   10  F   UNL     1     -13.002   9.147  72.983  1.00  0.00    -0.407 F  
HETATM   11  C   UNL     1     -12.035   8.097  71.065  1.00  0.00    -0.257 A  
HETATM   12  F   UNL     1     -14.341   7.964  71.741  1.00  0.00    -0.418 F  
HETATM   13  F   UNL     1     -13.610   9.883  71.030  1.00  0.00    -0.432 F  
ENDROOT
BRANCH   5  14
HETATM   14  C   UNL     1      -8.687   6.294  69.000  1.00  0.00    -0.125 C  
HETATM   15  O   UNL     1      -7.939   5.561  69.641  1.00  0.00    -0.090 OA 
BRANCH  14  16
HETATM   16  C   UNL     1      -8.494   6.558  67.519  1.00  0.00    -0.120 C  
HETATM   17  C   UNL     1      -9.771   4.453  65.828  1.00  0.00    -0.213 C  
HETATM   18  C   UNL     1      -8.470   4.169  66.567  1.00  0.00    -0.104 C  
HETATM   19  C   UNL     1      -7.723   5.458  66.827  1.00  0.00    -0.100 C  
HETATM   20  O   UNL     1      -6.525   5.571  66.578  1.00  0.00    -0.044 OA 
HETATM   21  C   UNL     1     -10.626   5.501  66.533  1.00  0.00    -0.343 C  
HETATM   22  C   UNL     1      -9.808   6.749  66.793  1.00  0.00    -0.178 C  
HETATM   23  O   UNL     1     -10.199   7.864  66.448  1.00  0.00    -0.196 OA 
ENDBRANCH  14  16
ENDBRANCH   5  14
TORSDOF 2
ENDMDL
MODEL      117
REMARK 921   NORMALIZED FREE ENERGY PREDICTED BY IDOCK:   -4.93 KCAL/MOL
REMARK 922        TOTAL FREE ENERGY PREDICTED BY IDOCK:   -5.87 KCAL/MOL
REMARK 923 INTER-LIGAND FREE ENERGY PREDICTED BY IDOCK:   -5.15 KCAL/MOL
REMARK 924 INTRA-LIGAND FREE ENERGY PREDICTED BY IDOCK:   -0.72 KCAL/MOL
REMARK 927      BINDING AFFINITY PREDICTED BY RF-SCORE:    0.00 PKD
ROOT
HETATM    1  O   UNL     1      -9.398  14.578  65.649  1.00  0.00    -0.145 OA 
HETATM    2  N   UNL     1      -8.779  15.215  66.512  1.00  0.00    -0.277 N  
HETATM    3  C   UNL     1      -9.428  16.418  67.015  1.00  0.00    -0.230 A  
HETATM    4  O   UNL     1      -7.626  14.997  66.905  1.00  0.00    -0.120 OA 
HETATM    5  C   UNL     1     -10.669  16.353  67.665  1.00  0.00    -0.312 A  
HETATM    6  C   UNL     1     -11.262  17.556  68.068  1.00  0.00     0.190 A  
HETATM    7  C   UNL     1      -8.825  20.169  66.678  1.00  0.00    -0.290 C  
HETATM    8  C   UNL     1     -10.659  18.786  67.768  1.00  0.00    -0.452 A  
HETATM    9  C   UNL     1      -8.810  17.643  66.717  1.00  0.00    -0.275 A  
HETATM   10  F   UNL     1      -7.598  20.356  67.230  1.00  0.00    -0.303 F  
HETATM   11  C   UNL     1      -9.441  18.842  67.073  1.00  0.00    -0.341 A  
HETATM   12  F   UNL     1      -9.574  21.245  67.036  1.00  0.00    -0.458 F  
HETATM   13  F   UNL     1      -8.652  20.263  65.331  1.00  0.00    -0.172 F  
ENDROOT
BRANCH   5  14
HETATM   14  C   UNL     1     -11.337  15.055  67.961  1.00  0.00    -0.327 C  
HETATM   15  O   UNL     1     -12.249  14.705  67.216  1.00  0.00    -0.294 OA 
BRANCH  14  16
HETATM   16  C   UNL     1     -10.874  14.211  69.132  1.00  0.00    -0.254 C  
HETATM   17  C   UNL     1     -12.324  14.895  71.652  1.00  0.00    -0.404 C  
HETATM   18  C   UNL     1     -11.242  15.818  71.105  1.00  0.00    -0.380 C  
HETATM   19  C   UNL     1     -10.274  15.038  70.244  1.00  0.00     0.093 C  
HETATM   20  O   UNL     1      -9.058  15.147  70.380  1.00  0.00     0.426 OA 
HETATM   21  C   UNL     1     -13.019  14.096  70.554  1.00  0.00    -0.227 C  
HETATM   22  C   UNL     1     -11.991  13.369  69.711  1.00  0.00    -0.330 C  
HETATM   23  O   UNL     1     -12.068  12.160  69.494  1.00  0.00    -0.272 OA 
ENDBRANCH  14  16
ENDBRANCH   5  14
TORSDOF 2
ENDMDL
MODEL      118
REMARK 921   NORMALIZED FREE ENERGY PREDICTED BY IDOCK:   -4.93 KCAL/MOL
REMARK 922        TOTAL FREE ENERGY PREDICTED BY IDOCK:   -5.86 KCAL/MOL
REMARK 923 INTER-LIGAND FREE ENERGY PREDICTED BY IDOCK:   -5.71 KCAL/MOL
REMARK 924 INTRA-LIGAND FREE ENERGY PREDICTED BY IDOCK:   -0.15 KCAL/MOL
REMARK 927      BINDING AFFINITY PREDICTED BY RF-SCORE:    0.00 PKD
ROOT
HETATM    1  O   UNL     1      -7.820  15.301  67.129  1.00  0.00    -0.193 OA 
HETATM    2  N   UNL     1      -8.291  14.483  67.931  1.00  0.00    -0.149 N  
HETATM    3  C   UNL     1      -9.712  14.610  68.223  1.00  0.00    -0.215 A  
HETATM    4  O   UNL     1      -7.659  13.645  68.587  1.00  0.00    -0.125 OA 
HETATM    5  C   UNL     1     -10.674  14.478  67.212  1.00  0.00    -0.287 A  
HETATM    6  C   UNL     1     -12.017  14.674  67.555  1.00  0.00    -0.309 A  
HETATM    7  C   UNL     1     -11.771  15.722  71.235  1.00  0.00    -0.440 C  
HETATM    8  C   UNL     1     -12.374  15.055  68.857  1.00  0.00    -0.023 A  
HETATM    9  C   UNL     1     -10.058  14.984  69.532  1.00  0.00    -0.176 A  
HETATM   10  F   UNL     1     -11.446  14.829  72.205  1.00  0.00    -0.410 F  
HETATM   11  C   UNL     1     -11.399  15.234  69.850  1.00  0.00    -0.308 A  
HETATM   12  F   UNL     1     -13.098  15.980  71.382  1.00  0.00    -0.525 F  
HETATM   13  F   UNL     1     -11.126  16.877  71.553  1.00  0.00    -0.103 F  
ENDROOT
BRANCH   5  14
HETATM   14  C   UNL     1     -10.306  14.106  65.817  1.00  0.00    -0.325 C  
HETATM   15  O   UNL     1      -9.897  14.999  65.082  1.00  0.00    -0.293 OA 
BRANCH  14  16
HETATM   16  C   UNL     1     -10.426  12.666  65.358  1.00  0.00    -0.306 C  
HETATM   17  C   UNL     1     -12.900  12.202  63.750  1.00  0.00    -0.451 C  
HETATM   18  C   UNL     1     -12.978  12.363  65.263  1.00  0.00     0.604 C  
HETATM   19  C   UNL     1     -11.660  11.983  65.899  1.00  0.00    -0.300 C  
HETATM   20  O   UNL     1     -11.605  11.231  66.870  1.00  0.00    -0.464 OA 
HETATM   21  C   UNL     1     -11.713  12.944  63.144  1.00  0.00    -0.210 C  
HETATM   22  C   UNL     1     -10.434  12.541  63.850  1.00  0.00    -0.434 C  
HETATM   23  O   UNL     1      -9.447  12.151  63.228  1.00  0.00    -0.269 OA 
ENDBRANCH  14  16
ENDBRANCH   5  14
TORSDOF 2
ENDMDL
MODEL      119
REMARK 921   NORMALIZED FREE ENERGY PREDICTED BY IDOCK:   -4.87 KCAL/MOL
REMARK 922        TOTAL FREE ENERGY PREDICTED BY IDOCK:   -5.81 KCAL/MOL
REMARK 923 INTER-LIGAND FREE ENERGY PREDICTED BY IDOCK:   -5.29 KCAL/MOL
REMARK 924 INTRA-LIGAND FREE ENERGY PREDICTED BY IDOCK:   -0.52 KCAL/MOL
REMARK 927      BINDING AFFINITY PREDICTED BY RF-SCORE:    0.00 PKD
ROOT
HETATM    1  O   UNL     1      -7.730  15.001  69.208  1.00  0.00    -0.173 OA 
HETATM    2  N   UNL     1      -8.651  14.279  68.803  1.00  0.00    -0.143 N  
HETATM    3  C   UNL     1     -10.003  14.769  69.029  1.00  0.00    -0.218 A  
HETATM    4  O   UNL     1      -8.542  13.141  68.328  1.00  0.00    -0.173 OA 
HETATM    5  C   UNL     1     -10.437  15.980  68.471  1.00  0.00    -0.258 A  
HETATM    6  C   UNL     1     -11.730  16.420  68.783  1.00  0.00    -0.037 A  
HETATM    7  C   UNL     1     -12.904  13.773  71.296  1.00  0.00    -0.357 C  
HETATM    8  C   UNL     1     -12.534  15.699  69.677  1.00  0.00    -0.084 A  
HETATM    9  C   UNL     1     -10.802  14.035  69.920  1.00  0.00     0.152 A  
HETATM   10  F   UNL     1     -13.212  12.510  70.902  1.00  0.00    -0.194 F  
HETATM   11  C   UNL     1     -12.072  14.513  70.270  1.00  0.00    -0.386 A  
HETATM   12  F   UNL     1     -14.085  14.384  71.580  1.00  0.00    -0.420 F  
HETATM   13  F   UNL     1     -12.249  13.650  72.483  1.00  0.00    -0.028 F  
ENDROOT
BRANCH   5  14
HETATM   14  C   UNL     1      -9.582  16.774  67.546  1.00  0.00    -0.240 C  
HETATM   15  O   UNL     1      -9.529  16.414  66.374  1.00  0.00    -0.256 OA 
BRANCH  14  16
HETATM   16  C   UNL     1      -8.832  17.988  68.058  1.00  0.00    -0.278 C  
HETATM   17  C   UNL     1      -8.275  19.962  65.887  1.00  0.00    -0.229 C  
HETATM   18  C   UNL     1      -7.474  18.671  65.983  1.00  0.00    -0.265 C  
HETATM   19  C   UNL     1      -7.480  18.156  67.406  1.00  0.00    -0.212 C  
HETATM   20  O   UNL     1      -6.446  17.799  67.967  1.00  0.00    -0.177 OA 
HETATM   21  C   UNL     1      -9.682  19.821  66.460  1.00  0.00    -0.529 C  
HETATM   22  C   UNL     1      -9.615  19.270  67.870  1.00  0.00    -0.333 C  
HETATM   23  O   UNL     1     -10.182  19.825  68.811  1.00  0.00    -0.449 OA 
ENDBRANCH  14  16
ENDBRANCH   5  14
TORSDOF 2
ENDMDL
MODEL      120
REMARK 921   NORMALIZED FREE ENERGY PREDICTED BY IDOCK:   -4.82 KCAL/MOL
REMARK 922        TOTAL FREE ENERGY PREDICTED BY IDOCK:   -5.74 KCAL/MOL
REMARK 923 INTER-LIGAND FREE ENERGY PREDICTED BY IDOCK:   -5.04 KCAL/MOL
REMARK 924 INTRA-LIGAND FREE ENERGY PREDICTED BY IDOCK:   -0.71 KCAL/MOL
REMARK 927      BINDING AFFINITY PREDICTED BY RF-SCORE:    0.00 PKD
ROOT
HETATM    1  O   UNL     1      -8.910   8.368  68.422  1.00  0.00    -0.139 OA 
HETATM    2  N   UNL     1      -9.012   9.089  69.424  1.00  0.00    -0.142 N  
HETATM    3  C   UNL     1      -9.920   8.624  70.463  1.00  0.00    -0.189 A  
HETATM    4  O   UNL     1      -8.509  10.209  69.582  1.00  0.00    -0.172 OA 
HETATM    5  C   UNL     1      -9.709   7.401  71.116  1.00  0.00    -0.166 A  
HETATM    6  C   UNL     1     -10.657   6.989  72.060  1.00  0.00    -0.237 A  
HETATM    7  C   UNL     1     -13.321   9.734  71.787  1.00  0.00    -0.413 C  
HETATM    8  C   UNL     1     -11.812   7.750  72.293  1.00  0.00    -0.378 A  
HETATM    9  C   UNL     1     -11.068   9.398  70.694  1.00  0.00    -0.351 A  
HETATM   10  F   UNL     1     -13.097  10.986  72.262  1.00  0.00    -0.575 F  
HETATM   11  C   UNL     1     -12.039   8.949  71.598  1.00  0.00    -0.415 A  
HETATM   12  F   UNL     1     -14.194   9.148  72.649  1.00  0.00    -0.481 F  
HETATM   13  F   UNL     1     -13.995   9.888  70.615  1.00  0.00    -0.305 F  
ENDROOT
BRANCH   5  14
HETATM   14  C   UNL     1      -8.504   6.565  70.855  1.00  0.00    -0.134 C  
HETATM   15  O   UNL     1      -8.640   5.587  70.126  1.00  0.00    -0.117 OA 
BRANCH  14  16
HETATM   16  C   UNL     1      -7.168   6.946  71.464  1.00  0.00    -0.079 C  
HETATM   17  C   UNL     1      -6.859   5.888  74.240  1.00  0.00    -0.080 C  
HETATM   18  C   UNL     1      -7.761   7.084  73.963  1.00  0.00    -0.122 C  
HETATM   19  C   UNL     1      -7.316   7.795  72.705  1.00  0.00    -0.086 C  
HETATM   20  O   UNL     1      -7.176   9.016  72.669  1.00  0.00    -0.331 OA 
HETATM   21  C   UNL     1      -6.743   4.954  73.040  1.00  0.00    -0.066 C  
HETATM   22  C   UNL     1      -6.328   5.736  71.811  1.00  0.00    -0.048 C  
HETATM   23  O   UNL     1      -5.369   5.396  71.119  1.00  0.00    -0.008 OA 
ENDBRANCH  14  16
ENDBRANCH   5  14
TORSDOF 2
ENDMDL
MODEL      121
REMARK 921   NORMALIZED FREE ENERGY PREDICTED BY IDOCK:   -4.82 KCAL/MOL
REMARK 922        TOTAL FREE ENERGY PREDICTED BY IDOCK:   -5.74 KCAL/MOL
REMARK 923 INTER-LIGAND FREE ENERGY PREDICTED BY IDOCK:   -5.56 KCAL/MOL
REMARK 924 INTRA-LIGAND FREE ENERGY PREDICTED BY IDOCK:   -0.18 KCAL/MOL
REMARK 927      BINDING AFFINITY PREDICTED BY RF-SCORE:    0.00 PKD
ROOT
HETATM    1  O   UNL     1     -10.876   6.892  66.888  1.00  0.00    -0.351 OA 
HETATM    2  N   UNL     1     -10.083   7.828  67.053  1.00  0.00    -0.245 N  
HETATM    3  C   UNL     1     -10.551   8.933  67.879  1.00  0.00    -0.183 A  
HETATM    4  O   UNL     1      -8.985   7.971  66.501  1.00  0.00    -0.140 OA 
HETATM    5  C   UNL     1     -10.907   8.733  69.220  1.00  0.00    -0.094 A  
HETATM    6  C   UNL     1     -11.408   9.828  69.936  1.00  0.00    -0.238 A  
HETATM    7  C   UNL     1     -11.575  12.551  67.242  1.00  0.00    -0.367 C  
HETATM    8  C   UNL     1     -11.604  11.065  69.305  1.00  0.00    -0.384 A  
HETATM    9  C   UNL     1     -10.736  10.169  67.239  1.00  0.00    -0.316 A  
HETATM   10  F   UNL     1     -10.449  13.131  66.752  1.00  0.00    -0.253 F  
HETATM   11  C   UNL     1     -11.291  11.241  67.948  1.00  0.00    -0.367 A  
HETATM   12  F   UNL     1     -12.168  13.480  68.038  1.00  0.00    -0.378 F  
HETATM   13  F   UNL     1     -12.407  12.381  66.179  1.00  0.00    -0.444 F  
ENDROOT
BRANCH   5  14
HETATM   14  C   UNL     1     -10.736   7.416  69.895  1.00  0.00    -0.243 C  
HETATM   15  O   UNL     1     -11.586   6.556  69.683  1.00  0.00    -0.376 OA 
BRANCH  14  16
HETATM   16  C   UNL     1      -9.535   7.171  70.787  1.00  0.00    -0.164 C  
HETATM   17  C   UNL     1      -7.006   6.908  69.219  1.00  0.00    -0.074 C  
HETATM   18  C   UNL     1      -8.022   5.774  69.246  1.00  0.00    -0.101 C  
HETATM   19  C   UNL     1      -8.859   5.850  70.504  1.00  0.00    -0.144 C  
HETATM   20  O   UNL     1      -9.059   4.861  71.207  1.00  0.00    -0.136 OA 
HETATM   21  C   UNL     1      -7.652   8.275  69.420  1.00  0.00    -0.096 C  
HETATM   22  C   UNL     1      -8.500   8.270  70.675  1.00  0.00    -0.130 C  
HETATM   23  O   UNL     1      -8.368   9.124  71.551  1.00  0.00    -0.336 OA 
ENDBRANCH  14  16
ENDBRANCH   5  14
TORSDOF 2
ENDMDL
MODEL      122
REMARK 921   NORMALIZED FREE ENERGY PREDICTED BY IDOCK:   -4.81 KCAL/MOL
REMARK 922        TOTAL FREE ENERGY PREDICTED BY IDOCK:   -5.74 KCAL/MOL
REMARK 923 INTER-LIGAND FREE ENERGY PREDICTED BY IDOCK:   -5.45 KCAL/MOL
REMARK 924 INTRA-LIGAND FREE ENERGY PREDICTED BY IDOCK:   -0.29 KCAL/MOL
REMARK 927      BINDING AFFINITY PREDICTED BY RF-SCORE:    0.00 PKD
ROOT
HETATM    1  O   UNL     1     -12.355  15.543  65.656  1.00  0.00     0.602 OA 
HETATM    2  N   UNL     1     -11.383  16.267  65.404  1.00  0.00     0.083 N  
HETATM    3  C   UNL     1     -10.558  16.658  66.538  1.00  0.00    -0.203 A  
HETATM    4  O   UNL     1     -11.107  16.777  64.311  1.00  0.00    -1.106 OA 
HETATM    5  C   UNL     1      -9.897  15.699  67.319  1.00  0.00    -0.225 A  
HETATM    6  C   UNL     1      -9.173  16.144  68.432  1.00  0.00    -0.203 A  
HETATM    7  C   UNL     1      -9.935  19.902  68.447  1.00  0.00    -0.415 C  
HETATM    8  C   UNL     1      -9.167  17.501  68.784  1.00  0.00    -0.227 A  
HETATM    9  C   UNL     1     -10.553  18.021  66.878  1.00  0.00    -0.291 A  
HETATM   10  F   UNL     1      -9.403  20.735  67.515  1.00  0.00    -0.499 F  
HETATM   11  C   UNL     1      -9.873  18.448  68.025  1.00  0.00    -0.359 A  
HETATM   12  F   UNL     1      -9.279  20.159  69.609  1.00  0.00    -0.040 F  
HETATM   13  F   UNL     1     -11.217  20.317  68.638  1.00  0.00     0.135 F  
ENDROOT
BRANCH   5  14
HETATM   14  C   UNL     1      -9.922  14.250  66.975  1.00  0.00    -0.258 C  
HETATM   15  O   UNL     1      -8.975  13.803  66.335  1.00  0.00    -0.132 OA 
BRANCH  14  16
HETATM   16  C   UNL     1     -11.078  13.380  67.432  1.00  0.00    -0.297 C  
HETATM   17  C   UNL     1     -10.239  10.550  67.891  1.00  0.00    -0.213 C  
HETATM   18  C   UNL     1     -10.408  11.088  66.476  1.00  0.00    -0.295 C  
HETATM   19  C   UNL     1     -11.373  12.253  66.470  1.00  0.00    -0.351 C  
HETATM   20  O   UNL     1     -12.293  12.325  65.658  1.00  0.00    -0.619 OA 
HETATM   21  C   UNL     1      -9.859  11.640  68.889  1.00  0.00    -0.057 C  
HETATM   22  C   UNL     1     -10.845  12.788  68.805  1.00  0.00    -0.234 C  
HETATM   23  O   UNL     1     -11.414  13.228  69.803  1.00  0.00    -0.243 OA 
ENDBRANCH  14  16
ENDBRANCH   5  14
TORSDOF 2
ENDMDL
MODEL      123
REMARK 921   NORMALIZED FREE ENERGY PREDICTED BY IDOCK:   -4.81 KCAL/MOL
REMARK 922        TOTAL FREE ENERGY PREDICTED BY IDOCK:   -5.74 KCAL/MOL
REMARK 923 INTER-LIGAND FREE ENERGY PREDICTED BY IDOCK:   -5.39 KCAL/MOL
REMARK 924 INTRA-LIGAND FREE ENERGY PREDICTED BY IDOCK:   -0.34 KCAL/MOL
REMARK 927      BINDING AFFINITY PREDICTED BY RF-SCORE:    0.00 PKD
ROOT
HETATM    1  O   UNL     1      -9.980   9.025  71.790  1.00  0.00    -0.325 OA 
HETATM    2  N   UNL     1     -10.972   9.254  71.086  1.00  0.00    -0.309 N  
HETATM    3  C   UNL     1     -10.852   8.920  69.674  1.00  0.00    -0.178 A  
HETATM    4  O   UNL     1     -12.007   9.834  71.436  1.00  0.00    -0.356 OA 
HETATM    5  C   UNL     1     -10.610   7.603  69.258  1.00  0.00    -0.206 A  
HETATM    6  C   UNL     1     -10.444   7.367  67.888  1.00  0.00    -0.265 A  
HETATM    7  C   UNL     1     -10.584  10.911  66.431  1.00  0.00    -0.229 C  
HETATM    8  C   UNL     1     -10.456   8.430  66.973  1.00  0.00    -0.375 A  
HETATM    9  C   UNL     1     -10.874   9.991  68.766  1.00  0.00    -0.252 A  
HETATM   10  F   UNL     1     -11.749  11.607  66.375  1.00  0.00    -0.378 F  
HETATM   11  C   UNL     1     -10.649   9.752  67.404  1.00  0.00    -0.330 A  
HETATM   12  F   UNL     1     -10.301  10.535  65.156  1.00  0.00    -0.351 F  
HETATM   13  F   UNL     1      -9.623  11.809  66.780  1.00  0.00    -0.186 F  
ENDROOT
BRANCH   5  14
HETATM   14  C   UNL     1     -10.562   6.468  70.222  1.00  0.00    -0.228 C  
HETATM   15  O   UNL     1     -11.537   6.300  70.948  1.00  0.00    -0.331 OA 
BRANCH  14  16
HETATM   16  C   UNL     1      -9.347   5.561  70.267  1.00  0.00    -0.194 C  
HETATM   17  C   UNL     1      -8.352   5.156  73.054  1.00  0.00    -0.112 C  
HETATM   18  C   UNL     1      -8.100   6.469  72.325  1.00  0.00    -0.106 C  
HETATM   19  C   UNL     1      -8.126   6.251  70.828  1.00  0.00    -0.120 C  
HETATM   20  O   UNL     1      -7.246   6.698  70.095  1.00  0.00    -0.075 OA 
HETATM   21  C   UNL     1      -9.623   4.459  72.579  1.00  0.00    -0.190 C  
HETATM   22  C   UNL     1      -9.598   4.304  71.072  1.00  0.00    -0.183 C  
HETATM   23  O   UNL     1      -9.789   3.217  70.529  1.00  0.00    -0.111 OA 
ENDBRANCH  14  16
ENDBRANCH   5  14
TORSDOF 2
ENDMDL
MODEL      124
REMARK 921   NORMALIZED FREE ENERGY PREDICTED BY IDOCK:   -4.81 KCAL/MOL
REMARK 922        TOTAL FREE ENERGY PREDICTED BY IDOCK:   -5.73 KCAL/MOL
REMARK 923 INTER-LIGAND FREE ENERGY PREDICTED BY IDOCK:   -5.52 KCAL/MOL
REMARK 924 INTRA-LIGAND FREE ENERGY PREDICTED BY IDOCK:   -0.21 KCAL/MOL
REMARK 927      BINDING AFFINITY PREDICTED BY RF-SCORE:    0.00 PKD
ROOT
HETATM    1  O   UNL     1      -8.083  14.694  69.312  1.00  0.00    -0.123 OA 
HETATM    2  N   UNL     1      -9.200  15.227  69.348  1.00  0.00    -0.250 N  
HETATM    3  C   UNL     1      -9.758  15.643  68.069  1.00  0.00    -0.204 A  
HETATM    4  O   UNL     1      -9.837  15.538  70.362  1.00  0.00    -0.057 OA 
HETATM    5  C   UNL     1     -10.011  14.712  67.051  1.00  0.00    -0.246 A  
HETATM    6  C   UNL     1     -10.489  15.193  65.826  1.00  0.00    -0.355 A  
HETATM    7  C   UNL     1     -10.432  18.989  66.365  1.00  0.00    -0.446 C  
HETATM    8  C   UNL     1     -10.645  16.570  65.610  1.00  0.00    -0.317 A  
HETATM    9  C   UNL     1      -9.917  17.023  67.866  1.00  0.00    -0.281 A  
HETATM   10  F   UNL     1     -11.327  19.601  67.183  1.00  0.00    -0.523 F  
HETATM   11  C   UNL     1     -10.341  17.498  66.619  1.00  0.00    -0.319 A  
HETATM   12  F   UNL     1     -10.799  19.303  65.094  1.00  0.00    -0.456 F  
HETATM   13  F   UNL     1      -9.239  19.610  66.577  1.00  0.00    -0.328 F  
ENDROOT
BRANCH   5  14
HETATM   14  C   UNL     1      -9.819  13.249  67.255  1.00  0.00    -0.233 C  
HETATM   15  O   UNL     1     -10.586  12.679  68.025  1.00  0.00    -0.210 OA 
BRANCH  14  16
HETATM   16  C   UNL     1      -8.721  12.516  66.509  1.00  0.00    -0.035 C  
HETATM   17  C   UNL     1      -7.881  10.019  67.917  1.00  0.00    -0.090 C  
HETATM   18  C   UNL     1      -7.452  11.385  68.439  1.00  0.00    -0.111 C  
HETATM   19  C   UNL     1      -7.449  12.397  67.315  1.00  0.00    -0.135 C  
HETATM   20  O   UNL     1      -6.497  13.152  67.130  1.00  0.00    -0.227 OA 
HETATM   21  C   UNL     1      -9.206  10.072  67.164  1.00  0.00    -0.161 C  
HETATM   22  C   UNL     1      -9.145  11.128  66.079  1.00  0.00    -0.203 C  
HETATM   23  O   UNL     1      -9.441  10.876  64.911  1.00  0.00    -0.211 OA 
ENDBRANCH  14  16
ENDBRANCH   5  14
TORSDOF 2
ENDMDL
MODEL      125
REMARK 921   NORMALIZED FREE ENERGY PREDICTED BY IDOCK:   -4.80 KCAL/MOL
REMARK 922        TOTAL FREE ENERGY PREDICTED BY IDOCK:   -5.73 KCAL/MOL
REMARK 923 INTER-LIGAND FREE ENERGY PREDICTED BY IDOCK:   -4.94 KCAL/MOL
REMARK 924 INTRA-LIGAND FREE ENERGY PREDICTED BY IDOCK:   -0.79 KCAL/MOL
REMARK 927      BINDING AFFINITY PREDICTED BY RF-SCORE:    0.00 PKD
ROOT
HETATM    1  O   UNL     1      -8.104   9.413  70.945  1.00  0.00    -0.256 OA 
HETATM    2  N   UNL     1      -9.313   9.412  70.678  1.00  0.00    -0.260 N  
HETATM    3  C   UNL     1      -9.666   9.655  69.286  1.00  0.00    -0.185 A  
HETATM    4  O   UNL     1     -10.247   9.337  71.486  1.00  0.00    -0.330 OA 
HETATM    5  C   UNL     1      -9.235   8.792  68.269  1.00  0.00    -0.143 A  
HETATM    6  C   UNL     1      -9.560   9.122  66.947  1.00  0.00    -0.233 A  
HETATM    7  C   UNL     1     -11.288  12.520  67.360  1.00  0.00    -0.313 C  
HETATM    8  C   UNL     1     -10.240  10.313  66.654  1.00  0.00    -0.294 A  
HETATM    9  C   UNL     1     -10.354  10.846  69.006  1.00  0.00    -0.230 A  
HETATM   10  F   UNL     1     -12.529  12.621  67.903  1.00  0.00    -0.212 F  
HETATM   11  C   UNL     1     -10.624  11.195  67.676  1.00  0.00    -0.250 A  
HETATM   12  F   UNL     1     -11.433  12.751  66.028  1.00  0.00    -0.316 F  
HETATM   13  F   UNL     1     -10.574  13.571  67.849  1.00  0.00    -0.232 F  
ENDROOT
BRANCH   5  14
HETATM   14  C   UNL     1      -8.483   7.540  68.562  1.00  0.00    -0.129 C  
HETATM   15  O   UNL     1      -7.280   7.531  68.315  1.00  0.00    -0.088 OA 
BRANCH  14  16
HETATM   16  C   UNL     1      -9.200   6.346  69.161  1.00  0.00    -0.133 C  
HETATM   17  C   UNL     1      -9.759   4.235  67.122  1.00  0.00    -0.232 C  
HETATM   18  C   UNL     1     -10.583   5.515  67.157  1.00  0.00    -0.313 C  
HETATM   19  C   UNL     1     -10.560   6.115  68.546  1.00  0.00    -0.271 C  
HETATM   20  O   UNL     1     -11.590   6.486  69.105  1.00  0.00    -0.276 OA 
HETATM   21  C   UNL     1      -8.345   4.435  67.659  1.00  0.00    -0.099 C  
HETATM   22  C   UNL     1      -8.396   5.069  69.034  1.00  0.00    -0.086 C  
HETATM   23  O   UNL     1      -7.801   4.582  69.995  1.00  0.00    -0.056 OA 
ENDBRANCH  14  16
ENDBRANCH   5  14
TORSDOF 2
ENDMDL
MODEL      126
REMARK 921   NORMALIZED FREE ENERGY PREDICTED BY IDOCK:   -4.80 KCAL/MOL
REMARK 922        TOTAL FREE ENERGY PREDICTED BY IDOCK:   -5.72 KCAL/MOL
REMARK 923 INTER-LIGAND FREE ENERGY PREDICTED BY IDOCK:   -5.19 KCAL/MOL
REMARK 924 INTRA-LIGAND FREE ENERGY PREDICTED BY IDOCK:   -0.53 KCAL/MOL
REMARK 927      BINDING AFFINITY PREDICTED BY RF-SCORE:    0.00 PKD
ROOT
HETATM    1  O   UNL     1     -10.386   7.775  66.485  1.00  0.00    -0.234 OA 
HETATM    2  N   UNL     1      -9.799   8.792  66.092  1.00  0.00    -0.261 N  
HETATM    3  C   UNL     1     -10.259  10.058  66.645  1.00  0.00    -0.223 A  
HETATM    4  O   UNL     1      -8.942   8.851  65.201  1.00  0.00    -0.197 OA 
HETATM    5  C   UNL     1     -10.198  10.311  68.023  1.00  0.00    -0.200 A  
HETATM    6  C   UNL     1     -10.715  11.525  68.491  1.00  0.00    -0.242 A  
HETATM    7  C   UNL     1     -12.167  13.073  65.298  1.00  0.00    -0.466 C  
HETATM    8  C   UNL     1     -11.332  12.426  67.610  1.00  0.00    -0.371 A  
HETATM    9  C   UNL     1     -10.867  10.956  65.753  1.00  0.00    -0.120 A  
HETATM   10  F   UNL     1     -11.362  13.562  64.319  1.00  0.00    -0.359 F  
HETATM   11  C   UNL     1     -11.433  12.141  66.240  1.00  0.00    -0.433 A  
HETATM   12  F   UNL     1     -12.715  14.152  65.918  1.00  0.00    -0.479 F  
HETATM   13  F   UNL     1     -13.194  12.442  64.664  1.00  0.00    -0.503 F  
ENDROOT
BRANCH   5  14
HETATM   14  C   UNL     1      -9.575   9.348  68.975  1.00  0.00    -0.164 C  
HETATM   15  O   UNL     1     -10.267   8.945  69.905  1.00  0.00    -0.189 OA 
BRANCH  14  16
HETATM   16  C   UNL     1      -8.146   8.888  68.764  1.00  0.00    -0.114 C  
HETATM   17  C   UNL     1      -6.365   9.685  71.026  1.00  0.00    -0.063 C  
HETATM   18  C   UNL     1      -6.827  10.715  70.004  1.00  0.00    -0.150 C  
HETATM   19  C   UNL     1      -7.168  10.038  68.695  1.00  0.00    -0.080 C  
HETATM   20  O   UNL     1      -6.749  10.462  67.620  1.00  0.00    -0.072 OA 
HETATM   21  C   UNL     1      -7.361   8.541  71.193  1.00  0.00    -0.080 C  
HETATM   22  C   UNL     1      -7.684   7.933  69.843  1.00  0.00    -0.098 C  
HETATM   23  O   UNL     1      -7.593   6.723  69.639  1.00  0.00    -0.096 OA 
ENDBRANCH  14  16
ENDBRANCH   5  14
TORSDOF 2
ENDMDL
MODEL      127
REMARK 921   NORMALIZED FREE ENERGY PREDICTED BY IDOCK:   -4.79 KCAL/MOL
REMARK 922        TOTAL FREE ENERGY PREDICTED BY IDOCK:   -5.71 KCAL/MOL
REMARK 923 INTER-LIGAND FREE ENERGY PREDICTED BY IDOCK:   -5.49 KCAL/MOL
REMARK 924 INTRA-LIGAND FREE ENERGY PREDICTED BY IDOCK:   -0.22 KCAL/MOL
REMARK 927      BINDING AFFINITY PREDICTED BY RF-SCORE:    0.00 PKD
ROOT
HETATM    1  O   UNL     1      -8.673   6.392  70.694  1.00  0.00    -0.141 OA 
HETATM    2  N   UNL     1      -9.769   6.534  70.136  1.00  0.00    -0.166 N  
HETATM    3  C   UNL     1     -10.333   7.876  70.153  1.00  0.00    -0.215 A  
HETATM    4  O   UNL     1     -10.479   5.636  69.666  1.00  0.00    -0.249 OA 
HETATM    5  C   UNL     1      -9.661   8.951  69.553  1.00  0.00    -0.173 A  
HETATM    6  C   UNL     1     -10.233  10.225  69.662  1.00  0.00    -0.268 A  
HETATM    7  C   UNL     1     -13.267   9.563  71.912  1.00  0.00    -0.439 C  
HETATM    8  C   UNL     1     -11.407  10.420  70.405  1.00  0.00    -0.417 A  
HETATM    9  C   UNL     1     -11.512   8.059  70.892  1.00  0.00    -0.291 A  
HETATM   10  F   UNL     1     -14.356   8.894  71.452  1.00  0.00    -0.431 F  
HETATM   11  C   UNL     1     -12.045   9.346  71.044  1.00  0.00    -0.373 A  
HETATM   12  F   UNL     1     -13.635  10.868  72.015  1.00  0.00    -0.452 F  
HETATM   13  F   UNL     1     -13.065   9.128  73.185  1.00  0.00    -0.359 F  
ENDROOT
BRANCH   5  14
HETATM   14  C   UNL     1      -8.396   8.764  68.789  1.00  0.00    -0.124 C  
HETATM   15  O   UNL     1      -7.360   8.633  69.434  1.00  0.00    -0.069 OA 
BRANCH  14  16
HETATM   16  C   UNL     1      -8.423   8.721  67.274  1.00  0.00    -0.111 C  
HETATM   17  C   UNL     1      -9.718   6.234  66.245  1.00  0.00    -0.090 C  
HETATM   18  C   UNL     1      -8.310   6.191  66.827  1.00  0.00    -0.110 C  
HETATM   19  C   UNL     1      -7.655   7.549  66.711  1.00  0.00    -0.101 C  
HETATM   20  O   UNL     1      -6.514   7.680  66.271  1.00  0.00    -0.047 OA 
HETATM   21  C   UNL     1     -10.563   7.353  66.843  1.00  0.00    -0.375 C  
HETATM   22  C   UNL     1      -9.833   8.676  66.725  1.00  0.00    -0.253 C  
HETATM   23  O   UNL     1     -10.364   9.667  66.224  1.00  0.00    -0.239 OA 
ENDBRANCH  14  16
ENDBRANCH   5  14
TORSDOF 2
ENDMDL
MODEL      128
REMARK 921   NORMALIZED FREE ENERGY PREDICTED BY IDOCK:   -4.79 KCAL/MOL
REMARK 922        TOTAL FREE ENERGY PREDICTED BY IDOCK:   -5.71 KCAL/MOL
REMARK 923 INTER-LIGAND FREE ENERGY PREDICTED BY IDOCK:   -5.37 KCAL/MOL
REMARK 924 INTRA-LIGAND FREE ENERGY PREDICTED BY IDOCK:   -0.34 KCAL/MOL
REMARK 927      BINDING AFFINITY PREDICTED BY RF-SCORE:    0.00 PKD
ROOT
HETATM    1  O   UNL     1     -10.311  14.327  65.110  1.00  0.00    -0.371 OA 
HETATM    2  N   UNL     1     -10.919  13.252  65.198  1.00  0.00    -0.290 N  
HETATM    3  C   UNL     1     -10.436  12.318  66.205  1.00  0.00    -0.238 A  
HETATM    4  O   UNL     1     -11.819  12.849  64.450  1.00  0.00    -0.342 OA 
HETATM    5  C   UNL     1     -10.429  12.658  67.566  1.00  0.00    -0.229 A  
HETATM    6  C   UNL     1      -9.892  11.734  68.471  1.00  0.00    -0.192 A  
HETATM    7  C   UNL     1      -8.602   8.974  66.143  1.00  0.00    -0.135 C  
HETATM    8  C   UNL     1      -9.321  10.536  68.015  1.00  0.00    -0.150 A  
HETATM    9  C   UNL     1      -9.874  11.118  65.739  1.00  0.00    -0.279 A  
HETATM   10  F   UNL     1      -9.455   8.142  65.491  1.00  0.00    -0.137 F  
HETATM   11  C   UNL     1      -9.287  10.227  66.647  1.00  0.00    -0.192 A  
HETATM   12  F   UNL     1      -8.027   8.235  67.129  1.00  0.00    -0.099 F  
HETATM   13  F   UNL     1      -7.607   9.263  65.261  1.00  0.00    -0.093 F  
ENDROOT
BRANCH   5  14
HETATM   14  C   UNL     1     -11.002  13.941  68.060  1.00  0.00    -0.251 C  
HETATM   15  O   UNL     1     -12.134  14.237  67.689  1.00  0.00    -0.376 OA 
BRANCH  14  16
HETATM   16  C   UNL     1     -10.201  14.817  69.003  1.00  0.00    -0.237 C  
HETATM   17  C   UNL     1      -9.483  17.438  67.763  1.00  0.00    -0.261 C  
HETATM   18  C   UNL     1      -8.756  16.163  67.356  1.00  0.00    -0.194 C  
HETATM   19  C   UNL     1      -8.826  15.141  68.469  1.00  0.00    -0.185 C  
HETATM   20  O   UNL     1      -7.827  14.535  68.852  1.00  0.00    -0.138 OA 
HETATM   21  C   UNL     1     -10.909  17.171  68.234  1.00  0.00    -0.314 C  
HETATM   22  C   UNL     1     -10.908  16.117  69.322  1.00  0.00    -0.310 C  
HETATM   23  O   UNL     1     -11.468  16.299  70.402  1.00  0.00    -0.355 OA 
ENDBRANCH  14  16
ENDBRANCH   5  14
TORSDOF 2
ENDMDL
MODEL      129
REMARK 921   NORMALIZED FREE ENERGY PREDICTED BY IDOCK:   -4.76 KCAL/MOL
REMARK 922        TOTAL FREE ENERGY PREDICTED BY IDOCK:   -5.68 KCAL/MOL
REMARK 923 INTER-LIGAND FREE ENERGY PREDICTED BY IDOCK:   -5.18 KCAL/MOL
REMARK 924 INTRA-LIGAND FREE ENERGY PREDICTED BY IDOCK:   -0.50 KCAL/MOL
REMARK 927      BINDING AFFINITY PREDICTED BY RF-SCORE:    0.00 PKD
ROOT
HETATM    1  O   UNL     1     -12.367   7.680  70.999  1.00  0.00    -0.290 OA 
HETATM    2  N   UNL     1     -11.308   7.464  71.603  1.00  0.00    -0.251 N  
HETATM    3  C   UNL     1     -10.672   6.179  71.351  1.00  0.00    -0.255 A  
HETATM    4  O   UNL     1     -10.797   8.178  72.475  1.00  0.00    -0.314 OA 
HETATM    5  C   UNL     1     -10.246   5.821  70.064  1.00  0.00    -0.304 A  
HETATM    6  C   UNL     1      -9.699   4.544  69.885  1.00  0.00    -0.288 A  
HETATM    7  C   UNL     1     -10.134   2.980  73.358  1.00  0.00    -0.118 C  
HETATM    8  C   UNL     1      -9.644   3.634  70.951  1.00  0.00    -0.250 A  
HETATM    9  C   UNL     1     -10.614   5.279  72.427  1.00  0.00    -0.280 A  
HETATM   10  F   UNL     1      -9.375   3.376  74.413  1.00  0.00    -0.098 F  
HETATM   11  C   UNL     1     -10.119   3.984  72.224  1.00  0.00    -0.240 A  
HETATM   12  F   UNL     1      -9.680   1.750  73.001  1.00  0.00    -0.094 F  
HETATM   13  F   UNL     1     -11.391   2.790  73.847  1.00  0.00    -0.275 F  
ENDROOT
BRANCH   5  14
HETATM   14  C   UNL     1     -10.329   6.765  68.915  1.00  0.00    -0.192 C  
HETATM   15  O   UNL     1     -11.234   6.591  68.103  1.00  0.00    -0.275 OA 
BRANCH  14  16
HETATM   16  C   UNL     1      -9.331   7.900  68.790  1.00  0.00    -0.146 C  
HETATM   17  C   UNL     1      -9.843   9.582  66.375  1.00  0.00    -0.320 C  
HETATM   18  C   UNL     1      -9.210   8.203  66.239  1.00  0.00    -0.245 C  
HETATM   19  C   UNL     1      -8.512   7.818  67.524  1.00  0.00    -0.120 C  
HETATM   20  O   UNL     1      -7.368   7.368  67.526  1.00  0.00    -0.096 OA 
HETATM   21  C   UNL     1     -10.748   9.692  67.598  1.00  0.00    -0.324 C  
HETATM   22  C   UNL     1      -9.997   9.259  68.841  1.00  0.00    -0.181 C  
HETATM   23  O   UNL     1      -9.944   9.967  69.846  1.00  0.00    -0.230 OA 
ENDBRANCH  14  16
ENDBRANCH   5  14
TORSDOF 2
ENDMDL
MODEL      130
REMARK 921   NORMALIZED FREE ENERGY PREDICTED BY IDOCK:   -4.76 KCAL/MOL
REMARK 922        TOTAL FREE ENERGY PREDICTED BY IDOCK:   -5.68 KCAL/MOL
REMARK 923 INTER-LIGAND FREE ENERGY PREDICTED BY IDOCK:   -5.32 KCAL/MOL
REMARK 924 INTRA-LIGAND FREE ENERGY PREDICTED BY IDOCK:   -0.36 KCAL/MOL
REMARK 927      BINDING AFFINITY PREDICTED BY RF-SCORE:    0.00 PKD
ROOT
HETATM    1  O   UNL     1     -10.813   9.069  67.757  1.00  0.00    -0.194 OA 
HETATM    2  N   UNL     1     -10.329   9.735  68.682  1.00  0.00    -0.193 N  
HETATM    3  C   UNL     1     -11.125   9.823  69.898  1.00  0.00    -0.254 A  
HETATM    4  O   UNL     1      -9.298  10.418  68.639  1.00  0.00    -0.152 OA 
HETATM    5  C   UNL     1     -11.459   8.674  70.630  1.00  0.00    -0.256 A  
HETATM    6  C   UNL     1     -12.279   8.828  71.755  1.00  0.00    -0.415 A  
HETATM    7  C   UNL     1     -13.121  12.566  71.640  1.00  0.00    -0.315 C  
HETATM    8  C   UNL     1     -12.799  10.085  72.094  1.00  0.00    -0.414 A  
HETATM    9  C   UNL     1     -11.633  11.088  70.233  1.00  0.00    -0.414 A  
HETATM   10  F   UNL     1     -12.192  13.511  71.940  1.00  0.00    -0.243 F  
HETATM   11  C   UNL     1     -12.499  11.221  71.326  1.00  0.00    -0.441 A  
HETATM   12  F   UNL     1     -13.985  12.534  72.690  1.00  0.00    -0.520 F  
HETATM   13  F   UNL     1     -13.830  13.054  70.585  1.00  0.00     0.494 F  
ENDROOT
BRANCH   5  14
HETATM   14  C   UNL     1     -10.941   7.327  70.263  1.00  0.00    -0.260 C  
HETATM   15  O   UNL     1     -11.683   6.590  69.620  1.00  0.00    -0.357 OA 
BRANCH  14  16
HETATM   16  C   UNL     1      -9.537   6.916  70.665  1.00  0.00    -0.171 C  
HETATM   17  C   UNL     1      -9.161   6.963  73.628  1.00  0.00    -0.182 C  
HETATM   18  C   UNL     1      -9.207   8.261  72.832  1.00  0.00    -0.329 C  
HETATM   19  C   UNL     1      -8.798   8.011  71.397  1.00  0.00    -0.141 C  
HETATM   20  O   UNL     1      -7.977   8.726  70.827  1.00  0.00    -0.098 OA 
HETATM   21  C   UNL     1      -9.963   5.845  72.969  1.00  0.00    -0.188 C  
HETATM   22  C   UNL     1      -9.527   5.673  71.528  1.00  0.00    -0.150 C  
HETATM   23  O   UNL     1      -9.198   4.576  71.077  1.00  0.00    -0.126 OA 
ENDBRANCH  14  16
ENDBRANCH   5  14
TORSDOF 2
ENDMDL
MODEL      131
REMARK 921   NORMALIZED FREE ENERGY PREDICTED BY IDOCK:   -4.76 KCAL/MOL
REMARK 922        TOTAL FREE ENERGY PREDICTED BY IDOCK:   -5.68 KCAL/MOL
REMARK 923 INTER-LIGAND FREE ENERGY PREDICTED BY IDOCK:   -5.50 KCAL/MOL
REMARK 924 INTRA-LIGAND FREE ENERGY PREDICTED BY IDOCK:   -0.17 KCAL/MOL
REMARK 927      BINDING AFFINITY PREDICTED BY RF-SCORE:    0.00 PKD
ROOT
HETATM    1  O   UNL     1      -7.530  15.179  68.437  1.00  0.00    -0.109 OA 
HETATM    2  N   UNL     1      -7.414  16.350  68.821  1.00  0.00    -0.194 N  
HETATM    3  C   UNL     1      -8.016  17.369  67.973  1.00  0.00    -0.224 A  
HETATM    4  O   UNL     1      -6.748  16.748  69.785  1.00  0.00    -0.174 OA 
HETATM    5  C   UNL     1      -9.395  17.377  67.719  1.00  0.00    -0.255 A  
HETATM    6  C   UNL     1      -9.896  18.350  66.845  1.00  0.00    -0.347 A  
HETATM    7  C   UNL     1      -6.697  20.105  65.665  1.00  0.00    -0.266 C  
HETATM    8  C   UNL     1      -9.030  19.243  66.198  1.00  0.00    -0.270 A  
HETATM    9  C   UNL     1      -7.141  18.264  67.337  1.00  0.00    -0.207 A  
HETATM   10  F   UNL     1      -5.992  20.921  66.491  1.00  0.00    -0.213 F  
HETATM   11  C   UNL     1      -7.645  19.195  66.421  1.00  0.00    -0.276 A  
HETATM   12  F   UNL     1      -7.320  20.914  64.768  1.00  0.00    -0.097 F  
HETATM   13  F   UNL     1      -5.776  19.396  64.957  1.00  0.00    -0.185 F  
ENDROOT
BRANCH   5  14
HETATM   14  C   UNL     1     -10.324  16.414  68.373  1.00  0.00    -0.282 C  
HETATM   15  O   UNL     1     -10.356  16.402  69.601  1.00  0.00    -0.279 OA 
BRANCH  14  16
HETATM   16  C   UNL     1     -11.198  15.507  67.528  1.00  0.00    -0.272 C  
HETATM   17  C   UNL     1      -9.744  13.052  66.644  1.00  0.00    -0.256 C  
HETATM   18  C   UNL     1      -9.459  14.399  65.991  1.00  0.00    -0.239 C  
HETATM   19  C   UNL     1     -10.656  15.313  66.132  1.00  0.00    -0.313 C  
HETATM   20  O   UNL     1     -11.103  15.942  65.175  1.00  0.00    -0.363 OA 
HETATM   21  C   UNL     1     -10.218  13.191  68.087  1.00  0.00    -0.239 C  
HETATM   22  C   UNL     1     -11.393  14.145  68.159  1.00  0.00    -0.290 C  
HETATM   23  O   UNL     1     -12.446  13.836  68.715  1.00  0.00    -0.151 OA 
ENDBRANCH  14  16
ENDBRANCH   5  14
TORSDOF 2
ENDMDL
MODEL      132
REMARK 921   NORMALIZED FREE ENERGY PREDICTED BY IDOCK:   -4.75 KCAL/MOL
REMARK 922        TOTAL FREE ENERGY PREDICTED BY IDOCK:   -5.67 KCAL/MOL
REMARK 923 INTER-LIGAND FREE ENERGY PREDICTED BY IDOCK:   -5.30 KCAL/MOL
REMARK 924 INTRA-LIGAND FREE ENERGY PREDICTED BY IDOCK:   -0.37 KCAL/MOL
REMARK 927      BINDING AFFINITY PREDICTED BY RF-SCORE:    0.00 PKD
ROOT
HETATM    1  O   UNL     1      -8.000   7.349  72.018  1.00  0.00    -0.091 OA 
HETATM    2  N   UNL     1      -8.798   7.878  72.802  1.00  0.00    -0.168 N  
HETATM    3  C   UNL     1     -10.211   7.730  72.483  1.00  0.00    -0.260 A  
HETATM    4  O   UNL     1      -8.516   8.608  73.761  1.00  0.00    -0.333 OA 
HETATM    5  C   UNL     1     -10.809   6.463  72.413  1.00  0.00    -0.267 A  
HETATM    6  C   UNL     1     -12.156   6.394  72.039  1.00  0.00    -0.353 A  
HETATM    7  C   UNL     1     -12.972  10.057  71.253  1.00  0.00    -0.400 C  
HETATM    8  C   UNL     1     -12.861   7.554  71.685  1.00  0.00    -0.392 A  
HETATM    9  C   UNL     1     -10.909   8.899  72.138  1.00  0.00    -0.339 A  
HETATM   10  F   UNL     1     -13.085  10.984  72.239  1.00  0.00    -0.575 F  
HETATM   11  C   UNL     1     -12.240   8.812  71.710  1.00  0.00    -0.415 A  
HETATM   12  F   UNL     1     -14.234   9.813  70.810  1.00  0.00    -0.217 F  
HETATM   13  F   UNL     1     -12.325  10.674  70.227  1.00  0.00    -0.325 F  
ENDROOT
BRANCH   5  14
HETATM   14  C   UNL     1     -10.063   5.220  72.754  1.00  0.00    -0.168 C  
HETATM   15  O   UNL     1      -9.587   5.136  73.882  1.00  0.00    -0.131 OA 
BRANCH  14  16
HETATM   16  C   UNL     1      -9.932   4.108  71.731  1.00  0.00    -0.246 C  
HETATM   17  C   UNL     1      -7.333   2.658  71.978  1.00  0.00    -0.043 C  
HETATM   18  C   UNL     1      -7.388   4.047  71.357  1.00  0.00    -0.044 C  
HETATM   19  C   UNL     1      -8.766   4.314  70.793  1.00  0.00    -0.087 C  
HETATM   20  O   UNL     1      -8.923   4.770  69.662  1.00  0.00    -0.087 OA 
HETATM   21  C   UNL     1      -8.445   2.427  72.996  1.00  0.00    -0.070 C  
HETATM   22  C   UNL     1      -9.790   2.746  72.376  1.00  0.00    -0.157 C  
HETATM   23  O   UNL     1     -10.725   1.947  72.411  1.00  0.00    -0.132 OA 
ENDBRANCH  14  16
ENDBRANCH   5  14
TORSDOF 2
ENDMDL
MODEL      133
REMARK 921   NORMALIZED FREE ENERGY PREDICTED BY IDOCK:   -4.75 KCAL/MOL
REMARK 922        TOTAL FREE ENERGY PREDICTED BY IDOCK:   -5.66 KCAL/MOL
REMARK 923 INTER-LIGAND FREE ENERGY PREDICTED BY IDOCK:   -5.09 KCAL/MOL
REMARK 924 INTRA-LIGAND FREE ENERGY PREDICTED BY IDOCK:   -0.57 KCAL/MOL
REMARK 927      BINDING AFFINITY PREDICTED BY RF-SCORE:    0.00 PKD
ROOT
HETATM    1  O   UNL     1      -8.516  11.922  68.550  1.00  0.00    -0.159 OA 
HETATM    2  N   UNL     1      -7.870  11.242  67.742  1.00  0.00    -0.111 N  
HETATM    3  C   UNL     1      -8.471   9.979  67.336  1.00  0.00    -0.121 A  
HETATM    4  O   UNL     1      -6.726  11.473  67.332  1.00  0.00    -0.082 OA 
HETATM    5  C   UNL     1      -9.711   9.944  66.682  1.00  0.00    -0.252 A  
HETATM    6  C   UNL     1     -10.257   8.691  66.377  1.00  0.00    -0.224 A  
HETATM    7  C   UNL     1      -7.725   6.293  67.972  1.00  0.00    -0.103 C  
HETATM    8  C   UNL     1      -9.608   7.513  66.774  1.00  0.00    -0.265 A  
HETATM    9  C   UNL     1      -7.808   8.806  67.730  1.00  0.00    -0.102 A  
HETATM   10  F   UNL     1      -6.491   6.109  67.436  1.00  0.00    -0.039 F  
HETATM   11  C   UNL     1      -8.391   7.559  67.472  1.00  0.00    -0.117 A  
HETATM   12  F   UNL     1      -8.432   5.164  67.700  1.00  0.00    -0.105 F  
HETATM   13  F   UNL     1      -7.553   6.313  69.321  1.00  0.00    -0.088 F  
ENDROOT
BRANCH   5  14
HETATM   14  C   UNL     1     -10.429  11.188  66.284  1.00  0.00    -0.259 C  
HETATM   15  O   UNL     1     -11.431  11.493  66.924  1.00  0.00    -0.441 OA 
BRANCH  14  16
HETATM   16  C   UNL     1      -9.905  12.034  65.141  1.00  0.00    -0.223 C  
HETATM   17  C   UNL     1     -12.092  12.933  63.316  1.00  0.00    -0.520 C  
HETATM   18  C   UNL     1     -11.595  11.493  63.280  1.00  0.00    -0.142 C  
HETATM   19  C   UNL     1     -10.173  11.417  63.789  1.00  0.00    -0.382 C  
HETATM   20  O   UNL     1      -9.302  10.799  63.180  1.00  0.00    -0.251 OA 
HETATM   21  C   UNL     1     -11.917  13.577  64.687  1.00  0.00    -0.438 C  
HETATM   22  C   UNL     1     -10.482  13.434  65.149  1.00  0.00    -0.347 C  
HETATM   23  O   UNL     1      -9.823  14.401  65.529  1.00  0.00    -0.324 OA 
ENDBRANCH  14  16
ENDBRANCH   5  14
TORSDOF 2
ENDMDL
MODEL      134
REMARK 921   NORMALIZED FREE ENERGY PREDICTED BY IDOCK:   -4.74 KCAL/MOL
REMARK 922        TOTAL FREE ENERGY PREDICTED BY IDOCK:   -5.66 KCAL/MOL
REMARK 923 INTER-LIGAND FREE ENERGY PREDICTED BY IDOCK:   -5.20 KCAL/MOL
REMARK 924 INTRA-LIGAND FREE ENERGY PREDICTED BY IDOCK:   -0.46 KCAL/MOL
REMARK 927      BINDING AFFINITY PREDICTED BY RF-SCORE:    0.00 PKD
ROOT
HETATM    1  O   UNL     1      -7.587   8.095  71.539  1.00  0.00    -0.069 OA 
HETATM    2  N   UNL     1      -8.462   8.205  72.408  1.00  0.00    -0.163 N  
HETATM    3  C   UNL     1      -9.809   7.811  72.022  1.00  0.00    -0.174 A  
HETATM    4  O   UNL     1      -8.329   8.717  73.527  1.00  0.00    -0.393 OA 
HETATM    5  C   UNL     1     -10.092   6.498  71.618  1.00  0.00    -0.202 A  
HETATM    6  C   UNL     1     -11.397   6.206  71.201  1.00  0.00    -0.340 A  
HETATM    7  C   UNL     1     -13.082   9.647  71.341  1.00  0.00    -0.385 C  
HETATM    8  C   UNL     1     -12.367   7.216  71.131  1.00  0.00    -0.404 A  
HETATM    9  C   UNL     1     -10.775   8.828  71.963  1.00  0.00    -0.417 A  
HETATM   10  F   UNL     1     -13.379  10.242  72.525  1.00  0.00    -0.455 F  
HETATM   11  C   UNL     1     -12.061   8.538  71.490  1.00  0.00    -0.351 A  
HETATM   12  F   UNL     1     -14.265   9.230  70.815  1.00  0.00    -0.269 F  
HETATM   13  F   UNL     1     -12.635  10.638  70.521  1.00  0.00    -0.353 F  
ENDROOT
BRANCH   5  14
HETATM   14  C   UNL     1      -9.062   5.422  71.656  1.00  0.00    -0.139 C  
HETATM   15  O   UNL     1      -9.005   4.728  72.667  1.00  0.00    -0.123 OA 
BRANCH  14  16
HETATM   16  C   UNL     1      -8.148   5.204  70.466  1.00  0.00    -0.095 C  
HETATM   17  C   UNL     1      -9.298   3.263  68.508  1.00  0.00    -0.237 C  
HETATM   18  C   UNL     1      -8.706   2.777  69.825  1.00  0.00    -0.130 C  
HETATM   19  C   UNL     1      -7.689   3.770  70.340  1.00  0.00    -0.047 C  
HETATM   20  O   UNL     1      -6.579   3.414  70.730  1.00  0.00    -0.030 OA 
HETATM   21  C   UNL     1      -9.851   4.681  68.606  1.00  0.00    -0.190 C  
HETATM   22  C   UNL     1      -8.794   5.614  69.161  1.00  0.00    -0.110 C  
HETATM   23  O   UNL     1      -8.489   6.661  68.590  1.00  0.00    -0.122 OA 
ENDBRANCH  14  16
ENDBRANCH   5  14
TORSDOF 2
ENDMDL
MODEL      135
REMARK 921   NORMALIZED FREE ENERGY PREDICTED BY IDOCK:   -4.73 KCAL/MOL
REMARK 922        TOTAL FREE ENERGY PREDICTED BY IDOCK:   -5.65 KCAL/MOL
REMARK 923 INTER-LIGAND FREE ENERGY PREDICTED BY IDOCK:   -5.19 KCAL/MOL
REMARK 924 INTRA-LIGAND FREE ENERGY PREDICTED BY IDOCK:   -0.46 KCAL/MOL
REMARK 927      BINDING AFFINITY PREDICTED BY RF-SCORE:    0.00 PKD
ROOT
HETATM    1  O   UNL     1      -7.857  11.974  68.764  1.00  0.00    -0.113 OA 
HETATM    2  N   UNL     1      -7.458  10.921  68.247  1.00  0.00    -0.089 N  
HETATM    3  C   UNL     1      -8.485   9.968  67.851  1.00  0.00    -0.118 A  
HETATM    4  O   UNL     1      -6.282  10.553  68.136  1.00  0.00    -0.050 OA 
HETATM    5  C   UNL     1      -9.457  10.305  66.897  1.00  0.00    -0.200 A  
HETATM    6  C   UNL     1     -10.450   9.360  66.611  1.00  0.00    -0.238 A  
HETATM    7  C   UNL     1      -9.652   6.560  69.105  1.00  0.00    -0.134 C  
HETATM    8  C   UNL     1     -10.502   8.144  67.307  1.00  0.00    -0.379 A  
HETATM    9  C   UNL     1      -8.523   8.750  68.548  1.00  0.00    -0.130 A  
HETATM   10  F   UNL     1      -8.565   5.761  68.948  1.00  0.00    -0.105 F  
HETATM   11  C   UNL     1      -9.554   7.837  68.295  1.00  0.00    -0.162 A  
HETATM   12  F   UNL     1     -10.735   5.800  68.792  1.00  0.00    -0.262 F  
HETATM   13  F   UNL     1      -9.745   6.815  70.439  1.00  0.00    -0.172 F  
ENDROOT
BRANCH   5  14
HETATM   14  C   UNL     1      -9.434  11.606  66.173  1.00  0.00    -0.224 C  
HETATM   15  O   UNL     1      -8.794  11.661  65.127  1.00  0.00     0.076 OA 
BRANCH  14  16
HETATM   16  C   UNL     1     -10.197  12.795  66.723  1.00  0.00    -0.245 C  
HETATM   17  C   UNL     1     -12.130  13.904  64.734  1.00  0.00    -0.443 C  
HETATM   18  C   UNL     1     -10.636  14.160  64.588  1.00  0.00    -0.391 C  
HETATM   19  C   UNL     1      -9.953  14.060  65.934  1.00  0.00    -0.307 C  
HETATM   20  O   UNL     1      -9.163  14.918  66.322  1.00  0.00    -0.287 OA 
HETATM   21  C   UNL     1     -12.431  12.594  65.454  1.00  0.00    -0.421 C  
HETATM   22  C   UNL     1     -11.690  12.546  66.775  1.00  0.00    -0.384 C  
HETATM   23  O   UNL     1     -12.267  12.300  67.834  1.00  0.00    -0.409 OA 
ENDBRANCH  14  16
ENDBRANCH   5  14
TORSDOF 2
ENDMDL
MODEL      136
REMARK 921   NORMALIZED FREE ENERGY PREDICTED BY IDOCK:   -4.73 KCAL/MOL
REMARK 922        TOTAL FREE ENERGY PREDICTED BY IDOCK:   -5.65 KCAL/MOL
REMARK 923 INTER-LIGAND FREE ENERGY PREDICTED BY IDOCK:   -4.87 KCAL/MOL
REMARK 924 INTRA-LIGAND FREE ENERGY PREDICTED BY IDOCK:   -0.78 KCAL/MOL
REMARK 927      BINDING AFFINITY PREDICTED BY RF-SCORE:    0.00 PKD
ROOT
HETATM    1  O   UNL     1     -12.285  15.138  68.088  1.00  0.00    -0.102 OA 
HETATM    2  N   UNL     1     -11.414  14.587  68.774  1.00  0.00    -0.277 N  
HETATM    3  C   UNL     1     -10.539  13.654  68.078  1.00  0.00    -0.249 A  
HETATM    4  O   UNL     1     -11.283  14.664  70.002  1.00  0.00    -0.252 OA 
HETATM    5  C   UNL     1      -9.722  14.078  67.020  1.00  0.00    -0.256 A  
HETATM    6  C   UNL     1      -8.954  13.114  66.356  1.00  0.00     0.005 A  
HETATM    7  C   UNL     1     -10.080   9.867  68.057  1.00  0.00    -0.171 C  
HETATM    8  C   UNL     1      -9.052  11.758  66.703  1.00  0.00    -0.194 A  
HETATM    9  C   UNL     1     -10.639  12.301  68.439  1.00  0.00    -0.250 A  
HETATM   10  F   UNL     1      -9.714   9.572  69.331  1.00  0.00    -0.157 F  
HETATM   11  C   UNL     1      -9.910  11.337  67.731  1.00  0.00    -0.186 A  
HETATM   12  F   UNL     1      -9.356   9.045  67.252  1.00  0.00    -0.143 F  
HETATM   13  F   UNL     1     -11.376   9.470  67.934  1.00  0.00    -0.218 F  
ENDROOT
BRANCH   5  14
HETATM   14  C   UNL     1      -9.633  15.510  66.618  1.00  0.00    -0.253 C  
HETATM   15  O   UNL     1     -10.076  15.818  65.516  1.00  0.00    -0.344 OA 
BRANCH  14  16
HETATM   16  C   UNL     1      -9.029  16.528  67.565  1.00  0.00    -0.201 C  
HETATM   17  C   UNL     1      -6.266  17.320  66.749  1.00  0.00    -0.235 C  
HETATM   18  C   UNL     1      -6.525  15.967  67.400  1.00  0.00    -0.209 C  
HETATM   19  C   UNL     1      -7.778  16.022  68.244  1.00  0.00    -0.142 C  
HETATM   20  O   UNL     1      -7.802  15.586  69.393  1.00  0.00    -0.217 OA 
HETATM   21  C   UNL     1      -7.477  17.838  65.980  1.00  0.00    -0.284 C  
HETATM   22  C   UNL     1      -8.701  17.834  66.873  1.00  0.00    -0.248 C  
HETATM   23  O   UNL     1      -9.403  18.835  67.016  1.00  0.00    -0.284 OA 
ENDBRANCH  14  16
ENDBRANCH   5  14
TORSDOF 2
ENDMDL
MODEL      137
REMARK 921   NORMALIZED FREE ENERGY PREDICTED BY IDOCK:   -4.72 KCAL/MOL
REMARK 922        TOTAL FREE ENERGY PREDICTED BY IDOCK:   -5.63 KCAL/MOL
REMARK 923 INTER-LIGAND FREE ENERGY PREDICTED BY IDOCK:   -5.40 KCAL/MOL
REMARK 924 INTRA-LIGAND FREE ENERGY PREDICTED BY IDOCK:   -0.23 KCAL/MOL
REMARK 927      BINDING AFFINITY PREDICTED BY RF-SCORE:    0.00 PKD
ROOT
HETATM    1  O   UNL     1      -8.380   8.967  72.597  1.00  0.00    -0.392 OA 
HETATM    2  N   UNL     1      -7.952   8.914  71.436  1.00  0.00    -0.132 N  
HETATM    3  C   UNL     1      -8.663   8.028  70.526  1.00  0.00    -0.135 A  
HETATM    4  O   UNL     1      -6.923   9.450  71.005  1.00  0.00    -0.166 OA 
HETATM    5  C   UNL     1     -10.019   8.228  70.230  1.00  0.00    -0.188 A  
HETATM    6  C   UNL     1     -10.653   7.300  69.395  1.00  0.00    -0.238 A  
HETATM    7  C   UNL     1      -7.893   4.699  68.829  1.00  0.00    -0.075 C  
HETATM    8  C   UNL     1      -9.963   6.173  68.926  1.00  0.00    -0.185 A  
HETATM    9  C   UNL     1      -7.960   6.907  70.055  1.00  0.00    -0.116 A  
HETATM   10  F   UNL     1      -6.816   4.970  68.046  1.00  0.00    -0.053 F  
HETATM   11  C   UNL     1      -8.619   5.954  69.267  1.00  0.00    -0.112 A  
HETATM   12  F   UNL     1      -8.673   3.839  68.122  1.00  0.00    -0.098 F  
HETATM   13  F   UNL     1      -7.421   3.993  69.892  1.00  0.00    -0.047 F  
ENDROOT
BRANCH   5  14
HETATM   14  C   UNL     1     -10.774   9.403  70.749  1.00  0.00    -0.305 C  
HETATM   15  O   UNL     1     -10.717  10.444  70.100  1.00  0.00    -0.280 OA 
BRANCH  14  16
HETATM   16  C   UNL     1     -11.588   9.281  72.022  1.00  0.00    -0.305 C  
HETATM   17  C   UNL     1     -14.037   7.617  71.633  1.00  0.00    -0.547 C  
HETATM   18  C   UNL     1     -13.972   9.038  71.090  1.00  0.00    -0.100 C  
HETATM   19  C   UNL     1     -12.977   9.857  71.882  1.00  0.00    -0.448 C  
HETATM   20  O   UNL     1     -13.255  10.976  72.306  1.00  0.00    -0.405 OA 
HETATM   21  C   UNL     1     -12.663   6.960  71.717  1.00  0.00    -0.369 C  
HETATM   22  C   UNL     1     -11.710   7.847  72.492  1.00  0.00    -0.367 C  
HETATM   23  O   UNL     1     -11.056   7.421  73.443  1.00  0.00    -0.340 OA 
ENDBRANCH  14  16
ENDBRANCH   5  14
TORSDOF 2
ENDMDL
MODEL      138
REMARK 921   NORMALIZED FREE ENERGY PREDICTED BY IDOCK:   -4.72 KCAL/MOL
REMARK 922        TOTAL FREE ENERGY PREDICTED BY IDOCK:   -5.63 KCAL/MOL
REMARK 923 INTER-LIGAND FREE ENERGY PREDICTED BY IDOCK:   -4.85 KCAL/MOL
REMARK 924 INTRA-LIGAND FREE ENERGY PREDICTED BY IDOCK:   -0.78 KCAL/MOL
REMARK 927      BINDING AFFINITY PREDICTED BY RF-SCORE:    0.00 PKD
ROOT
HETATM    1  O   UNL     1      -9.167   6.144  67.118  1.00  0.00    -0.116 OA 
HETATM    2  N   UNL     1     -10.169   6.790  67.453  1.00  0.00    -0.174 N  
HETATM    3  C   UNL     1     -10.086   7.498  68.722  1.00  0.00    -0.185 A  
HETATM    4  O   UNL     1     -11.264   6.805  66.876  1.00  0.00    -0.375 OA 
HETATM    5  C   UNL     1      -9.123   8.496  68.933  1.00  0.00    -0.146 A  
HETATM    6  C   UNL     1      -9.061   9.091  70.199  1.00  0.00    -0.206 A  
HETATM    7  C   UNL     1     -11.670   7.085  72.167  1.00  0.00    -0.283 C  
HETATM    8  C   UNL     1      -9.896   8.652  71.237  1.00  0.00    -0.307 A  
HETATM    9  C   UNL     1     -10.932   7.056  69.752  1.00  0.00    -0.283 A  
HETATM   10  F   UNL     1     -13.000   7.238  71.939  1.00  0.00    -0.335 F  
HETATM   11  C   UNL     1     -10.822   7.618  71.030  1.00  0.00    -0.255 A  
HETATM   12  F   UNL     1     -11.415   7.684  73.361  1.00  0.00    -0.370 F  
HETATM   13  F   UNL     1     -11.471   5.753  72.364  1.00  0.00    -0.304 F  
ENDROOT
BRANCH   5  14
HETATM   14  C   UNL     1      -8.207   8.951  67.850  1.00  0.00    -0.110 C  
HETATM   15  O   UNL     1      -7.045   8.557  67.888  1.00  0.00    -0.083 OA 
BRANCH  14  16
HETATM   16  C   UNL     1      -8.726   9.849  66.743  1.00  0.00    -0.137 C  
HETATM   17  C   UNL     1      -8.170  12.733  67.287  1.00  0.00    -0.181 C  
HETATM   18  C   UNL     1      -9.274  12.001  68.040  1.00  0.00    -0.192 C  
HETATM   19  C   UNL     1      -9.771  10.826  67.228  1.00  0.00    -0.161 C  
HETATM   20  O   UNL     1     -10.971  10.622  67.056  1.00  0.00    -0.269 OA 
HETATM   21  C   UNL     1      -7.047  11.800  66.846  1.00  0.00    -0.097 C  
HETATM   22  C   UNL     1      -7.618  10.630  66.070  1.00  0.00    -0.142 C  
HETATM   23  O   UNL     1      -7.192  10.320  64.958  1.00  0.00    -0.136 OA 
ENDBRANCH  14  16
ENDBRANCH   5  14
TORSDOF 2
ENDMDL
MODEL      139
REMARK 921   NORMALIZED FREE ENERGY PREDICTED BY IDOCK:   -4.70 KCAL/MOL
REMARK 922        TOTAL FREE ENERGY PREDICTED BY IDOCK:   -5.62 KCAL/MOL
REMARK 923 INTER-LIGAND FREE ENERGY PREDICTED BY IDOCK:   -5.08 KCAL/MOL
REMARK 924 INTRA-LIGAND FREE ENERGY PREDICTED BY IDOCK:   -0.54 KCAL/MOL
REMARK 927      BINDING AFFINITY PREDICTED BY RF-SCORE:    0.00 PKD
ROOT
HETATM    1  O   UNL     1      -9.997   9.697  64.836  1.00  0.00    -0.173 OA 
HETATM    2  N   UNL     1      -9.411  10.431  65.644  1.00  0.00    -0.196 N  
HETATM    3  C   UNL     1     -10.133  10.751  66.867  1.00  0.00    -0.212 A  
HETATM    4  O   UNL     1      -8.328  11.004  65.469  1.00  0.00    -0.132 OA 
HETATM    5  C   UNL     1     -10.527   9.744  67.760  1.00  0.00    -0.297 A  
HETATM    6  C   UNL     1     -11.273  10.119  68.884  1.00  0.00    -0.220 A  
HETATM    7  C   UNL     1     -11.793  13.872  68.299  1.00  0.00    -0.376 C  
HETATM    8  C   UNL     1     -11.664  11.453  69.070  1.00  0.00    -0.409 A  
HETATM    9  C   UNL     1     -10.512  12.091  67.047  1.00  0.00    -0.248 A  
HETATM   10  F   UNL     1     -10.771  14.757  68.432  1.00  0.00    -0.227 F  
HETATM   11  C   UNL     1     -11.307  12.446  68.145  1.00  0.00    -0.341 A  
HETATM   12  F   UNL     1     -12.602  14.058  69.376  1.00  0.00    -0.366 F  
HETATM   13  F   UNL     1     -12.509  14.281  67.216  1.00  0.00    -0.407 F  
ENDROOT
BRANCH   5  14
HETATM   14  C   UNL     1     -10.148   8.318  67.558  1.00  0.00    -0.225 C  
HETATM   15  O   UNL     1     -10.984   7.575  67.052  1.00  0.00    -0.306 OA 
BRANCH  14  16
HETATM   16  C   UNL     1      -8.766   7.836  67.954  1.00  0.00    -0.124 C  
HETATM   17  C   UNL     1      -8.793   5.002  68.898  1.00  0.00    -0.111 C  
HETATM   18  C   UNL     1      -9.322   6.120  69.787  1.00  0.00    -0.162 C  
HETATM   19  C   UNL     1      -8.683   7.438  69.409  1.00  0.00    -0.137 C  
HETATM   20  O   UNL     1      -8.207   8.191  70.256  1.00  0.00    -0.116 OA 
HETATM   21  C   UNL     1      -8.930   5.323  67.413  1.00  0.00    -0.108 C  
HETATM   22  C   UNL     1      -8.300   6.668  67.112  1.00  0.00    -0.113 C  
HETATM   23  O   UNL     1      -7.467   6.807  66.217  1.00  0.00    -0.075 OA 
ENDBRANCH  14  16
ENDBRANCH   5  14
TORSDOF 2
ENDMDL
MODEL      140
REMARK 921   NORMALIZED FREE ENERGY PREDICTED BY IDOCK:   -4.68 KCAL/MOL
REMARK 922        TOTAL FREE ENERGY PREDICTED BY IDOCK:   -5.59 KCAL/MOL
REMARK 923 INTER-LIGAND FREE ENERGY PREDICTED BY IDOCK:   -5.28 KCAL/MOL
REMARK 924 INTRA-LIGAND FREE ENERGY PREDICTED BY IDOCK:   -0.31 KCAL/MOL
REMARK 927      BINDING AFFINITY PREDICTED BY RF-SCORE:    0.00 PKD
ROOT
HETATM    1  O   UNL     1     -12.650  11.202  69.005  1.00  0.00    -0.370 OA 
HETATM    2  N   UNL     1     -11.893  11.191  69.985  1.00  0.00    -0.329 N  
HETATM    3  C   UNL     1     -10.535  10.723  69.746  1.00  0.00    -0.083 A  
HETATM    4  O   UNL     1     -12.202  11.431  71.159  1.00  0.00    -0.319 OA 
HETATM    5  C   UNL     1      -9.689  11.385  68.845  1.00  0.00    -0.105 A  
HETATM    6  C   UNL     1      -8.418  10.843  68.619  1.00  0.00    -0.152 A  
HETATM    7  C   UNL     1      -8.532   7.617  70.689  1.00  0.00    -0.127 C  
HETATM    8  C   UNL     1      -8.036   9.639  69.229  1.00  0.00    -0.104 A  
HETATM    9  C   UNL     1     -10.160   9.522  70.368  1.00  0.00    -0.329 A  
HETATM   10  F   UNL     1      -8.498   7.646  72.046  1.00  0.00    -0.106 F  
HETATM   11  C   UNL     1      -8.909   8.957  70.090  1.00  0.00    -0.172 A  
HETATM   12  F   UNL     1      -7.314   7.165  70.286  1.00  0.00    -0.074 F  
HETATM   13  F   UNL     1      -9.424   6.646  70.353  1.00  0.00    -0.162 F  
ENDROOT
BRANCH   5  14
HETATM   14  C   UNL     1     -10.093  12.647  68.164  1.00  0.00    -0.231 C  
HETATM   15  O   UNL     1     -10.569  13.539  68.861  1.00  0.00    -0.231 OA 
BRANCH  14  16
HETATM   16  C   UNL     1      -9.895  12.801  66.669  1.00  0.00    -0.250 C  
HETATM   17  C   UNL     1     -12.329  13.887  65.320  1.00  0.00    -0.485 C  
HETATM   18  C   UNL     1     -12.285  12.439  65.790  1.00  0.00    -0.277 C  
HETATM   19  C   UNL     1     -10.853  11.955  65.864  1.00  0.00    -0.297 C  
HETATM   20  O   UNL     1     -10.510  10.880  65.378  1.00  0.00    -0.265 OA 
HETATM   21  C   UNL     1     -11.437  14.800  66.155  1.00  0.00    -0.311 C  
HETATM   22  C   UNL     1     -10.031  14.239  66.216  1.00  0.00    -0.306 C  
HETATM   23  O   UNL     1      -9.048  14.921  65.928  1.00  0.00    -0.197 OA 
ENDBRANCH  14  16
ENDBRANCH   5  14
TORSDOF 2
ENDMDL
MODEL      141
REMARK 921   NORMALIZED FREE ENERGY PREDICTED BY IDOCK:   -4.67 KCAL/MOL
REMARK 922        TOTAL FREE ENERGY PREDICTED BY IDOCK:   -5.58 KCAL/MOL
REMARK 923 INTER-LIGAND FREE ENERGY PREDICTED BY IDOCK:   -5.07 KCAL/MOL
REMARK 924 INTRA-LIGAND FREE ENERGY PREDICTED BY IDOCK:   -0.51 KCAL/MOL
REMARK 927      BINDING AFFINITY PREDICTED BY RF-SCORE:    0.00 PKD
ROOT
HETATM    1  O   UNL     1      -8.231  11.289  66.407  1.00  0.00    -0.165 OA 
HETATM    2  N   UNL     1      -8.191  11.772  67.546  1.00  0.00    -0.144 N  
HETATM    3  C   UNL     1      -9.461  12.207  68.108  1.00  0.00    -0.205 A  
HETATM    4  O   UNL     1      -7.174  12.020  68.207  1.00  0.00    -0.077 OA 
HETATM    5  C   UNL     1     -10.513  11.302  68.310  1.00  0.00    -0.220 A  
HETATM    6  C   UNL     1     -11.727  11.803  68.795  1.00  0.00    -0.389 A  
HETATM    7  C   UNL     1     -11.060  15.577  68.907  1.00  0.00    -0.282 C  
HETATM    8  C   UNL     1     -11.898  13.179  69.008  1.00  0.00    -0.358 A  
HETATM    9  C   UNL     1      -9.619  13.586  68.325  1.00  0.00    -0.218 A  
HETATM   10  F   UNL     1     -10.232  16.122  69.836  1.00  0.00    -0.256 F  
HETATM   11  C   UNL     1     -10.855  14.084  68.755  1.00  0.00    -0.279 A  
HETATM   12  F   UNL     1     -12.324  15.918  69.273  1.00  0.00    -0.353 F  
HETATM   13  F   UNL     1     -10.813  16.241  67.745  1.00  0.00    -0.308 F  
ENDROOT
BRANCH   5  14
HETATM   14  C   UNL     1     -10.356   9.842  68.057  1.00  0.00    -0.203 C  
HETATM   15  O   UNL     1     -10.699   9.418  66.957  1.00  0.00    -0.229 OA 
BRANCH  14  16
HETATM   16  C   UNL     1      -9.773   8.943  69.130  1.00  0.00    -0.168 C  
HETATM   17  C   UNL     1      -9.432   6.133  68.176  1.00  0.00    -0.113 C  
HETATM   18  C   UNL     1     -10.814   6.671  68.523  1.00  0.00    -0.319 C  
HETATM   19  C   UNL     1     -10.699   7.812  69.509  1.00  0.00    -0.198 C  
HETATM   20  O   UNL     1     -11.397   7.865  70.519  1.00  0.00    -0.273 OA 
HETATM   21  C   UNL     1      -8.480   7.228  67.707  1.00  0.00    -0.121 C  
HETATM   22  C   UNL     1      -8.440   8.352  68.723  1.00  0.00    -0.124 C  
HETATM   23  O   UNL     1      -7.379   8.775  69.180  1.00  0.00    -0.069 OA 
ENDBRANCH  14  16
ENDBRANCH   5  14
TORSDOF 2
ENDMDL
MODEL      142
REMARK 921   NORMALIZED FREE ENERGY PREDICTED BY IDOCK:   -4.66 KCAL/MOL
REMARK 922        TOTAL FREE ENERGY PREDICTED BY IDOCK:   -5.56 KCAL/MOL
REMARK 923 INTER-LIGAND FREE ENERGY PREDICTED BY IDOCK:   -5.09 KCAL/MOL
REMARK 924 INTRA-LIGAND FREE ENERGY PREDICTED BY IDOCK:   -0.48 KCAL/MOL
REMARK 927      BINDING AFFINITY PREDICTED BY RF-SCORE:    0.00 PKD
ROOT
HETATM    1  O   UNL     1      -7.286   7.826  68.716  1.00  0.00    -0.083 OA 
HETATM    2  N   UNL     1      -7.749   8.016  67.584  1.00  0.00    -0.108 N  
HETATM    3  C   UNL     1      -8.833   7.134  67.173  1.00  0.00    -0.121 A  
HETATM    4  O   UNL     1      -7.314   8.799  66.731  1.00  0.00    -0.081 OA 
HETATM    5  C   UNL     1     -10.043   7.095  67.881  1.00  0.00    -0.211 A  
HETATM    6  C   UNL     1     -11.016   6.178  67.466  1.00  0.00    -0.404 A  
HETATM    7  C   UNL     1      -9.207   4.284  64.666  1.00  0.00    -0.156 C  
HETATM    8  C   UNL     1     -10.756   5.285  66.416  1.00  0.00    -0.290 A  
HETATM    9  C   UNL     1      -8.564   6.250  66.116  1.00  0.00    -0.143 A  
HETATM   10  F   UNL     1      -8.957   4.866  63.465  1.00  0.00    -0.143 F  
HETATM   11  C   UNL     1      -9.523   5.298  65.747  1.00  0.00    -0.132 A  
HETATM   12  F   UNL     1     -10.206   3.386  64.455  1.00  0.00    -0.169 F  
HETATM   13  F   UNL     1      -8.101   3.551  64.969  1.00  0.00    -0.087 F  
ENDROOT
BRANCH   5  14
HETATM   14  C   UNL     1     -10.320   8.015  69.019  1.00  0.00    -0.218 C  
HETATM   15  O   UNL     1     -10.779   9.122  68.754  1.00  0.00    -0.207 OA 
BRANCH  14  16
HETATM   16  C   UNL     1     -10.056   7.564  70.443  1.00  0.00    -0.196 C  
HETATM   17  C   UNL     1     -12.345   8.181  72.259  1.00  0.00    -0.371 C  
HETATM   18  C   UNL     1     -11.408   9.286  71.791  1.00  0.00    -0.437 C  
HETATM   19  C   UNL     1     -10.058   8.710  71.426  1.00  0.00    -0.254 C  
HETATM   20  O   UNL     1      -9.011   9.210  71.833  1.00  0.00    -0.340 OA 
HETATM   21  C   UNL     1     -12.441   7.033  71.259  1.00  0.00    -0.430 C  
HETATM   22  C   UNL     1     -11.054   6.528  70.913  1.00  0.00    -0.292 C  
HETATM   23  O   UNL     1     -10.760   5.336  70.994  1.00  0.00    -0.213 OA 
ENDBRANCH  14  16
ENDBRANCH   5  14
TORSDOF 2
ENDMDL
MODEL      143
REMARK 921   NORMALIZED FREE ENERGY PREDICTED BY IDOCK:   -4.66 KCAL/MOL
REMARK 922        TOTAL FREE ENERGY PREDICTED BY IDOCK:   -5.56 KCAL/MOL
REMARK 923 INTER-LIGAND FREE ENERGY PREDICTED BY IDOCK:   -5.27 KCAL/MOL
REMARK 924 INTRA-LIGAND FREE ENERGY PREDICTED BY IDOCK:   -0.29 KCAL/MOL
REMARK 927      BINDING AFFINITY PREDICTED BY RF-SCORE:    0.00 PKD
ROOT
HETATM    1  O   UNL     1      -9.082  14.291  69.073  1.00  0.00    -0.086 OA 
HETATM    2  N   UNL     1      -8.547  13.954  68.009  1.00  0.00    -0.168 N  
HETATM    3  C   UNL     1      -8.865  12.620  67.521  1.00  0.00    -0.186 A  
HETATM    4  O   UNL     1      -7.689  14.588  67.381  1.00  0.00    -0.180 OA 
HETATM    5  C   UNL     1     -10.183  12.259  67.205  1.00  0.00    -0.222 A  
HETATM    6  C   UNL     1     -10.424  10.940  66.801  1.00  0.00    -0.302 A  
HETATM    7  C   UNL     1      -6.968   9.327  67.196  1.00  0.00    -0.085 C  
HETATM    8  C   UNL     1      -9.384   9.999  66.778  1.00  0.00    -0.193 A  
HETATM    9  C   UNL     1      -7.815  11.688  67.493  1.00  0.00    -0.137 A  
HETATM   10  F   UNL     1      -5.951   9.615  66.343  1.00  0.00    -0.054 F  
HETATM   11  C   UNL     1      -8.077  10.357  67.143  1.00  0.00    -0.115 A  
HETATM   12  F   UNL     1      -7.380   8.068  66.888  1.00  0.00    -0.082 F  
HETATM   13  F   UNL     1      -6.411   9.248  68.435  1.00  0.00    -0.052 F  
ENDROOT
BRANCH   5  14
HETATM   14  C   UNL     1     -11.303  13.240  67.258  1.00  0.00    -0.314 C  
HETATM   15  O   UNL     1     -11.948  13.308  68.300  1.00  0.00    -0.342 OA 
BRANCH  14  16
HETATM   16  C   UNL     1     -11.598  14.121  66.060  1.00  0.00    -0.364 C  
HETATM   17  C   UNL     1     -11.600  12.576  63.503  1.00  0.00    -0.584 C  
HETATM   18  C   UNL     1     -10.290  12.919  64.200  1.00  0.00    -0.385 C  
HETATM   19  C   UNL     1     -10.462  14.149  65.064  1.00  0.00    -0.425 C  
HETATM   20  O   UNL     1      -9.662  15.081  65.027  1.00  0.00    -0.165 OA 
HETATM   21  C   UNL     1     -12.766  12.456  64.479  1.00  0.00    -0.404 C  
HETATM   22  C   UNL     1     -12.859  13.703  65.334  1.00  0.00    -0.389 C  
HETATM   23  O   UNL     1     -13.909  14.335  65.448  1.00  0.00    -0.037 OA 
ENDBRANCH  14  16
ENDBRANCH   5  14
TORSDOF 2
ENDMDL
MODEL      144
REMARK 921   NORMALIZED FREE ENERGY PREDICTED BY IDOCK:   -4.64 KCAL/MOL
REMARK 922        TOTAL FREE ENERGY PREDICTED BY IDOCK:   -5.54 KCAL/MOL
REMARK 923 INTER-LIGAND FREE ENERGY PREDICTED BY IDOCK:   -5.87 KCAL/MOL
REMARK 924 INTRA-LIGAND FREE ENERGY PREDICTED BY IDOCK:    0.33 KCAL/MOL
REMARK 927      BINDING AFFINITY PREDICTED BY RF-SCORE:    0.00 PKD
ROOT
HETATM    1  O   UNL     1      -8.984  15.384  69.327  1.00  0.00    -0.233 OA 
HETATM    2  N   UNL     1      -8.077  14.653  68.908  1.00  0.00    -0.155 N  
HETATM    3  C   UNL     1      -8.480  13.559  68.037  1.00  0.00    -0.176 A  
HETATM    4  O   UNL     1      -6.885  14.692  69.241  1.00  0.00    -0.123 OA 
HETATM    5  C   UNL     1      -9.121  13.805  66.814  1.00  0.00    -0.235 A  
HETATM    6  C   UNL     1      -9.536  12.702  66.057  1.00  0.00    -0.190 A  
HETATM    7  C   UNL     1      -8.664   9.762  68.360  1.00  0.00    -0.120 C  
HETATM    8  C   UNL     1      -9.371  11.397  66.545  1.00  0.00    -0.204 A  
HETATM    9  C   UNL     1      -8.302  12.257  68.531  1.00  0.00    -0.084 A  
HETATM   10  F   UNL     1      -7.375   9.387  68.570  1.00  0.00    -0.075 F  
HETATM   11  C   UNL     1      -8.773  11.163  67.793  1.00  0.00    -0.132 A  
HETATM   12  F   UNL     1      -9.214   8.809  67.562  1.00  0.00    -0.135 F  
HETATM   13  F   UNL     1      -9.291   9.655  69.563  1.00  0.00    -0.153 F  
ENDROOT
BRANCH   5  14
HETATM   14  C   UNL     1      -9.333  15.186  66.299  1.00  0.00    -0.313 C  
HETATM   15  O   UNL     1      -8.348  15.799  65.899  1.00  0.00     0.020 OA 
BRANCH  14  16
HETATM   16  C   UNL     1     -10.729  15.778  66.264  1.00  0.00    -0.282 C  
HETATM   17  C   UNL     1     -12.761  13.803  65.318  1.00  0.00    -0.481 C  
HETATM   18  C   UNL     1     -11.801  14.459  64.334  1.00  0.00    -0.433 C  
HETATM   19  C   UNL     1     -11.322  15.788  64.875  1.00  0.00    -0.280 C  
HETATM   20  O   UNL     1     -11.326  16.805  64.184  1.00  0.00    -1.194 OA 
HETATM   21  C   UNL     1     -12.175  13.695  66.722  1.00  0.00    -0.416 C  
HETATM   22  C   UNL     1     -11.685  15.051  67.186  1.00  0.00    -0.215 C  
HETATM   23  O   UNL     1     -12.032  15.531  68.265  1.00  0.00    -0.262 OA 
ENDBRANCH  14  16
ENDBRANCH   5  14
TORSDOF 2
ENDMDL
MODEL      145
REMARK 921   NORMALIZED FREE ENERGY PREDICTED BY IDOCK:   -4.62 KCAL/MOL
REMARK 922        TOTAL FREE ENERGY PREDICTED BY IDOCK:   -5.52 KCAL/MOL
REMARK 923 INTER-LIGAND FREE ENERGY PREDICTED BY IDOCK:   -5.08 KCAL/MOL
REMARK 924 INTRA-LIGAND FREE ENERGY PREDICTED BY IDOCK:   -0.44 KCAL/MOL
REMARK 927      BINDING AFFINITY PREDICTED BY RF-SCORE:    0.00 PKD
ROOT
HETATM    1  O   UNL     1      -9.165  15.271  67.471  1.00  0.00    -0.195 OA 
HETATM    2  N   UNL     1      -9.131  15.013  68.681  1.00  0.00    -0.184 N  
HETATM    3  C   UNL     1     -10.204  14.172  69.193  1.00  0.00    -0.051 A  
HETATM    4  O   UNL     1      -8.346  15.484  69.514  1.00  0.00    -0.250 OA 
HETATM    5  C   UNL     1     -10.392  12.867  68.715  1.00  0.00    -0.143 A  
HETATM    6  C   UNL     1     -11.482  12.138  69.207  1.00  0.00    -0.363 A  
HETATM    7  C   UNL     1     -13.241  14.715  71.436  1.00  0.00    -0.357 C  
HETATM    8  C   UNL     1     -12.390  12.726  70.100  1.00  0.00    -0.235 A  
HETATM    9  C   UNL     1     -11.102  14.767  70.093  1.00  0.00    -0.208 A  
HETATM   10  F   UNL     1     -12.708  15.104  72.623  1.00  0.00    -0.354 F  
HETATM   11  C   UNL     1     -12.221  14.050  70.534  1.00  0.00    -0.435 A  
HETATM   12  F   UNL     1     -14.302  13.920  71.736  1.00  0.00    -0.462 F  
HETATM   13  F   UNL     1     -13.760  15.837  70.868  1.00  0.00    -0.523 F  
ENDROOT
BRANCH   5  14
HETATM   14  C   UNL     1      -9.455  12.241  67.740  1.00  0.00    -0.197 C  
HETATM   15  O   UNL     1      -9.626  12.490  66.550  1.00  0.00    -0.232 OA 
BRANCH  14  16
HETATM   16  C   UNL     1      -8.330  11.352  68.232  1.00  0.00    -0.152 C  
HETATM   17  C   UNL     1      -5.999  11.355  66.364  1.00  0.00    -0.099 C  
HETATM   18  C   UNL     1      -7.269  10.588  66.017  1.00  0.00    -0.137 C  
HETATM   19  C   UNL     1      -8.021  10.223  67.278  1.00  0.00    -0.107 C  
HETATM   20  O   UNL     1      -8.444   9.085  67.469  1.00  0.00    -0.116 OA 
HETATM   21  C   UNL     1      -6.269  12.557  67.263  1.00  0.00    -0.124 C  
HETATM   22  C   UNL     1      -7.053  12.125  68.486  1.00  0.00    -0.099 C  
HETATM   23  O   UNL     1      -6.682  12.404  69.625  1.00  0.00    -0.058 OA 
ENDBRANCH  14  16
ENDBRANCH   5  14
TORSDOF 2
ENDMDL
MODEL      146
REMARK 921   NORMALIZED FREE ENERGY PREDICTED BY IDOCK:   -4.61 KCAL/MOL
REMARK 922        TOTAL FREE ENERGY PREDICTED BY IDOCK:   -5.51 KCAL/MOL
REMARK 923 INTER-LIGAND FREE ENERGY PREDICTED BY IDOCK:   -5.01 KCAL/MOL
REMARK 924 INTRA-LIGAND FREE ENERGY PREDICTED BY IDOCK:   -0.50 KCAL/MOL
REMARK 927      BINDING AFFINITY PREDICTED BY RF-SCORE:    0.00 PKD
ROOT
HETATM    1  O   UNL     1      -9.128   5.738  70.894  1.00  0.00    -0.143 OA 
HETATM    2  N   UNL     1     -10.114   6.087  70.230  1.00  0.00    -0.185 N  
HETATM    3  C   UNL     1     -10.449   7.503  70.267  1.00  0.00    -0.222 A  
HETATM    4  O   UNL     1     -10.902   5.342  69.633  1.00  0.00    -0.289 OA 
HETATM    5  C   UNL     1      -9.545   8.473  69.809  1.00  0.00    -0.170 A  
HETATM    6  C   UNL     1      -9.909   9.820  69.932  1.00  0.00    -0.279 A  
HETATM    7  C   UNL     1     -13.251   9.589  71.798  1.00  0.00    -0.422 C  
HETATM    8  C   UNL     1     -11.113  10.180  70.555  1.00  0.00    -0.400 A  
HETATM    9  C   UNL     1     -11.660   7.853  70.885  1.00  0.00    -0.286 A  
HETATM   10  F   UNL     1     -14.374   9.134  71.185  1.00  0.00    -0.381 F  
HETATM   11  C   UNL     1     -11.988   9.204  71.055  1.00  0.00    -0.344 A  
HETATM   12  F   UNL     1     -13.410  10.932  71.939  1.00  0.00    -0.506 F  
HETATM   13  F   UNL     1     -13.272   9.074  73.058  1.00  0.00    -0.464 F  
ENDROOT
BRANCH   5  14
HETATM   14  C   UNL     1      -8.248   8.106  69.176  1.00  0.00    -0.123 C  
HETATM   15  O   UNL     1      -7.290   7.910  69.918  1.00  0.00    -0.071 OA 
BRANCH  14  16
HETATM   16  C   UNL     1      -8.150   7.967  67.669  1.00  0.00    -0.124 C  
HETATM   17  C   UNL     1      -6.664   5.504  66.863  1.00  0.00    -0.062 C  
HETATM   18  C   UNL     1      -5.919   6.715  67.408  1.00  0.00    -0.017 C  
HETATM   19  C   UNL     1      -6.723   7.975  67.174  1.00  0.00    -0.065 C  
HETATM   20  O   UNL     1      -6.214   8.986  66.696  1.00  0.00    -0.059 OA 
HETATM   21  C   UNL     1      -8.089   5.406  67.398  1.00  0.00    -0.101 C  
HETATM   22  C   UNL     1      -8.824   6.709  67.162  1.00  0.00    -0.115 C  
HETATM   23  O   UNL     1      -9.920   6.744  66.604  1.00  0.00    -0.181 OA 
ENDBRANCH  14  16
ENDBRANCH   5  14
TORSDOF 2
ENDMDL
MODEL      147
REMARK 921   NORMALIZED FREE ENERGY PREDICTED BY IDOCK:   -4.60 KCAL/MOL
REMARK 922        TOTAL FREE ENERGY PREDICTED BY IDOCK:   -5.50 KCAL/MOL
REMARK 923 INTER-LIGAND FREE ENERGY PREDICTED BY IDOCK:   -5.00 KCAL/MOL
REMARK 924 INTRA-LIGAND FREE ENERGY PREDICTED BY IDOCK:   -0.50 KCAL/MOL
REMARK 927      BINDING AFFINITY PREDICTED BY RF-SCORE:    0.00 PKD
ROOT
HETATM    1  O   UNL     1      -6.632  12.664  68.497  1.00  0.00    -0.070 OA 
HETATM    2  N   UNL     1      -6.845  12.156  67.389  1.00  0.00    -0.133 N  
HETATM    3  C   UNL     1      -8.181  11.618  67.172  1.00  0.00    -0.165 A  
HETATM    4  O   UNL     1      -6.013  11.962  66.493  1.00  0.00    -0.196 OA 
HETATM    5  C   UNL     1      -9.313  12.443  67.237  1.00  0.00    -0.184 A  
HETATM    6  C   UNL     1     -10.570  11.846  67.080  1.00  0.00    -0.260 A  
HETATM    7  C   UNL     1      -9.675   8.125  66.830  1.00  0.00    -0.226 C  
HETATM    8  C   UNL     1     -10.687  10.456  66.928  1.00  0.00    -0.272 A  
HETATM    9  C   UNL     1      -8.286  10.227  67.012  1.00  0.00    -0.122 A  
HETATM   10  F   UNL     1      -9.072   7.616  65.725  1.00  0.00    -0.189 F  
HETATM   11  C   UNL     1      -9.551   9.633  66.914  1.00  0.00    -0.217 A  
HETATM   12  F   UNL     1     -10.962   7.688  66.800  1.00  0.00    -0.421 F  
HETATM   13  F   UNL     1      -9.094   7.511  67.896  1.00  0.00    -0.130 F  
ENDROOT
BRANCH   5  14
HETATM   14  C   UNL     1      -9.206  13.916  67.431  1.00  0.00    -0.224 C  
HETATM   15  O   UNL     1      -8.901  14.595  66.455  1.00  0.00    -0.238 OA 
BRANCH  14  16
HETATM   16  C   UNL     1      -9.490  14.526  68.790  1.00  0.00    -0.183 C  
HETATM   17  C   UNL     1     -10.900  17.150  68.570  1.00  0.00    -0.281 C  
HETATM   18  C   UNL     1      -9.414  17.040  68.254  1.00  0.00    -0.265 C  
HETATM   19  C   UNL     1      -8.809  15.860  68.982  1.00  0.00    -0.243 C  
HETATM   20  O   UNL     1      -7.763  15.963  69.618  1.00  0.00    -0.175 OA 
HETATM   21  C   UNL     1     -11.650  15.846  68.313  1.00  0.00    -0.274 C  
HETATM   22  C   UNL     1     -10.972  14.704  69.042  1.00  0.00    -0.258 C  
HETATM   23  O   UNL     1     -11.595  13.950  69.788  1.00  0.00    -0.273 OA 
ENDBRANCH  14  16
ENDBRANCH   5  14
TORSDOF 2
ENDMDL
MODEL      148
REMARK 921   NORMALIZED FREE ENERGY PREDICTED BY IDOCK:   -4.60 KCAL/MOL
REMARK 922        TOTAL FREE ENERGY PREDICTED BY IDOCK:   -5.50 KCAL/MOL
REMARK 923 INTER-LIGAND FREE ENERGY PREDICTED BY IDOCK:   -5.07 KCAL/MOL
REMARK 924 INTRA-LIGAND FREE ENERGY PREDICTED BY IDOCK:   -0.43 KCAL/MOL
REMARK 927      BINDING AFFINITY PREDICTED BY RF-SCORE:    0.00 PKD
ROOT
HETATM    1  O   UNL     1      -5.752  13.046  67.131  1.00  0.00    -0.349 OA 
HETATM    2  N   UNL     1      -6.423  13.716  67.927  1.00  0.00    -0.141 N  
HETATM    3  C   UNL     1      -7.681  14.249  67.423  1.00  0.00    -0.173 A  
HETATM    4  O   UNL     1      -6.084  14.067  69.065  1.00  0.00    -0.081 OA 
HETATM    5  C   UNL     1      -8.698  13.397  66.969  1.00  0.00    -0.195 A  
HETATM    6  C   UNL     1      -9.856  13.981  66.440  1.00  0.00    -0.306 A  
HETATM    7  C   UNL     1      -8.988  17.715  66.515  1.00  0.00    -0.262 C  
HETATM    8  C   UNL     1      -9.959  15.374  66.312  1.00  0.00    -0.308 A  
HETATM    9  C   UNL     1      -7.777  15.645  67.307  1.00  0.00    -0.239 A  
HETATM   10  F   UNL     1      -8.931  18.405  67.684  1.00  0.00    -0.264 F  
HETATM   11  C   UNL     1      -8.915  16.216  66.724  1.00  0.00    -0.270 A  
HETATM   12  F   UNL     1     -10.122  18.121  65.885  1.00  0.00    -0.330 F  
HETATM   13  F   UNL     1      -7.953  18.170  65.757  1.00  0.00    -0.217 F  
ENDROOT
BRANCH   5  14
HETATM   14  C   UNL     1      -8.589  11.915  67.068  1.00  0.00    -0.176 C  
HETATM   15  O   UNL     1      -8.550  11.423  68.192  1.00  0.00    -0.140 OA 
BRANCH  14  16
HETATM   16  C   UNL     1      -8.549  11.070  65.809  1.00  0.00    -0.151 C  
HETATM   17  C   UNL     1      -9.171   8.201  66.363  1.00  0.00    -0.250 C  
HETATM   18  C   UNL     1      -7.817   8.788  66.741  1.00  0.00    -0.097 C  
HETATM   19  C   UNL     1      -7.502   9.983  65.870  1.00  0.00    -0.115 C  
HETATM   20  O   UNL     1      -6.411  10.111  65.319  1.00  0.00    -0.103 OA 
HETATM   21  C   UNL     1     -10.281   9.247  66.367  1.00  0.00    -0.298 C  
HETATM   22  C   UNL     1      -9.886  10.428  65.505  1.00  0.00    -0.269 C  
HETATM   23  O   UNL     1     -10.620  10.856  64.615  1.00  0.00    -0.334 OA 
ENDBRANCH  14  16
ENDBRANCH   5  14
TORSDOF 2
ENDMDL
MODEL      149
REMARK 921   NORMALIZED FREE ENERGY PREDICTED BY IDOCK:   -4.60 KCAL/MOL
REMARK 922        TOTAL FREE ENERGY PREDICTED BY IDOCK:   -5.50 KCAL/MOL
REMARK 923 INTER-LIGAND FREE ENERGY PREDICTED BY IDOCK:   -4.80 KCAL/MOL
REMARK 924 INTRA-LIGAND FREE ENERGY PREDICTED BY IDOCK:   -0.70 KCAL/MOL
REMARK 927      BINDING AFFINITY PREDICTED BY RF-SCORE:    0.00 PKD
ROOT
HETATM    1  O   UNL     1      -8.081   9.041  69.138  1.00  0.00    -0.104 OA 
HETATM    2  N   UNL     1      -8.450   8.792  70.293  1.00  0.00    -0.137 N  
HETATM    3  C   UNL     1      -9.712   8.077  70.427  1.00  0.00    -0.178 A  
HETATM    4  O   UNL     1      -7.915   9.181  71.339  1.00  0.00    -0.314 OA 
HETATM    5  C   UNL     1      -9.881   6.797  69.881  1.00  0.00    -0.174 A  
HETATM    6  C   UNL     1     -11.141   6.196  69.995  1.00  0.00    -0.462 A  
HETATM    7  C   UNL     1     -13.216   8.968  71.641  1.00  0.00    -0.371 C  
HETATM    8  C   UNL     1     -12.211   6.887  70.580  1.00  0.00    -0.311 A  
HETATM    9  C   UNL     1     -10.775   8.775  71.023  1.00  0.00    -0.290 A  
HETATM   10  F   UNL     1     -13.037   9.306  72.945  1.00  0.00    -0.454 F  
HETATM   11  C   UNL     1     -12.045   8.188  71.080  1.00  0.00    -0.223 A  
HETATM   12  F   UNL     1     -14.396   8.296  71.579  1.00  0.00    -0.429 F  
HETATM   13  F   UNL     1     -13.412  10.136  70.971  1.00  0.00    -0.433 F  
ENDROOT
BRANCH   5  14
HETATM   14  C   UNL     1      -8.761   6.065  69.226  1.00  0.00    -0.117 C  
HETATM   15  O   UNL     1      -8.701   6.100  68.000  1.00  0.00    -0.115 OA 
BRANCH  14  16
HETATM   16  C   UNL     1      -7.738   5.329  70.070  1.00  0.00    -0.076 C  
HETATM   17  C   UNL     1      -8.364   2.417  70.305  1.00  0.00    -0.073 C  
HETATM   18  C   UNL     1      -9.166   3.448  71.089  1.00  0.00    -0.194 C  
HETATM   19  C   UNL     1      -8.344   4.700  71.302  1.00  0.00    -0.105 C  
HETATM   20  O   UNL     1      -8.255   5.233  72.406  1.00  0.00    -0.115 OA 
HETATM   21  C   UNL     1      -7.797   2.983  69.007  1.00  0.00    -0.054 C  
HETATM   22  C   UNL     1      -7.017   4.251  69.289  1.00  0.00    -0.050 C  
HETATM   23  O   UNL     1      -5.863   4.404  68.890  1.00  0.00    -0.020 OA 
ENDBRANCH  14  16
ENDBRANCH   5  14
TORSDOF 2
ENDMDL
MODEL      150
REMARK 921   NORMALIZED FREE ENERGY PREDICTED BY IDOCK:   -4.59 KCAL/MOL
REMARK 922        TOTAL FREE ENERGY PREDICTED BY IDOCK:   -5.49 KCAL/MOL
REMARK 923 INTER-LIGAND FREE ENERGY PREDICTED BY IDOCK:   -5.17 KCAL/MOL
REMARK 924 INTRA-LIGAND FREE ENERGY PREDICTED BY IDOCK:   -0.32 KCAL/MOL
REMARK 927      BINDING AFFINITY PREDICTED BY RF-SCORE:    0.00 PKD
ROOT
HETATM    1  O   UNL     1      -8.091   9.119  69.245  1.00  0.00    -0.096 OA 
HETATM    2  N   UNL     1      -8.447   8.849  70.400  1.00  0.00    -0.148 N  
HETATM    3  C   UNL     1      -9.678   8.084  70.534  1.00  0.00    -0.178 A  
HETATM    4  O   UNL     1      -7.925   9.254  71.447  1.00  0.00    -0.335 OA 
HETATM    5  C   UNL     1      -9.797   6.800  69.982  1.00  0.00    -0.179 A  
HETATM    6  C   UNL     1     -11.032   6.149  70.096  1.00  0.00    -0.426 A  
HETATM    7  C   UNL     1     -13.213   8.827  71.761  1.00  0.00    -0.367 C  
HETATM    8  C   UNL     1     -12.128   6.793  70.688  1.00  0.00    -0.371 A  
HETATM    9  C   UNL     1     -10.767   8.735  71.136  1.00  0.00    -0.316 A  
HETATM   10  F   UNL     1     -13.044   9.166  73.066  1.00  0.00    -0.433 F  
HETATM   11  C   UNL     1     -12.013   8.097  71.193  1.00  0.00    -0.296 A  
HETATM   12  F   UNL     1     -14.365   8.109  71.698  1.00  0.00    -0.418 F  
HETATM   13  F   UNL     1     -13.457   9.989  71.097  1.00  0.00    -0.421 F  
ENDROOT
BRANCH   5  14
HETATM   14  C   UNL     1      -8.651   6.116  69.321  1.00  0.00    -0.119 C  
HETATM   15  O   UNL     1      -7.599   6.038  69.949  1.00  0.00    -0.078 OA 
BRANCH  14  16
HETATM   16  C   UNL     1      -8.814   5.531  67.932  1.00  0.00    -0.105 C  
HETATM   17  C   UNL     1      -7.530   7.233  65.839  1.00  0.00    -0.080 C  
HETATM   18  C   UNL     1      -8.848   7.652  66.478  1.00  0.00    -0.167 C  
HETATM   19  C   UNL     1      -9.584   6.440  67.004  1.00  0.00    -0.142 C  
HETATM   20  O   UNL     1     -10.776   6.257  66.767  1.00  0.00    -0.290 OA 
HETATM   21  C   UNL     1      -6.676   6.377  66.770  1.00  0.00    -0.060 C  
HETATM   22  C   UNL     1      -7.485   5.204  67.285  1.00  0.00    -0.083 C  
HETATM   23  O   UNL     1      -7.075   4.047  67.199  1.00  0.00    -0.061 OA 
ENDBRANCH  14  16
ENDBRANCH   5  14
TORSDOF 2
ENDMDL
MODEL      151
REMARK 921   NORMALIZED FREE ENERGY PREDICTED BY IDOCK:   -4.56 KCAL/MOL
REMARK 922        TOTAL FREE ENERGY PREDICTED BY IDOCK:   -5.46 KCAL/MOL
REMARK 923 INTER-LIGAND FREE ENERGY PREDICTED BY IDOCK:   -5.17 KCAL/MOL
REMARK 924 INTRA-LIGAND FREE ENERGY PREDICTED BY IDOCK:   -0.29 KCAL/MOL
REMARK 927      BINDING AFFINITY PREDICTED BY RF-SCORE:    0.00 PKD
ROOT
HETATM    1  O   UNL     1      -7.283  11.214  66.959  1.00  0.00    -0.112 OA 
HETATM    2  N   UNL     1      -7.609  11.691  68.054  1.00  0.00    -0.109 N  
HETATM    3  C   UNL     1      -8.997  12.110  68.188  1.00  0.00    -0.195 A  
HETATM    4  O   UNL     1      -6.855  11.947  69.001  1.00  0.00    -0.094 OA 
HETATM    5  C   UNL     1     -10.048  11.191  68.048  1.00  0.00    -0.191 A  
HETATM    6  C   UNL     1     -11.359  11.677  68.128  1.00  0.00    -0.358 A  
HETATM    7  C   UNL     1     -10.807  15.457  68.450  1.00  0.00    -0.268 C  
HETATM    8  C   UNL     1     -11.605  13.049  68.278  1.00  0.00    -0.375 A  
HETATM    9  C   UNL     1      -9.232  13.485  68.347  1.00  0.00    -0.159 A  
HETATM   10  F   UNL     1     -10.320  16.006  69.593  1.00  0.00    -0.223 F  
HETATM   11  C   UNL     1     -10.547  13.967  68.367  1.00  0.00    -0.259 A  
HETATM   12  F   UNL     1     -12.126  15.782  68.401  1.00  0.00    -0.335 F  
HETATM   13  F   UNL     1     -10.215  16.130  67.426  1.00  0.00    -0.249 F  
ENDROOT
BRANCH   5  14
HETATM   14  C   UNL     1      -9.802   9.735  67.854  1.00  0.00    -0.149 C  
HETATM   15  O   UNL     1      -9.158   9.149  68.720  1.00  0.00    -0.135 OA 
BRANCH  14  16
HETATM   16  C   UNL     1     -10.355   9.027  66.633  1.00  0.00    -0.289 C  
HETATM   17  C   UNL     1      -8.246   7.501  65.168  1.00  0.00    -0.122 C  
HETATM   18  C   UNL     1      -8.313   9.020  65.070  1.00  0.00    -0.174 C  
HETATM   19  C   UNL     1      -9.720   9.501  65.347  1.00  0.00    -0.244 C  
HETATM   20  O   UNL     1     -10.281  10.313  64.614  1.00  0.00    -0.322 OA 
HETATM   21  C   UNL     1      -8.802   6.977  66.488  1.00  0.00    -0.151 C  
HETATM   22  C   UNL     1     -10.196   7.524  66.718  1.00  0.00    -0.254 C  
HETATM   23  O   UNL     1     -11.147   6.787  66.979  1.00  0.00    -0.403 OA 
ENDBRANCH  14  16
ENDBRANCH   5  14
TORSDOF 2
ENDMDL
MODEL      152
REMARK 921   NORMALIZED FREE ENERGY PREDICTED BY IDOCK:   -4.55 KCAL/MOL
REMARK 922        TOTAL FREE ENERGY PREDICTED BY IDOCK:   -5.44 KCAL/MOL
REMARK 923 INTER-LIGAND FREE ENERGY PREDICTED BY IDOCK:   -4.79 KCAL/MOL
REMARK 924 INTRA-LIGAND FREE ENERGY PREDICTED BY IDOCK:   -0.65 KCAL/MOL
REMARK 927      BINDING AFFINITY PREDICTED BY RF-SCORE:    0.00 PKD
ROOT
HETATM    1  O   UNL     1      -9.123  10.623  69.525  1.00  0.00    -0.111 OA 
HETATM    2  N   UNL     1     -10.107  10.321  68.839  1.00  0.00    -0.193 N  
HETATM    3  C   UNL     1      -9.836   9.892  67.474  1.00  0.00    -0.169 A  
HETATM    4  O   UNL     1     -11.297  10.450  69.157  1.00  0.00    -0.240 OA 
HETATM    5  C   UNL     1      -9.053   8.758  67.213  1.00  0.00    -0.151 A  
HETATM    6  C   UNL     1      -8.782   8.441  65.876  1.00  0.00    -0.197 A  
HETATM    7  C   UNL     1     -10.386  11.378  64.004  1.00  0.00    -0.362 C  
HETATM    8  C   UNL     1      -9.229   9.274  64.840  1.00  0.00    -0.206 A  
HETATM    9  C   UNL     1     -10.295  10.728  66.444  1.00  0.00    -0.306 A  
HETATM   10  F   UNL     1     -11.735  11.505  63.910  1.00  0.00    -0.448 F  
HETATM   11  C   UNL     1      -9.969  10.434  65.113  1.00  0.00    -0.390 A  
HETATM   12  F   UNL     1      -9.951  10.996  62.774  1.00  0.00    -0.291 F  
HETATM   13  F   UNL     1      -9.901  12.634  64.202  1.00  0.00    -0.300 F  
ENDROOT
BRANCH   5  14
HETATM   14  C   UNL     1      -8.544   7.883  68.306  1.00  0.00    -0.124 C  
HETATM   15  O   UNL     1      -7.334   7.880  68.511  1.00  0.00    -0.092 OA 
BRANCH  14  16
HETATM   16  C   UNL     1      -9.511   7.054  69.128  1.00  0.00    -0.143 C  
HETATM   17  C   UNL     1      -8.945   4.129  68.914  1.00  0.00    -0.162 C  
HETATM   18  C   UNL     1      -9.612   4.875  67.766  1.00  0.00    -0.184 C  
HETATM   19  C   UNL     1     -10.327   6.103  68.285  1.00  0.00    -0.198 C  
HETATM   20  O   UNL     1     -11.482   6.365  67.956  1.00  0.00    -0.163 OA 
HETATM   21  C   UNL     1      -8.043   5.031  69.751  1.00  0.00    -0.074 C  
HETATM   22  C   UNL     1      -8.810   6.255  70.206  1.00  0.00    -0.153 C  
HETATM   23  O   UNL     1      -8.849   6.593  71.389  1.00  0.00    -0.138 OA 
ENDBRANCH  14  16
ENDBRANCH   5  14
TORSDOF 2
ENDMDL
MODEL      153
REMARK 921   NORMALIZED FREE ENERGY PREDICTED BY IDOCK:   -4.55 KCAL/MOL
REMARK 922        TOTAL FREE ENERGY PREDICTED BY IDOCK:   -5.44 KCAL/MOL
REMARK 923 INTER-LIGAND FREE ENERGY PREDICTED BY IDOCK:   -5.08 KCAL/MOL
REMARK 924 INTRA-LIGAND FREE ENERGY PREDICTED BY IDOCK:   -0.36 KCAL/MOL
REMARK 927      BINDING AFFINITY PREDICTED BY RF-SCORE:    0.00 PKD
ROOT
HETATM    1  O   UNL     1      -7.115  11.413  66.770  1.00  0.00    -0.138 OA 
HETATM    2  N   UNL     1      -8.287  11.548  67.145  1.00  0.00    -0.153 N  
HETATM    3  C   UNL     1      -9.290  11.668  66.097  1.00  0.00    -0.224 A  
HETATM    4  O   UNL     1      -8.676  11.702  68.310  1.00  0.00    -0.153 OA 
HETATM    5  C   UNL     1      -9.494  10.637  65.168  1.00  0.00    -0.276 A  
HETATM    6  C   UNL     1     -10.433  10.847  64.150  1.00  0.00    -0.397 A  
HETATM    7  C   UNL     1     -11.501  14.477  64.766  1.00  0.00    -0.408 C  
HETATM    8  C   UNL     1     -11.096  12.077  64.032  1.00  0.00    -0.452 A  
HETATM    9  C   UNL     1      -9.954  12.901  65.992  1.00  0.00    -0.275 A  
HETATM   10  F   UNL     1     -12.278  14.815  65.828  1.00  0.00    -0.313 F  
HETATM   11  C   UNL     1     -10.848  13.121  64.937  1.00  0.00    -0.348 A  
HETATM   12  F   UNL     1     -12.296  14.563  63.667  1.00  0.00    -0.439 F  
HETATM   13  F   UNL     1     -10.578  15.469  64.642  1.00  0.00    -0.419 F  
ENDROOT
BRANCH   5  14
HETATM   14  C   UNL     1      -8.773   9.337  65.262  1.00  0.00    -0.184 C  
HETATM   15  O   UNL     1      -8.792   8.755  66.343  1.00  0.00    -0.133 OA 
BRANCH  14  16
HETATM   16  C   UNL     1      -8.068   8.770  64.045  1.00  0.00    -0.164 C  
HETATM   17  C   UNL     1      -5.192   8.174  64.591  1.00  0.00    -0.036 C  
HETATM   18  C   UNL     1      -5.664   9.610  64.403  1.00  0.00    -0.081 C  
HETATM   19  C   UNL     1      -6.928   9.642  63.574  1.00  0.00    -0.109 C  
HETATM   20  O   UNL     1      -7.057  10.411  62.623  1.00  0.00    -0.139 OA 
HETATM   21  C   UNL     1      -6.287   7.268  65.145  1.00  0.00    -0.038 C  
HETATM   22  C   UNL     1      -7.533   7.375  64.289  1.00  0.00    -0.098 C  
HETATM   23  O   UNL     1      -8.091   6.380  63.829  1.00  0.00    -0.109 OA 
ENDBRANCH  14  16
ENDBRANCH   5  14
TORSDOF 2
ENDMDL
MODEL      154
REMARK 921   NORMALIZED FREE ENERGY PREDICTED BY IDOCK:   -4.51 KCAL/MOL
REMARK 922        TOTAL FREE ENERGY PREDICTED BY IDOCK:   -5.40 KCAL/MOL
REMARK 923 INTER-LIGAND FREE ENERGY PREDICTED BY IDOCK:   -5.06 KCAL/MOL
REMARK 924 INTRA-LIGAND FREE ENERGY PREDICTED BY IDOCK:   -0.34 KCAL/MOL
REMARK 927      BINDING AFFINITY PREDICTED BY RF-SCORE:    0.00 PKD
ROOT
HETATM    1  O   UNL     1      -8.709   6.414  67.502  1.00  0.00    -0.115 OA 
HETATM    2  N   UNL     1      -9.778   7.034  67.577  1.00  0.00    -0.132 N  
HETATM    3  C   UNL     1      -9.968   7.852  68.767  1.00  0.00    -0.187 A  
HETATM    4  O   UNL     1     -10.739   6.944  66.803  1.00  0.00    -0.297 OA 
HETATM    5  C   UNL     1      -9.099   8.912  69.064  1.00  0.00    -0.137 A  
HETATM    6  C   UNL     1      -9.305   9.615  70.257  1.00  0.00    -0.292 A  
HETATM    7  C   UNL     1     -12.178   7.653  71.869  1.00  0.00    -0.304 C  
HETATM    8  C   UNL     1     -10.311   9.223  71.153  1.00  0.00    -0.392 A  
HETATM    9  C   UNL     1     -10.983   7.456  69.653  1.00  0.00    -0.186 A  
HETATM   10  F   UNL     1     -13.443   7.718  71.377  1.00  0.00    -0.347 F  
HETATM   11  C   UNL     1     -11.144   8.129  70.870  1.00  0.00    -0.280 A  
HETATM   12  F   UNL     1     -12.182   8.364  73.028  1.00  0.00    -0.410 F  
HETATM   13  F   UNL     1     -11.977   6.355  72.224  1.00  0.00    -0.327 F  
ENDROOT
BRANCH   5  14
HETATM   14  C   UNL     1      -8.005   9.318  68.138  1.00  0.00    -0.099 C  
HETATM   15  O   UNL     1      -7.022   8.587  68.066  1.00  0.00    -0.072 OA 
BRANCH  14  16
HETATM   16  C   UNL     1      -8.140  10.583  67.312  1.00  0.00    -0.115 C  
HETATM   17  C   UNL     1      -8.602   9.992  64.421  1.00  0.00    -0.199 C  
HETATM   18  C   UNL     1      -7.220   9.815  65.036  1.00  0.00    -0.127 C  
HETATM   19  C   UNL     1      -7.070  10.703  66.252  1.00  0.00    -0.137 C  
HETATM   20  O   UNL     1      -6.080  11.412  66.415  1.00  0.00    -0.144 OA 
HETATM   21  C   UNL     1      -9.723   9.800  65.437  1.00  0.00    -0.383 C  
HETATM   22  C   UNL     1      -9.492  10.691  66.641  1.00  0.00    -0.167 C  
HETATM   23  O   UNL     1     -10.363  11.451  67.062  1.00  0.00    -0.209 OA 
ENDBRANCH  14  16
ENDBRANCH   5  14
TORSDOF 2
ENDMDL
MODEL      155
REMARK 921   NORMALIZED FREE ENERGY PREDICTED BY IDOCK:   -4.50 KCAL/MOL
REMARK 922        TOTAL FREE ENERGY PREDICTED BY IDOCK:   -5.39 KCAL/MOL
REMARK 923 INTER-LIGAND FREE ENERGY PREDICTED BY IDOCK:   -4.79 KCAL/MOL
REMARK 924 INTRA-LIGAND FREE ENERGY PREDICTED BY IDOCK:   -0.60 KCAL/MOL
REMARK 927      BINDING AFFINITY PREDICTED BY RF-SCORE:    0.00 PKD
ROOT
HETATM    1  O   UNL     1     -10.790   6.025  66.915  1.00  0.00    -0.313 OA 
HETATM    2  N   UNL     1      -9.795   6.747  66.775  1.00  0.00    -0.180 N  
HETATM    3  C   UNL     1      -9.993   8.172  67.004  1.00  0.00    -0.259 A  
HETATM    4  O   UNL     1      -8.683   6.399  66.356  1.00  0.00    -0.128 OA 
HETATM    5  C   UNL     1     -10.417   8.653  68.251  1.00  0.00    -0.234 A  
HETATM    6  C   UNL     1     -10.647  10.028  68.381  1.00  0.00    -0.253 A  
HETATM    7  C   UNL     1     -10.079  11.286  64.803  1.00  0.00    -0.285 C  
HETATM    8  C   UNL     1     -10.518  10.881  67.275  1.00  0.00    -0.275 A  
HETATM    9  C   UNL     1      -9.854   9.018  65.892  1.00  0.00    -0.257 A  
HETATM   10  F   UNL     1      -8.834  11.341  64.262  1.00  0.00    -0.113 F  
HETATM   11  C   UNL     1     -10.142  10.383  66.018  1.00  0.00    -0.307 A  
HETATM   12  F   UNL     1     -10.441  12.570  65.062  1.00  0.00    -0.282 F  
HETATM   13  F   UNL     1     -10.904  10.855  63.811  1.00  0.00    -0.429 F  
ENDROOT
BRANCH   5  14
HETATM   14  C   UNL     1     -10.590   7.753  69.426  1.00  0.00    -0.208 C  
HETATM   15  O   UNL     1     -11.710   7.677  69.921  1.00  0.00     0.066 OA 
BRANCH  14  16
HETATM   16  C   UNL     1      -9.411   6.960  69.956  1.00  0.00    -0.158 C  
HETATM   17  C   UNL     1      -8.714   7.721  72.759  1.00  0.00    -0.208 C  
HETATM   18  C   UNL     1      -8.354   8.636  71.595  1.00  0.00    -0.216 C  
HETATM   19  C   UNL     1      -8.235   7.835  70.317  1.00  0.00    -0.125 C  
HETATM   20  O   UNL     1      -7.274   7.965  69.562  1.00  0.00    -0.076 OA 
HETATM   21  C   UNL     1      -9.948   6.872  72.474  1.00  0.00    -0.187 C  
HETATM   22  C   UNL     1      -9.776   6.126  71.166  1.00  0.00    -0.176 C  
HETATM   23  O   UNL     1      -9.940   4.910  71.086  1.00  0.00    -0.186 OA 
ENDBRANCH  14  16
ENDBRANCH   5  14
TORSDOF 2
ENDMDL
MODEL      156
REMARK 921   NORMALIZED FREE ENERGY PREDICTED BY IDOCK:   -4.48 KCAL/MOL
REMARK 922        TOTAL FREE ENERGY PREDICTED BY IDOCK:   -5.37 KCAL/MOL
REMARK 923 INTER-LIGAND FREE ENERGY PREDICTED BY IDOCK:   -5.04 KCAL/MOL
REMARK 924 INTRA-LIGAND FREE ENERGY PREDICTED BY IDOCK:   -0.33 KCAL/MOL
REMARK 927      BINDING AFFINITY PREDICTED BY RF-SCORE:    0.00 PKD
ROOT
HETATM    1  O   UNL     1     -11.842   6.310  69.668  1.00  0.00    -0.290 OA 
HETATM    2  N   UNL     1     -11.084   6.682  68.763  1.00  0.00    -0.252 N  
HETATM    3  C   UNL     1     -10.241   7.832  69.058  1.00  0.00    -0.208 A  
HETATM    4  O   UNL     1     -11.050   6.248  67.604  1.00  0.00    -0.341 OA 
HETATM    5  C   UNL     1      -9.305   7.795  70.101  1.00  0.00    -0.153 A  
HETATM    6  C   UNL     1      -8.573   8.959  70.367  1.00  0.00    -0.198 A  
HETATM    7  C   UNL     1     -10.124  11.471  67.920  1.00  0.00    -0.189 C  
HETATM    8  C   UNL     1      -8.822  10.139  69.651  1.00  0.00    -0.184 A  
HETATM    9  C   UNL     1     -10.493   9.006  68.329  1.00  0.00    -0.247 A  
HETATM   10  F   UNL     1      -9.894  11.392  66.584  1.00  0.00    -0.207 F  
HETATM   11  C   UNL     1      -9.796  10.180  68.642  1.00  0.00    -0.170 A  
HETATM   12  F   UNL     1      -9.413  12.540  68.368  1.00  0.00    -0.205 F  
HETATM   13  F   UNL     1     -11.436  11.808  68.059  1.00  0.00    -0.281 F  
ENDROOT
BRANCH   5  14
HETATM   14  C   UNL     1      -9.053   6.559  70.892  1.00  0.00    -0.154 C  
HETATM   15  O   UNL     1      -8.715   5.552  70.277  1.00  0.00    -0.125 OA 
BRANCH  14  16
HETATM   16  C   UNL     1      -9.199   6.579  72.401  1.00  0.00    -0.137 C  
HETATM   17  C   UNL     1     -10.872   4.314  73.398  1.00  0.00    -0.337 C  
HETATM   18  C   UNL     1     -11.518   5.510  72.711  1.00  0.00    -0.339 C  
HETATM   19  C   UNL     1     -10.635   6.731  72.845  1.00  0.00    -0.250 C  
HETATM   20  O   UNL     1     -11.086   7.817  73.204  1.00  0.00    -0.409 OA 
HETATM   21  C   UNL     1      -9.443   4.068  72.922  1.00  0.00    -0.156 C  
HETATM   22  C   UNL     1      -8.627   5.338  73.051  1.00  0.00    -0.118 C  
HETATM   23  O   UNL     1      -7.546   5.357  73.639  1.00  0.00    -0.093 OA 
ENDBRANCH  14  16
ENDBRANCH   5  14
TORSDOF 2
ENDMDL
MODEL      157
REMARK 921   NORMALIZED FREE ENERGY PREDICTED BY IDOCK:   -4.45 KCAL/MOL
REMARK 922        TOTAL FREE ENERGY PREDICTED BY IDOCK:   -5.33 KCAL/MOL
REMARK 923 INTER-LIGAND FREE ENERGY PREDICTED BY IDOCK:   -4.84 KCAL/MOL
REMARK 924 INTRA-LIGAND FREE ENERGY PREDICTED BY IDOCK:   -0.49 KCAL/MOL
REMARK 927      BINDING AFFINITY PREDICTED BY RF-SCORE:    0.00 PKD
ROOT
HETATM    1  O   UNL     1     -11.492   6.291  69.016  1.00  0.00    -0.363 OA 
HETATM    2  N   UNL     1     -11.634   6.402  70.241  1.00  0.00    -0.412 N  
HETATM    3  C   UNL     1     -10.531   5.927  71.065  1.00  0.00    -0.237 A  
HETATM    4  O   UNL     1     -12.655   6.772  70.834  1.00  0.00    -0.336 OA 
HETATM    5  C   UNL     1      -9.252   6.492  70.959  1.00  0.00    -0.161 A  
HETATM    6  C   UNL     1      -8.226   5.943  71.737  1.00  0.00    -0.119 A  
HETATM    7  C   UNL     1      -9.980   2.975  73.416  1.00  0.00    -0.108 C  
HETATM    8  C   UNL     1      -8.464   4.822  72.546  1.00  0.00    -0.116 A  
HETATM    9  C   UNL     1     -10.783   4.810  71.877  1.00  0.00    -0.079 A  
HETATM   10  F   UNL     1     -10.899   3.160  74.399  1.00  0.00    -0.231 F  
HETATM   11  C   UNL     1      -9.736   4.232  72.607  1.00  0.00    -0.193 A  
HETATM   12  F   UNL     1      -8.862   2.495  74.023  1.00  0.00    -0.071 F  
HETATM   13  F   UNL     1     -10.452   1.961  72.642  1.00  0.00    -0.191 F  
ENDROOT
BRANCH   5  14
HETATM   14  C   UNL     1      -8.977   7.662  70.079  1.00  0.00    -0.143 C  
HETATM   15  O   UNL     1      -8.639   7.433  68.921  1.00  0.00    -0.129 OA 
BRANCH  14  16
HETATM   16  C   UNL     1      -9.136   9.071  70.616  1.00  0.00    -0.280 C  
HETATM   17  C   UNL     1      -9.709  11.041  68.446  1.00  0.00    -0.181 C  
HETATM   18  C   UNL     1      -8.306  10.478  68.630  1.00  0.00    -0.132 C  
HETATM   19  C   UNL     1      -8.107  10.026  70.060  1.00  0.00    -0.136 C  
HETATM   20  O   UNL     1      -7.108  10.341  70.703  1.00  0.00    -0.322 OA 
HETATM   21  C   UNL     1     -10.792  10.077  68.919  1.00  0.00    -0.250 C  
HETATM   22  C   UNL     1     -10.512   9.639  70.342  1.00  0.00    -0.293 C  
HETATM   23  O   UNL     1     -11.364   9.724  71.226  1.00  0.00    -0.361 OA 
ENDBRANCH  14  16
ENDBRANCH   5  14
TORSDOF 2
ENDMDL
MODEL      158
REMARK 921   NORMALIZED FREE ENERGY PREDICTED BY IDOCK:   -4.45 KCAL/MOL
REMARK 922        TOTAL FREE ENERGY PREDICTED BY IDOCK:   -5.33 KCAL/MOL
REMARK 923 INTER-LIGAND FREE ENERGY PREDICTED BY IDOCK:   -5.10 KCAL/MOL
REMARK 924 INTRA-LIGAND FREE ENERGY PREDICTED BY IDOCK:   -0.24 KCAL/MOL
REMARK 927      BINDING AFFINITY PREDICTED BY RF-SCORE:    0.00 PKD
ROOT
HETATM    1  O   UNL     1      -7.781   9.747  66.417  1.00  0.00    -0.100 OA 
HETATM    2  N   UNL     1      -8.987   9.521  66.581  1.00  0.00    -0.143 N  
HETATM    3  C   UNL     1      -9.430   9.343  67.956  1.00  0.00    -0.133 A  
HETATM    4  O   UNL     1      -9.829   9.325  65.694  1.00  0.00    -0.289 OA 
HETATM    5  C   UNL     1      -9.287  10.368  68.902  1.00  0.00    -0.190 A  
HETATM    6  C   UNL     1      -9.677  10.103  70.221  1.00  0.00     0.021 A  
HETATM    7  C   UNL     1     -10.645   6.397  70.053  1.00  0.00    -0.236 C  
HETATM    8  C   UNL     1     -10.135   8.830  70.589  1.00  0.00    -0.248 A  
HETATM    9  C   UNL     1      -9.894   8.066  68.312  1.00  0.00    -0.190 A  
HETATM   10  F   UNL     1     -11.778   5.990  69.424  1.00  0.00    -0.458 F  
HETATM   11  C   UNL     1     -10.227   7.795  69.645  1.00  0.00    -0.206 A  
HETATM   12  F   UNL     1     -10.880   6.268  71.386  1.00  0.00    -0.259 F  
HETATM   13  F   UNL     1      -9.690   5.476  69.748  1.00  0.00    -0.174 F  
ENDROOT
BRANCH   5  14
HETATM   14  C   UNL     1      -8.771  11.715  68.533  1.00  0.00    -0.130 C  
HETATM   15  O   UNL     1      -7.562  11.830  68.354  1.00  0.00    -0.109 OA 
BRANCH  14  16
HETATM   16  C   UNL     1      -9.730  12.879  68.371  1.00  0.00    -0.186 C  
HETATM   17  C   UNL     1     -11.515  12.540  66.000  1.00  0.00    -0.423 C  
HETATM   18  C   UNL     1     -10.054  12.932  65.820  1.00  0.00    -0.294 C  
HETATM   19  C   UNL     1      -9.538  13.615  67.067  1.00  0.00    -0.251 C  
HETATM   20  O   UNL     1      -8.908  14.669  67.011  1.00  0.00    -0.216 OA 
HETATM   21  C   UNL     1     -11.749  11.721  67.265  1.00  0.00    -0.293 C  
HETATM   22  C   UNL     1     -11.178  12.447  68.467  1.00  0.00    -0.279 C  
HETATM   23  O   UNL     1     -11.850  12.660  69.475  1.00  0.00    -0.306 OA 
ENDBRANCH  14  16
ENDBRANCH   5  14
TORSDOF 2
ENDMDL
MODEL      159
REMARK 921   NORMALIZED FREE ENERGY PREDICTED BY IDOCK:   -4.44 KCAL/MOL
REMARK 922        TOTAL FREE ENERGY PREDICTED BY IDOCK:   -5.32 KCAL/MOL
REMARK 923 INTER-LIGAND FREE ENERGY PREDICTED BY IDOCK:   -4.80 KCAL/MOL
REMARK 924 INTRA-LIGAND FREE ENERGY PREDICTED BY IDOCK:   -0.52 KCAL/MOL
REMARK 927      BINDING AFFINITY PREDICTED BY RF-SCORE:    0.00 PKD
ROOT
HETATM    1  O   UNL     1      -8.063   7.751  69.662  1.00  0.00    -0.117 OA 
HETATM    2  N   UNL     1      -9.184   7.619  69.154  1.00  0.00    -0.142 N  
HETATM    3  C   UNL     1     -10.237   8.473  69.685  1.00  0.00    -0.209 A  
HETATM    4  O   UNL     1      -9.524   6.764  68.326  1.00  0.00    -0.127 OA 
HETATM    5  C   UNL     1     -10.145   9.870  69.607  1.00  0.00    -0.254 A  
HETATM    6  C   UNL     1     -11.165  10.629  70.194  1.00  0.00    -0.378 A  
HETATM    7  C   UNL     1     -13.347   7.933  71.826  1.00  0.00    -0.328 C  
HETATM    8  C   UNL     1     -12.209  10.005  70.892  1.00  0.00    -0.441 A  
HETATM    9  C   UNL     1     -11.282   7.837  70.375  1.00  0.00    -0.246 A  
HETATM   10  F   UNL     1     -14.120   7.101  71.081  1.00  0.00    -0.481 F  
HETATM   11  C   UNL     1     -12.266   8.608  71.007  1.00  0.00    -0.207 A  
HETATM   12  F   UNL     1     -14.197   8.806  72.430  1.00  0.00    -0.449 F  
HETATM   13  F   UNL     1     -12.822   7.169  72.823  1.00  0.00     0.179 F  
ENDROOT
BRANCH   5  14
HETATM   14  C   UNL     1      -9.024  10.548  68.897  1.00  0.00    -0.172 C  
HETATM   15  O   UNL     1      -7.983  10.727  69.523  1.00  0.00    -0.118 OA 
BRANCH  14  16
HETATM   16  C   UNL     1      -9.186  10.971  67.450  1.00  0.00    -0.157 C  
HETATM   17  C   UNL     1      -6.758  10.357  65.823  1.00  0.00    -0.126 C  
HETATM   18  C   UNL     1      -6.761  11.526  66.799  1.00  0.00    -0.121 C  
HETATM   19  C   UNL     1      -8.175  12.011  67.031  1.00  0.00    -0.169 C  
HETATM   20  O   UNL     1      -8.464  13.205  66.977  1.00  0.00    -0.194 OA 
HETATM   21  C   UNL     1      -7.706   9.240  66.246  1.00  0.00    -0.096 C  
HETATM   22  C   UNL     1      -9.092   9.801  66.495  1.00  0.00    -0.153 C  
HETATM   23  O   UNL     1     -10.091   9.320  65.961  1.00  0.00    -0.297 OA 
ENDBRANCH  14  16
ENDBRANCH   5  14
TORSDOF 2
ENDMDL
MODEL      160
REMARK 921   NORMALIZED FREE ENERGY PREDICTED BY IDOCK:   -4.44 KCAL/MOL
REMARK 922        TOTAL FREE ENERGY PREDICTED BY IDOCK:   -5.32 KCAL/MOL
REMARK 923 INTER-LIGAND FREE ENERGY PREDICTED BY IDOCK:   -4.81 KCAL/MOL
REMARK 924 INTRA-LIGAND FREE ENERGY PREDICTED BY IDOCK:   -0.50 KCAL/MOL
REMARK 927      BINDING AFFINITY PREDICTED BY RF-SCORE:    0.00 PKD
ROOT
HETATM    1  O   UNL     1      -9.239  10.700  69.053  1.00  0.00    -0.175 OA 
HETATM    2  N   UNL     1      -8.410  11.062  68.208  1.00  0.00    -0.126 N  
HETATM    3  C   UNL     1      -8.632  10.596  66.846  1.00  0.00    -0.126 A  
HETATM    4  O   UNL     1      -7.360  11.682  68.421  1.00  0.00    -0.083 OA 
HETATM    5  C   UNL     1      -9.797  10.938  66.145  1.00  0.00    -0.268 A  
HETATM    6  C   UNL     1      -9.972  10.404  64.862  1.00  0.00    -0.409 A  
HETATM    7  C   UNL     1      -6.928   8.096  64.523  1.00  0.00    -0.075 C  
HETATM    8  C   UNL     1      -9.037   9.503  64.330  1.00  0.00    -0.220 A  
HETATM    9  C   UNL     1      -7.686   9.702  66.319  1.00  0.00    -0.101 A  
HETATM   10  F   UNL     1      -5.676   8.596  64.362  1.00  0.00    -0.059 F  
HETATM   11  C   UNL     1      -7.899   9.128  65.060  1.00  0.00    -0.112 A  
HETATM   12  F   UNL     1      -7.293   7.583  63.318  1.00  0.00    -0.069 F  
HETATM   13  F   UNL     1      -6.806   7.033  65.363  1.00  0.00    -0.047 F  
ENDROOT
BRANCH   5  14
HETATM   14  C   UNL     1     -10.814  11.867  66.711  1.00  0.00    -0.266 C  
HETATM   15  O   UNL     1     -11.666  11.390  67.455  1.00  0.00    -0.568 OA 
BRANCH  14  16
HETATM   16  C   UNL     1     -10.762  13.346  66.378  1.00  0.00    -0.289 C  
HETATM   17  C   UNL     1     -11.084  15.055  68.806  1.00  0.00    -0.269 C  
HETATM   18  C   UNL     1     -12.284  14.339  68.198  1.00  0.00    -0.164 C  
HETATM   19  C   UNL     1     -12.042  14.067  66.730  1.00  0.00    -0.447 C  
HETATM   20  O   UNL     1     -12.887  14.331  65.877  1.00  0.00    -0.434 OA 
HETATM   21  C   UNL     1      -9.773  14.320  68.547  1.00  0.00    -0.225 C  
HETATM   22  C   UNL     1      -9.612  14.050  67.065  1.00  0.00    -0.253 C  
HETATM   23  O   UNL     1      -8.593  14.371  66.454  1.00  0.00    -0.028 OA 
ENDBRANCH  14  16
ENDBRANCH   5  14
TORSDOF 2
ENDMDL
MODEL      161
REMARK 921   NORMALIZED FREE ENERGY PREDICTED BY IDOCK:   -4.42 KCAL/MOL
REMARK 922        TOTAL FREE ENERGY PREDICTED BY IDOCK:   -5.30 KCAL/MOL
REMARK 923 INTER-LIGAND FREE ENERGY PREDICTED BY IDOCK:   -4.95 KCAL/MOL
REMARK 924 INTRA-LIGAND FREE ENERGY PREDICTED BY IDOCK:   -0.35 KCAL/MOL
REMARK 927      BINDING AFFINITY PREDICTED BY RF-SCORE:    0.00 PKD
ROOT
HETATM    1  O   UNL     1      -8.129  11.768  68.687  1.00  0.00    -0.148 OA 
HETATM    2  N   UNL     1      -7.370  11.496  67.748  1.00  0.00    -0.091 N  
HETATM    3  C   UNL     1      -7.800  10.427  66.858  1.00  0.00    -0.114 A  
HETATM    4  O   UNL     1      -6.240  11.962  67.554  1.00  0.00    -0.075 OA 
HETATM    5  C   UNL     1      -8.994  10.528  66.129  1.00  0.00    -0.178 A  
HETATM    6  C   UNL     1      -9.376   9.435  65.342  1.00  0.00    -0.311 A  
HETATM    7  C   UNL     1      -6.670   6.849  66.173  1.00  0.00    -0.052 C  
HETATM    8  C   UNL     1      -8.617   8.256  65.338  1.00  0.00    -0.176 A  
HETATM    9  C   UNL     1      -7.028   9.254  66.856  1.00  0.00    -0.081 A  
HETATM   10  F   UNL     1      -5.397   6.987  65.719  1.00  0.00    -0.023 F  
HETATM   11  C   UNL     1      -7.450   8.146  66.110  1.00  0.00    -0.078 A  
HETATM   12  F   UNL     1      -7.228   5.844  65.447  1.00  0.00    -0.066 F  
HETATM   13  F   UNL     1      -6.569   6.382  67.447  1.00  0.00    -0.048 F  
ENDROOT
BRANCH   5  14
HETATM   14  C   UNL     1      -9.828  11.762  66.149  1.00  0.00    -0.229 C  
HETATM   15  O   UNL     1      -9.298  12.810  65.792  1.00  0.00    -0.084 OA 
BRANCH  14  16
HETATM   16  C   UNL     1     -11.281  11.690  66.578  1.00  0.00    -0.356 C  
HETATM   17  C   UNL     1     -12.108  14.095  68.145  1.00  0.00    -0.297 C  
HETATM   18  C   UNL     1     -11.235  13.020  68.779  1.00  0.00    -0.325 C  
HETATM   19  C   UNL     1     -11.445  11.695  68.080  1.00  0.00    -0.315 C  
HETATM   20  O   UNL     1     -11.641  10.658  68.709  1.00  0.00    -0.276 OA 
HETATM   21  C   UNL     1     -11.917  14.186  66.634  1.00  0.00    -0.470 C  
HETATM   22  C   UNL     1     -12.107  12.821  66.004  1.00  0.00    -0.395 C  
HETATM   23  O   UNL     1     -12.880  12.643  65.063  1.00  0.00    -0.765 OA 
ENDBRANCH  14  16
ENDBRANCH   5  14
TORSDOF 2
ENDMDL
MODEL      162
REMARK 921   NORMALIZED FREE ENERGY PREDICTED BY IDOCK:   -4.42 KCAL/MOL
REMARK 922        TOTAL FREE ENERGY PREDICTED BY IDOCK:   -5.30 KCAL/MOL
REMARK 923 INTER-LIGAND FREE ENERGY PREDICTED BY IDOCK:   -5.21 KCAL/MOL
REMARK 924 INTRA-LIGAND FREE ENERGY PREDICTED BY IDOCK:   -0.09 KCAL/MOL
REMARK 927      BINDING AFFINITY PREDICTED BY RF-SCORE:    0.00 PKD
ROOT
HETATM    1  O   UNL     1     -11.929  11.523  67.305  1.00  0.00    -0.605 OA 
HETATM    2  N   UNL     1     -11.647  11.316  68.493  1.00  0.00    -0.300 N  
HETATM    3  C   UNL     1     -10.237  11.114  68.797  1.00  0.00    -0.206 A  
HETATM    4  O   UNL     1     -12.447  11.155  69.424  1.00  0.00    -0.323 OA 
HETATM    5  C   UNL     1      -9.290  12.115  68.536  1.00  0.00    -0.108 A  
HETATM    6  C   UNL     1      -7.944  11.828  68.795  1.00  0.00    -0.063 A  
HETATM    7  C   UNL     1      -8.089   8.145  69.853  1.00  0.00    -0.115 C  
HETATM    8  C   UNL     1      -7.558  10.555  69.240  1.00  0.00    -0.134 A  
HETATM    9  C   UNL     1      -9.863   9.839  69.249  1.00  0.00    -0.208 A  
HETATM   10  F   UNL     1      -8.607   7.773  71.052  1.00  0.00    -0.119 F  
HETATM   11  C   UNL     1      -8.508   9.544  69.450  1.00  0.00    -0.146 A  
HETATM   12  F   UNL     1      -6.742   7.989  69.953  1.00  0.00    -0.036 F  
HETATM   13  F   UNL     1      -8.509   7.214  68.953  1.00  0.00    -0.122 F  
ENDROOT
BRANCH   5  14
HETATM   14  C   UNL     1      -9.682  13.461  68.033  1.00  0.00    -0.222 C  
HETATM   15  O   UNL     1     -10.598  14.037  68.612  1.00  0.00    -0.246 OA 
BRANCH  14  16
HETATM   16  C   UNL     1      -8.945  14.078  66.860  1.00  0.00    -0.243 C  
HETATM   17  C   UNL     1      -9.366  17.031  66.699  1.00  0.00    -0.274 C  
HETATM   18  C   UNL     1     -10.469  16.067  66.281  1.00  0.00    -0.326 C  
HETATM   19  C   UNL     1      -9.876  14.738  65.870  1.00  0.00    -0.334 C  
HETATM   20  O   UNL     1     -10.210  14.177  64.828  1.00  0.00    -0.419 OA 
HETATM   21  C   UNL     1      -8.444  16.439  67.760  1.00  0.00    -0.172 C  
HETATM   22  C   UNL     1      -7.915  15.096  67.299  1.00  0.00    -0.205 C  
HETATM   23  O   UNL     1      -6.712  14.839  67.298  1.00  0.00    -0.279 OA 
ENDBRANCH  14  16
ENDBRANCH   5  14
TORSDOF 2
ENDMDL
MODEL      163
REMARK 921   NORMALIZED FREE ENERGY PREDICTED BY IDOCK:   -4.40 KCAL/MOL
REMARK 922        TOTAL FREE ENERGY PREDICTED BY IDOCK:   -5.27 KCAL/MOL
REMARK 923 INTER-LIGAND FREE ENERGY PREDICTED BY IDOCK:   -4.94 KCAL/MOL
REMARK 924 INTRA-LIGAND FREE ENERGY PREDICTED BY IDOCK:   -0.33 KCAL/MOL
REMARK 927      BINDING AFFINITY PREDICTED BY RF-SCORE:    0.00 PKD
ROOT
HETATM    1  O   UNL     1     -11.382  15.915  66.867  1.00  0.00    -0.081 OA 
HETATM    2  N   UNL     1     -11.423  14.870  67.531  1.00  0.00    -0.346 N  
HETATM    3  C   UNL     1     -10.256  14.003  67.442  1.00  0.00    -0.248 A  
HETATM    4  O   UNL     1     -12.391  14.439  68.170  1.00  0.00    -0.196 OA 
HETATM    5  C   UNL     1      -8.989  14.450  67.846  1.00  0.00    -0.186 A  
HETATM    6  C   UNL     1      -7.903  13.583  67.673  1.00  0.00    -0.178 A  
HETATM    7  C   UNL     1      -9.514  10.608  65.870  1.00  0.00    -0.196 C  
HETATM    8  C   UNL     1      -8.074  12.336  67.055  1.00  0.00    -0.141 A  
HETATM    9  C   UNL     1     -10.441  12.753  66.829  1.00  0.00    -0.253 A  
HETATM   10  F   UNL     1     -10.349   9.755  66.519  1.00  0.00    -0.287 F  
HETATM   11  C   UNL     1      -9.338  11.919  66.609  1.00  0.00    -0.210 A  
HETATM   12  F   UNL     1      -8.351   9.931  65.677  1.00  0.00    -0.123 F  
HETATM   13  F   UNL     1     -10.051  10.794  64.633  1.00  0.00    -0.303 F  
ENDROOT
BRANCH   5  14
HETATM   14  C   UNL     1      -8.787  15.785  68.473  1.00  0.00    -0.193 C  
HETATM   15  O   UNL     1      -9.485  16.067  69.443  1.00  0.00    -0.250 OA 
BRANCH  14  16
HETATM   16  C   UNL     1      -7.736  16.731  67.925  1.00  0.00    -0.178 C  
HETATM   17  C   UNL     1      -8.580  19.588  68.130  1.00  0.00    -0.368 C  
HETATM   18  C   UNL     1      -9.185  18.676  67.071  1.00  0.00    -0.295 C  
HETATM   19  C   UNL     1      -8.236  17.541  66.753  1.00  0.00    -0.244 C  
HETATM   20  O   UNL     1      -7.964  17.233  65.595  1.00  0.00    -0.437 OA 
HETATM   21  C   UNL     1      -8.132  18.825  69.372  1.00  0.00     0.213 C  
HETATM   22  C   UNL     1      -7.215  17.685  68.978  1.00  0.00    -0.214 C  
HETATM   23  O   UNL     1      -6.111  17.532  69.499  1.00  0.00    -0.231 OA 
ENDBRANCH  14  16
ENDBRANCH   5  14
TORSDOF 2
ENDMDL
MODEL      164
REMARK 921   NORMALIZED FREE ENERGY PREDICTED BY IDOCK:   -4.39 KCAL/MOL
REMARK 922        TOTAL FREE ENERGY PREDICTED BY IDOCK:   -5.26 KCAL/MOL
REMARK 923 INTER-LIGAND FREE ENERGY PREDICTED BY IDOCK:   -4.76 KCAL/MOL
REMARK 924 INTRA-LIGAND FREE ENERGY PREDICTED BY IDOCK:   -0.50 KCAL/MOL
REMARK 927      BINDING AFFINITY PREDICTED BY RF-SCORE:    0.00 PKD
ROOT
HETATM    1  O   UNL     1      -8.608   5.508  68.005  1.00  0.00    -0.102 OA 
HETATM    2  N   UNL     1      -9.803   5.813  67.900  1.00  0.00    -0.120 N  
HETATM    3  C   UNL     1     -10.252   6.946  68.697  1.00  0.00    -0.173 A  
HETATM    4  O   UNL     1     -10.671   5.191  67.275  1.00  0.00    -0.142 OA 
HETATM    5  C   UNL     1      -9.702   8.223  68.517  1.00  0.00    -0.165 A  
HETATM    6  C   UNL     1     -10.138   9.251  69.362  1.00  0.00    -0.200 A  
HETATM    7  C   UNL     1     -12.479   7.390  71.762  1.00  0.00    -0.336 C  
HETATM    8  C   UNL     1     -11.049   8.988  70.396  1.00  0.00    -0.279 A  
HETATM    9  C   UNL     1     -11.171   6.673  69.724  1.00  0.00    -0.413 A  
HETATM   10  F   UNL     1     -13.693   6.936  71.356  1.00  0.00    -0.392 F  
HETATM   11  C   UNL     1     -11.557   7.696  70.600  1.00  0.00    -0.251 A  
HETATM   12  F   UNL     1     -12.719   8.463  72.562  1.00  0.00    -0.370 F  
HETATM   13  F   UNL     1     -11.965   6.425  72.573  1.00  0.00    -0.302 F  
ENDROOT
BRANCH   5  14
HETATM   14  C   UNL     1      -8.708   8.509  67.445  1.00  0.00    -0.134 C  
HETATM   15  O   UNL     1      -7.560   8.769  67.791  1.00  0.00    -0.095 OA 
BRANCH  14  16
HETATM   16  C   UNL     1      -9.126   8.455  65.988  1.00  0.00    -0.235 C  
HETATM   17  C   UNL     1      -7.099   9.715  64.192  1.00  0.00    -0.119 C  
HETATM   18  C   UNL     1      -8.014  10.577  65.052  1.00  0.00    -0.079 C  
HETATM   19  C   UNL     1      -9.287   9.827  65.377  1.00  0.00    -0.252 C  
HETATM   20  O   UNL     1     -10.393  10.345  65.242  1.00  0.00    -0.284 OA 
HETATM   21  C   UNL     1      -6.838   8.344  64.808  1.00  0.00    -0.072 C  
HETATM   22  C   UNL     1      -8.152   7.665  65.140  1.00  0.00    -0.134 C  
HETATM   23  O   UNL     1      -8.408   6.525  64.754  1.00  0.00    -0.112 OA 
ENDBRANCH  14  16
ENDBRANCH   5  14
TORSDOF 2
ENDMDL
MODEL      165
REMARK 921   NORMALIZED FREE ENERGY PREDICTED BY IDOCK:   -4.36 KCAL/MOL
REMARK 922        TOTAL FREE ENERGY PREDICTED BY IDOCK:   -5.23 KCAL/MOL
REMARK 923 INTER-LIGAND FREE ENERGY PREDICTED BY IDOCK:   -4.92 KCAL/MOL
REMARK 924 INTRA-LIGAND FREE ENERGY PREDICTED BY IDOCK:   -0.31 KCAL/MOL
REMARK 927      BINDING AFFINITY PREDICTED BY RF-SCORE:    0.00 PKD
ROOT
HETATM    1  O   UNL     1      -9.316  10.676  67.325  1.00  0.00    -0.150 OA 
HETATM    2  N   UNL     1      -9.465  11.317  68.374  1.00  0.00    -0.186 N  
HETATM    3  C   UNL     1      -9.854  10.552  69.549  1.00  0.00    -0.142 A  
HETATM    4  O   UNL     1      -9.423  12.548  68.498  1.00  0.00    -0.187 OA 
HETATM    5  C   UNL     1      -9.035   9.530  70.053  1.00  0.00    -0.249 A  
HETATM    6  C   UNL     1      -9.503   8.795  71.148  1.00  0.00    -0.306 A  
HETATM    7  C   UNL     1     -13.020  10.236  71.653  1.00  0.00    -0.465 C  
HETATM    8  C   UNL     1     -10.779   9.035  71.679  1.00  0.00    -0.441 A  
HETATM    9  C   UNL     1     -11.130  10.806  70.077  1.00  0.00    -0.327 A  
HETATM   10  F   UNL     1     -13.208  11.484  72.156  1.00  0.00    -0.598 F  
HETATM   11  C   UNL     1     -11.612  10.026  71.136  1.00  0.00    -0.460 A  
HETATM   12  F   UNL     1     -13.371   9.370  72.640  1.00  0.00    -0.473 F  
HETATM   13  F   UNL     1     -13.947  10.081  70.669  1.00  0.00    -0.267 F  
ENDROOT
BRANCH   5  14
HETATM   14  C   UNL     1      -7.692   9.242  69.478  1.00  0.00    -0.084 C  
HETATM   15  O   UNL     1      -6.872  10.156  69.466  1.00  0.00    -0.059 OA 
BRANCH  14  16
HETATM   16  C   UNL     1      -7.371   7.855  68.955  1.00  0.00    -0.085 C  
HETATM   17  C   UNL     1      -6.142   7.940  66.234  1.00  0.00    -0.045 C  
HETATM   18  C   UNL     1      -7.634   8.187  66.418  1.00  0.00    -0.091 C  
HETATM   19  C   UNL     1      -8.122   7.524  67.687  1.00  0.00    -0.118 C  
HETATM   20  O   UNL     1      -9.136   6.829  67.702  1.00  0.00    -0.119 OA 
HETATM   21  C   UNL     1      -5.328   8.336  67.461  1.00  0.00    -0.034 C  
HETATM   22  C   UNL     1      -5.892   7.665  68.697  1.00  0.00    -0.027 C  
HETATM   23  O   UNL     1      -5.181   7.014  69.462  1.00  0.00    -0.014 OA 
ENDBRANCH  14  16
ENDBRANCH   5  14
TORSDOF 2
ENDMDL
MODEL      166
REMARK 921   NORMALIZED FREE ENERGY PREDICTED BY IDOCK:   -4.36 KCAL/MOL
REMARK 922        TOTAL FREE ENERGY PREDICTED BY IDOCK:   -5.23 KCAL/MOL
REMARK 923 INTER-LIGAND FREE ENERGY PREDICTED BY IDOCK:   -5.20 KCAL/MOL
REMARK 924 INTRA-LIGAND FREE ENERGY PREDICTED BY IDOCK:   -0.04 KCAL/MOL
REMARK 927      BINDING AFFINITY PREDICTED BY RF-SCORE:    0.00 PKD
ROOT
HETATM    1  O   UNL     1     -11.939  13.574  68.495  1.00  0.00    -0.351 OA 
HETATM    2  N   UNL     1     -10.748  13.251  68.397  1.00  0.00    -0.250 N  
HETATM    3  C   UNL     1     -10.284  12.892  67.064  1.00  0.00    -0.243 A  
HETATM    4  O   UNL     1      -9.946  13.096  69.327  1.00  0.00     0.268 OA 
HETATM    5  C   UNL     1     -10.329  13.815  66.009  1.00  0.00    -0.311 A  
HETATM    6  C   UNL     1      -9.925  13.381  64.740  1.00  0.00    -0.158 A  
HETATM    7  C   UNL     1      -9.228   9.659  65.338  1.00  0.00    -0.238 C  
HETATM    8  C   UNL     1      -9.550  12.047  64.527  1.00  0.00     0.003 A  
HETATM    9  C   UNL     1      -9.903  11.556  66.863  1.00  0.00    -0.220 A  
HETATM   10  F   UNL     1      -8.144   9.247  66.046  1.00  0.00    -0.105 F  
HETATM   11  C   UNL     1      -9.556  11.118  65.579  1.00  0.00    -0.263 A  
HETATM   12  F   UNL     1      -8.968   9.368  64.036  1.00  0.00    -0.224 F  
HETATM   13  F   UNL     1     -10.253   8.844  65.709  1.00  0.00    -0.321 F  
ENDROOT
BRANCH   5  14
HETATM   14  C   UNL     1     -10.757  15.227  66.213  1.00  0.00    -0.315 C  
HETATM   15  O   UNL     1     -11.910  15.421  66.587  1.00  0.00     0.029 OA 
BRANCH  14  16
HETATM   16  C   UNL     1      -9.776  16.360  65.980  1.00  0.00    -0.356 C  
HETATM   17  C   UNL     1      -9.474  18.097  68.391  1.00  0.00    -0.327 C  
HETATM   18  C   UNL     1     -10.722  18.188  67.522  1.00  0.00    -0.365 C  
HETATM   19  C   UNL     1     -10.416  17.721  66.116  1.00  0.00    -0.301 C  
HETATM   20  O   UNL     1     -10.759  18.372  65.131  1.00  0.00    -0.562 OA 
HETATM   21  C   UNL     1      -8.835  16.712  68.352  1.00  0.00    -0.226 C  
HETATM   22  C   UNL     1      -8.589  16.294  66.916  1.00  0.00    -0.215 C  
HETATM   23  O   UNL     1      -7.486  15.905  66.535  1.00  0.00    -0.146 OA 
ENDBRANCH  14  16
ENDBRANCH   5  14
TORSDOF 2
ENDMDL
MODEL      167
REMARK 921   NORMALIZED FREE ENERGY PREDICTED BY IDOCK:   -4.36 KCAL/MOL
REMARK 922        TOTAL FREE ENERGY PREDICTED BY IDOCK:   -5.23 KCAL/MOL
REMARK 923 INTER-LIGAND FREE ENERGY PREDICTED BY IDOCK:   -4.62 KCAL/MOL
REMARK 924 INTRA-LIGAND FREE ENERGY PREDICTED BY IDOCK:   -0.61 KCAL/MOL
REMARK 927      BINDING AFFINITY PREDICTED BY RF-SCORE:    0.00 PKD
ROOT
HETATM    1  O   UNL     1      -9.997  10.256  69.884  1.00  0.00    -0.222 OA 
HETATM    2  N   UNL     1      -9.016  10.668  69.252  1.00  0.00    -0.130 N  
HETATM    3  C   UNL     1      -9.253  11.046  67.866  1.00  0.00    -0.155 A  
HETATM    4  O   UNL     1      -7.841  10.686  69.642  1.00  0.00    -0.133 OA 
HETATM    5  C   UNL     1     -10.148  12.074  67.539  1.00  0.00    -0.205 A  
HETATM    6  C   UNL     1     -10.373  12.342  66.183  1.00  0.00    -0.269 A  
HETATM    7  C   UNL     1      -8.318   9.600  64.462  1.00  0.00    -0.169 C  
HETATM    8  C   UNL     1      -9.768  11.558  65.190  1.00  0.00    -0.268 A  
HETATM    9  C   UNL     1      -8.635  10.260  66.880  1.00  0.00    -0.127 A  
HETATM   10  F   UNL     1      -6.960   9.636  64.451  1.00  0.00    -0.098 F  
HETATM   11  C   UNL     1      -8.912  10.499  65.528  1.00  0.00    -0.203 A  
HETATM   12  F   UNL     1      -8.720   9.913  63.202  1.00  0.00    -0.155 F  
HETATM   13  F   UNL     1      -8.661   8.297  64.654  1.00  0.00    -0.167 F  
ENDROOT
BRANCH   5  14
HETATM   14  C   UNL     1     -10.824  12.893  68.583  1.00  0.00    -0.258 C  
HETATM   15  O   UNL     1     -11.948  12.546  68.936  1.00  0.00    -0.299 OA 
BRANCH  14  16
HETATM   16  C   UNL     1     -10.117  14.093  69.184  1.00  0.00    -0.023 C  
HETATM   17  C   UNL     1     -10.933  16.649  67.870  1.00  0.00    -0.276 C  
HETATM   18  C   UNL     1      -9.991  15.682  67.165  1.00  0.00    -0.240 C  
HETATM   19  C   UNL     1      -9.262  14.828  68.179  1.00  0.00    -0.195 C  
HETATM   20  O   UNL     1      -8.045  14.662  68.127  1.00  0.00    -0.124 OA 
HETATM   21  C   UNL     1     -11.876  15.943  68.839  1.00  0.00    -0.314 C  
HETATM   22  C   UNL     1     -11.084  15.081  69.801  1.00  0.00    -0.276 C  
HETATM   23  O   UNL     1     -11.231  15.166  71.019  1.00  0.00    -0.314 OA 
ENDBRANCH  14  16
ENDBRANCH   5  14
TORSDOF 2
ENDMDL
MODEL      168
REMARK 921   NORMALIZED FREE ENERGY PREDICTED BY IDOCK:   -4.33 KCAL/MOL
REMARK 922        TOTAL FREE ENERGY PREDICTED BY IDOCK:   -5.20 KCAL/MOL
REMARK 923 INTER-LIGAND FREE ENERGY PREDICTED BY IDOCK:   -4.80 KCAL/MOL
REMARK 924 INTRA-LIGAND FREE ENERGY PREDICTED BY IDOCK:   -0.40 KCAL/MOL
REMARK 927      BINDING AFFINITY PREDICTED BY RF-SCORE:    0.00 PKD
ROOT
HETATM    1  O   UNL     1      -9.409   9.368  63.417  1.00  0.00    -0.041 OA 
HETATM    2  N   UNL     1      -8.976  10.452  63.831  1.00  0.00    -0.208 N  
HETATM    3  C   UNL     1      -9.811  11.154  64.795  1.00  0.00    -0.277 A  
HETATM    4  O   UNL     1      -7.968  11.046  63.428  1.00  0.00     0.156 OA 
HETATM    5  C   UNL     1     -10.128  10.578  66.034  1.00  0.00    -0.317 A  
HETATM    6  C   UNL     1     -10.986  11.285  66.885  1.00  0.00    -0.348 A  
HETATM    7  C   UNL     1     -11.949  14.313  64.738  1.00  0.00    -0.440 C  
HETATM    8  C   UNL     1     -11.558  12.499  66.477  1.00  0.00    -0.447 A  
HETATM    9  C   UNL     1     -10.371  12.373  64.380  1.00  0.00    -0.370 A  
HETATM   10  F   UNL     1     -11.061  15.307  64.479  1.00  0.00    -0.369 F  
HETATM   11  C   UNL     1     -11.273  13.043  65.215  1.00  0.00    -0.316 A  
HETATM   12  F   UNL     1     -12.842  14.820  65.629  1.00  0.00    -0.211 F  
HETATM   13  F   UNL     1     -12.641  14.113  63.583  1.00  0.00    -0.433 F  
ENDROOT
BRANCH   5  14
HETATM   14  C   UNL     1      -9.555   9.274  66.467  1.00  0.00    -0.224 C  
HETATM   15  O   UNL     1     -10.144   8.254  66.122  1.00  0.00    -0.149 OA 
BRANCH  14  16
HETATM   16  C   UNL     1      -8.279   9.239  67.286  1.00  0.00    -0.121 C  
HETATM   17  C   UNL     1      -7.247   6.458  67.637  1.00  0.00    -0.086 C  
HETATM   18  C   UNL     1      -8.458   6.940  68.424  1.00  0.00    -0.123 C  
HETATM   19  C   UNL     1      -8.428   8.446  68.562  1.00  0.00    -0.132 C  
HETATM   20  O   UNL     1      -8.614   8.998  69.645  1.00  0.00    -0.126 OA 
HETATM   21  C   UNL     1      -7.098   7.173  66.298  1.00  0.00    -0.074 C  
HETATM   22  C   UNL     1      -7.111   8.674  66.506  1.00  0.00    -0.080 C  
HETATM   23  O   UNL     1      -6.226   9.398  66.051  1.00  0.00    -0.064 OA 
ENDBRANCH  14  16
ENDBRANCH   5  14
TORSDOF 2
ENDMDL
MODEL      169
REMARK 921   NORMALIZED FREE ENERGY PREDICTED BY IDOCK:   -4.33 KCAL/MOL
REMARK 922        TOTAL FREE ENERGY PREDICTED BY IDOCK:   -5.20 KCAL/MOL
REMARK 923 INTER-LIGAND FREE ENERGY PREDICTED BY IDOCK:   -4.88 KCAL/MOL
REMARK 924 INTRA-LIGAND FREE ENERGY PREDICTED BY IDOCK:   -0.31 KCAL/MOL
REMARK 927      BINDING AFFINITY PREDICTED BY RF-SCORE:    0.00 PKD
ROOT
HETATM    1  O   UNL     1      -7.253  10.266  67.155  1.00  0.00    -0.088 OA 
HETATM    2  N   UNL     1      -7.679  11.355  67.562  1.00  0.00    -0.119 N  
HETATM    3  C   UNL     1      -9.127  11.496  67.630  1.00  0.00    -0.168 A  
HETATM    4  O   UNL     1      -7.007  12.364  67.809  1.00  0.00    -0.093 OA 
HETATM    5  C   UNL     1      -9.898  10.660  68.450  1.00  0.00    -0.170 A  
HETATM    6  C   UNL     1     -11.290  10.812  68.418  1.00  0.00    -0.367 A  
HETATM    7  C   UNL     1     -11.754  13.464  65.688  1.00  0.00    -0.346 C  
HETATM    8  C   UNL     1     -11.889  11.730  67.543  1.00  0.00    -0.227 A  
HETATM    9  C   UNL     1      -9.715  12.424  66.756  1.00  0.00    -0.226 A  
HETATM   10  F   UNL     1     -11.415  14.763  65.898  1.00  0.00    -0.343 F  
HETATM   11  C   UNL     1     -11.110  12.528  66.690  1.00  0.00    -0.327 A  
HETATM   12  F   UNL     1     -13.113  13.417  65.696  1.00  0.00    -0.468 F  
HETATM   13  F   UNL     1     -11.375  13.176  64.413  1.00  0.00    -0.322 F  
ENDROOT
BRANCH   5  14
HETATM   14  C   UNL     1      -9.278   9.657  69.360  1.00  0.00    -0.189 C  
HETATM   15  O   UNL     1      -8.486  10.069  70.202  1.00  0.00    -0.169 OA 
BRANCH  14  16
HETATM   16  C   UNL     1      -9.646   8.191  69.239  1.00  0.00    -0.164 C  
HETATM   17  C   UNL     1      -8.201   6.502  71.235  1.00  0.00    -0.121 C  
HETATM   18  C   UNL     1      -7.476   7.047  70.011  1.00  0.00    -0.090 C  
HETATM   19  C   UNL     1      -8.461   7.319  68.896  1.00  0.00    -0.126 C  
HETATM   20  O   UNL     1      -8.258   6.933  67.747  1.00  0.00    -0.116 OA 
HETATM   21  C   UNL     1      -9.360   7.393  71.672  1.00  0.00    -0.162 C  
HETATM   22  C   UNL     1     -10.286   7.652  70.501  1.00  0.00    -0.201 C  
HETATM   23  O   UNL     1     -11.498   7.452  70.576  1.00  0.00    -0.282 OA 
ENDBRANCH  14  16
ENDBRANCH   5  14
TORSDOF 2
ENDMDL
MODEL      170
REMARK 921   NORMALIZED FREE ENERGY PREDICTED BY IDOCK:   -4.32 KCAL/MOL
REMARK 922        TOTAL FREE ENERGY PREDICTED BY IDOCK:   -5.19 KCAL/MOL
REMARK 923 INTER-LIGAND FREE ENERGY PREDICTED BY IDOCK:   -4.77 KCAL/MOL
REMARK 924 INTRA-LIGAND FREE ENERGY PREDICTED BY IDOCK:   -0.42 KCAL/MOL
REMARK 927      BINDING AFFINITY PREDICTED BY RF-SCORE:    0.00 PKD
ROOT
HETATM    1  O   UNL     1      -7.721   8.561  70.112  1.00  0.00    -0.080 OA 
HETATM    2  N   UNL     1      -8.309   8.439  71.195  1.00  0.00    -0.124 N  
HETATM    3  C   UNL     1      -9.607   7.779  71.154  1.00  0.00    -0.158 A  
HETATM    4  O   UNL     1      -7.959   8.914  72.282  1.00  0.00    -0.371 OA 
HETATM    5  C   UNL     1      -9.733   6.456  70.706  1.00  0.00    -0.197 A  
HETATM    6  C   UNL     1     -11.019   5.907  70.635  1.00  0.00    -0.357 A  
HETATM    7  C   UNL     1     -13.229   8.889  71.598  1.00  0.00    -0.362 C  
HETATM    8  C   UNL     1     -12.146   6.684  70.942  1.00  0.00    -0.379 A  
HETATM    9  C   UNL     1     -10.727   8.563  71.472  1.00  0.00    -0.330 A  
HETATM   10  F   UNL     1     -13.278   9.350  72.875  1.00  0.00    -0.429 F  
HETATM   11  C   UNL     1     -12.012   8.023  71.342  1.00  0.00    -0.328 A  
HETATM   12  F   UNL     1     -14.408   8.250  71.376  1.00  0.00    -0.435 F  
HETATM   13  F   UNL     1     -13.241   9.990  70.798  1.00  0.00    -0.415 F  
ENDROOT
BRANCH   5  14
HETATM   14  C   UNL     1      -8.548   5.629  70.344  1.00  0.00    -0.132 C  
HETATM   15  O   UNL     1      -7.781   5.312  71.249  1.00  0.00    -0.096 OA 
BRANCH  14  16
HETATM   16  C   UNL     1      -8.334   5.195  68.907  1.00  0.00    -0.087 C  
HETATM   17  C   UNL     1      -6.055   3.283  68.639  1.00  0.00    -0.028 C  
HETATM   18  C   UNL     1      -5.799   4.767  68.867  1.00  0.00    -0.021 C  
HETATM   19  C   UNL     1      -6.974   5.583  68.377  1.00  0.00    -0.064 C  
HETATM   20  O   UNL     1      -6.821   6.572  67.663  1.00  0.00    -0.070 OA 
HETATM   21  C   UNL     1      -7.383   2.822  69.230  1.00  0.00    -0.044 C  
HETATM   22  C   UNL     1      -8.509   3.702  68.725  1.00  0.00    -0.078 C  
HETATM   23  O   UNL     1      -9.521   3.228  68.210  1.00  0.00    -0.188 OA 
ENDBRANCH  14  16
ENDBRANCH   5  14
TORSDOF 2
ENDMDL
MODEL      171
REMARK 921   NORMALIZED FREE ENERGY PREDICTED BY IDOCK:   -4.32 KCAL/MOL
REMARK 922        TOTAL FREE ENERGY PREDICTED BY IDOCK:   -5.19 KCAL/MOL
REMARK 923 INTER-LIGAND FREE ENERGY PREDICTED BY IDOCK:   -4.93 KCAL/MOL
REMARK 924 INTRA-LIGAND FREE ENERGY PREDICTED BY IDOCK:   -0.26 KCAL/MOL
REMARK 927      BINDING AFFINITY PREDICTED BY RF-SCORE:    0.00 PKD
ROOT
HETATM    1  O   UNL     1      -9.727   6.258  68.943  1.00  0.00    -0.128 OA 
HETATM    2  N   UNL     1      -9.323   7.276  69.519  1.00  0.00    -0.152 N  
HETATM    3  C   UNL     1     -10.267   7.929  70.414  1.00  0.00    -0.197 A  
HETATM    4  O   UNL     1      -8.244   7.852  69.328  1.00  0.00    -0.124 OA 
HETATM    5  C   UNL     1     -10.788   7.260  71.531  1.00  0.00    -0.248 A  
HETATM    6  C   UNL     1     -11.739   7.929  72.312  1.00  0.00    -0.408 A  
HETATM    7  C   UNL     1     -12.256  11.183  70.352  1.00  0.00    -0.369 C  
HETATM    8  C   UNL     1     -12.198   9.202  71.945  1.00  0.00    -0.449 A  
HETATM    9  C   UNL     1     -10.713   9.207  70.042  1.00  0.00    -0.254 A  
HETATM   10  F   UNL     1     -11.304  12.151  70.324  1.00  0.00    -0.235 F  
HETATM   11  C   UNL     1     -11.707   9.843  70.797  1.00  0.00    -0.424 A  
HETATM   12  F   UNL     1     -13.255  11.652  71.147  1.00  0.00    -0.381 F  
HETATM   13  F   UNL     1     -12.773  11.124  69.095  1.00  0.00    -0.245 F  
ENDROOT
BRANCH   5  14
HETATM   14  C   UNL     1     -10.334   5.894  71.914  1.00  0.00    -0.210 C  
HETATM   15  O   UNL     1     -10.623   4.969  71.161  1.00  0.00    -0.179 OA 
BRANCH  14  16
HETATM   16  C   UNL     1      -9.531   5.689  73.184  1.00  0.00    -0.149 C  
HETATM   17  C   UNL     1      -6.598   5.532  72.642  1.00  0.00    -0.066 C  
HETATM   18  C   UNL     1      -7.511   4.360  72.308  1.00  0.00    -0.073 C  
HETATM   19  C   UNL     1      -8.749   4.396  73.176  1.00  0.00    -0.107 C  
HETATM   20  O   UNL     1      -9.153   3.397  73.766  1.00  0.00    -0.089 OA 
HETATM   21  C   UNL     1      -7.323   6.872  72.584  1.00  0.00    -0.082 C  
HETATM   22  C   UNL     1      -8.568   6.827  73.446  1.00  0.00    -0.122 C  
HETATM   23  O   UNL     1      -8.795   7.681  74.303  1.00  0.00    -0.238 OA 
ENDBRANCH  14  16
ENDBRANCH   5  14
TORSDOF 2
ENDMDL
MODEL      172
REMARK 921   NORMALIZED FREE ENERGY PREDICTED BY IDOCK:   -4.32 KCAL/MOL
REMARK 922        TOTAL FREE ENERGY PREDICTED BY IDOCK:   -5.18 KCAL/MOL
REMARK 923 INTER-LIGAND FREE ENERGY PREDICTED BY IDOCK:   -5.36 KCAL/MOL
REMARK 924 INTRA-LIGAND FREE ENERGY PREDICTED BY IDOCK:    0.17 KCAL/MOL
REMARK 927      BINDING AFFINITY PREDICTED BY RF-SCORE:    0.00 PKD
ROOT
HETATM    1  O   UNL     1     -12.266  12.107  65.905  1.00  0.00    -0.604 OA 
HETATM    2  N   UNL     1     -12.372  13.304  66.202  1.00  0.00    -0.394 N  
HETATM    3  C   UNL     1     -11.552  13.768  67.313  1.00  0.00    -0.361 A  
HETATM    4  O   UNL     1     -13.177  14.115  65.727  1.00  0.00    -0.497 OA 
HETATM    5  C   UNL     1     -10.153  13.696  67.261  1.00  0.00    -0.239 A  
HETATM    6  C   UNL     1      -9.432  14.102  68.391  1.00  0.00    -0.214 A  
HETATM    7  C   UNL     1     -12.226  14.884  70.898  1.00  0.00    -0.326 C  
HETATM    8  C   UNL     1     -10.099  14.505  69.557  1.00  0.00     0.071 A  
HETATM    9  C   UNL     1     -12.230  14.177  68.473  1.00  0.00    -0.204 A  
HETATM   10  F   UNL     1     -13.015  15.981  70.759  1.00  0.00    -0.464 F  
HETATM   11  C   UNL     1     -11.501  14.526  69.617  1.00  0.00    -0.332 A  
HETATM   12  F   UNL     1     -11.392  15.142  71.940  1.00  0.00    -0.425 F  
HETATM   13  F   UNL     1     -13.045  13.879  71.312  1.00  0.00    -0.375 F  
ENDROOT
BRANCH   5  14
HETATM   14  C   UNL     1      -9.432  13.239  66.040  1.00  0.00    -0.082 C  
HETATM   15  O   UNL     1      -9.601  13.881  65.008  1.00  0.00     0.005 OA 
BRANCH  14  16
HETATM   16  C   UNL     1      -8.515  12.033  66.107  1.00  0.00     0.172 C  
HETATM   17  C   UNL     1     -10.027   9.497  66.565  1.00  0.00    -0.329 C  
HETATM   18  C   UNL     1      -9.810  10.486  67.703  1.00  0.00    -0.192 C  
HETATM   19  C   UNL     1      -8.579  11.325  67.440  1.00  0.00    -0.136 C  
HETATM   20  O   UNL     1      -7.722  11.502  68.304  1.00  0.00    -0.108 OA 
HETATM   21  C   UNL     1     -10.052  10.176  65.199  1.00  0.00    -0.329 C  
HETATM   22  C   UNL     1      -8.810  11.025  65.017  1.00  0.00    -0.083 C  
HETATM   23  O   UNL     1      -8.088  10.914  64.027  1.00  0.00     0.089 OA 
ENDBRANCH  14  16
ENDBRANCH   5  14
TORSDOF 2
ENDMDL
MODEL      173
REMARK 921   NORMALIZED FREE ENERGY PREDICTED BY IDOCK:   -4.30 KCAL/MOL
REMARK 922        TOTAL FREE ENERGY PREDICTED BY IDOCK:   -5.17 KCAL/MOL
REMARK 923 INTER-LIGAND FREE ENERGY PREDICTED BY IDOCK:   -4.93 KCAL/MOL
REMARK 924 INTRA-LIGAND FREE ENERGY PREDICTED BY IDOCK:   -0.24 KCAL/MOL
REMARK 927      BINDING AFFINITY PREDICTED BY RF-SCORE:    0.00 PKD
ROOT
HETATM    1  O   UNL     1      -7.560  13.608  69.012  1.00  0.00    -0.064 OA 
HETATM    2  N   UNL     1      -8.030  12.968  68.062  1.00  0.00    -0.143 N  
HETATM    3  C   UNL     1      -9.262  12.237  68.322  1.00  0.00    -0.189 A  
HETATM    4  O   UNL     1      -7.504  12.800  66.954  1.00  0.00     0.003 OA 
HETATM    5  C   UNL     1     -10.431  12.905  68.713  1.00  0.00    -0.183 A  
HETATM    6  C   UNL     1     -11.561  12.131  69.007  1.00  0.00    -0.374 A  
HETATM    7  C   UNL     1     -10.211   8.559  68.664  1.00  0.00    -0.197 C  
HETATM    8  C   UNL     1     -11.497  10.730  68.972  1.00  0.00    -0.368 A  
HETATM    9  C   UNL     1      -9.189  10.836  68.275  1.00  0.00    -0.157 A  
HETATM   10  F   UNL     1      -9.915   8.028  67.449  1.00  0.00    -0.189 F  
HETATM   11  C   UNL     1     -10.308  10.070  68.627  1.00  0.00    -0.211 A  
HETATM   12  F   UNL     1     -11.354   7.951  69.079  1.00  0.00     0.040 F  
HETATM   13  F   UNL     1      -9.232   8.136  69.510  1.00  0.00    -0.153 F  
ENDROOT
BRANCH   5  14
HETATM   14  C   UNL     1     -10.504  14.390  68.788  1.00  0.00    -0.244 C  
HETATM   15  O   UNL     1      -9.912  14.941  69.711  1.00  0.00    -0.100 OA 
BRANCH  14  16
HETATM   16  C   UNL     1     -11.273  15.167  67.736  1.00  0.00    -0.327 C  
HETATM   17  C   UNL     1      -9.659  15.603  65.261  1.00  0.00     0.040 C  
HETATM   18  C   UNL     1      -9.376  16.409  66.522  1.00  0.00    -0.300 C  
HETATM   19  C   UNL     1     -10.615  16.481  67.386  1.00  0.00    -0.300 C  
HETATM   20  O   UNL     1     -11.010  17.544  67.861  1.00  0.00    -0.323 OA 
HETATM   21  C   UNL     1     -10.250  14.230  65.565  1.00  0.00    -0.379 C  
HETATM   22  C   UNL     1     -11.464  14.374  66.461  1.00  0.00    -0.362 C  
HETATM   23  O   UNL     1     -12.544  13.859  66.176  1.00  0.00    -0.452 OA 
ENDBRANCH  14  16
ENDBRANCH   5  14
TORSDOF 2
ENDMDL
MODEL      174
REMARK 921   NORMALIZED FREE ENERGY PREDICTED BY IDOCK:   -4.30 KCAL/MOL
REMARK 922        TOTAL FREE ENERGY PREDICTED BY IDOCK:   -5.17 KCAL/MOL
REMARK 923 INTER-LIGAND FREE ENERGY PREDICTED BY IDOCK:   -4.37 KCAL/MOL
REMARK 924 INTRA-LIGAND FREE ENERGY PREDICTED BY IDOCK:   -0.79 KCAL/MOL
REMARK 927      BINDING AFFINITY PREDICTED BY RF-SCORE:    0.00 PKD
ROOT
HETATM    1  O   UNL     1     -11.136  10.962  66.390  1.00  0.00    -0.158 OA 
HETATM    2  N   UNL     1     -10.775  11.350  67.509  1.00  0.00    -0.209 N  
HETATM    3  C   UNL     1     -10.840  10.370  68.584  1.00  0.00    -0.232 A  
HETATM    4  O   UNL     1     -10.472  12.507  67.826  1.00  0.00    -0.213 OA 
HETATM    5  C   UNL     1     -10.090   9.186  68.530  1.00  0.00    -0.212 A  
HETATM    6  C   UNL     1     -10.250   8.261  69.570  1.00  0.00    -0.210 A  
HETATM    7  C   UNL     1     -13.022   9.873  71.672  1.00  0.00    -0.434 C  
HETATM    8  C   UNL     1     -11.180   8.491  70.594  1.00  0.00    -0.278 A  
HETATM    9  C   UNL     1     -11.768  10.614  69.609  1.00  0.00    -0.368 A  
HETATM   10  F   UNL     1     -12.787  10.979  72.424  1.00  0.00    -0.418 F  
HETATM   11  C   UNL     1     -11.961   9.657  70.613  1.00  0.00    -0.304 A  
HETATM   12  F   UNL     1     -13.138   8.836  72.544  1.00  0.00    -0.399 F  
HETATM   13  F   UNL     1     -14.256  10.042  71.123  1.00  0.00    -0.059 F  
ENDROOT
BRANCH   5  14
HETATM   14  C   UNL     1      -9.123   8.913  67.431  1.00  0.00    -0.132 C  
HETATM   15  O   UNL     1      -9.398   8.010  66.646  1.00  0.00    -0.172 OA 
BRANCH  14  16
HETATM   16  C   UNL     1      -7.866   9.751  67.300  1.00  0.00    -0.098 C  
HETATM   17  C   UNL     1      -5.500   8.426  68.553  1.00  0.00    -0.033 C  
HETATM   18  C   UNL     1      -6.573   9.075  69.418  1.00  0.00    -0.044 C  
HETATM   19  C   UNL     1      -7.293  10.153  68.638  1.00  0.00    -0.082 C  
HETATM   20  O   UNL     1      -7.487  11.271  69.111  1.00  0.00    -0.120 OA 
HETATM   21  C   UNL     1      -6.048   7.927  67.219  1.00  0.00    -0.053 C  
HETATM   22  C   UNL     1      -6.785   9.045  66.510  1.00  0.00    -0.075 C  
HETATM   23  O   UNL     1      -6.530   9.353  65.346  1.00  0.00    -0.067 OA 
ENDBRANCH  14  16
ENDBRANCH   5  14
TORSDOF 2
ENDMDL
MODEL      175
REMARK 921   NORMALIZED FREE ENERGY PREDICTED BY IDOCK:   -4.27 KCAL/MOL
REMARK 922        TOTAL FREE ENERGY PREDICTED BY IDOCK:   -5.13 KCAL/MOL
REMARK 923 INTER-LIGAND FREE ENERGY PREDICTED BY IDOCK:   -4.45 KCAL/MOL
REMARK 924 INTRA-LIGAND FREE ENERGY PREDICTED BY IDOCK:   -0.69 KCAL/MOL
REMARK 927      BINDING AFFINITY PREDICTED BY RF-SCORE:    0.00 PKD
ROOT
HETATM    1  O   UNL     1      -8.813   8.869  72.455  1.00  0.00    -0.396 OA 
HETATM    2  N   UNL     1      -8.176   8.348  71.529  1.00  0.00    -0.131 N  
HETATM    3  C   UNL     1      -8.916   7.434  70.670  1.00  0.00    -0.155 A  
HETATM    4  O   UNL     1      -6.958   8.440  71.328  1.00  0.00    -0.055 OA 
HETATM    5  C   UNL     1     -10.023   7.873  69.930  1.00  0.00    -0.192 A  
HETATM    6  C   UNL     1     -10.724   6.925  69.175  1.00  0.00    -0.262 A  
HETATM    7  C   UNL     1      -8.936   3.662  70.104  1.00  0.00    -0.111 C  
HETATM    8  C   UNL     1     -10.362   5.570  69.213  1.00  0.00    -0.335 A  
HETATM    9  C   UNL     1      -8.539   6.082  70.710  1.00  0.00    -0.135 A  
HETATM   10  F   UNL     1      -7.684   3.390  69.655  1.00  0.00    -0.050 F  
HETATM   11  C   UNL     1      -9.282   5.133  69.996  1.00  0.00    -0.180 A  
HETATM   12  F   UNL     1      -9.777   2.854  69.406  1.00  0.00    -0.223 F  
HETATM   13  F   UNL     1      -8.980   3.227  71.393  1.00  0.00    -0.110 F  
ENDROOT
BRANCH   5  14
HETATM   14  C   UNL     1     -10.440   9.302  69.906  1.00  0.00    -0.227 C  
HETATM   15  O   UNL     1     -11.444   9.611  70.542  1.00  0.00    -0.259 OA 
BRANCH  14  16
HETATM   16  C   UNL     1      -9.623  10.319  69.132  1.00  0.00    -0.229 C  
HETATM   17  C   UNL     1     -10.288  10.310  66.220  1.00  0.00    -0.256 C  
HETATM   18  C   UNL     1      -9.448   9.193  66.826  1.00  0.00    -0.230 C  
HETATM   19  C   UNL     1      -8.751   9.682  68.076  1.00  0.00    -0.119 C  
HETATM   20  O   UNL     1      -7.553   9.483  68.266  1.00  0.00    -0.078 OA 
HETATM   21  C   UNL     1     -11.248  10.933  67.229  1.00  0.00    -0.307 C  
HETATM   22  C   UNL     1     -10.489  11.367  68.467  1.00  0.00    -0.203 C  
HETATM   23  O   UNL     1     -10.585  12.507  68.919  1.00  0.00    -0.204 OA 
ENDBRANCH  14  16
ENDBRANCH   5  14
TORSDOF 2
ENDMDL
MODEL      176
REMARK 921   NORMALIZED FREE ENERGY PREDICTED BY IDOCK:   -4.26 KCAL/MOL
REMARK 922        TOTAL FREE ENERGY PREDICTED BY IDOCK:   -5.12 KCAL/MOL
REMARK 923 INTER-LIGAND FREE ENERGY PREDICTED BY IDOCK:   -4.59 KCAL/MOL
REMARK 924 INTRA-LIGAND FREE ENERGY PREDICTED BY IDOCK:   -0.53 KCAL/MOL
REMARK 927      BINDING AFFINITY PREDICTED BY RF-SCORE:    0.00 PKD
ROOT
HETATM    1  O   UNL     1      -8.690  10.454  65.310  1.00  0.00    -0.165 OA 
HETATM    2  N   UNL     1      -9.257   9.773  66.174  1.00  0.00    -0.166 N  
HETATM    3  C   UNL     1      -8.618   9.726  67.481  1.00  0.00    -0.125 A  
HETATM    4  O   UNL     1     -10.245   9.045  66.009  1.00  0.00    -0.225 OA 
HETATM    5  C   UNL     1      -8.428  10.892  68.237  1.00  0.00    -0.134 A  
HETATM    6  C   UNL     1      -7.751  10.780  69.457  1.00  0.00    -0.074 A  
HETATM    7  C   UNL     1      -6.744   7.081  69.490  1.00  0.00    -0.049 C  
HETATM    8  C   UNL     1      -7.225   9.548  69.873  1.00  0.00    -0.093 A  
HETATM    9  C   UNL     1      -8.103   8.486  67.891  1.00  0.00    -0.115 A  
HETATM   10  F   UNL     1      -7.663   6.099  69.681  1.00  0.00    -0.088 F  
HETATM   11  C   UNL     1      -7.377   8.396  69.085  1.00  0.00    -0.079 A  
HETATM   12  F   UNL     1      -6.021   7.156  70.640  1.00  0.00    -0.026 F  
HETATM   13  F   UNL     1      -5.888   6.618  68.538  1.00  0.00    -0.017 F  
ENDROOT
BRANCH   5  14
HETATM   14  C   UNL     1      -8.952  12.214  67.793  1.00  0.00    -0.179 C  
HETATM   15  O   UNL     1      -8.253  12.872  67.028  1.00  0.00    -0.163 OA 
BRANCH  14  16
HETATM   16  C   UNL     1     -10.310  12.692  68.268  1.00  0.00    -0.246 C  
HETATM   17  C   UNL     1     -11.835  14.074  66.103  1.00  0.00    -0.422 C  
HETATM   18  C   UNL     1     -10.671  14.770  66.797  1.00  0.00    -0.309 C  
HETATM   19  C   UNL     1     -10.463  14.192  68.179  1.00  0.00    -0.244 C  
HETATM   20  O   UNL     1     -10.328  14.912  69.166  1.00  0.00    -0.235 OA 
HETATM   21  C   UNL     1     -11.686  12.556  66.095  1.00  0.00    -0.466 C  
HETATM   22  C   UNL     1     -11.447  12.049  67.503  1.00  0.00    -0.333 C  
HETATM   23  O   UNL     1     -12.129  11.151  67.993  1.00  0.00    -0.635 OA 
ENDBRANCH  14  16
ENDBRANCH   5  14
TORSDOF 2
ENDMDL
MODEL      177
REMARK 921   NORMALIZED FREE ENERGY PREDICTED BY IDOCK:   -4.25 KCAL/MOL
REMARK 922        TOTAL FREE ENERGY PREDICTED BY IDOCK:   -5.11 KCAL/MOL
REMARK 923 INTER-LIGAND FREE ENERGY PREDICTED BY IDOCK:   -4.58 KCAL/MOL
REMARK 924 INTRA-LIGAND FREE ENERGY PREDICTED BY IDOCK:   -0.53 KCAL/MOL
REMARK 927      BINDING AFFINITY PREDICTED BY RF-SCORE:    0.00 PKD
ROOT
HETATM    1  O   UNL     1     -13.268  10.643  69.519  1.00  0.00     0.110 OA 
HETATM    2  N   UNL     1     -12.533  10.558  70.511  1.00  0.00    -0.335 N  
HETATM    3  C   UNL     1     -11.596   9.443  70.527  1.00  0.00    -0.235 A  
HETATM    4  O   UNL     1     -12.589  11.254  71.533  1.00  0.00    -0.361 OA 
HETATM    5  C   UNL     1     -10.613   9.309  69.536  1.00  0.00    -0.236 A  
HETATM    6  C   UNL     1      -9.787   8.179  69.580  1.00  0.00    -0.181 A  
HETATM    7  C   UNL     1     -11.277   6.196  72.504  1.00  0.00    -0.287 C  
HETATM    8  C   UNL     1      -9.987   7.185  70.548  1.00  0.00    -0.191 A  
HETATM    9  C   UNL     1     -11.800   8.458  71.506  1.00  0.00    -0.345 A  
HETATM   10  F   UNL     1     -11.122   6.607  73.789  1.00  0.00    -0.223 F  
HETATM   11  C   UNL     1     -11.006   7.303  71.506  1.00  0.00    -0.259 A  
HETATM   12  F   UNL     1     -10.469   5.114  72.348  1.00  0.00    -0.230 F  
HETATM   13  F   UNL     1     -12.553   5.731  72.407  1.00  0.00    -0.319 F  
ENDROOT
BRANCH   5  14
HETATM   14  C   UNL     1     -10.411  10.341  68.481  1.00  0.00    -0.178 C  
HETATM   15  O   UNL     1     -10.904  10.127  67.378  1.00  0.00    -0.278 OA 
BRANCH  14  16
HETATM   16  C   UNL     1      -9.637  11.607  68.795  1.00  0.00    -0.083 C  
HETATM   17  C   UNL     1      -8.807  13.057  66.319  1.00  0.00     0.177 C  
HETATM   18  C   UNL     1      -8.087  11.786  66.751  1.00  0.00    -0.133 C  
HETATM   19  C   UNL     1      -8.232  11.583  68.242  1.00  0.00    -0.152 C  
HETATM   20  O   UNL     1      -7.266  11.314  68.953  1.00  0.00    -0.096 OA 
HETATM   21  C   UNL     1     -10.259  13.093  66.784  1.00  0.00    -0.252 C  
HETATM   22  C   UNL     1     -10.332  12.849  68.278  1.00  0.00    -0.244 C  
HETATM   23  O   UNL     1     -10.939  13.610  69.030  1.00  0.00    -0.252 OA 
ENDBRANCH  14  16
ENDBRANCH   5  14
TORSDOF 2
ENDMDL
MODEL      178
REMARK 921   NORMALIZED FREE ENERGY PREDICTED BY IDOCK:   -4.24 KCAL/MOL
REMARK 922        TOTAL FREE ENERGY PREDICTED BY IDOCK:   -5.10 KCAL/MOL
REMARK 923 INTER-LIGAND FREE ENERGY PREDICTED BY IDOCK:   -5.02 KCAL/MOL
REMARK 924 INTRA-LIGAND FREE ENERGY PREDICTED BY IDOCK:   -0.08 KCAL/MOL
REMARK 927      BINDING AFFINITY PREDICTED BY RF-SCORE:    0.00 PKD
ROOT
HETATM    1  O   UNL     1      -7.738  10.597  68.940  1.00  0.00    -0.103 OA 
HETATM    2  N   UNL     1      -7.709  11.342  67.952  1.00  0.00    -0.106 N  
HETATM    3  C   UNL     1      -8.252  10.796  66.716  1.00  0.00    -0.135 A  
HETATM    4  O   UNL     1      -7.169  12.453  67.881  1.00  0.00    -0.089 OA 
HETATM    5  C   UNL     1      -9.594  10.398  66.628  1.00  0.00    -0.219 A  
HETATM    6  C   UNL     1     -10.031   9.824  65.428  1.00  0.00    -0.302 A  
HETATM    7  C   UNL     1      -6.790   9.642  63.387  1.00  0.00    -0.108 C  
HETATM    8  C   UNL     1      -9.133   9.599  64.374  1.00  0.00    -0.279 A  
HETATM    9  C   UNL     1      -7.346  10.583  65.665  1.00  0.00    -0.126 A  
HETATM   10  F   UNL     1      -6.213  10.760  62.876  1.00  0.00    -0.145 F  
HETATM   11  C   UNL     1      -7.781   9.955  64.490  1.00  0.00    -0.142 A  
HETATM   12  F   UNL     1      -7.341   8.981  62.334  1.00  0.00    -0.101 F  
HETATM   13  F   UNL     1      -5.770   8.859  63.832  1.00  0.00    -0.066 F  
ENDROOT
BRANCH   5  14
HETATM   14  C   UNL     1     -10.552  10.600  67.751  1.00  0.00    -0.236 C  
HETATM   15  O   UNL     1     -10.473   9.836  68.708  1.00  0.00    -0.202 OA 
BRANCH  14  16
HETATM   16  C   UNL     1     -11.562  11.730  67.694  1.00  0.00    -0.364 C  
HETATM   17  C   UNL     1     -10.252  14.389  67.323  1.00  0.00    -0.252 C  
HETATM   18  C   UNL     1     -10.208  13.684  68.673  1.00  0.00    -0.199 C  
HETATM   19  C   UNL     1     -11.376  12.734  68.807  1.00  0.00    -0.288 C  
HETATM   20  O   UNL     1     -12.080  12.714  69.815  1.00  0.00    -0.294 OA 
HETATM   21  C   UNL     1     -10.357  13.411  66.158  1.00  0.00    -0.295 C  
HETATM   22  C   UNL     1     -11.524  12.469  66.373  1.00  0.00    -0.365 C  
HETATM   23  O   UNL     1     -12.388  12.300  65.513  1.00  0.00    -0.602 OA 
ENDBRANCH  14  16
ENDBRANCH   5  14
TORSDOF 2
ENDMDL
MODEL      179
REMARK 921   NORMALIZED FREE ENERGY PREDICTED BY IDOCK:   -4.23 KCAL/MOL
REMARK 922        TOTAL FREE ENERGY PREDICTED BY IDOCK:   -5.09 KCAL/MOL
REMARK 923 INTER-LIGAND FREE ENERGY PREDICTED BY IDOCK:   -4.56 KCAL/MOL
REMARK 924 INTRA-LIGAND FREE ENERGY PREDICTED BY IDOCK:   -0.53 KCAL/MOL
REMARK 927      BINDING AFFINITY PREDICTED BY RF-SCORE:    0.00 PKD
ROOT
HETATM    1  O   UNL     1      -7.575   8.206  69.928  1.00  0.00    -0.084 OA 
HETATM    2  N   UNL     1      -8.110   8.427  71.022  1.00  0.00    -0.108 N  
HETATM    3  C   UNL     1      -9.505   8.029  71.151  1.00  0.00    -0.153 A  
HETATM    4  O   UNL     1      -7.616   9.046  71.973  1.00  0.00    -0.343 OA 
HETATM    5  C   UNL     1      -9.892   6.689  71.004  1.00  0.00    -0.196 A  
HETATM    6  C   UNL     1     -11.258   6.389  71.079  1.00  0.00    -0.370 A  
HETATM    7  C   UNL     1     -12.836   9.868  71.410  1.00  0.00    -0.405 C  
HETATM    8  C   UNL     1     -12.207   7.411  71.231  1.00  0.00    -0.374 A  
HETATM    9  C   UNL     1     -10.445   9.059  71.311  1.00  0.00    -0.381 A  
HETATM   10  F   UNL     1     -12.727  10.588  72.557  1.00  0.00    -0.311 F  
HETATM   11  C   UNL     1     -11.812   8.754  71.326  1.00  0.00    -0.358 A  
HETATM   12  F   UNL     1     -14.122   9.429  71.356  1.00  0.00    -0.378 F  
HETATM   13  F   UNL     1     -12.699  10.758  70.390  1.00  0.00    -0.368 F  
ENDROOT
BRANCH   5  14
HETATM   14  C   UNL     1      -8.898   5.597  70.809  1.00  0.00    -0.139 C  
HETATM   15  O   UNL     1      -8.539   5.357  69.660  1.00  0.00    -0.101 OA 
BRANCH  14  16
HETATM   16  C   UNL     1      -8.354   4.842  72.007  1.00  0.00    -0.123 C  
HETATM   17  C   UNL     1      -5.460   4.174  71.691  1.00  0.00    -0.007 C  
HETATM   18  C   UNL     1      -6.522   3.401  70.920  1.00  0.00    -0.030 C  
HETATM   19  C   UNL     1      -7.847   3.466  71.646  1.00  0.00    -0.057 C  
HETATM   20  O   UNL     1      -8.523   2.459  71.845  1.00  0.00    -0.059 OA 
HETATM   21  C   UNL     1      -5.892   5.602  72.009  1.00  0.00    -0.029 C  
HETATM   22  C   UNL     1      -7.239   5.594  72.702  1.00  0.00    -0.090 C  
HETATM   23  O   UNL     1      -7.424   6.183  73.767  1.00  0.00    -0.091 OA 
ENDBRANCH  14  16
ENDBRANCH   5  14
TORSDOF 2
ENDMDL
MODEL      180
REMARK 921   NORMALIZED FREE ENERGY PREDICTED BY IDOCK:   -4.23 KCAL/MOL
REMARK 922        TOTAL FREE ENERGY PREDICTED BY IDOCK:   -5.08 KCAL/MOL
REMARK 923 INTER-LIGAND FREE ENERGY PREDICTED BY IDOCK:   -4.84 KCAL/MOL
REMARK 924 INTRA-LIGAND FREE ENERGY PREDICTED BY IDOCK:   -0.24 KCAL/MOL
REMARK 927      BINDING AFFINITY PREDICTED BY RF-SCORE:    0.00 PKD
ROOT
HETATM    1  O   UNL     1     -11.483  10.508  68.528  1.00  0.00    -0.270 OA 
HETATM    2  N   UNL     1     -11.147  10.645  69.712  1.00  0.00    -0.277 N  
HETATM    3  C   UNL     1     -10.267   9.620  70.256  1.00  0.00    -0.277 A  
HETATM    4  O   UNL     1     -11.569  11.497  70.504  1.00  0.00    -0.245 OA 
HETATM    5  C   UNL     1      -8.995   9.395  69.712  1.00  0.00    -0.199 A  
HETATM    6  C   UNL     1      -8.228   8.351  70.246  1.00  0.00    -0.121 A  
HETATM    7  C   UNL     1     -10.642   6.785  72.780  1.00  0.00    -0.235 C  
HETATM    8  C   UNL     1      -8.750   7.522  71.249  1.00  0.00    -0.127 A  
HETATM    9  C   UNL     1     -10.797   8.802  71.267  1.00  0.00    -0.347 A  
HETATM   10  F   UNL     1     -10.957   7.416  73.941  1.00  0.00    -0.361 F  
HETATM   11  C   UNL     1     -10.044   7.725  71.753  1.00  0.00    -0.223 A  
HETATM   12  F   UNL     1      -9.822   5.754  73.116  1.00  0.00    -0.161 F  
HETATM   13  F   UNL     1     -11.795   6.218  72.333  1.00  0.00    -0.319 F  
ENDROOT
BRANCH   5  14
HETATM   14  C   UNL     1      -8.441  10.246  68.623  1.00  0.00    -0.127 C  
HETATM   15  O   UNL     1      -8.510  11.464  68.764  1.00  0.00    -0.151 OA 
BRANCH  14  16
HETATM   16  C   UNL     1      -7.802   9.604  67.406  1.00  0.00    -0.095 C  
HETATM   17  C   UNL     1      -9.546   9.801  64.989  1.00  0.00    -0.333 C  
HETATM   18  C   UNL     1      -9.868   8.808  66.098  1.00  0.00    -0.297 C  
HETATM   19  C   UNL     1      -8.614   8.451  66.863  1.00  0.00    -0.125 C  
HETATM   20  O   UNL     1      -8.321   7.284  67.115  1.00  0.00    -0.116 OA 
HETATM   21  C   UNL     1      -8.796  11.026  65.502  1.00  0.00    -0.179 C  
HETATM   22  C   UNL     1      -7.573  10.596  66.286  1.00  0.00    -0.137 C  
HETATM   23  O   UNL     1      -6.453  11.042  66.038  1.00  0.00    -0.119 OA 
ENDBRANCH  14  16
ENDBRANCH   5  14
TORSDOF 2
ENDMDL
MODEL      181
REMARK 921   NORMALIZED FREE ENERGY PREDICTED BY IDOCK:   -4.21 KCAL/MOL
REMARK 922        TOTAL FREE ENERGY PREDICTED BY IDOCK:   -5.07 KCAL/MOL
REMARK 923 INTER-LIGAND FREE ENERGY PREDICTED BY IDOCK:   -4.35 KCAL/MOL
REMARK 924 INTRA-LIGAND FREE ENERGY PREDICTED BY IDOCK:   -0.72 KCAL/MOL
REMARK 927      BINDING AFFINITY PREDICTED BY RF-SCORE:    0.00 PKD
ROOT
HETATM    1  O   UNL     1      -6.664   6.449  69.927  1.00  0.00    -0.049 OA 
HETATM    2  N   UNL     1      -7.449   5.532  70.203  1.00  0.00    -0.068 N  
HETATM    3  C   UNL     1      -8.859   5.792  69.948  1.00  0.00    -0.127 A  
HETATM    4  O   UNL     1      -7.172   4.469  70.773  1.00  0.00    -0.040 OA 
HETATM    5  C   UNL     1      -9.321   6.069  68.653  1.00  0.00    -0.121 A  
HETATM    6  C   UNL     1     -10.680   6.370  68.492  1.00  0.00    -0.347 A  
HETATM    7  C   UNL     1     -11.943   6.388  72.112  1.00  0.00    -0.298 C  
HETATM    8  C   UNL     1     -11.530   6.453  69.604  1.00  0.00    -0.446 A  
HETATM    9  C   UNL     1      -9.704   5.864  71.067  1.00  0.00    -0.209 A  
HETATM   10  F   UNL     1     -12.076   5.237  72.820  1.00  0.00    -0.343 F  
HETATM   11  C   UNL     1     -11.047   6.222  70.901  1.00  0.00    -0.366 A  
HETATM   12  F   UNL     1     -13.203   6.796  71.804  1.00  0.00    -0.388 F  
HETATM   13  F   UNL     1     -11.450   7.313  72.981  1.00  0.00    -0.308 F  
ENDROOT
BRANCH   5  14
HETATM   14  C   UNL     1      -8.422   6.018  67.467  1.00  0.00    -0.107 C  
HETATM   15  O   UNL     1      -8.032   7.086  67.004  1.00  0.00    -0.112 OA 
BRANCH  14  16
HETATM   16  C   UNL     1      -8.006   4.680  66.886  1.00  0.00    -0.102 C  
HETATM   17  C   UNL     1      -9.178   4.218  64.178  1.00  0.00    -0.150 C  
HETATM   18  C   UNL     1     -10.041   4.094  65.427  1.00  0.00    -0.207 C  
HETATM   19  C   UNL     1      -9.181   3.767  66.628  1.00  0.00    -0.174 C  
HETATM   20  O   UNL     1      -9.478   2.865  67.408  1.00  0.00    -0.189 OA 
HETATM   21  C   UNL     1      -8.021   5.195  64.362  1.00  0.00    -0.107 C  
HETATM   22  C   UNL     1      -7.225   4.830  65.598  1.00  0.00    -0.072 C  
HETATM   23  O   UNL     1      -6.004   4.680  65.562  1.00  0.00    -0.021 OA 
ENDBRANCH  14  16
ENDBRANCH   5  14
TORSDOF 2
ENDMDL
MODEL      182
REMARK 921   NORMALIZED FREE ENERGY PREDICTED BY IDOCK:   -4.21 KCAL/MOL
REMARK 922        TOTAL FREE ENERGY PREDICTED BY IDOCK:   -5.06 KCAL/MOL
REMARK 923 INTER-LIGAND FREE ENERGY PREDICTED BY IDOCK:   -4.66 KCAL/MOL
REMARK 924 INTRA-LIGAND FREE ENERGY PREDICTED BY IDOCK:   -0.40 KCAL/MOL
REMARK 927      BINDING AFFINITY PREDICTED BY RF-SCORE:    0.00 PKD
ROOT
HETATM    1  O   UNL     1     -10.039   9.062  71.189  1.00  0.00    -0.242 OA 
HETATM    2  N   UNL     1     -11.111   9.569  70.833  1.00  0.00    -0.306 N  
HETATM    3  C   UNL     1     -11.106  10.255  69.549  1.00  0.00    -0.262 A  
HETATM    4  O   UNL     1     -12.149   9.647  71.503  1.00  0.00    -0.351 OA 
HETATM    5  C   UNL     1     -10.805   9.569  68.363  1.00  0.00    -0.183 A  
HETATM    6  C   UNL     1     -10.758  10.306  67.173  1.00  0.00    -0.303 A  
HETATM    7  C   UNL     1     -11.317  13.891  68.414  1.00  0.00    -0.285 C  
HETATM    8  C   UNL     1     -10.943  11.696  67.185  1.00  0.00    -0.330 A  
HETATM    9  C   UNL     1     -11.301  11.645  69.571  1.00  0.00    -0.328 A  
HETATM   10  F   UNL     1     -12.532  14.304  68.858  1.00  0.00    -0.324 F  
HETATM   11  C   UNL     1     -11.195  12.381  68.384  1.00  0.00    -0.316 A  
HETATM   12  F   UNL     1     -11.133  14.475  67.201  1.00  0.00    -0.289 F  
HETATM   13  F   UNL     1     -10.399  14.454  69.246  1.00  0.00    -0.230 F  
ENDROOT
BRANCH   5  14
HETATM   14  C   UNL     1     -10.573   8.098  68.339  1.00  0.00    -0.099 C  
HETATM   15  O   UNL     1     -11.506   7.372  68.669  1.00  0.00     0.356 OA 
BRANCH  14  16
HETATM   16  C   UNL     1      -9.230   7.548  67.900  1.00  0.00    -0.137 C  
HETATM   17  C   UNL     1      -9.385   4.653  67.179  1.00  0.00    -0.156 C  
HETATM   18  C   UNL     1      -9.412   5.091  68.638  1.00  0.00    -0.188 C  
HETATM   19  C   UNL     1      -8.736   6.435  68.794  1.00  0.00    -0.122 C  
HETATM   20  O   UNL     1      -7.898   6.638  69.670  1.00  0.00    -0.110 OA 
HETATM   21  C   UNL     1      -9.951   5.714  66.241  1.00  0.00    -0.154 C  
HETATM   22  C   UNL     1      -9.255   7.039  66.475  1.00  0.00    -0.164 C  
HETATM   23  O   UNL     1      -8.751   7.678  65.552  1.00  0.00    -0.135 OA 
ENDBRANCH  14  16
ENDBRANCH   5  14
TORSDOF 2
ENDMDL
MODEL      183
REMARK 921   NORMALIZED FREE ENERGY PREDICTED BY IDOCK:   -4.19 KCAL/MOL
REMARK 922        TOTAL FREE ENERGY PREDICTED BY IDOCK:   -5.04 KCAL/MOL
REMARK 923 INTER-LIGAND FREE ENERGY PREDICTED BY IDOCK:   -4.72 KCAL/MOL
REMARK 924 INTRA-LIGAND FREE ENERGY PREDICTED BY IDOCK:   -0.33 KCAL/MOL
REMARK 927      BINDING AFFINITY PREDICTED BY RF-SCORE:    0.00 PKD
ROOT
HETATM    1  O   UNL     1     -13.403  10.448  69.625  1.00  0.00     0.215 OA 
HETATM    2  N   UNL     1     -12.643  10.852  70.515  1.00  0.00    -0.333 N  
HETATM    3  C   UNL     1     -11.224  10.588  70.322  1.00  0.00    -0.313 A  
HETATM    4  O   UNL     1     -12.975  11.355  71.596  1.00  0.00    -0.448 OA 
HETATM    5  C   UNL     1     -10.535  11.108  69.217  1.00  0.00    -0.183 A  
HETATM    6  C   UNL     1      -9.186  10.762  69.063  1.00  0.00    -0.157 A  
HETATM    7  C   UNL     1      -8.648   8.291  71.945  1.00  0.00    -0.168 C  
HETATM    8  C   UNL     1      -8.571   9.870  69.953  1.00  0.00    -0.216 A  
HETATM    9  C   UNL     1     -10.616   9.700  71.224  1.00  0.00    -0.269 A  
HETATM   10  F   UNL     1      -8.600   8.710  73.236  1.00  0.00    -0.277 F  
HETATM   11  C   UNL     1      -9.284   9.315  71.028  1.00  0.00    -0.273 A  
HETATM   12  F   UNL     1      -7.373   7.970  71.600  1.00  0.00    -0.059 F  
HETATM   13  F   UNL     1      -9.342   7.120  71.952  1.00  0.00    -0.140 F  
ENDROOT
BRANCH   5  14
HETATM   14  C   UNL     1     -11.184  12.030  68.245  1.00  0.00    -0.261 C  
HETATM   15  O   UNL     1     -11.307  13.207  68.574  1.00  0.00    -0.248 OA 
BRANCH  14  16
HETATM   16  C   UNL     1     -11.648  11.510  66.898  1.00  0.00    -0.166 C  
HETATM   17  C   UNL     1      -9.740  12.206  64.708  1.00  0.00    -0.074 C  
HETATM   18  C   UNL     1     -10.662  13.265  65.298  1.00  0.00    -0.322 C  
HETATM   19  C   UNL     1     -11.889  12.616  65.898  1.00  0.00    -0.444 C  
HETATM   20  O   UNL     1     -13.021  13.032  65.659  1.00  0.00    -0.402 OA 
HETATM   21  C   UNL     1      -9.400  11.106  65.708  1.00  0.00    -0.238 C  
HETATM   22  C   UNL     1     -10.670  10.525  66.294  1.00  0.00    -0.069 C  
HETATM   23  O   UNL     1     -10.890   9.314  66.295  1.00  0.00     0.129 OA 
ENDBRANCH  14  16
ENDBRANCH   5  14
TORSDOF 2
ENDMDL
MODEL      184
REMARK 921   NORMALIZED FREE ENERGY PREDICTED BY IDOCK:   -4.19 KCAL/MOL
REMARK 922        TOTAL FREE ENERGY PREDICTED BY IDOCK:   -5.04 KCAL/MOL
REMARK 923 INTER-LIGAND FREE ENERGY PREDICTED BY IDOCK:   -4.85 KCAL/MOL
REMARK 924 INTRA-LIGAND FREE ENERGY PREDICTED BY IDOCK:   -0.19 KCAL/MOL
REMARK 927      BINDING AFFINITY PREDICTED BY RF-SCORE:    0.00 PKD
ROOT
HETATM    1  O   UNL     1      -7.888   9.670  66.383  1.00  0.00    -0.100 OA 
HETATM    2  N   UNL     1      -7.968  10.246  67.476  1.00  0.00    -0.106 N  
HETATM    3  C   UNL     1      -9.245  10.875  67.782  1.00  0.00    -0.153 A  
HETATM    4  O   UNL     1      -7.047  10.434  68.280  1.00  0.00    -0.076 OA 
HETATM    5  C   UNL     1     -10.423  10.119  67.867  1.00  0.00    -0.265 A  
HETATM    6  C   UNL     1     -11.624  10.799  68.103  1.00  0.00    -0.276 A  
HETATM    7  C   UNL     1     -10.502  14.465  68.061  1.00  0.00    -0.237 C  
HETATM    8  C   UNL     1     -11.648  12.199  68.186  1.00  0.00    -0.397 A  
HETATM    9  C   UNL     1      -9.256  12.276  67.872  1.00  0.00    -0.190 A  
HETATM   10  F   UNL     1      -9.770  14.993  69.076  1.00  0.00    -0.200 F  
HETATM   11  C   UNL     1     -10.470  12.951  68.051  1.00  0.00    -0.237 A  
HETATM   12  F   UNL     1     -11.753  14.982  68.183  1.00  0.00    -0.317 F  
HETATM   13  F   UNL     1      -9.989  14.988  66.913  1.00  0.00    -0.233 F  
ENDROOT
BRANCH   5  14
HETATM   14  C   UNL     1     -10.418   8.634  67.747  1.00  0.00    -0.224 C  
HETATM   15  O   UNL     1     -10.333   8.157  66.619  1.00  0.00    -0.304 OA 
BRANCH  14  16
HETATM   16  C   UNL     1     -10.496   7.771  68.992  1.00  0.00    -0.215 C  
HETATM   17  C   UNL     1      -8.185   8.237  70.826  1.00  0.00    -0.115 C  
HETATM   18  C   UNL     1      -8.007   7.435  69.544  1.00  0.00    -0.127 C  
HETATM   19  C   UNL     1      -9.325   6.826  69.119  1.00  0.00    -0.135 C  
HETATM   20  O   UNL     1      -9.416   5.643  68.799  1.00  0.00    -0.120 OA 
HETATM   21  C   UNL     1      -9.307   9.265  70.720  1.00  0.00    -0.322 C  
HETATM   22  C   UNL     1     -10.585   8.595  70.258  1.00  0.00    -0.223 C  
HETATM   23  O   UNL     1     -11.644   8.727  70.870  1.00  0.00    -0.280 OA 
ENDBRANCH  14  16
ENDBRANCH   5  14
TORSDOF 2
ENDMDL
MODEL      185
REMARK 921   NORMALIZED FREE ENERGY PREDICTED BY IDOCK:   -4.17 KCAL/MOL
REMARK 922        TOTAL FREE ENERGY PREDICTED BY IDOCK:   -5.02 KCAL/MOL
REMARK 923 INTER-LIGAND FREE ENERGY PREDICTED BY IDOCK:   -4.79 KCAL/MOL
REMARK 924 INTRA-LIGAND FREE ENERGY PREDICTED BY IDOCK:   -0.24 KCAL/MOL
REMARK 927      BINDING AFFINITY PREDICTED BY RF-SCORE:    0.00 PKD
ROOT
HETATM    1  O   UNL     1     -12.334  11.267  69.029  1.00  0.00    -0.446 OA 
HETATM    2  N   UNL     1     -11.222  10.810  69.323  1.00  0.00    -0.250 N  
HETATM    3  C   UNL     1     -10.773   9.658  68.555  1.00  0.00    -0.200 A  
HETATM    4  O   UNL     1     -10.507  11.163  70.270  1.00  0.00     0.419 OA 
HETATM    5  C   UNL     1     -10.596   9.737  67.166  1.00  0.00    -0.298 A  
HETATM    6  C   UNL     1     -10.223   8.572  66.485  1.00  0.00    -0.286 A  
HETATM    7  C   UNL     1     -10.264   5.948  69.280  1.00  0.00    -0.213 C  
HETATM    8  C   UNL     1     -10.095   7.354  67.168  1.00  0.00    -0.314 A  
HETATM    9  C   UNL     1     -10.640   8.445  69.251  1.00  0.00    -0.193 A  
HETATM   10  F   UNL     1      -9.309   5.928  70.246  1.00  0.00    -0.151 F  
HETATM   11  C   UNL     1     -10.322   7.274  68.551  1.00  0.00    -0.210 A  
HETATM   12  F   UNL     1     -10.004   4.891  68.465  1.00  0.00    -0.196 F  
HETATM   13  F   UNL     1     -11.439   5.662  69.903  1.00  0.00    -0.376 F  
ENDROOT
BRANCH   5  14
HETATM   14  C   UNL     1     -10.761  11.017  66.422  1.00  0.00    -0.227 C  
HETATM   15  O   UNL     1     -11.906  11.398  66.197  1.00  0.00    -0.218 OA 
BRANCH  14  16
HETATM   16  C   UNL     1      -9.541  11.807  65.990  1.00  0.00    -0.248 C  
HETATM   17  C   UNL     1      -8.018  12.886  68.322  1.00  0.00    -0.151 C  
HETATM   18  C   UNL     1      -9.334  13.523  67.894  1.00  0.00    -0.215 C  
HETATM   19  C   UNL     1      -9.596  13.251  66.429  1.00  0.00    -0.254 C  
HETATM   20  O   UNL     1      -9.933  14.146  65.657  1.00  0.00    -0.322 OA 
HETATM   21  C   UNL     1      -7.946  11.403  67.972  1.00  0.00    -0.127 C  
HETATM   22  C   UNL     1      -8.252  11.201  66.502  1.00  0.00    -0.167 C  
HETATM   23  O   UNL     1      -7.501  10.562  65.766  1.00  0.00    -0.143 OA 
ENDBRANCH  14  16
ENDBRANCH   5  14
TORSDOF 2
ENDMDL
MODEL      186
REMARK 921   NORMALIZED FREE ENERGY PREDICTED BY IDOCK:   -4.17 KCAL/MOL
REMARK 922        TOTAL FREE ENERGY PREDICTED BY IDOCK:   -5.02 KCAL/MOL
REMARK 923 INTER-LIGAND FREE ENERGY PREDICTED BY IDOCK:   -5.89 KCAL/MOL
REMARK 924 INTRA-LIGAND FREE ENERGY PREDICTED BY IDOCK:    0.87 KCAL/MOL
REMARK 927      BINDING AFFINITY PREDICTED BY RF-SCORE:    0.00 PKD
ROOT
HETATM    1  O   UNL     1      -6.891  14.872  67.126  1.00  0.00    -0.252 OA 
HETATM    2  N   UNL     1      -7.299  15.404  68.167  1.00  0.00    -0.111 N  
HETATM    3  C   UNL     1      -8.630  15.993  68.111  1.00  0.00    -0.171 A  
HETATM    4  O   UNL     1      -6.653  15.581  69.207  1.00  0.00    -0.127 OA 
HETATM    5  C   UNL     1      -9.758  15.210  67.830  1.00  0.00    -0.211 A  
HETATM    6  C   UNL     1     -10.997  15.855  67.731  1.00  0.00    -0.315 A  
HETATM    7  C   UNL     1     -10.025  19.543  68.126  1.00  0.00    -0.418 C  
HETATM    8  C   UNL     1     -11.088  17.250  67.847  1.00  0.00    -0.053 A  
HETATM    9  C   UNL     1      -8.710  17.390  68.237  1.00  0.00    -0.261 A  
HETATM   10  F   UNL     1      -9.632  20.047  69.324  1.00  0.00    -0.324 F  
HETATM   11  C   UNL     1      -9.945  18.031  68.079  1.00  0.00    -0.346 A  
HETATM   12  F   UNL     1     -11.275  20.028  67.898  1.00  0.00    -0.281 F  
HETATM   13  F   UNL     1      -9.222  20.120  67.191  1.00  0.00    -0.391 F  
ENDROOT
BRANCH   5  14
HETATM   14  C   UNL     1      -9.672  13.731  67.671  1.00  0.00    -0.227 C  
HETATM   15  O   UNL     1      -8.615  13.189  67.980  1.00  0.00    -0.164 OA 
BRANCH  14  16
HETATM   16  C   UNL     1     -10.869  12.950  67.164  1.00  0.00    -0.278 C  
HETATM   17  C   UNL     1     -10.070  10.357  65.916  1.00  0.00    -0.326 C  
HETATM   18  C   UNL     1      -9.849  11.672  65.180  1.00  0.00    -0.281 C  
HETATM   19  C   UNL     1     -10.823  12.719  65.672  1.00  0.00    -0.273 C  
HETATM   20  O   UNL     1     -11.472  13.413  64.893  1.00  0.00    -0.310 OA 
HETATM   21  C   UNL     1     -10.043  10.525  67.432  1.00  0.00    -0.236 C  
HETATM   22  C   UNL     1     -11.014  11.610  67.852  1.00  0.00    -0.225 C  
HETATM   23  O   UNL     1     -11.866  11.417  68.718  1.00  0.00    -0.310 OA 
ENDBRANCH  14  16
ENDBRANCH   5  14
TORSDOF 2
ENDMDL
MODEL      187
REMARK 921   NORMALIZED FREE ENERGY PREDICTED BY IDOCK:   -4.17 KCAL/MOL
REMARK 922        TOTAL FREE ENERGY PREDICTED BY IDOCK:   -5.02 KCAL/MOL
REMARK 923 INTER-LIGAND FREE ENERGY PREDICTED BY IDOCK:   -4.25 KCAL/MOL
REMARK 924 INTRA-LIGAND FREE ENERGY PREDICTED BY IDOCK:   -0.77 KCAL/MOL
REMARK 927      BINDING AFFINITY PREDICTED BY RF-SCORE:    0.00 PKD
ROOT
HETATM    1  O   UNL     1      -7.033  10.490  68.293  1.00  0.00    -0.071 OA 
HETATM    2  N   UNL     1      -7.357  10.052  67.181  1.00  0.00    -0.090 N  
HETATM    3  C   UNL     1      -8.548   9.215  67.139  1.00  0.00    -0.120 A  
HETATM    4  O   UNL     1      -6.714  10.161  66.129  1.00  0.00    -0.093 OA 
HETATM    5  C   UNL     1      -9.798   9.715  67.530  1.00  0.00    -0.213 A  
HETATM    6  C   UNL     1     -10.888   8.836  67.523  1.00  0.00    -0.092 A  
HETATM    7  C   UNL     1      -9.238   5.506  66.577  1.00  0.00    -0.141 C  
HETATM    8  C   UNL     1     -10.713   7.483  67.196  1.00  0.00    -0.379 A  
HETATM    9  C   UNL     1      -8.362   7.865  66.802  1.00  0.00    -0.120 A  
HETATM   10  F   UNL     1      -8.785   5.274  65.318  1.00  0.00    -0.134 F  
HETATM   11  C   UNL     1      -9.448   6.981  66.854  1.00  0.00    -0.199 A  
HETATM   12  F   UNL     1     -10.366   4.761  66.722  1.00  0.00    -0.223 F  
HETATM   13  F   UNL     1      -8.317   4.961  67.418  1.00  0.00    -0.105 F  
ENDROOT
BRANCH   5  14
HETATM   14  C   UNL     1      -9.993  11.142  67.912  1.00  0.00    -0.173 C  
HETATM   15  O   UNL     1     -10.215  11.386  69.094  1.00  0.00    -0.169 OA 
BRANCH  14  16
HETATM   16  C   UNL     1      -9.895  12.230  66.860  1.00  0.00    -0.216 C  
HETATM   17  C   UNL     1     -12.568  13.372  66.174  1.00  0.00    -0.294 C  
HETATM   18  C   UNL     1     -12.158  11.997  65.662  1.00  0.00    -0.037 C  
HETATM   19  C   UNL     1     -10.651  11.890  65.598  1.00  0.00    -0.268 C  
HETATM   20  O   UNL     1     -10.077  11.455  64.602  1.00  0.00    -0.246 OA 
HETATM   21  C   UNL     1     -11.892  13.729  67.493  1.00  0.00    -0.422 C  
HETATM   22  C   UNL     1     -10.390  13.567  67.368  1.00  0.00    -0.237 C  
HETATM   23  O   UNL     1      -9.613  14.468  67.680  1.00  0.00    -0.209 OA 
ENDBRANCH  14  16
ENDBRANCH   5  14
TORSDOF 2
ENDMDL
MODEL      188
REMARK 921   NORMALIZED FREE ENERGY PREDICTED BY IDOCK:   -4.17 KCAL/MOL
REMARK 922        TOTAL FREE ENERGY PREDICTED BY IDOCK:   -5.02 KCAL/MOL
REMARK 923 INTER-LIGAND FREE ENERGY PREDICTED BY IDOCK:   -4.79 KCAL/MOL
REMARK 924 INTRA-LIGAND FREE ENERGY PREDICTED BY IDOCK:   -0.22 KCAL/MOL
REMARK 927      BINDING AFFINITY PREDICTED BY RF-SCORE:    0.00 PKD
ROOT
HETATM    1  O   UNL     1     -11.797  11.517  66.640  1.00  0.00    -0.470 OA 
HETATM    2  N   UNL     1     -11.642  11.785  67.839  1.00  0.00    -0.311 N  
HETATM    3  C   UNL     1     -10.320  11.530  68.392  1.00  0.00    -0.202 A  
HETATM    4  O   UNL     1     -12.521  12.142  68.634  1.00  0.00    -0.033 OA 
HETATM    5  C   UNL     1      -9.186  12.187  67.892  1.00  0.00    -0.188 A  
HETATM    6  C   UNL     1      -7.939  11.845  68.430  1.00  0.00    -0.154 A  
HETATM    7  C   UNL     1      -8.844   8.997  70.832  1.00  0.00    -0.240 C  
HETATM    8  C   UNL     1      -7.830  10.832  69.393  1.00  0.00    -0.093 A  
HETATM    9  C   UNL     1     -10.223  10.519  69.362  1.00  0.00    -0.245 A  
HETATM   10  F   UNL     1      -9.505   9.235  71.994  1.00  0.00    -0.306 F  
HETATM   11  C   UNL     1      -8.965  10.146  69.852  1.00  0.00    -0.103 A  
HETATM   12  F   UNL     1      -7.560   8.708  71.174  1.00  0.00    -0.067 F  
HETATM   13  F   UNL     1      -9.367   7.846  70.328  1.00  0.00    -0.156 F  
ENDROOT
BRANCH   5  14
HETATM   14  C   UNL     1      -9.284  13.242  66.845  1.00  0.00    -0.241 C  
HETATM   15  O   UNL     1      -9.506  12.879  65.694  1.00  0.00    -0.093 OA 
BRANCH  14  16
HETATM   16  C   UNL     1      -9.130  14.703  67.222  1.00  0.00    -0.215 C  
HETATM   17  C   UNL     1     -11.461  15.705  68.799  1.00  0.00    -0.382 C  
HETATM   18  C   UNL     1     -11.581  15.478  67.298  1.00  0.00    -0.012 C  
HETATM   19  C   UNL     1     -10.221  15.572  66.643  1.00  0.00    -0.276 C  
HETATM   20  O   UNL     1     -10.037  16.245  65.631  1.00  0.00    -0.409 OA 
HETATM   21  C   UNL     1     -10.426  14.791  69.447  1.00  0.00    -0.210 C  
HETATM   22  C   UNL     1      -9.101  14.910  68.722  1.00  0.00    -0.189 C  
HETATM   23  O   UNL     1      -8.052  15.144  69.321  1.00  0.00    -0.199 OA 
ENDBRANCH  14  16
ENDBRANCH   5  14
TORSDOF 2
ENDMDL
MODEL      189
REMARK 921   NORMALIZED FREE ENERGY PREDICTED BY IDOCK:   -4.16 KCAL/MOL
REMARK 922        TOTAL FREE ENERGY PREDICTED BY IDOCK:   -5.00 KCAL/MOL
REMARK 923 INTER-LIGAND FREE ENERGY PREDICTED BY IDOCK:   -5.41 KCAL/MOL
REMARK 924 INTRA-LIGAND FREE ENERGY PREDICTED BY IDOCK:    0.41 KCAL/MOL
REMARK 927      BINDING AFFINITY PREDICTED BY RF-SCORE:    0.00 PKD
ROOT
HETATM    1  O   UNL     1      -7.040  15.832  68.237  1.00  0.00    -0.108 OA 
HETATM    2  N   UNL     1      -7.897  14.959  68.046  1.00  0.00    -0.119 N  
HETATM    3  C   UNL     1      -9.281  15.354  68.264  1.00  0.00    -0.188 A  
HETATM    4  O   UNL     1      -7.690  13.764  67.798  1.00  0.00    -0.136 OA 
HETATM    5  C   UNL     1      -9.868  16.381  67.510  1.00  0.00    -0.239 A  
HETATM    6  C   UNL     1     -11.184  16.750  67.817  1.00  0.00    -0.026 A  
HETATM    7  C   UNL     1     -11.948  14.567  70.875  1.00  0.00    -0.325 C  
HETATM    8  C   UNL     1     -11.863  16.152  68.888  1.00  0.00    -0.159 A  
HETATM    9  C   UNL     1      -9.954  14.743  69.334  1.00  0.00    -0.096 A  
HETATM   10  F   UNL     1     -12.138  13.227  70.759  1.00  0.00    -0.402 F  
HETATM   11  C   UNL     1     -11.249  15.160  69.669  1.00  0.00    -0.288 A  
HETATM   12  F   UNL     1     -13.172  15.108  71.114  1.00  0.00    -0.375 F  
HETATM   13  F   UNL     1     -11.227  14.749  72.015  1.00  0.00    -0.365 F  
ENDROOT
BRANCH   5  14
HETATM   14  C   UNL     1      -9.148  17.048  66.390  1.00  0.00    -0.270 C  
HETATM   15  O   UNL     1      -9.040  16.429  65.336  1.00  0.00    -0.274 OA 
BRANCH  14  16
HETATM   16  C   UNL     1      -8.596  18.449  66.570  1.00  0.00    -0.287 C  
HETATM   17  C   UNL     1     -10.318  20.113  68.356  1.00  0.00    -0.401 C  
HETATM   18  C   UNL     1     -10.748  19.811  66.926  1.00  0.00    -0.541 C  
HETATM   19  C   UNL     1      -9.539  19.516  66.066  1.00  0.00    -0.283 C  
HETATM   20  O   UNL     1      -9.383  20.045  64.968  1.00  0.00     0.401 OA 
HETATM   21  C   UNL     1      -9.427  19.022  68.940  1.00  0.00    -0.393 C  
HETATM   22  C   UNL     1      -8.258  18.753  68.014  1.00  0.00    -0.291 C  
HETATM   23  O   UNL     1      -7.096  18.765  68.417  1.00  0.00    -0.248 OA 
ENDBRANCH  14  16
ENDBRANCH   5  14
TORSDOF 2
ENDMDL
MODEL      190
REMARK 921   NORMALIZED FREE ENERGY PREDICTED BY IDOCK:   -4.14 KCAL/MOL
REMARK 922        TOTAL FREE ENERGY PREDICTED BY IDOCK:   -4.98 KCAL/MOL
REMARK 923 INTER-LIGAND FREE ENERGY PREDICTED BY IDOCK:   -4.65 KCAL/MOL
REMARK 924 INTRA-LIGAND FREE ENERGY PREDICTED BY IDOCK:   -0.33 KCAL/MOL
REMARK 927      BINDING AFFINITY PREDICTED BY RF-SCORE:    0.00 PKD
ROOT
HETATM    1  O   UNL     1      -9.236  13.953  69.016  1.00  0.00     0.016 OA 
HETATM    2  N   UNL     1      -8.719  13.077  68.309  1.00  0.00    -0.187 N  
HETATM    3  C   UNL     1      -9.294  11.743  68.410  1.00  0.00    -0.185 A  
HETATM    4  O   UNL     1      -7.702  13.196  67.613  1.00  0.00    -0.140 OA 
HETATM    5  C   UNL     1     -10.635  11.505  68.076  1.00  0.00    -0.222 A  
HETATM    6  C   UNL     1     -11.136  10.210  68.257  1.00  0.00    -0.285 A  
HETATM    7  C   UNL     1      -8.161   8.406  69.870  1.00  0.00    -0.122 C  
HETATM    8  C   UNL     1     -10.333   9.205  68.816  1.00  0.00    -0.235 A  
HETATM    9  C   UNL     1      -8.479  10.742  68.962  1.00  0.00    -0.137 A  
HETATM   10  F   UNL     1      -7.051   8.093  69.153  1.00  0.00    -0.056 F  
HETATM   11  C   UNL     1      -9.007   9.466  69.193  1.00  0.00    -0.147 A  
HETATM   12  F   UNL     1      -8.822   7.237  70.082  1.00  0.00    -0.139 F  
HETATM   13  F   UNL     1      -7.720   8.817  71.090  1.00  0.00    -0.079 F  
ENDROOT
BRANCH   5  14
HETATM   14  C   UNL     1     -11.509  12.571  67.513  1.00  0.00    -0.336 C  
HETATM   15  O   UNL     1     -11.891  13.453  68.276  1.00  0.00    -0.333 OA 
BRANCH  14  16
HETATM   16  C   UNL     1     -11.879  12.552  66.042  1.00  0.00    -0.478 C  
HETATM   17  C   UNL     1     -10.365  14.596  64.477  1.00  0.00     0.109 C  
HETATM   18  C   UNL     1     -11.515  15.011  65.385  1.00  0.00    -0.287 C  
HETATM   19  C   UNL     1     -12.476  13.859  65.575  1.00  0.00    -0.511 C  
HETATM   20  O   UNL     1     -13.690  14.003  65.451  1.00  0.00    -0.376 OA 
HETATM   21  C   UNL     1      -9.675  13.322  64.953  1.00  0.00     0.098 C  
HETATM   22  C   UNL     1     -10.698  12.222  65.156  1.00  0.00    -0.293 C  
HETATM   23  O   UNL     1     -10.567  11.112  64.641  1.00  0.00    -0.325 OA 
ENDBRANCH  14  16
ENDBRANCH   5  14
TORSDOF 2
ENDMDL
MODEL      191
REMARK 921   NORMALIZED FREE ENERGY PREDICTED BY IDOCK:   -4.13 KCAL/MOL
REMARK 922        TOTAL FREE ENERGY PREDICTED BY IDOCK:   -4.98 KCAL/MOL
REMARK 923 INTER-LIGAND FREE ENERGY PREDICTED BY IDOCK:   -4.63 KCAL/MOL
REMARK 924 INTRA-LIGAND FREE ENERGY PREDICTED BY IDOCK:   -0.35 KCAL/MOL
REMARK 927      BINDING AFFINITY PREDICTED BY RF-SCORE:    0.00 PKD
ROOT
HETATM    1  O   UNL     1     -10.748  10.266  70.574  1.00  0.00    -0.283 OA 
HETATM    2  N   UNL     1     -11.746  10.878  70.173  1.00  0.00    -0.318 N  
HETATM    3  C   UNL     1     -11.514  11.901  69.163  1.00  0.00    -0.296 A  
HETATM    4  O   UNL     1     -12.897  10.786  70.619  1.00  0.00    -0.340 OA 
HETATM    5  C   UNL     1     -10.963  11.574  67.915  1.00  0.00    -0.287 A  
HETATM    6  C   UNL     1     -10.710  12.618  67.017  1.00  0.00    -0.268 A  
HETATM    7  C   UNL     1     -11.623  15.713  69.088  1.00  0.00    -0.383 C  
HETATM    8  C   UNL     1     -10.941  13.951  67.386  1.00  0.00    -0.299 A  
HETATM    9  C   UNL     1     -11.757  13.231  69.540  1.00  0.00    -0.384 A  
HETATM   10  F   UNL     1     -12.915  16.011  69.382  1.00  0.00     0.093 F  
HETATM   11  C   UNL     1     -11.446  14.272  68.656  1.00  0.00    -0.328 A  
HETATM   12  F   UNL     1     -11.226  16.614  68.151  1.00  0.00    -0.358 F  
HETATM   13  F   UNL     1     -10.905  15.995  70.209  1.00  0.00    -0.278 F  
ENDROOT
BRANCH   5  14
HETATM   14  C   UNL     1     -10.681  10.166  67.521  1.00  0.00    -0.290 C  
HETATM   15  O   UNL     1     -11.608   9.364  67.581  1.00  0.00     0.568 OA 
BRANCH  14  16
HETATM   16  C   UNL     1      -9.294   9.772  67.050  1.00  0.00    -0.178 C  
HETATM   17  C   UNL     1      -8.623   6.952  67.768  1.00  0.00    -0.122 C  
HETATM   18  C   UNL     1      -8.614   8.045  68.829  1.00  0.00    -0.128 C  
HETATM   19  C   UNL     1      -8.377   9.394  68.189  1.00  0.00    -0.119 C  
HETATM   20  O   UNL     1      -7.547  10.183  68.635  1.00  0.00    -0.081 OA 
HETATM   21  C   UNL     1      -9.598   7.248  66.633  1.00  0.00    -0.236 C  
HETATM   22  C   UNL     1      -9.327   8.626  66.062  1.00  0.00    -0.218 C  
HETATM   23  O   UNL     1      -9.159   8.806  64.857  1.00  0.00    -0.096 OA 
ENDBRANCH  14  16
ENDBRANCH   5  14
TORSDOF 2
ENDMDL
MODEL      192
REMARK 921   NORMALIZED FREE ENERGY PREDICTED BY IDOCK:   -4.13 KCAL/MOL
REMARK 922        TOTAL FREE ENERGY PREDICTED BY IDOCK:   -4.97 KCAL/MOL
REMARK 923 INTER-LIGAND FREE ENERGY PREDICTED BY IDOCK:   -4.43 KCAL/MOL
REMARK 924 INTRA-LIGAND FREE ENERGY PREDICTED BY IDOCK:   -0.55 KCAL/MOL
REMARK 927      BINDING AFFINITY PREDICTED BY RF-SCORE:    0.00 PKD
ROOT
HETATM    1  O   UNL     1     -11.836  10.422  69.132  1.00  0.00    -0.186 OA 
HETATM    2  N   UNL     1     -10.752   9.835  69.244  1.00  0.00    -0.218 N  
HETATM    3  C   UNL     1     -10.151   9.346  68.011  1.00  0.00    -0.191 A  
HETATM    4  O   UNL     1     -10.185   9.528  70.301  1.00  0.00    -0.224 OA 
HETATM    5  C   UNL     1      -9.797  10.227  66.979  1.00  0.00    -0.238 A  
HETATM    6  C   UNL     1      -9.282   9.680  65.797  1.00  0.00    -0.264 A  
HETATM    7  C   UNL     1      -9.566   5.913  66.455  1.00  0.00    -0.146 C  
HETATM    8  C   UNL     1      -9.188   8.290  65.635  1.00  0.00    -0.077 A  
HETATM    9  C   UNL     1     -10.054   7.953  67.862  1.00  0.00    -0.240 A  
HETATM   10  F   UNL     1      -8.748   5.286  67.339  1.00  0.00    -0.110 F  
HETATM   11  C   UNL     1      -9.592   7.414  66.655  1.00  0.00    -0.251 A  
HETATM   12  F   UNL     1      -9.152   5.537  65.216  1.00  0.00    -0.160 F  
HETATM   13  F   UNL     1     -10.799   5.361  66.623  1.00  0.00    -0.307 F  
ENDROOT
BRANCH   5  14
HETATM   14  C   UNL     1      -9.923  11.704  67.125  1.00  0.00    -0.199 C  
HETATM   15  O   UNL     1     -10.601  12.300  66.292  1.00  0.00    -0.241 OA 
BRANCH  14  16
HETATM   16  C   UNL     1      -9.245  12.414  68.280  1.00  0.00    -0.189 C  
HETATM   17  C   UNL     1      -7.058  14.227  67.355  1.00  0.00    -0.109 C  
HETATM   18  C   UNL     1      -6.858  12.717  67.371  1.00  0.00    -0.141 C  
HETATM   19  C   UNL     1      -7.776  12.077  68.389  1.00  0.00    -0.138 C  
HETATM   20  O   UNL     1      -7.364  11.251  69.200  1.00  0.00    -0.119 OA 
HETATM   21  C   UNL     1      -8.520  14.620  67.165  1.00  0.00    -0.244 C  
HETATM   22  C   UNL     1      -9.384  13.919  68.192  1.00  0.00    -0.203 C  
HETATM   23  O   UNL     1     -10.172  14.537  68.907  1.00  0.00    -0.231 OA 
ENDBRANCH  14  16
ENDBRANCH   5  14
TORSDOF 2
ENDMDL
MODEL      193
REMARK 921   NORMALIZED FREE ENERGY PREDICTED BY IDOCK:   -4.11 KCAL/MOL
REMARK 922        TOTAL FREE ENERGY PREDICTED BY IDOCK:   -4.96 KCAL/MOL
REMARK 923 INTER-LIGAND FREE ENERGY PREDICTED BY IDOCK:   -4.50 KCAL/MOL
REMARK 924 INTRA-LIGAND FREE ENERGY PREDICTED BY IDOCK:   -0.46 KCAL/MOL
REMARK 927      BINDING AFFINITY PREDICTED BY RF-SCORE:    0.00 PKD
ROOT
HETATM    1  O   UNL     1      -7.796   6.687  68.902  1.00  0.00    -0.107 OA 
HETATM    2  N   UNL     1      -9.009   6.708  68.653  1.00  0.00    -0.125 N  
HETATM    3  C   UNL     1      -9.773   7.792  69.256  1.00  0.00    -0.165 A  
HETATM    4  O   UNL     1      -9.652   5.847  68.040  1.00  0.00    -0.113 OA 
HETATM    5  C   UNL     1      -9.484   9.132  68.962  1.00  0.00    -0.152 A  
HETATM    6  C   UNL     1     -10.218  10.123  69.626  1.00  0.00    -0.272 A  
HETATM    7  C   UNL     1     -12.376   8.058  72.032  1.00  0.00    -0.326 C  
HETATM    8  C   UNL     1     -11.166   9.777  70.601  1.00  0.00    -0.402 A  
HETATM    9  C   UNL     1     -10.724   7.434  70.225  1.00  0.00    -0.250 A  
HETATM   10  F   UNL     1     -13.414   7.306  71.583  1.00  0.00    -0.379 F  
HETATM   11  C   UNL     1     -11.412   8.434  70.925  1.00  0.00    -0.295 A  
HETATM   12  F   UNL     1     -12.924   9.131  72.662  1.00  0.00    -0.461 F  
HETATM   13  F   UNL     1     -11.767   7.322  73.002  1.00  0.00    -0.243 F  
ENDROOT
BRANCH   5  14
HETATM   14  C   UNL     1      -8.457   9.515  67.953  1.00  0.00    -0.119 C  
HETATM   15  O   UNL     1      -8.826   9.637  66.788  1.00  0.00    -0.133 OA 
BRANCH  14  16
HETATM   16  C   UNL     1      -7.023   9.757  68.383  1.00  0.00    -0.068 C  
HETATM   17  C   UNL     1      -5.994  12.391  67.421  1.00  0.00    -0.154 C  
HETATM   18  C   UNL     1      -6.148  11.221  66.458  1.00  0.00    -0.139 C  
HETATM   19  C   UNL     1      -6.083   9.911  67.211  1.00  0.00    -0.059 C  
HETATM   20  O   UNL     1      -5.373   8.982  66.830  1.00  0.00    -0.038 OA 
HETATM   21  C   UNL     1      -6.980  12.325  68.582  1.00  0.00    -0.097 C  
HETATM   22  C   UNL     1      -6.886  10.977  69.268  1.00  0.00    -0.110 C  
HETATM   23  O   UNL     1      -6.725  10.879  70.484  1.00  0.00    -0.292 OA 
ENDBRANCH  14  16
ENDBRANCH   5  14
TORSDOF 2
ENDMDL
MODEL      194
REMARK 921   NORMALIZED FREE ENERGY PREDICTED BY IDOCK:   -4.08 KCAL/MOL
REMARK 922        TOTAL FREE ENERGY PREDICTED BY IDOCK:   -4.92 KCAL/MOL
REMARK 923 INTER-LIGAND FREE ENERGY PREDICTED BY IDOCK:   -5.90 KCAL/MOL
REMARK 924 INTRA-LIGAND FREE ENERGY PREDICTED BY IDOCK:    0.98 KCAL/MOL
REMARK 927      BINDING AFFINITY PREDICTED BY RF-SCORE:    0.00 PKD
ROOT
HETATM    1  O   UNL     1     -13.492  10.435  69.872  1.00  0.00     0.139 OA 
HETATM    2  N   UNL     1     -12.829  10.604  70.904  1.00  0.00    -0.381 N  
HETATM    3  C   UNL     1     -11.557   9.898  70.977  1.00  0.00    -0.389 A  
HETATM    4  O   UNL     1     -13.184  11.220  71.917  1.00  0.00    -0.482 OA 
HETATM    5  C   UNL     1     -10.540  10.140  70.042  1.00  0.00    -0.338 A  
HETATM    6  C   UNL     1      -9.368   9.379  70.137  1.00  0.00    -0.276 A  
HETATM    7  C   UNL     1     -10.203   6.952  72.986  1.00  0.00    -0.218 C  
HETATM    8  C   UNL     1      -9.250   8.365  71.099  1.00  0.00    -0.218 A  
HETATM    9  C   UNL     1     -11.447   8.891  71.949  1.00  0.00    -0.442 A  
HETATM   10  F   UNL     1     -10.273   7.373  74.276  1.00  0.00    -0.289 F  
HETATM   11  C   UNL     1     -10.294   8.097  71.998  1.00  0.00    -0.320 A  
HETATM   12  F   UNL     1      -9.054   6.233  72.880  1.00  0.00    -0.132 F  
HETATM   13  F   UNL     1     -11.220   6.063  72.822  1.00  0.00    -0.263 F  
ENDROOT
BRANCH   5  14
HETATM   14  C   UNL     1     -10.665  11.191  68.994  1.00  0.00    -0.225 C  
HETATM   15  O   UNL     1     -11.636  11.939  69.055  1.00  0.00    -0.265 OA 
BRANCH  14  16
HETATM   16  C   UNL     1      -9.606  11.319  67.916  1.00  0.00    -0.182 C  
HETATM   17  C   UNL     1     -10.518  13.030  65.644  1.00  0.00    -0.291 C  
HETATM   18  C   UNL     1     -11.048  11.611  65.807  1.00  0.00    -0.313 C  
HETATM   19  C   UNL     1     -10.061  10.769  66.585  1.00  0.00    -0.218 C  
HETATM   20  O   UNL     1      -9.722   9.652  66.201  1.00  0.00    -0.212 OA 
HETATM   21  C   UNL     1     -10.120  13.661  66.975  1.00  0.00    -0.248 C  
HETATM   22  C   UNL     1      -9.160  12.751  67.715  1.00  0.00    -0.197 C  
HETATM   23  O   UNL     1      -8.082  13.159  68.145  1.00  0.00    -0.138 OA 
ENDBRANCH  14  16
ENDBRANCH   5  14
TORSDOF 2
ENDMDL
MODEL      195
REMARK 921   NORMALIZED FREE ENERGY PREDICTED BY IDOCK:   -4.06 KCAL/MOL
REMARK 922        TOTAL FREE ENERGY PREDICTED BY IDOCK:   -4.90 KCAL/MOL
REMARK 923 INTER-LIGAND FREE ENERGY PREDICTED BY IDOCK:   -4.18 KCAL/MOL
REMARK 924 INTRA-LIGAND FREE ENERGY PREDICTED BY IDOCK:   -0.72 KCAL/MOL
REMARK 927      BINDING AFFINITY PREDICTED BY RF-SCORE:    0.00 PKD
ROOT
HETATM    1  O   UNL     1      -8.305   8.785  72.463  1.00  0.00    -0.398 OA 
HETATM    2  N   UNL     1      -7.721   7.915  71.804  1.00  0.00    -0.088 N  
HETATM    3  C   UNL     1      -8.562   6.893  71.195  1.00  0.00    -0.131 A  
HETATM    4  O   UNL     1      -6.497   7.763  71.702  1.00  0.00    -0.038 OA 
HETATM    5  C   UNL     1      -9.547   7.231  70.255  1.00  0.00    -0.165 A  
HETATM    6  C   UNL     1     -10.360   6.204  69.759  1.00  0.00    -0.269 A  
HETATM    7  C   UNL     1      -9.183   3.179  71.799  1.00  0.00    -0.113 C  
HETATM    8  C   UNL     1     -10.230   4.894  70.241  1.00  0.00    -0.299 A  
HETATM    9  C   UNL     1      -8.418   5.583  71.679  1.00  0.00    -0.131 A  
HETATM   10  F   UNL     1      -7.974   2.602  71.576  1.00  0.00    -0.048 F  
HETATM   11  C   UNL     1      -9.274   4.575  71.218  1.00  0.00    -0.195 A  
HETATM   12  F   UNL     1     -10.114   2.321  71.301  1.00  0.00    -0.219 F  
HETATM   13  F   UNL     1      -9.358   3.181  73.149  1.00  0.00    -0.094 F  
ENDROOT
BRANCH   5  14
HETATM   14  C   UNL     1      -9.718   8.625  69.759  1.00  0.00    -0.176 C  
HETATM   15  O   UNL     1     -10.650   9.279  70.219  1.00  0.00    -0.206 OA 
BRANCH  14  16
HETATM   16  C   UNL     1      -8.750   9.193  68.740  1.00  0.00    -0.132 C  
HETATM   17  C   UNL     1     -10.034   9.589  66.072  1.00  0.00    -0.348 C  
HETATM   18  C   UNL     1      -9.658   8.193  66.551  1.00  0.00    -0.303 C  
HETATM   19  C   UNL     1      -8.536   8.271  67.563  1.00  0.00    -0.129 C  
HETATM   20  O   UNL     1      -7.545   7.549  67.484  1.00  0.00    -0.107 OA 
HETATM   21  C   UNL     1     -10.341  10.540  67.225  1.00  0.00    -0.275 C  
HETATM   22  C   UNL     1      -9.194  10.542  68.215  1.00  0.00    -0.152 C  
HETATM   23  O   UNL     1      -8.661  11.587  68.587  1.00  0.00    -0.158 OA 
ENDBRANCH  14  16
ENDBRANCH   5  14
TORSDOF 2
ENDMDL
MODEL      196
REMARK 921   NORMALIZED FREE ENERGY PREDICTED BY IDOCK:   -4.05 KCAL/MOL
REMARK 922        TOTAL FREE ENERGY PREDICTED BY IDOCK:   -4.89 KCAL/MOL
REMARK 923 INTER-LIGAND FREE ENERGY PREDICTED BY IDOCK:   -4.39 KCAL/MOL
REMARK 924 INTRA-LIGAND FREE ENERGY PREDICTED BY IDOCK:   -0.50 KCAL/MOL
REMARK 927      BINDING AFFINITY PREDICTED BY RF-SCORE:    0.00 PKD
ROOT
HETATM    1  O   UNL     1      -7.782  12.699  68.987  1.00  0.00     0.029 OA 
HETATM    2  N   UNL     1      -7.232  12.560  67.887  1.00  0.00    -0.101 N  
HETATM    3  C   UNL     1      -8.041  11.966  66.831  1.00  0.00    -0.146 A  
HETATM    4  O   UNL     1      -6.041  12.772  67.625  1.00  0.00    -0.124 OA 
HETATM    5  C   UNL     1      -9.221  12.582  66.390  1.00  0.00    -0.177 A  
HETATM    6  C   UNL     1      -9.980  11.922  65.416  1.00  0.00    -0.281 A  
HETATM    7  C   UNL     1      -8.068   8.626  64.990  1.00  0.00    -0.143 C  
HETATM    8  C   UNL     1      -9.598  10.656  64.948  1.00  0.00    -0.323 A  
HETATM    9  C   UNL     1      -7.645  10.703  66.365  1.00  0.00    -0.138 A  
HETATM   10  F   UNL     1      -6.861   8.583  64.367  1.00  0.00    -0.068 F  
HETATM   11  C   UNL     1      -8.441  10.026  65.433  1.00  0.00    -0.158 A  
HETATM   12  F   UNL     1      -8.962   8.070  64.131  1.00  0.00     0.161 F  
HETATM   13  F   UNL     1      -7.979   7.771  66.046  1.00  0.00    -0.091 F  
ENDROOT
BRANCH   5  14
HETATM   14  C   UNL     1      -9.657  13.911  66.902  1.00  0.00    -0.269 C  
HETATM   15  O   UNL     1     -10.450  13.925  67.838  1.00  0.00    -0.236 OA 
BRANCH  14  16
HETATM   16  C   UNL     1      -9.108  15.181  66.281  1.00  0.00    -0.313 C  
HETATM   17  C   UNL     1      -9.844  17.609  67.857  1.00  0.00    -0.300 C  
HETATM   18  C   UNL     1     -10.878  16.908  66.986  1.00  0.00    -0.055 C  
HETATM   19  C   UNL     1     -10.195  16.146  65.872  1.00  0.00    -0.360 C  
HETATM   20  O   UNL     1     -10.571  16.235  64.705  1.00  0.00    -0.658 OA 
HETATM   21  C   UNL     1      -8.765  16.657  68.364  1.00  0.00    -0.225 C  
HETATM   22  C   UNL     1      -8.149  15.904  67.203  1.00  0.00    -0.207 C  
HETATM   23  O   UNL     1      -6.932  15.867  67.027  1.00  0.00    -0.205 OA 
ENDBRANCH  14  16
ENDBRANCH   5  14
TORSDOF 2
ENDMDL
MODEL      197
REMARK 921   NORMALIZED FREE ENERGY PREDICTED BY IDOCK:   -4.02 KCAL/MOL
REMARK 922        TOTAL FREE ENERGY PREDICTED BY IDOCK:   -4.85 KCAL/MOL
REMARK 923 INTER-LIGAND FREE ENERGY PREDICTED BY IDOCK:   -4.65 KCAL/MOL
REMARK 924 INTRA-LIGAND FREE ENERGY PREDICTED BY IDOCK:   -0.20 KCAL/MOL
REMARK 927      BINDING AFFINITY PREDICTED BY RF-SCORE:    0.00 PKD
ROOT
HETATM    1  O   UNL     1      -9.215   8.377  66.997  1.00  0.00    -0.140 OA 
HETATM    2  N   UNL     1      -9.055   9.282  67.826  1.00  0.00    -0.127 N  
HETATM    3  C   UNL     1      -9.622   9.053  69.148  1.00  0.00    -0.161 A  
HETATM    4  O   UNL     1      -8.563  10.398  67.615  1.00  0.00    -0.118 OA 
HETATM    5  C   UNL     1      -9.199   7.977  69.941  1.00  0.00    -0.152 A  
HETATM    6  C   UNL     1      -9.832   7.783  71.175  1.00  0.00    -0.187 A  
HETATM    7  C   UNL     1     -12.549  10.487  71.128  1.00  0.00    -0.417 C  
HETATM    8  C   UNL     1     -10.899   8.604  71.568  1.00  0.00    -0.352 A  
HETATM    9  C   UNL     1     -10.683   9.887  69.535  1.00  0.00    -0.265 A  
HETATM   10  F   UNL     1     -12.241  11.803  71.267  1.00  0.00    -0.394 F  
HETATM   11  C   UNL     1     -11.348   9.648  70.745  1.00  0.00    -0.409 A  
HETATM   12  F   UNL     1     -13.128  10.105  72.297  1.00  0.00    -0.496 F  
HETATM   13  F   UNL     1     -13.529  10.426  70.185  1.00  0.00    -0.254 F  
ENDROOT
BRANCH   5  14
HETATM   14  C   UNL     1      -8.089   7.076  69.521  1.00  0.00    -0.130 C  
HETATM   15  O   UNL     1      -7.049   7.601  69.134  1.00  0.00    -0.073 OA 
BRANCH  14  16
HETATM   16  C   UNL     1      -8.261   5.571  69.601  1.00  0.00    -0.101 C  
HETATM   17  C   UNL     1      -8.874   4.371  66.935  1.00  0.00    -0.114 C  
HETATM   18  C   UNL     1      -9.941   5.143  67.701  1.00  0.00    -0.203 C  
HETATM   19  C   UNL     1      -9.641   5.120  69.183  1.00  0.00    -0.146 C  
HETATM   20  O   UNL     1     -10.505   4.844  70.012  1.00  0.00    -0.244 OA 
HETATM   21  C   UNL     1      -7.462   4.846  67.261  1.00  0.00    -0.083 C  
HETATM   22  C   UNL     1      -7.242   4.831  68.761  1.00  0.00    -0.057 C  
HETATM   23  O   UNL     1      -6.277   4.262  69.269  1.00  0.00    -0.026 OA 
ENDBRANCH  14  16
ENDBRANCH   5  14
TORSDOF 2
ENDMDL
MODEL      198
REMARK 921   NORMALIZED FREE ENERGY PREDICTED BY IDOCK:   -4.01 KCAL/MOL
REMARK 922        TOTAL FREE ENERGY PREDICTED BY IDOCK:   -4.84 KCAL/MOL
REMARK 923 INTER-LIGAND FREE ENERGY PREDICTED BY IDOCK:   -4.65 KCAL/MOL
REMARK 924 INTRA-LIGAND FREE ENERGY PREDICTED BY IDOCK:   -0.19 KCAL/MOL
REMARK 927      BINDING AFFINITY PREDICTED BY RF-SCORE:    0.00 PKD
ROOT
HETATM    1  O   UNL     1     -12.341   6.893  70.919  1.00  0.00    -0.386 OA 
HETATM    2  N   UNL     1     -11.470   6.777  70.047  1.00  0.00    -0.344 N  
HETATM    3  C   UNL     1     -10.563   7.905  69.886  1.00  0.00    -0.242 A  
HETATM    4  O   UNL     1     -11.361   5.853  69.230  1.00  0.00    -0.325 OA 
HETATM    5  C   UNL     1      -9.739   8.327  70.939  1.00  0.00    -0.204 A  
HETATM    6  C   UNL     1      -8.938   9.457  70.733  1.00  0.00    -0.254 A  
HETATM    7  C   UNL     1     -10.021  10.592  67.234  1.00  0.00    -0.188 C  
HETATM    8  C   UNL     1      -9.013  10.177  69.531  1.00  0.00    -0.205 A  
HETATM    9  C   UNL     1     -10.640   8.612  68.676  1.00  0.00    -0.165 A  
HETATM   10  F   UNL     1      -9.670   9.893  66.123  1.00  0.00    -0.222 F  
HETATM   11  C   UNL     1      -9.878   9.775  68.501  1.00  0.00    -0.169 A  
HETATM   12  F   UNL     1      -9.266  11.723  67.228  1.00  0.00    -0.163 F  
HETATM   13  F   UNL     1     -11.306  10.996  67.037  1.00  0.00    -0.350 F  
ENDROOT
BRANCH   5  14
HETATM   14  C   UNL     1      -9.673   7.592  72.233  1.00  0.00    -0.174 C  
HETATM   15  O   UNL     1     -10.572   7.794  73.045  1.00  0.00    -0.336 OA 
BRANCH  14  16
HETATM   16  C   UNL     1      -8.538   6.624  72.500  1.00  0.00    -0.125 C  
HETATM   17  C   UNL     1      -8.654   4.237  70.708  1.00  0.00    -0.112 C  
HETATM   18  C   UNL     1      -9.620   4.375  71.878  1.00  0.00    -0.212 C  
HETATM   19  C   UNL     1      -9.025   5.265  72.946  1.00  0.00    -0.120 C  
HETATM   20  O   UNL     1      -9.026   4.940  74.132  1.00  0.00    -0.113 OA 
HETATM   21  C   UNL     1      -8.195   5.587  70.167  1.00  0.00    -0.102 C  
HETATM   22  C   UNL     1      -7.644   6.438  71.293  1.00  0.00    -0.094 C  
HETATM   23  O   UNL     1      -6.534   6.966  71.224  1.00  0.00    -0.041 OA 
ENDBRANCH  14  16
ENDBRANCH   5  14
TORSDOF 2
ENDMDL
MODEL      199
REMARK 921   NORMALIZED FREE ENERGY PREDICTED BY IDOCK:   -3.99 KCAL/MOL
REMARK 922        TOTAL FREE ENERGY PREDICTED BY IDOCK:   -4.82 KCAL/MOL
REMARK 923 INTER-LIGAND FREE ENERGY PREDICTED BY IDOCK:   -4.57 KCAL/MOL
REMARK 924 INTRA-LIGAND FREE ENERGY PREDICTED BY IDOCK:   -0.25 KCAL/MOL
REMARK 927      BINDING AFFINITY PREDICTED BY RF-SCORE:    0.00 PKD
ROOT
HETATM    1  O   UNL     1     -10.048   4.790  69.132  1.00  0.00    -0.192 OA 
HETATM    2  N   UNL     1      -9.955   6.018  69.260  1.00  0.00    -0.154 N  
HETATM    3  C   UNL     1     -10.394   6.568  70.535  1.00  0.00    -0.201 A  
HETATM    4  O   UNL     1      -9.634   6.829  68.383  1.00  0.00    -0.127 OA 
HETATM    5  C   UNL     1      -9.777   6.192  71.737  1.00  0.00    -0.171 A  
HETATM    6  C   UNL     1     -10.292   6.714  72.930  1.00  0.00    -0.236 A  
HETATM    7  C   UNL     1     -13.345   8.683  71.704  1.00  0.00    -0.350 C  
HETATM    8  C   UNL     1     -11.430   7.534  72.919  1.00  0.00    -0.311 A  
HETATM    9  C   UNL     1     -11.529   7.394  70.512  1.00  0.00    -0.281 A  
HETATM   10  F   UNL     1     -13.208   9.848  71.019  1.00  0.00    -0.401 F  
HETATM   11  C   UNL     1     -12.071   7.864  71.715  1.00  0.00    -0.340 A  
HETATM   12  F   UNL     1     -13.786   9.018  72.945  1.00  0.00    -0.473 F  
HETATM   13  F   UNL     1     -14.370   8.013  71.109  1.00  0.00    -0.409 F  
ENDROOT
BRANCH   5  14
HETATM   14  C   UNL     1      -8.588   5.296  71.767  1.00  0.00    -0.130 C  
HETATM   15  O   UNL     1      -8.791   4.086  71.810  1.00  0.00    -0.107 OA 
BRANCH  14  16
HETATM   16  C   UNL     1      -7.191   5.885  71.723  1.00  0.00    -0.091 C  
HETATM   17  C   UNL     1      -6.927   8.278  73.492  1.00  0.00    -0.152 C  
HETATM   18  C   UNL     1      -7.666   8.374  72.163  1.00  0.00    -0.159 C  
HETATM   19  C   UNL     1      -7.174   7.306  71.212  1.00  0.00    -0.072 C  
HETATM   20  O   UNL     1      -6.869   7.568  70.050  1.00  0.00    -0.049 OA 
HETATM   21  C   UNL     1      -6.985   6.877  74.092  1.00  0.00    -0.085 C  
HETATM   22  C   UNL     1      -6.512   5.857  73.076  1.00  0.00    -0.064 C  
HETATM   23  O   UNL     1      -5.635   5.036  73.342  1.00  0.00    -0.016 OA 
ENDBRANCH  14  16
ENDBRANCH   5  14
TORSDOF 2
ENDMDL
MODEL      200
REMARK 921   NORMALIZED FREE ENERGY PREDICTED BY IDOCK:   -3.96 KCAL/MOL
REMARK 922        TOTAL FREE ENERGY PREDICTED BY IDOCK:   -4.79 KCAL/MOL
REMARK 923 INTER-LIGAND FREE ENERGY PREDICTED BY IDOCK:   -4.43 KCAL/MOL
REMARK 924 INTRA-LIGAND FREE ENERGY PREDICTED BY IDOCK:   -0.36 KCAL/MOL
REMARK 927      BINDING AFFINITY PREDICTED BY RF-SCORE:    0.00 PKD
ROOT
HETATM    1  O   UNL     1     -10.652   5.027  70.303  1.00  0.00    -0.229 OA 
HETATM    2  N   UNL     1      -9.850   4.334  69.664  1.00  0.00    -0.212 N  
HETATM    3  C   UNL     1      -9.384   4.888  68.400  1.00  0.00    -0.131 A  
HETATM    4  O   UNL     1      -9.492   3.181  69.933  1.00  0.00    -0.161 OA 
HETATM    5  C   UNL     1      -8.682   6.101  68.355  1.00  0.00    -0.115 A  
HETATM    6  C   UNL     1      -8.319   6.603  67.100  1.00  0.00    -0.113 A  
HETATM    7  C   UNL     1      -9.940   4.076  64.715  1.00  0.00    -0.205 C  
HETATM    8  C   UNL     1      -8.706   5.941  65.926  1.00  0.00    -0.152 A  
HETATM    9  C   UNL     1      -9.770   4.212  67.231  1.00  0.00    -0.214 A  
HETATM   10  F   UNL     1      -9.448   2.818  64.576  1.00  0.00    -0.137 F  
HETATM   11  C   UNL     1      -9.452   4.753  65.979  1.00  0.00    -0.168 A  
HETATM   12  F   UNL     1      -9.608   4.744  63.578  1.00  0.00    -0.081 F  
HETATM   13  F   UNL     1     -11.296   3.957  64.698  1.00  0.00    -0.224 F  
ENDROOT
BRANCH   5  14
HETATM   14  C   UNL     1      -8.293   6.833  69.593  1.00  0.00    -0.132 C  
HETATM   15  O   UNL     1      -7.647   6.217  70.436  1.00  0.00    -0.091 OA 
BRANCH  14  16
HETATM   16  C   UNL     1      -8.677   8.289  69.767  1.00  0.00    -0.134 C  
HETATM   17  C   UNL     1     -10.744   8.657  71.892  1.00  0.00    -0.414 C  
HETATM   18  C   UNL     1     -11.125   8.089  70.531  1.00  0.00    -0.251 C  
HETATM   19  C   UNL     1     -10.138   8.544  69.479  1.00  0.00    -0.200 C  
HETATM   20  O   UNL     1     -10.510   9.007  68.402  1.00  0.00    -0.206 OA 
HETATM   21  C   UNL     1      -9.297   8.355  72.267  1.00  0.00    -0.356 C  
HETATM   22  C   UNL     1      -8.368   8.803  71.157  1.00  0.00    -0.176 C  
HETATM   23  O   UNL     1      -7.402   9.534  71.375  1.00  0.00    -0.330 OA 
ENDBRANCH  14  16
ENDBRANCH   5  14
TORSDOF 2
ENDMDL
MODEL      201
REMARK 921   NORMALIZED FREE ENERGY PREDICTED BY IDOCK:   -3.96 KCAL/MOL
REMARK 922        TOTAL FREE ENERGY PREDICTED BY IDOCK:   -4.78 KCAL/MOL
REMARK 923 INTER-LIGAND FREE ENERGY PREDICTED BY IDOCK:   -4.52 KCAL/MOL
REMARK 924 INTRA-LIGAND FREE ENERGY PREDICTED BY IDOCK:   -0.26 KCAL/MOL
REMARK 927      BINDING AFFINITY PREDICTED BY RF-SCORE:    0.00 PKD
ROOT
HETATM    1  O   UNL     1     -10.977   6.720  69.036  1.00  0.00    -0.248 OA 
HETATM    2  N   UNL     1     -10.782   7.197  67.911  1.00  0.00    -0.210 N  
HETATM    3  C   UNL     1     -10.065   8.464  67.862  1.00  0.00    -0.203 A  
HETATM    4  O   UNL     1     -11.227   6.767  66.839  1.00  0.00    -0.375 OA 
HETATM    5  C   UNL     1      -8.758   8.575  68.357  1.00  0.00    -0.143 A  
HETATM    6  C   UNL     1      -8.153   9.838  68.335  1.00  0.00    -0.104 A  
HETATM    7  C   UNL     1     -10.986  12.072  67.035  1.00  0.00    -0.274 C  
HETATM    8  C   UNL     1      -8.863  10.963  67.889  1.00  0.00    -0.134 A  
HETATM    9  C   UNL     1     -10.782   9.581  67.407  1.00  0.00    -0.297 A  
HETATM   10  F   UNL     1     -11.390  12.020  65.739  1.00  0.00    -0.341 F  
HETATM   11  C   UNL     1     -10.189  10.849  67.442  1.00  0.00    -0.236 A  
HETATM   12  F   UNL     1     -10.302  13.238  67.177  1.00  0.00    -0.241 F  
HETATM   13  F   UNL     1     -12.117  12.206  67.779  1.00  0.00    -0.390 F  
ENDROOT
BRANCH   5  14
HETATM   14  C   UNL     1      -8.003   7.395  68.864  1.00  0.00    -0.126 C  
HETATM   15  O   UNL     1      -7.791   6.477  68.077  1.00  0.00    -0.103 OA 
BRANCH  14  16
HETATM   16  C   UNL     1      -7.511   7.367  70.298  1.00  0.00    -0.083 C  
HETATM   17  C   UNL     1      -9.465   6.045  72.130  1.00  0.00    -0.158 C  
HETATM   18  C   UNL     1      -9.723   7.452  71.606  1.00  0.00    -0.169 C  
HETATM   19  C   UNL     1      -8.418   8.123  71.240  1.00  0.00    -0.132 C  
HETATM   20  O   UNL     1      -8.154   9.264  71.611  1.00  0.00    -0.317 OA 
HETATM   21  C   UNL     1      -8.618   5.212  71.173  1.00  0.00    -0.128 C  
HETATM   22  C   UNL     1      -7.346   5.957  70.823  1.00  0.00    -0.085 C  
HETATM   23  O   UNL     1      -6.237   5.437  70.941  1.00  0.00    -0.027 OA 
ENDBRANCH  14  16
ENDBRANCH   5  14
TORSDOF 2
ENDMDL
MODEL      202
REMARK 921   NORMALIZED FREE ENERGY PREDICTED BY IDOCK:   -3.93 KCAL/MOL
REMARK 922        TOTAL FREE ENERGY PREDICTED BY IDOCK:   -4.75 KCAL/MOL
REMARK 923 INTER-LIGAND FREE ENERGY PREDICTED BY IDOCK:   -4.41 KCAL/MOL
REMARK 924 INTRA-LIGAND FREE ENERGY PREDICTED BY IDOCK:   -0.34 KCAL/MOL
REMARK 927      BINDING AFFINITY PREDICTED BY RF-SCORE:    0.00 PKD
ROOT
HETATM    1  O   UNL     1     -12.525  11.590  68.622  1.00  0.00    -0.335 OA 
HETATM    2  N   UNL     1     -11.644  10.906  69.159  1.00  0.00    -0.296 N  
HETATM    3  C   UNL     1     -10.492  10.573  68.332  1.00  0.00    -0.186 A  
HETATM    4  O   UNL     1     -11.693  10.388  70.282  1.00  0.00    -0.273 OA 
HETATM    5  C   UNL     1      -9.671  11.575  67.797  1.00  0.00    -0.180 A  
HETATM    6  C   UNL     1      -8.618  11.184  66.961  1.00  0.00    -0.147 A  
HETATM    7  C   UNL     1      -9.156   7.397  66.697  1.00  0.00    -0.154 C  
HETATM    8  C   UNL     1      -8.438   9.835  66.622  1.00  0.00    -0.126 A  
HETATM    9  C   UNL     1     -10.317   9.219  68.006  1.00  0.00    -0.270 A  
HETATM   10  F   UNL     1      -8.897   6.571  67.744  1.00  0.00    -0.116 F  
HETATM   11  C   UNL     1      -9.297   8.844  67.123  1.00  0.00    -0.182 A  
HETATM   12  F   UNL     1      -8.162   7.190  65.793  1.00  0.00    -0.104 F  
HETATM   13  F   UNL     1     -10.295   6.928  66.118  1.00  0.00    -0.101 F  
ENDROOT
BRANCH   5  14
HETATM   14  C   UNL     1      -9.870  13.015  68.122  1.00  0.00    -0.228 C  
HETATM   15  O   UNL     1      -9.727  13.357  69.292  1.00  0.00     0.317 OA 
BRANCH  14  16
HETATM   16  C   UNL     1     -10.215  14.001  67.023  1.00  0.00    -0.261 C  
HETATM   17  C   UNL     1     -11.264  16.576  68.114  1.00  0.00    -0.241 C  
HETATM   18  C   UNL     1     -12.136  15.327  68.103  1.00  0.00     0.052 C  
HETATM   19  C   UNL     1     -11.678  14.379  67.018  1.00  0.00    -0.399 C  
HETATM   20  O   UNL     1     -12.472  13.864  66.233  1.00  0.00    -0.453 OA 
HETATM   21  C   UNL     1      -9.777  16.250  68.202  1.00  0.00    -0.227 C  
HETATM   22  C   UNL     1      -9.395  15.271  67.110  1.00  0.00    -0.216 C  
HETATM   23  O   UNL     1      -8.456  15.487  66.345  1.00  0.00    -0.282 OA 
ENDBRANCH  14  16
ENDBRANCH   5  14
TORSDOF 2
ENDMDL
MODEL      203
REMARK 921   NORMALIZED FREE ENERGY PREDICTED BY IDOCK:   -3.91 KCAL/MOL
REMARK 922        TOTAL FREE ENERGY PREDICTED BY IDOCK:   -4.73 KCAL/MOL
REMARK 923 INTER-LIGAND FREE ENERGY PREDICTED BY IDOCK:   -4.43 KCAL/MOL
REMARK 924 INTRA-LIGAND FREE ENERGY PREDICTED BY IDOCK:   -0.30 KCAL/MOL
REMARK 927      BINDING AFFINITY PREDICTED BY RF-SCORE:    0.00 PKD
ROOT
HETATM    1  O   UNL     1      -8.384   7.752  66.830  1.00  0.00    -0.119 OA 
HETATM    2  N   UNL     1      -8.205   7.847  68.051  1.00  0.00    -0.125 N  
HETATM    3  C   UNL     1      -9.250   7.297  68.902  1.00  0.00    -0.141 A  
HETATM    4  O   UNL     1      -7.287   8.455  68.617  1.00  0.00    -0.085 OA 
HETATM    5  C   UNL     1      -9.582   5.935  68.852  1.00  0.00    -0.158 A  
HETATM    6  C   UNL     1     -10.640   5.488  69.654  1.00  0.00    -0.375 A  
HETATM    7  C   UNL     1     -11.917   8.753  71.207  1.00  0.00    -0.301 C  
HETATM    8  C   UNL     1     -11.380   6.392  70.430  1.00  0.00    -0.453 A  
HETATM    9  C   UNL     1      -9.980   8.209  69.681  1.00  0.00    -0.193 A  
HETATM   10  F   UNL     1     -11.207   9.408  72.161  1.00  0.00    -0.416 F  
HETATM   11  C   UNL     1     -11.072   7.761  70.434  1.00  0.00    -0.259 A  
HETATM   12  F   UNL     1     -12.977   8.184  71.842  1.00  0.00    -0.307 F  
HETATM   13  F   UNL     1     -12.437   9.714  70.395  1.00  0.00    -0.228 F  
ENDROOT
BRANCH   5  14
HETATM   14  C   UNL     1      -8.826   4.969  68.008  1.00  0.00    -0.103 C  
HETATM   15  O   UNL     1      -7.602   4.969  68.105  1.00  0.00    -0.078 OA 
BRANCH  14  16
HETATM   16  C   UNL     1      -9.569   4.020  67.088  1.00  0.00    -0.231 C  
HETATM   17  C   UNL     1      -8.148   3.634  64.489  1.00  0.00    -0.086 C  
HETATM   18  C   UNL     1      -8.909   4.922  64.772  1.00  0.00    -0.147 C  
HETATM   19  C   UNL     1      -9.994   4.676  65.796  1.00  0.00    -0.230 C  
HETATM   20  O   UNL     1     -11.144   5.076  65.626  1.00  0.00    -0.091 OA 
HETATM   21  C   UNL     1      -7.625   2.973  65.761  1.00  0.00    -0.073 C  
HETATM   22  C   UNL     1      -8.755   2.788  66.753  1.00  0.00    -0.122 C  
HETATM   23  O   UNL     1      -8.989   1.698  67.273  1.00  0.00    -0.114 OA 
ENDBRANCH  14  16
ENDBRANCH   5  14
TORSDOF 2
ENDMDL
MODEL      204
REMARK 921   NORMALIZED FREE ENERGY PREDICTED BY IDOCK:   -3.89 KCAL/MOL
REMARK 922        TOTAL FREE ENERGY PREDICTED BY IDOCK:   -4.71 KCAL/MOL
REMARK 923 INTER-LIGAND FREE ENERGY PREDICTED BY IDOCK:   -4.46 KCAL/MOL
REMARK 924 INTRA-LIGAND FREE ENERGY PREDICTED BY IDOCK:   -0.25 KCAL/MOL
REMARK 927      BINDING AFFINITY PREDICTED BY RF-SCORE:    0.00 PKD
ROOT
HETATM    1  O   UNL     1     -10.164   9.273  71.027  1.00  0.00    -0.271 OA 
HETATM    2  N   UNL     1      -9.523   8.513  71.766  1.00  0.00    -0.232 N  
HETATM    3  C   UNL     1      -9.623   7.090  71.471  1.00  0.00    -0.158 A  
HETATM    4  O   UNL     1      -8.901   8.829  72.788  1.00  0.00    -0.382 OA 
HETATM    5  C   UNL     1      -9.199   6.575  70.237  1.00  0.00    -0.156 A  
HETATM    6  C   UNL     1      -9.383   5.207  69.999  1.00  0.00    -0.201 A  
HETATM    7  C   UNL     1     -11.262   4.081  73.146  1.00  0.00    -0.112 C  
HETATM    8  C   UNL     1     -10.029   4.398  70.945  1.00  0.00    -0.242 A  
HETATM    9  C   UNL     1     -10.264   6.288  72.428  1.00  0.00    -0.208 A  
HETATM   10  F   UNL     1     -10.638   3.994  74.349  1.00  0.00    -0.225 F  
HETATM   11  C   UNL     1     -10.494   4.933  72.156  1.00  0.00    -0.257 A  
HETATM   12  F   UNL     1     -11.461   2.804  72.724  1.00  0.00    -0.033 F  
HETATM   13  F   UNL     1     -12.499   4.592  73.397  1.00  0.00    -0.213 F  
ENDROOT
BRANCH   5  14
HETATM   14  C   UNL     1      -8.542   7.430  69.209  1.00  0.00    -0.137 C  
HETATM   15  O   UNL     1      -7.675   8.210  69.592  1.00  0.00    -0.096 OA 
BRANCH  14  16
HETATM   16  C   UNL     1      -8.935   7.302  67.750  1.00  0.00    -0.126 C  
HETATM   17  C   UNL     1      -9.669   9.938  66.552  1.00  0.00    -0.260 C  
HETATM   18  C   UNL     1     -10.624   9.226  67.501  1.00  0.00    -0.329 C  
HETATM   19  C   UNL     1     -10.358   7.737  67.491  1.00  0.00    -0.264 C  
HETATM   20  O   UNL     1     -11.269   6.919  67.376  1.00  0.00    -0.280 OA 
HETATM   21  C   UNL     1      -8.208   9.595  66.827  1.00  0.00    -0.113 C  
HETATM   22  C   UNL     1      -8.021   8.091  66.837  1.00  0.00    -0.104 C  
HETATM   23  O   UNL     1      -7.160   7.541  66.152  1.00  0.00    -0.067 OA 
ENDBRANCH  14  16
ENDBRANCH   5  14
TORSDOF 2
ENDMDL
MODEL      205
REMARK 921   NORMALIZED FREE ENERGY PREDICTED BY IDOCK:   -3.88 KCAL/MOL
REMARK 922        TOTAL FREE ENERGY PREDICTED BY IDOCK:   -4.70 KCAL/MOL
REMARK 923 INTER-LIGAND FREE ENERGY PREDICTED BY IDOCK:   -4.40 KCAL/MOL
REMARK 924 INTRA-LIGAND FREE ENERGY PREDICTED BY IDOCK:   -0.30 KCAL/MOL
REMARK 927      BINDING AFFINITY PREDICTED BY RF-SCORE:    0.00 PKD
ROOT
HETATM    1  O   UNL     1      -7.610   9.251  70.288  1.00  0.00    -0.089 OA 
HETATM    2  N   UNL     1      -7.729  10.128  69.422  1.00  0.00    -0.123 N  
HETATM    3  C   UNL     1      -8.529   9.779  68.257  1.00  0.00    -0.114 A  
HETATM    4  O   UNL     1      -7.151  11.222  69.395  1.00  0.00    -0.119 OA 
HETATM    5  C   UNL     1      -9.883   9.437  68.384  1.00  0.00    -0.177 A  
HETATM    6  C   UNL     1     -10.574   9.053  67.228  1.00  0.00    -0.301 A  
HETATM    7  C   UNL     1      -7.801   9.068  64.581  1.00  0.00    -0.121 C  
HETATM    8  C   UNL     1      -9.909   8.953  65.998  1.00  0.00    -0.277 A  
HETATM    9  C   UNL     1      -7.855   9.691  67.028  1.00  0.00    -0.098 A  
HETATM   10  F   UNL     1      -7.269  10.230  64.119  1.00  0.00    -0.136 F  
HETATM   11  C   UNL     1      -8.541   9.250  65.890  1.00  0.00    -0.163 A  
HETATM   12  F   UNL     1      -8.579   8.579  63.579  1.00  0.00    -0.171 F  
HETATM   13  F   UNL     1      -6.760   8.200  64.707  1.00  0.00    -0.062 F  
ENDROOT
BRANCH   5  14
HETATM   14  C   UNL     1     -10.595   9.506  69.691  1.00  0.00    -0.228 C  
HETATM   15  O   UNL     1     -10.614  10.589  70.269  1.00  0.00    -0.212 OA 
BRANCH  14  16
HETATM   16  C   UNL     1     -11.278   8.273  70.250  1.00  0.00    -0.176 C  
HETATM   17  C   UNL     1      -9.507   6.761  72.122  1.00  0.00    -0.145 C  
HETATM   18  C   UNL     1      -9.279   6.697  70.617  1.00  0.00    -0.159 C  
HETATM   19  C   UNL     1     -10.565   6.994  69.879  1.00  0.00    -0.229 C  
HETATM   20  O   UNL     1     -10.959   6.283  68.957  1.00  0.00    -0.305 OA 
HETATM   21  C   UNL     1     -10.152   8.072  72.559  1.00  0.00    -0.346 C  
HETATM   22  C   UNL     1     -11.413   8.324  71.757  1.00  0.00    -0.293 C  
HETATM   23  O   UNL     1     -12.488   8.574  72.301  1.00  0.00    -0.359 OA 
ENDBRANCH  14  16
ENDBRANCH   5  14
TORSDOF 2
ENDMDL
MODEL      206
REMARK 921   NORMALIZED FREE ENERGY PREDICTED BY IDOCK:   -3.88 KCAL/MOL
REMARK 922        TOTAL FREE ENERGY PREDICTED BY IDOCK:   -4.69 KCAL/MOL
REMARK 923 INTER-LIGAND FREE ENERGY PREDICTED BY IDOCK:   -4.32 KCAL/MOL
REMARK 924 INTRA-LIGAND FREE ENERGY PREDICTED BY IDOCK:   -0.38 KCAL/MOL
REMARK 927      BINDING AFFINITY PREDICTED BY RF-SCORE:    0.00 PKD
ROOT
HETATM    1  O   UNL     1     -12.386   6.902  70.142  1.00  0.00    -0.119 OA 
HETATM    2  N   UNL     1     -11.448   6.519  70.853  1.00  0.00    -0.332 N  
HETATM    3  C   UNL     1     -10.182   6.273  70.176  1.00  0.00    -0.189 A  
HETATM    4  O   UNL     1     -11.505   6.221  72.053  1.00  0.00    -0.282 OA 
HETATM    5  C   UNL     1      -9.513   7.301  69.496  1.00  0.00    -0.155 A  
HETATM    6  C   UNL     1      -8.333   6.977  68.815  1.00  0.00    -0.122 A  
HETATM    7  C   UNL     1      -8.137   3.177  69.291  1.00  0.00    -0.048 C  
HETATM    8  C   UNL     1      -7.877   5.652  68.765  1.00  0.00    -0.096 A  
HETATM    9  C   UNL     1      -9.731   4.944  70.139  1.00  0.00    -0.283 A  
HETATM   10  F   UNL     1      -7.830   2.630  70.495  1.00  0.00    -0.042 F  
HETATM   11  C   UNL     1      -8.581   4.621  69.407  1.00  0.00    -0.102 A  
HETATM   12  F   UNL     1      -7.043   3.008  68.503  1.00  0.00    -0.046 F  
HETATM   13  F   UNL     1      -9.112   2.392  68.756  1.00  0.00    -0.125 F  
ENDROOT
BRANCH   5  14
HETATM   14  C   UNL     1     -10.003   8.707  69.512  1.00  0.00    -0.196 C  
HETATM   15  O   UNL     1      -9.840   9.352  70.544  1.00  0.00    -0.234 OA 
BRANCH  14  16
HETATM   16  C   UNL     1     -10.657   9.298  68.278  1.00  0.00    -0.237 C  
HETATM   17  C   UNL     1      -9.278  11.783  67.358  1.00  0.00    -0.174 C  
HETATM   18  C   UNL     1     -10.176  11.805  68.589  1.00  0.00    -0.211 C  
HETATM   19  C   UNL     1     -11.194  10.690  68.514  1.00  0.00    -0.282 C  
HETATM   20  O   UNL     1     -12.388  10.891  68.732  1.00  0.00    -0.495 OA 
HETATM   21  C   UNL     1      -8.644  10.415  67.123  1.00  0.00    -0.130 C  
HETATM   22  C   UNL     1      -9.715   9.344  67.094  1.00  0.00    -0.173 C  
HETATM   23  O   UNL     1      -9.805   8.542  66.166  1.00  0.00    -0.244 OA 
ENDBRANCH  14  16
ENDBRANCH   5  14
TORSDOF 2
ENDMDL
MODEL      207
REMARK 921   NORMALIZED FREE ENERGY PREDICTED BY IDOCK:   -3.87 KCAL/MOL
REMARK 922        TOTAL FREE ENERGY PREDICTED BY IDOCK:   -4.69 KCAL/MOL
REMARK 923 INTER-LIGAND FREE ENERGY PREDICTED BY IDOCK:   -4.22 KCAL/MOL
REMARK 924 INTRA-LIGAND FREE ENERGY PREDICTED BY IDOCK:   -0.47 KCAL/MOL
REMARK 927      BINDING AFFINITY PREDICTED BY RF-SCORE:    0.00 PKD
ROOT
HETATM    1  O   UNL     1     -11.657   6.477  68.742  1.00  0.00    -0.154 OA 
HETATM    2  N   UNL     1     -10.776   6.339  69.601  1.00  0.00    -0.270 N  
HETATM    3  C   UNL     1      -9.401   6.346  69.122  1.00  0.00    -0.132 A  
HETATM    4  O   UNL     1     -10.947   6.088  70.800  1.00  0.00    -0.278 OA 
HETATM    5  C   UNL     1      -8.868   7.465  68.465  1.00  0.00    -0.126 A  
HETATM    6  C   UNL     1      -7.559   7.378  67.977  1.00  0.00    -0.114 A  
HETATM    7  C   UNL     1      -6.643   3.737  68.755  1.00  0.00    -0.041 C  
HETATM    8  C   UNL     1      -6.833   6.183  68.088  1.00  0.00    -0.067 A  
HETATM    9  C   UNL     1      -8.680   5.148  69.246  1.00  0.00    -0.108 A  
HETATM   10  F   UNL     1      -6.411   3.322  70.027  1.00  0.00    -0.025 F  
HETATM   11  C   UNL     1      -7.392   5.052  68.703  1.00  0.00    -0.062 A  
HETATM   12  F   UNL     1      -5.433   3.776  68.138  1.00  0.00    -0.011 F  
HETATM   13  F   UNL     1      -7.341   2.735  68.152  1.00  0.00    -0.048 F  
ENDROOT
BRANCH   5  14
HETATM   14  C   UNL     1      -9.639   8.730  68.310  1.00  0.00    -0.146 C  
HETATM   15  O   UNL     1     -10.405   8.814  67.354  1.00  0.00    -0.240 OA 
BRANCH  14  16
HETATM   16  C   UNL     1      -9.479   9.847  69.324  1.00  0.00    -0.218 C  
HETATM   17  C   UNL     1     -12.113  10.880  70.281  1.00  0.00    -0.440 C  
HETATM   18  C   UNL     1     -11.596  11.242  68.895  1.00  0.00    -0.386 C  
HETATM   19  C   UNL     1     -10.087  11.148  68.857  1.00  0.00    -0.186 C  
HETATM   20  O   UNL     1      -9.396  12.046  68.380  1.00  0.00    -0.200 OA 
HETATM   21  C   UNL     1     -11.591   9.532  70.765  1.00  0.00    -0.378 C  
HETATM   22  C   UNL     1     -10.079   9.494  70.668  1.00  0.00    -0.286 C  
HETATM   23  O   UNL     1      -9.375   9.177  71.626  1.00  0.00    -0.302 OA 
ENDBRANCH  14  16
ENDBRANCH   5  14
TORSDOF 2
ENDMDL
MODEL      208
REMARK 921   NORMALIZED FREE ENERGY PREDICTED BY IDOCK:   -3.87 KCAL/MOL
REMARK 922        TOTAL FREE ENERGY PREDICTED BY IDOCK:   -4.68 KCAL/MOL
REMARK 923 INTER-LIGAND FREE ENERGY PREDICTED BY IDOCK:   -4.17 KCAL/MOL
REMARK 924 INTRA-LIGAND FREE ENERGY PREDICTED BY IDOCK:   -0.52 KCAL/MOL
REMARK 927      BINDING AFFINITY PREDICTED BY RF-SCORE:    0.00 PKD
ROOT
HETATM    1  O   UNL     1     -10.048   4.790  69.132  1.00  0.00    -0.192 OA 
HETATM    2  N   UNL     1      -9.955   6.018  69.260  1.00  0.00    -0.154 N  
HETATM    3  C   UNL     1     -10.394   6.568  70.535  1.00  0.00    -0.201 A  
HETATM    4  O   UNL     1      -9.634   6.829  68.383  1.00  0.00    -0.127 OA 
HETATM    5  C   UNL     1      -9.777   6.192  71.737  1.00  0.00    -0.171 A  
HETATM    6  C   UNL     1     -10.292   6.714  72.930  1.00  0.00    -0.236 A  
HETATM    7  C   UNL     1     -13.345   8.683  71.704  1.00  0.00    -0.350 C  
HETATM    8  C   UNL     1     -11.430   7.534  72.919  1.00  0.00    -0.311 A  
HETATM    9  C   UNL     1     -11.529   7.394  70.512  1.00  0.00    -0.281 A  
HETATM   10  F   UNL     1     -13.208   9.848  71.019  1.00  0.00    -0.401 F  
HETATM   11  C   UNL     1     -12.071   7.864  71.715  1.00  0.00    -0.340 A  
HETATM   12  F   UNL     1     -13.786   9.018  72.945  1.00  0.00    -0.473 F  
HETATM   13  F   UNL     1     -14.370   8.013  71.109  1.00  0.00    -0.409 F  
ENDROOT
BRANCH   5  14
HETATM   14  C   UNL     1      -8.588   5.296  71.767  1.00  0.00    -0.130 C  
HETATM   15  O   UNL     1      -8.791   4.086  71.810  1.00  0.00    -0.107 OA 
BRANCH  14  16
HETATM   16  C   UNL     1      -7.191   5.885  71.723  1.00  0.00    -0.091 C  
HETATM   17  C   UNL     1      -5.262   4.095  70.310  1.00  0.00    -0.004 C  
HETATM   18  C   UNL     1      -5.736   3.764  71.720  1.00  0.00    -0.008 C  
HETATM   19  C   UNL     1      -6.174   5.024  72.434  1.00  0.00    -0.030 C  
HETATM   20  O   UNL     1      -5.796   5.283  73.575  1.00  0.00    -0.025 OA 
HETATM   21  C   UNL     1      -6.291   4.897  69.521  1.00  0.00    -0.031 C  
HETATM   22  C   UNL     1      -6.710   6.122  70.308  1.00  0.00    -0.050 C  
HETATM   23  O   UNL     1      -6.678   7.250  69.817  1.00  0.00    -0.043 OA 
ENDBRANCH  14  16
ENDBRANCH   5  14
TORSDOF 2
ENDMDL
MODEL      209
REMARK 921   NORMALIZED FREE ENERGY PREDICTED BY IDOCK:   -3.86 KCAL/MOL
REMARK 922        TOTAL FREE ENERGY PREDICTED BY IDOCK:   -4.68 KCAL/MOL
REMARK 923 INTER-LIGAND FREE ENERGY PREDICTED BY IDOCK:   -4.28 KCAL/MOL
REMARK 924 INTRA-LIGAND FREE ENERGY PREDICTED BY IDOCK:   -0.40 KCAL/MOL
REMARK 927      BINDING AFFINITY PREDICTED BY RF-SCORE:    0.00 PKD
ROOT
HETATM    1  O   UNL     1     -10.349   4.688  68.724  1.00  0.00    -0.028 OA 
HETATM    2  N   UNL     1     -10.708   5.862  68.569  1.00  0.00    -0.257 N  
HETATM    3  C   UNL     1     -10.779   6.681  69.771  1.00  0.00    -0.257 A  
HETATM    4  O   UNL     1     -11.117   6.376  67.519  1.00  0.00    -0.352 OA 
HETATM    5  C   UNL     1      -9.638   6.922  70.551  1.00  0.00    -0.171 A  
HETATM    6  C   UNL     1      -9.793   7.666  71.727  1.00  0.00    -0.200 A  
HETATM    7  C   UNL     1     -13.587   8.203  71.856  1.00  0.00    -0.330 C  
HETATM    8  C   UNL     1     -11.062   8.097  72.138  1.00  0.00    -0.386 A  
HETATM    9  C   UNL     1     -12.053   7.115  70.169  1.00  0.00     0.025 A  
HETATM   10  F   UNL     1     -14.211   9.052  70.998  1.00  0.00    -0.384 F  
HETATM   11  C   UNL     1     -12.205   7.808  71.376  1.00  0.00    -0.343 A  
HETATM   12  F   UNL     1     -13.587   8.816  73.069  1.00  0.00    -0.375 F  
HETATM   13  F   UNL     1     -14.405   7.122  71.980  1.00  0.00    -0.454 F  
ENDROOT
BRANCH   5  14
HETATM   14  C   UNL     1      -8.288   6.441  70.144  1.00  0.00    -0.134 C  
HETATM   15  O   UNL     1      -7.573   7.222  69.523  1.00  0.00    -0.095 OA 
BRANCH  14  16
HETATM   16  C   UNL     1      -7.836   5.042  70.514  1.00  0.00    -0.074 C  
HETATM   17  C   UNL     1      -6.625   4.940  73.243  1.00  0.00    -0.065 C  
HETATM   18  C   UNL     1      -5.852   5.536  72.074  1.00  0.00    -0.025 C  
HETATM   19  C   UNL     1      -6.349   4.959  70.767  1.00  0.00    -0.019 C  
HETATM   20  O   UNL     1      -5.575   4.533  69.914  1.00  0.00    -0.011 OA 
HETATM   21  C   UNL     1      -8.135   5.073  73.073  1.00  0.00    -0.105 C  
HETATM   22  C   UNL     1      -8.559   4.508  71.732  1.00  0.00    -0.116 C  
HETATM   23  O   UNL     1      -9.455   3.671  71.636  1.00  0.00    -0.123 OA 
ENDBRANCH  14  16
ENDBRANCH   5  14
TORSDOF 2
ENDMDL
MODEL      210
REMARK 921   NORMALIZED FREE ENERGY PREDICTED BY IDOCK:   -3.85 KCAL/MOL
REMARK 922        TOTAL FREE ENERGY PREDICTED BY IDOCK:   -4.66 KCAL/MOL
REMARK 923 INTER-LIGAND FREE ENERGY PREDICTED BY IDOCK:   -4.21 KCAL/MOL
REMARK 924 INTRA-LIGAND FREE ENERGY PREDICTED BY IDOCK:   -0.45 KCAL/MOL
REMARK 927      BINDING AFFINITY PREDICTED BY RF-SCORE:    0.00 PKD
ROOT
HETATM    1  O   UNL     1      -8.375   4.524  68.971  1.00  0.00    -0.079 OA 
HETATM    2  N   UNL     1      -9.494   4.910  69.332  1.00  0.00    -0.137 N  
HETATM    3  C   UNL     1      -9.931   6.198  68.813  1.00  0.00    -0.145 A  
HETATM    4  O   UNL     1     -10.227   4.369  70.170  1.00  0.00    -0.180 OA 
HETATM    5  C   UNL     1     -10.080   6.411  67.435  1.00  0.00    -0.198 A  
HETATM    6  C   UNL     1     -10.444   7.693  67.005  1.00  0.00    -0.419 A  
HETATM    7  C   UNL     1     -10.465   9.676  70.286  1.00  0.00    -0.283 C  
HETATM    8  C   UNL     1     -10.588   8.742  67.925  1.00  0.00    -0.236 A  
HETATM    9  C   UNL     1     -10.081   7.239  69.744  1.00  0.00    -0.196 A  
HETATM   10  F   UNL     1     -11.437   9.494  71.217  1.00  0.00    -0.333 F  
HETATM   11  C   UNL     1     -10.388   8.531  69.298  1.00  0.00    -0.227 A  
HETATM   12  F   UNL     1     -10.711  10.880  69.705  1.00  0.00    -0.264 F  
HETATM   13  F   UNL     1      -9.302   9.824  70.979  1.00  0.00    -0.247 F  
ENDROOT
BRANCH   5  14
HETATM   14  C   UNL     1      -9.898   5.315  66.443  1.00  0.00    -0.186 C  
HETATM   15  O   UNL     1     -10.909   4.781  65.996  1.00  0.00    -0.287 OA 
BRANCH  14  16
HETATM   16  C   UNL     1      -8.503   4.910  66.007  1.00  0.00    -0.117 C  
HETATM   17  C   UNL     1      -7.859   5.885  63.258  1.00  0.00    -0.103 C  
HETATM   18  C   UNL     1      -8.798   4.703  63.461  1.00  0.00    -0.129 C  
HETATM   19  C   UNL     1      -8.510   4.026  64.782  1.00  0.00    -0.107 C  
HETATM   20  O   UNL     1      -8.386   2.806  64.869  1.00  0.00    -0.086 OA 
HETATM   21  C   UNL     1      -7.877   6.854  64.437  1.00  0.00    -0.112 C  
HETATM   22  C   UNL     1      -7.617   6.105  65.728  1.00  0.00    -0.084 C  
HETATM   23  O   UNL     1      -6.744   6.460  66.518  1.00  0.00    -0.053 OA 
ENDBRANCH  14  16
ENDBRANCH   5  14
TORSDOF 2
ENDMDL
MODEL      211
REMARK 921   NORMALIZED FREE ENERGY PREDICTED BY IDOCK:   -3.81 KCAL/MOL
REMARK 922        TOTAL FREE ENERGY PREDICTED BY IDOCK:   -4.62 KCAL/MOL
REMARK 923 INTER-LIGAND FREE ENERGY PREDICTED BY IDOCK:   -4.33 KCAL/MOL
REMARK 924 INTRA-LIGAND FREE ENERGY PREDICTED BY IDOCK:   -0.29 KCAL/MOL
REMARK 927      BINDING AFFINITY PREDICTED BY RF-SCORE:    0.00 PKD
ROOT
HETATM    1  O   UNL     1     -10.323   9.886  70.797  1.00  0.00    -0.273 OA 
HETATM    2  N   UNL     1      -9.327   9.185  71.018  1.00  0.00    -0.266 N  
HETATM    3  C   UNL     1      -8.870   8.348  69.918  1.00  0.00    -0.137 A  
HETATM    4  O   UNL     1      -8.751   9.043  72.104  1.00  0.00    -0.368 OA 
HETATM    5  C   UNL     1      -8.454   8.911  68.703  1.00  0.00    -0.128 A  
HETATM    6  C   UNL     1      -8.086   8.042  67.668  1.00  0.00    -0.124 A  
HETATM    7  C   UNL     1      -8.857   4.605  69.183  1.00  0.00    -0.093 C  
HETATM    8  C   UNL     1      -8.196   6.653  67.829  1.00  0.00    -0.119 A  
HETATM    9  C   UNL     1      -8.976   6.959  70.092  1.00  0.00    -0.149 A  
HETATM   10  F   UNL     1      -8.087   4.078  70.170  1.00  0.00    -0.056 F  
HETATM   11  C   UNL     1      -8.661   6.100  69.032  1.00  0.00    -0.124 A  
HETATM   12  F   UNL     1      -8.568   3.902  68.056  1.00  0.00    -0.092 F  
HETATM   13  F   UNL     1     -10.143   4.294  69.501  1.00  0.00    -0.281 F  
ENDROOT
BRANCH   5  14
HETATM   14  C   UNL     1      -8.364  10.385  68.507  1.00  0.00    -0.124 C  
HETATM   15  O   UNL     1      -7.715  11.027  69.328  1.00  0.00    -0.129 OA 
BRANCH  14  16
HETATM   16  C   UNL     1      -9.042  11.036  67.317  1.00  0.00    -0.142 C  
HETATM   17  C   UNL     1     -11.651  12.288  68.059  1.00  0.00    -0.408 C  
HETATM   18  C   UNL     1     -11.526  10.775  67.931  1.00  0.00    -0.306 C  
HETATM   19  C   UNL     1     -10.385  10.420  67.004  1.00  0.00    -0.240 C  
HETATM   20  O   UNL     1     -10.520   9.597  66.101  1.00  0.00    -0.179 OA 
HETATM   21  C   UNL     1     -10.336  12.951  68.455  1.00  0.00    -0.239 C  
HETATM   22  C   UNL     1      -9.233  12.526  67.508  1.00  0.00    -0.188 C  
HETATM   23  O   UNL     1      -8.517  13.347  66.935  1.00  0.00    -0.160 OA 
ENDBRANCH  14  16
ENDBRANCH   5  14
TORSDOF 2
ENDMDL
MODEL      212
REMARK 921   NORMALIZED FREE ENERGY PREDICTED BY IDOCK:   -3.81 KCAL/MOL
REMARK 922        TOTAL FREE ENERGY PREDICTED BY IDOCK:   -4.62 KCAL/MOL
REMARK 923 INTER-LIGAND FREE ENERGY PREDICTED BY IDOCK:   -4.30 KCAL/MOL
REMARK 924 INTRA-LIGAND FREE ENERGY PREDICTED BY IDOCK:   -0.31 KCAL/MOL
REMARK 927      BINDING AFFINITY PREDICTED BY RF-SCORE:    0.00 PKD
ROOT
HETATM    1  O   UNL     1     -10.343   9.421  71.765  1.00  0.00    -0.260 OA 
HETATM    2  N   UNL     1     -11.301   9.880  71.129  1.00  0.00    -0.376 N  
HETATM    3  C   UNL     1     -10.975  10.664  69.947  1.00  0.00    -0.274 A  
HETATM    4  O   UNL     1     -12.494   9.833  71.456  1.00  0.00    -0.346 OA 
HETATM    5  C   UNL     1     -10.273  10.097  68.873  1.00  0.00    -0.213 A  
HETATM    6  C   UNL     1      -9.939  10.928  67.796  1.00  0.00    -0.198 A  
HETATM    7  C   UNL     1     -11.162  14.355  69.004  1.00  0.00    -0.264 C  
HETATM    8  C   UNL     1     -10.243  12.297  67.828  1.00  0.00    -0.206 A  
HETATM    9  C   UNL     1     -11.291  12.032  69.986  1.00  0.00    -0.054 A  
HETATM   10  F   UNL     1     -12.486  14.648  69.080  1.00  0.00    -0.265 F  
HETATM   11  C   UNL     1     -10.902  12.865  68.930  1.00  0.00    -0.239 A  
HETATM   12  F   UNL     1     -10.677  15.046  67.938  1.00  0.00    -0.249 F  
HETATM   13  F   UNL     1     -10.588  14.913  70.105  1.00  0.00    -0.237 F  
ENDROOT
BRANCH   5  14
HETATM   14  C   UNL     1      -9.914   8.652  68.840  1.00  0.00    -0.189 C  
HETATM   15  O   UNL     1     -10.829   7.839  68.932  1.00  0.00    -0.132 OA 
BRANCH  14  16
HETATM   16  C   UNL     1      -8.466   8.233  68.678  1.00  0.00    -0.125 C  
HETATM   17  C   UNL     1      -7.174   7.624  71.302  1.00  0.00    -0.062 C  
HETATM   18  C   UNL     1      -7.437   9.065  70.883  1.00  0.00    -0.128 C  
HETATM   19  C   UNL     1      -7.507   9.168  69.376  1.00  0.00    -0.077 C  
HETATM   20  O   UNL     1      -6.890  10.034  68.759  1.00  0.00    -0.056 OA 
HETATM   21  C   UNL     1      -8.169   6.646  70.686  1.00  0.00    -0.124 C  
HETATM   22  C   UNL     1      -8.214   6.828  69.182  1.00  0.00    -0.121 C  
HETATM   23  O   UNL     1      -8.070   5.881  68.410  1.00  0.00    -0.107 OA 
ENDBRANCH  14  16
ENDBRANCH   5  14
TORSDOF 2
ENDMDL
MODEL      213
REMARK 921   NORMALIZED FREE ENERGY PREDICTED BY IDOCK:   -3.81 KCAL/MOL
REMARK 922        TOTAL FREE ENERGY PREDICTED BY IDOCK:   -4.61 KCAL/MOL
REMARK 923 INTER-LIGAND FREE ENERGY PREDICTED BY IDOCK:   -4.38 KCAL/MOL
REMARK 924 INTRA-LIGAND FREE ENERGY PREDICTED BY IDOCK:   -0.24 KCAL/MOL
REMARK 927      BINDING AFFINITY PREDICTED BY RF-SCORE:    0.00 PKD
ROOT
HETATM    1  O   UNL     1     -10.349   4.688  68.724  1.00  0.00    -0.028 OA 
HETATM    2  N   UNL     1     -10.708   5.862  68.569  1.00  0.00    -0.257 N  
HETATM    3  C   UNL     1     -10.779   6.681  69.771  1.00  0.00    -0.257 A  
HETATM    4  O   UNL     1     -11.117   6.376  67.519  1.00  0.00    -0.352 OA 
HETATM    5  C   UNL     1      -9.638   6.922  70.551  1.00  0.00    -0.171 A  
HETATM    6  C   UNL     1      -9.793   7.666  71.727  1.00  0.00    -0.200 A  
HETATM    7  C   UNL     1     -13.587   8.203  71.856  1.00  0.00    -0.330 C  
HETATM    8  C   UNL     1     -11.062   8.097  72.138  1.00  0.00    -0.386 A  
HETATM    9  C   UNL     1     -12.053   7.115  70.169  1.00  0.00     0.025 A  
HETATM   10  F   UNL     1     -14.211   9.052  70.998  1.00  0.00    -0.384 F  
HETATM   11  C   UNL     1     -12.205   7.808  71.376  1.00  0.00    -0.343 A  
HETATM   12  F   UNL     1     -13.587   8.816  73.069  1.00  0.00    -0.375 F  
HETATM   13  F   UNL     1     -14.405   7.122  71.980  1.00  0.00    -0.454 F  
ENDROOT
BRANCH   5  14
HETATM   14  C   UNL     1      -8.288   6.441  70.144  1.00  0.00    -0.134 C  
HETATM   15  O   UNL     1      -8.050   5.244  70.275  1.00  0.00    -0.088 OA 
BRANCH  14  16
HETATM   16  C   UNL     1      -7.275   7.415  69.573  1.00  0.00    -0.082 C  
HETATM   17  C   UNL     1      -7.608   7.783  66.628  1.00  0.00    -0.097 C  
HETATM   18  C   UNL     1      -6.980   6.512  67.183  1.00  0.00    -0.071 C  
HETATM   19  C   UNL     1      -6.373   6.779  68.543  1.00  0.00    -0.031 C  
HETATM   20  O   UNL     1      -5.235   6.408  68.826  1.00  0.00    -0.009 OA 
HETATM   21  C   UNL     1      -8.593   8.421  67.602  1.00  0.00    -0.130 C  
HETATM   22  C   UNL     1      -7.932   8.628  68.949  1.00  0.00    -0.113 C  
HETATM   23  O   UNL     1      -7.942   9.720  69.516  1.00  0.00    -0.107 OA 
ENDBRANCH  14  16
ENDBRANCH   5  14
TORSDOF 2
ENDMDL
MODEL      214
REMARK 921   NORMALIZED FREE ENERGY PREDICTED BY IDOCK:   -3.80 KCAL/MOL
REMARK 922        TOTAL FREE ENERGY PREDICTED BY IDOCK:   -4.61 KCAL/MOL
REMARK 923 INTER-LIGAND FREE ENERGY PREDICTED BY IDOCK:   -4.12 KCAL/MOL
REMARK 924 INTRA-LIGAND FREE ENERGY PREDICTED BY IDOCK:   -0.49 KCAL/MOL
REMARK 927      BINDING AFFINITY PREDICTED BY RF-SCORE:    0.00 PKD
ROOT
HETATM    1  O   UNL     1      -6.661  11.670  66.348  1.00  0.00    -0.029 OA 
HETATM    2  N   UNL     1      -6.619  12.404  67.344  1.00  0.00    -0.150 N  
HETATM    3  C   UNL     1      -7.703  13.365  67.484  1.00  0.00    -0.176 A  
HETATM    4  O   UNL     1      -5.699  12.477  68.168  1.00  0.00    -0.055 OA 
HETATM    5  C   UNL     1      -9.036  12.943  67.601  1.00  0.00    -0.192 A  
HETATM    6  C   UNL     1     -10.032  13.925  67.670  1.00  0.00    -0.237 A  
HETATM    7  C   UNL     1      -8.022  17.155  67.190  1.00  0.00    -0.191 C  
HETATM    8  C   UNL     1      -9.704  15.284  67.558  1.00  0.00    -0.204 A  
HETATM    9  C   UNL     1      -7.363  14.724  67.379  1.00  0.00    -0.214 A  
HETATM   10  F   UNL     1      -7.204  17.631  68.164  1.00  0.00    -0.193 F  
HETATM   11  C   UNL     1      -8.373  15.695  67.390  1.00  0.00    -0.198 A  
HETATM   12  F   UNL     1      -9.105  17.976  67.164  1.00  0.00    -0.242 F  
HETATM   13  F   UNL     1      -7.368  17.359  66.014  1.00  0.00    -0.293 F  
ENDROOT
BRANCH   5  14
HETATM   14  C   UNL     1      -9.401  11.502  67.688  1.00  0.00    -0.171 C  
HETATM   15  O   UNL     1      -9.618  10.908  66.635  1.00  0.00    -0.179 OA 
BRANCH  14  16
HETATM   16  C   UNL     1      -9.476  10.817  69.039  1.00  0.00    -0.179 C  
HETATM   17  C   UNL     1      -9.219   7.850  68.807  1.00  0.00    -0.143 C  
HETATM   18  C   UNL     1     -10.513   8.548  68.411  1.00  0.00    -0.215 C  
HETATM   19  C   UNL     1     -10.644   9.865  69.144  1.00  0.00    -0.220 C  
HETATM   20  O   UNL     1     -11.685  10.184  69.715  1.00  0.00    -0.218 OA 
HETATM   21  C   UNL     1      -7.996   8.746  68.640  1.00  0.00    -0.107 C  
HETATM   22  C   UNL     1      -8.209  10.057  69.369  1.00  0.00    -0.155 C  
HETATM   23  O   UNL     1      -7.388  10.491  70.176  1.00  0.00    -0.164 OA 
ENDBRANCH  14  16
ENDBRANCH   5  14
TORSDOF 2
ENDMDL
MODEL      215
REMARK 921   NORMALIZED FREE ENERGY PREDICTED BY IDOCK:   -3.80 KCAL/MOL
REMARK 922        TOTAL FREE ENERGY PREDICTED BY IDOCK:   -4.60 KCAL/MOL
REMARK 923 INTER-LIGAND FREE ENERGY PREDICTED BY IDOCK:   -4.41 KCAL/MOL
REMARK 924 INTRA-LIGAND FREE ENERGY PREDICTED BY IDOCK:   -0.19 KCAL/MOL
REMARK 927      BINDING AFFINITY PREDICTED BY RF-SCORE:    0.00 PKD
ROOT
HETATM    1  O   UNL     1      -8.553   9.127  72.242  1.00  0.00    -0.284 OA 
HETATM    2  N   UNL     1      -8.084   8.438  71.327  1.00  0.00    -0.115 N  
HETATM    3  C   UNL     1      -8.890   7.304  70.894  1.00  0.00    -0.149 A  
HETATM    4  O   UNL     1      -6.960   8.548  70.821  1.00  0.00    -0.042 OA 
HETATM    5  C   UNL     1     -10.176   7.489  70.368  1.00  0.00    -0.202 A  
HETATM    6  C   UNL     1     -10.917   6.349  70.031  1.00  0.00    -0.397 A  
HETATM    7  C   UNL     1      -8.614   3.512  71.190  1.00  0.00    -0.072 C  
HETATM    8  C   UNL     1     -10.406   5.067  70.276  1.00  0.00    -0.299 A  
HETATM    9  C   UNL     1      -8.365   6.025  71.137  1.00  0.00    -0.124 A  
HETATM   10  F   UNL     1      -7.470   3.211  70.521  1.00  0.00    -0.039 F  
HETATM   11  C   UNL     1      -9.137   4.892  70.850  1.00  0.00    -0.184 A  
HETATM   12  F   UNL     1      -9.493   2.513  70.910  1.00  0.00    -0.180 F  
HETATM   13  F   UNL     1      -8.320   3.396  72.513  1.00  0.00    -0.077 F  
ENDROOT
BRANCH   5  14
HETATM   14  C   UNL     1     -10.745   8.846  70.132  1.00  0.00    -0.225 C  
HETATM   15  O   UNL     1     -10.951   9.552  71.115  1.00  0.00    -0.317 OA 
BRANCH  14  16
HETATM   16  C   UNL     1     -11.030   9.316  68.719  1.00  0.00    -0.047 C  
HETATM   17  C   UNL     1      -8.904  11.148  67.697  1.00  0.00    -0.136 C  
HETATM   18  C   UNL     1      -9.925  11.638  68.715  1.00  0.00    -0.147 C  
HETATM   19  C   UNL     1     -11.191  10.815  68.626  1.00  0.00    -0.274 C  
HETATM   20  O   UNL     1     -12.301  11.340  68.578  1.00  0.00    -0.543 OA 
HETATM   21  C   UNL     1      -8.644   9.649  67.806  1.00  0.00    -0.125 C  
HETATM   22  C   UNL     1      -9.953   8.889  67.744  1.00  0.00    -0.192 C  
HETATM   23  O   UNL     1     -10.128   7.962  66.954  1.00  0.00    -0.239 OA 
ENDBRANCH  14  16
ENDBRANCH   5  14
TORSDOF 2
ENDMDL
MODEL      216
REMARK 921   NORMALIZED FREE ENERGY PREDICTED BY IDOCK:   -3.77 KCAL/MOL
REMARK 922        TOTAL FREE ENERGY PREDICTED BY IDOCK:   -4.57 KCAL/MOL
REMARK 923 INTER-LIGAND FREE ENERGY PREDICTED BY IDOCK:   -3.82 KCAL/MOL
REMARK 924 INTRA-LIGAND FREE ENERGY PREDICTED BY IDOCK:   -0.75 KCAL/MOL
REMARK 927      BINDING AFFINITY PREDICTED BY RF-SCORE:    0.00 PKD
ROOT
HETATM    1  O   UNL     1      -6.011   9.805  66.815  1.00  0.00    -0.054 OA 
HETATM    2  N   UNL     1      -6.893  10.145  67.614  1.00  0.00    -0.075 N  
HETATM    3  C   UNL     1      -8.221  10.360  67.057  1.00  0.00    -0.123 A  
HETATM    4  O   UNL     1      -6.738  10.425  68.810  1.00  0.00    -0.052 OA 
HETATM    5  C   UNL     1      -8.916   9.321  66.420  1.00  0.00    -0.185 A  
HETATM    6  C   UNL     1     -10.161   9.617  65.852  1.00  0.00    -0.219 A  
HETATM    7  C   UNL     1     -10.434  13.400  66.416  1.00  0.00    -0.286 C  
HETATM    8  C   UNL     1     -10.662  10.927  65.869  1.00  0.00    -0.193 A  
HETATM    9  C   UNL     1      -8.716  11.673  67.086  1.00  0.00    -0.164 A  
HETATM   10  F   UNL     1     -10.650  13.917  67.654  1.00  0.00    -0.238 F  
HETATM   11  C   UNL     1      -9.936  11.970  66.465  1.00  0.00    -0.224 A  
HETATM   12  F   UNL     1     -11.599  13.546  65.732  1.00  0.00    -0.312 F  
HETATM   13  F   UNL     1      -9.537  14.226  65.812  1.00  0.00    -0.304 F  
ENDROOT
BRANCH   5  14
HETATM   14  C   UNL     1      -8.381   7.932  66.365  1.00  0.00    -0.129 C  
HETATM   15  O   UNL     1      -8.087   7.481  65.262  1.00  0.00    -0.120 OA 
BRANCH  14  16
HETATM   16  C   UNL     1      -8.201   7.137  67.644  1.00  0.00    -0.114 C  
HETATM   17  C   UNL     1     -10.243   4.975  67.919  1.00  0.00    -0.147 C  
HETATM   18  C   UNL     1     -10.619   6.431  68.160  1.00  0.00    -0.314 C  
HETATM   19  C   UNL     1      -9.398   7.228  68.560  1.00  0.00    -0.141 C  
HETATM   20  O   UNL     1      -9.411   7.987  69.527  1.00  0.00    -0.159 OA 
HETATM   21  C   UNL     1      -9.089   4.825  66.934  1.00  0.00    -0.118 C  
HETATM   22  C   UNL     1      -7.915   5.675  67.376  1.00  0.00    -0.102 C  
HETATM   23  O   UNL     1      -6.783   5.206  67.496  1.00  0.00    -0.052 OA 
ENDBRANCH  14  16
ENDBRANCH   5  14
TORSDOF 2
ENDMDL
MODEL      217
REMARK 921   NORMALIZED FREE ENERGY PREDICTED BY IDOCK:   -3.76 KCAL/MOL
REMARK 922        TOTAL FREE ENERGY PREDICTED BY IDOCK:   -4.57 KCAL/MOL
REMARK 923 INTER-LIGAND FREE ENERGY PREDICTED BY IDOCK:   -4.25 KCAL/MOL
REMARK 924 INTRA-LIGAND FREE ENERGY PREDICTED BY IDOCK:   -0.31 KCAL/MOL
REMARK 927      BINDING AFFINITY PREDICTED BY RF-SCORE:    0.00 PKD
ROOT
HETATM    1  O   UNL     1     -12.852  11.203  69.166  1.00  0.00    -0.099 OA 
HETATM    2  N   UNL     1     -11.763  11.396  69.722  1.00  0.00    -0.315 N  
HETATM    3  C   UNL     1     -10.811  10.295  69.678  1.00  0.00    -0.271 A  
HETATM    4  O   UNL     1     -11.445  12.382  70.399  1.00  0.00    -0.005 OA 
HETATM    5  C   UNL     1     -10.329   9.802  68.456  1.00  0.00    -0.228 A  
HETATM    6  C   UNL     1      -9.465   8.701  68.488  1.00  0.00    -0.146 A  
HETATM    7  C   UNL     1      -9.399   7.828  72.221  1.00  0.00    -0.158 C  
HETATM    8  C   UNL     1      -9.147   8.076  69.703  1.00  0.00    -0.152 A  
HETATM    9  C   UNL     1     -10.494   9.682  70.901  1.00  0.00    -0.359 A  
HETATM   10  F   UNL     1      -8.754   8.615  73.121  1.00  0.00    -0.291 F  
HETATM   11  C   UNL     1      -9.674   8.546  70.916  1.00  0.00    -0.231 A  
HETATM   12  F   UNL     1      -8.639   6.710  72.076  1.00  0.00    -0.122 F  
HETATM   13  F   UNL     1     -10.549   7.425  72.828  1.00  0.00    -0.230 F  
ENDROOT
BRANCH   5  14
HETATM   14  C   UNL     1     -10.684  10.435  67.155  1.00  0.00    -0.256 C  
HETATM   15  O   UNL     1     -11.751  10.113  66.641  1.00  0.00     0.701 OA 
BRANCH  14  16
HETATM   16  C   UNL     1      -9.751  11.451  66.525  1.00  0.00    -0.226 C  
HETATM   17  C   UNL     1      -9.691  11.223  63.547  1.00  0.00    -0.364 C  
HETATM   18  C   UNL     1      -8.973  10.199  64.418  1.00  0.00    -0.264 C  
HETATM   19  C   UNL     1      -8.621  10.806  65.758  1.00  0.00    -0.183 C  
HETATM   20  O   UNL     1      -7.497  10.694  66.242  1.00  0.00    -0.126 OA 
HETATM   21  C   UNL     1     -10.893  11.845  64.250  1.00  0.00    -0.396 C  
HETATM   22  C   UNL     1     -10.478  12.401  65.597  1.00  0.00    -0.261 C  
HETATM   23  O   UNL     1     -10.732  13.558  65.927  1.00  0.00    -0.273 OA 
ENDBRANCH  14  16
ENDBRANCH   5  14
TORSDOF 2
ENDMDL
MODEL      218
REMARK 921   NORMALIZED FREE ENERGY PREDICTED BY IDOCK:   -3.75 KCAL/MOL
REMARK 922        TOTAL FREE ENERGY PREDICTED BY IDOCK:   -4.55 KCAL/MOL
REMARK 923 INTER-LIGAND FREE ENERGY PREDICTED BY IDOCK:   -4.26 KCAL/MOL
REMARK 924 INTRA-LIGAND FREE ENERGY PREDICTED BY IDOCK:   -0.28 KCAL/MOL
REMARK 927      BINDING AFFINITY PREDICTED BY RF-SCORE:    0.00 PKD
ROOT
HETATM    1  O   UNL     1      -8.589   5.629  67.876  1.00  0.00    -0.103 OA 
HETATM    2  N   UNL     1      -9.807   5.849  67.902  1.00  0.00    -0.119 N  
HETATM    3  C   UNL     1     -10.241   6.990  68.696  1.00  0.00    -0.176 A  
HETATM    4  O   UNL     1     -10.696   5.138  67.415  1.00  0.00    -0.119 OA 
HETATM    5  C   UNL     1      -9.808   8.289  68.393  1.00  0.00    -0.187 A  
HETATM    6  C   UNL     1     -10.215   9.330  69.238  1.00  0.00    -0.211 A  
HETATM    7  C   UNL     1     -12.118   7.449  71.984  1.00  0.00    -0.289 C  
HETATM    8  C   UNL     1     -10.978   9.063  70.384  1.00  0.00    -0.283 A  
HETATM    9  C   UNL     1     -11.010   6.712  69.837  1.00  0.00    -0.373 A  
HETATM   10  F   UNL     1     -13.336   6.894  71.749  1.00  0.00    -0.390 F  
HETATM   11  C   UNL     1     -11.364   7.752  70.706  1.00  0.00    -0.291 A  
HETATM   12  F   UNL     1     -12.340   8.545  72.757  1.00  0.00    -0.452 F  
HETATM   13  F   UNL     1     -11.445   6.564  72.770  1.00  0.00    -0.275 F  
ENDROOT
BRANCH   5  14
HETATM   14  C   UNL     1      -8.971   8.583  67.197  1.00  0.00    -0.130 C  
HETATM   15  O   UNL     1      -9.484   8.426  66.093  1.00  0.00    -0.214 OA 
BRANCH  14  16
HETATM   16  C   UNL     1      -7.547   9.077  67.369  1.00  0.00    -0.088 C  
HETATM   17  C   UNL     1      -6.003   8.961  64.815  1.00  0.00    -0.064 C  
HETATM   18  C   UNL     1      -6.302   7.689  65.598  1.00  0.00    -0.042 C  
HETATM   19  C   UNL     1      -6.521   8.013  67.059  1.00  0.00    -0.056 C  
HETATM   20  O   UNL     1      -5.965   7.375  67.951  1.00  0.00    -0.032 OA 
HETATM   21  C   UNL     1      -7.058  10.041  65.031  1.00  0.00    -0.136 C  
HETATM   22  C   UNL     1      -7.251  10.289  66.513  1.00  0.00    -0.109 C  
HETATM   23  O   UNL     1      -7.188  11.420  66.995  1.00  0.00    -0.125 OA 
ENDBRANCH  14  16
ENDBRANCH   5  14
TORSDOF 2
ENDMDL
MODEL      219
REMARK 921   NORMALIZED FREE ENERGY PREDICTED BY IDOCK:   -3.73 KCAL/MOL
REMARK 922        TOTAL FREE ENERGY PREDICTED BY IDOCK:   -4.53 KCAL/MOL
REMARK 923 INTER-LIGAND FREE ENERGY PREDICTED BY IDOCK:   -4.87 KCAL/MOL
REMARK 924 INTRA-LIGAND FREE ENERGY PREDICTED BY IDOCK:    0.33 KCAL/MOL
REMARK 927      BINDING AFFINITY PREDICTED BY RF-SCORE:    0.00 PKD
ROOT
HETATM    1  O   UNL     1     -10.488   7.209  67.276  1.00  0.00    -0.235 OA 
HETATM    2  N   UNL     1      -9.718   7.582  66.380  1.00  0.00    -0.156 N  
HETATM    3  C   UNL     1      -9.485   9.016  66.285  1.00  0.00    -0.242 A  
HETATM    4  O   UNL     1      -9.219   6.875  65.496  1.00  0.00     0.108 OA 
HETATM    5  C   UNL     1      -8.915   9.729  67.349  1.00  0.00    -0.144 A  
HETATM    6  C   UNL     1      -8.777  11.116  67.211  1.00  0.00    -0.139 A  
HETATM    7  C   UNL     1     -10.462  11.765  63.828  1.00  0.00    -0.416 C  
HETATM    8  C   UNL     1      -9.257  11.771  66.067  1.00  0.00    -0.202 A  
HETATM    9  C   UNL     1      -9.962   9.660  65.132  1.00  0.00    -0.082 A  
HETATM   10  F   UNL     1      -9.876  11.389  62.662  1.00  0.00    -0.305 F  
HETATM   11  C   UNL     1      -9.872  11.054  65.029  1.00  0.00    -0.321 A  
HETATM   12  F   UNL     1     -10.354  13.119  63.891  1.00  0.00    -0.426 F  
HETATM   13  F   UNL     1     -11.790  11.500  63.688  1.00  0.00    -0.498 F  
ENDROOT
BRANCH   5  14
HETATM   14  C   UNL     1      -8.431   9.051  68.584  1.00  0.00    -0.128 C  
HETATM   15  O   UNL     1      -7.967   7.921  68.465  1.00  0.00    -0.117 OA 
BRANCH  14  16
HETATM   16  C   UNL     1      -8.503   9.764  69.921  1.00  0.00    -0.217 C  
HETATM   17  C   UNL     1      -7.692   7.990  72.183  1.00  0.00    -0.131 C  
HETATM   18  C   UNL     1      -9.050   7.820  71.514  1.00  0.00    -0.158 C  
HETATM   19  C   UNL     1      -9.484   9.119  70.872  1.00  0.00    -0.276 C  
HETATM   20  O   UNL     1     -10.613   9.575  71.038  1.00  0.00    -0.297 OA 
HETATM   21  C   UNL     1      -6.642   8.564  71.237  1.00  0.00    -0.062 C  
HETATM   22  C   UNL     1      -7.155   9.841  70.605  1.00  0.00    -0.087 C  
HETATM   23  O   UNL     1      -6.503  10.885  70.630  1.00  0.00    -0.335 OA 
ENDBRANCH  14  16
ENDBRANCH   5  14
TORSDOF 2
ENDMDL
MODEL      220
REMARK 921   NORMALIZED FREE ENERGY PREDICTED BY IDOCK:   -3.73 KCAL/MOL
REMARK 922        TOTAL FREE ENERGY PREDICTED BY IDOCK:   -4.53 KCAL/MOL
REMARK 923 INTER-LIGAND FREE ENERGY PREDICTED BY IDOCK:   -3.82 KCAL/MOL
REMARK 924 INTRA-LIGAND FREE ENERGY PREDICTED BY IDOCK:   -0.72 KCAL/MOL
REMARK 927      BINDING AFFINITY PREDICTED BY RF-SCORE:    0.00 PKD
ROOT
HETATM    1  O   UNL     1     -11.418   6.380  68.474  1.00  0.00    -0.228 OA 
HETATM    2  N   UNL     1     -11.252   6.291  69.697  1.00  0.00    -0.413 N  
HETATM    3  C   UNL     1      -9.977   5.740  70.137  1.00  0.00    -0.198 A  
HETATM    4  O   UNL     1     -12.094   6.516  70.575  1.00  0.00    -0.367 OA 
HETATM    5  C   UNL     1      -8.767   6.370  69.815  1.00  0.00    -0.138 A  
HETATM    6  C   UNL     1      -7.577   5.750  70.218  1.00  0.00    -0.090 A  
HETATM    7  C   UNL     1      -8.849   2.481  71.765  1.00  0.00    -0.075 C  
HETATM    8  C   UNL     1      -7.603   4.506  70.865  1.00  0.00    -0.056 A  
HETATM    9  C   UNL     1     -10.015   4.498  70.791  1.00  0.00    -0.269 A  
HETATM   10  F   UNL     1      -9.495   2.468  72.960  1.00  0.00    -0.095 F  
HETATM   11  C   UNL     1      -8.818   3.860  71.139  1.00  0.00    -0.136 A  
HETATM   12  F   UNL     1      -7.614   1.960  71.993  1.00  0.00    -0.037 F  
HETATM   13  F   UNL     1      -9.496   1.582  70.975  1.00  0.00    -0.138 F  
ENDROOT
BRANCH   5  14
HETATM   14  C   UNL     1      -8.723   7.675  69.099  1.00  0.00    -0.139 C  
HETATM   15  O   UNL     1      -8.503   7.652  67.891  1.00  0.00    -0.122 OA 
BRANCH  14  16
HETATM   16  C   UNL     1      -8.964   8.966  69.856  1.00  0.00    -0.160 C  
HETATM   17  C   UNL     1      -6.451  10.538  70.226  1.00  0.00    -0.140 C  
HETATM   18  C   UNL     1      -6.714   9.289  71.058  1.00  0.00    -0.093 C  
HETATM   19  C   UNL     1      -8.200   9.029  71.158  1.00  0.00    -0.149 C  
HETATM   20  O   UNL     1      -8.742   8.785  72.234  1.00  0.00    -0.375 OA 
HETATM   21  C   UNL     1      -7.136  10.487  68.864  1.00  0.00    -0.074 C  
HETATM   22  C   UNL     1      -8.612  10.189  69.036  1.00  0.00    -0.156 C  
HETATM   23  O   UNL     1      -9.480  10.894  68.522  1.00  0.00    -0.170 OA 
ENDBRANCH  14  16
ENDBRANCH   5  14
TORSDOF 2
ENDMDL
MODEL      221
REMARK 921   NORMALIZED FREE ENERGY PREDICTED BY IDOCK:   -3.73 KCAL/MOL
REMARK 922        TOTAL FREE ENERGY PREDICTED BY IDOCK:   -4.53 KCAL/MOL
REMARK 923 INTER-LIGAND FREE ENERGY PREDICTED BY IDOCK:   -4.10 KCAL/MOL
REMARK 924 INTRA-LIGAND FREE ENERGY PREDICTED BY IDOCK:   -0.43 KCAL/MOL
REMARK 927      BINDING AFFINITY PREDICTED BY RF-SCORE:    0.00 PKD
ROOT
HETATM    1  O   UNL     1      -9.156   8.287  66.403  1.00  0.00    -0.160 OA 
HETATM    2  N   UNL     1      -8.794   8.222  67.585  1.00  0.00    -0.136 N  
HETATM    3  C   UNL     1      -9.728   7.600  68.513  1.00  0.00    -0.158 A  
HETATM    4  O   UNL     1      -7.774   8.726  68.073  1.00  0.00    -0.099 OA 
HETATM    5  C   UNL     1     -10.129   6.267  68.352  1.00  0.00    -0.179 A  
HETATM    6  C   UNL     1     -11.078   5.754  69.246  1.00  0.00    -0.242 A  
HETATM    7  C   UNL     1     -11.951   8.834  71.356  1.00  0.00    -0.310 C  
HETATM    8  C   UNL     1     -11.651   6.575  70.228  1.00  0.00    -0.473 A  
HETATM    9  C   UNL     1     -10.289   8.429  69.498  1.00  0.00    -0.219 A  
HETATM   10  F   UNL     1     -11.076   9.343  72.262  1.00  0.00    -0.345 F  
HETATM   11  C   UNL     1     -11.278   7.923  70.350  1.00  0.00    -0.240 A  
HETATM   12  F   UNL     1     -12.932   8.223  72.072  1.00  0.00    -0.311 F  
HETATM   13  F   UNL     1     -12.537   9.905  70.754  1.00  0.00    -0.342 F  
ENDROOT
BRANCH   5  14
HETATM   14  C   UNL     1      -9.554   5.392  67.292  1.00  0.00    -0.132 C  
HETATM   15  O   UNL     1     -10.141   5.346  66.215  1.00  0.00    -0.178 OA 
BRANCH  14  16
HETATM   16  C   UNL     1      -8.279   4.615  67.557  1.00  0.00    -0.101 C  
HETATM   17  C   UNL     1      -6.601   4.340  65.101  1.00  0.00    -0.047 C  
HETATM   18  C   UNL     1      -7.865   3.506  65.274  1.00  0.00    -0.086 C  
HETATM   19  C   UNL     1      -8.190   3.347  66.743  1.00  0.00    -0.095 C  
HETATM   20  O   UNL     1      -8.464   2.251  67.227  1.00  0.00    -0.081 OA 
HETATM   21  C   UNL     1      -6.675   5.672  65.841  1.00  0.00    -0.056 C  
HETATM   22  C   UNL     1      -7.037   5.440  67.293  1.00  0.00    -0.070 C  
HETATM   23  O   UNL     1      -6.368   5.913  68.212  1.00  0.00    -0.040 OA 
ENDBRANCH  14  16
ENDBRANCH   5  14
TORSDOF 2
ENDMDL
MODEL      222
REMARK 921   NORMALIZED FREE ENERGY PREDICTED BY IDOCK:   -3.69 KCAL/MOL
REMARK 922        TOTAL FREE ENERGY PREDICTED BY IDOCK:   -4.49 KCAL/MOL
REMARK 923 INTER-LIGAND FREE ENERGY PREDICTED BY IDOCK:   -4.03 KCAL/MOL
REMARK 924 INTRA-LIGAND FREE ENERGY PREDICTED BY IDOCK:   -0.46 KCAL/MOL
REMARK 927      BINDING AFFINITY PREDICTED BY RF-SCORE:    0.00 PKD
ROOT
HETATM    1  O   UNL     1     -11.535   6.274  69.401  1.00  0.00    -0.427 OA 
HETATM    2  N   UNL     1     -10.967   6.731  68.401  1.00  0.00    -0.215 N  
HETATM    3  C   UNL     1     -10.269   7.997  68.578  1.00  0.00    -0.207 A  
HETATM    4  O   UNL     1     -11.023   6.281  67.250  1.00  0.00    -0.338 OA 
HETATM    5  C   UNL     1      -9.207   8.118  69.486  1.00  0.00    -0.158 A  
HETATM    6  C   UNL     1      -8.624   9.381  69.649  1.00  0.00    -0.171 A  
HETATM    7  C   UNL     1     -10.834  11.589  67.426  1.00  0.00    -0.246 C  
HETATM    8  C   UNL     1      -9.134  10.497  68.970  1.00  0.00    -0.188 A  
HETATM    9  C   UNL     1     -10.782   9.106  67.886  1.00  0.00    -0.224 A  
HETATM   10  F   UNL     1     -10.773  11.514  66.071  1.00  0.00    -0.288 F  
HETATM   11  C   UNL     1     -10.229  10.375  68.100  1.00  0.00    -0.187 A  
HETATM   12  F   UNL     1     -10.232  12.758  67.771  1.00  0.00    -0.207 F  
HETATM   13  F   UNL     1     -12.150  11.736  67.738  1.00  0.00    -0.351 F  
ENDROOT
BRANCH   5  14
HETATM   14  C   UNL     1      -8.676   6.948  70.239  1.00  0.00    -0.144 C  
HETATM   15  O   UNL     1      -9.153   6.724  71.348  1.00  0.00    -0.143 OA 
BRANCH  14  16
HETATM   16  C   UNL     1      -7.601   6.072  69.625  1.00  0.00    -0.089 C  
HETATM   17  C   UNL     1      -7.644   3.299  70.733  1.00  0.00    -0.040 C  
HETATM   18  C   UNL     1      -7.086   4.454  71.556  1.00  0.00    -0.043 C  
HETATM   19  C   UNL     1      -6.611   5.564  70.645  1.00  0.00    -0.040 C  
HETATM   20  O   UNL     1      -5.510   6.092  70.792  1.00  0.00    -0.013 OA 
HETATM   21  C   UNL     1      -8.710   3.750  69.741  1.00  0.00    -0.127 C  
HETATM   22  C   UNL     1      -8.180   4.884  68.887  1.00  0.00    -0.083 C  
HETATM   23  O   UNL     1      -8.232   4.849  67.658  1.00  0.00    -0.104 OA 
ENDBRANCH  14  16
ENDBRANCH   5  14
TORSDOF 2
ENDMDL
MODEL      223
REMARK 921   NORMALIZED FREE ENERGY PREDICTED BY IDOCK:   -3.68 KCAL/MOL
REMARK 922        TOTAL FREE ENERGY PREDICTED BY IDOCK:   -4.48 KCAL/MOL
REMARK 923 INTER-LIGAND FREE ENERGY PREDICTED BY IDOCK:   -4.13 KCAL/MOL
REMARK 924 INTRA-LIGAND FREE ENERGY PREDICTED BY IDOCK:   -0.35 KCAL/MOL
REMARK 927      BINDING AFFINITY PREDICTED BY RF-SCORE:    0.00 PKD
ROOT
HETATM    1  O   UNL     1      -8.745   4.633  73.022  1.00  0.00    -0.112 OA 
HETATM    2  N   UNL     1      -9.922   4.375  72.737  1.00  0.00    -0.152 N  
HETATM    3  C   UNL     1     -10.556   5.252  71.762  1.00  0.00    -0.201 A  
HETATM    4  O   UNL     1     -10.642   3.524  73.273  1.00  0.00    -0.164 OA 
HETATM    5  C   UNL     1     -10.054   5.368  70.458  1.00  0.00    -0.306 A  
HETATM    6  C   UNL     1     -10.677   6.277  69.594  1.00  0.00    -0.367 A  
HETATM    7  C   UNL     1     -13.271   7.928  71.884  1.00  0.00    -0.285 C  
HETATM    8  C   UNL     1     -11.728   7.088  70.046  1.00  0.00    -0.185 A  
HETATM    9  C   UNL     1     -11.613   6.053  72.223  1.00  0.00    -0.359 A  
HETATM   10  F   UNL     1     -14.377   7.257  72.300  1.00  0.00    -0.351 F  
HETATM   11  C   UNL     1     -12.191   7.000  71.368  1.00  0.00    -0.407 A  
HETATM   12  F   UNL     1     -13.697   8.832  70.962  1.00  0.00    -0.274 F  
HETATM   13  F   UNL     1     -12.844   8.654  72.953  1.00  0.00    -0.424 F  
ENDROOT
BRANCH   5  14
HETATM   14  C   UNL     1      -8.917   4.537  69.973  1.00  0.00    -0.094 C  
HETATM   15  O   UNL     1      -9.029   3.318  70.061  1.00  0.00    -0.082 OA 
BRANCH  14  16
HETATM   16  C   UNL     1      -7.689   5.201  69.381  1.00  0.00    -0.076 C  
HETATM   17  C   UNL     1      -5.251   4.738  71.044  1.00  0.00    -0.004 C  
HETATM   18  C   UNL     1      -6.318   5.729  71.492  1.00  0.00    -0.044 C  
HETATM   19  C   UNL     1      -7.091   6.242  70.297  1.00  0.00    -0.074 C  
HETATM   20  O   UNL     1      -7.305   7.441  70.134  1.00  0.00    -0.075 OA 
HETATM   21  C   UNL     1      -5.821   3.617  70.180  1.00  0.00    -0.018 C  
HETATM   22  C   UNL     1      -6.609   4.201  69.026  1.00  0.00    -0.041 C  
HETATM   23  O   UNL     1      -6.396   3.867  67.861  1.00  0.00    -0.035 OA 
ENDBRANCH  14  16
ENDBRANCH   5  14
TORSDOF 2
ENDMDL
MODEL      224
REMARK 921   NORMALIZED FREE ENERGY PREDICTED BY IDOCK:   -3.64 KCAL/MOL
REMARK 922        TOTAL FREE ENERGY PREDICTED BY IDOCK:   -4.43 KCAL/MOL
REMARK 923 INTER-LIGAND FREE ENERGY PREDICTED BY IDOCK:   -4.07 KCAL/MOL
REMARK 924 INTRA-LIGAND FREE ENERGY PREDICTED BY IDOCK:   -0.36 KCAL/MOL
REMARK 927      BINDING AFFINITY PREDICTED BY RF-SCORE:    0.00 PKD
ROOT
HETATM    1  O   UNL     1      -7.856   6.428  68.986  1.00  0.00    -0.106 OA 
HETATM    2  N   UNL     1      -8.937   5.832  69.077  1.00  0.00    -0.117 N  
HETATM    3  C   UNL     1      -9.645   5.968  70.342  1.00  0.00    -0.164 A  
HETATM    4  O   UNL     1      -9.420   5.050  68.248  1.00  0.00    -0.121 OA 
HETATM    5  C   UNL     1     -10.068   7.223  70.804  1.00  0.00    -0.193 A  
HETATM    6  C   UNL     1     -10.687   7.286  72.059  1.00  0.00    -0.241 A  
HETATM    7  C   UNL     1     -10.413   3.662  73.281  1.00  0.00    -0.177 C  
HETATM    8  C   UNL     1     -10.818   6.135  72.849  1.00  0.00    -0.290 A  
HETATM    9  C   UNL     1      -9.778   4.808  71.122  1.00  0.00    -0.249 A  
HETATM   10  F   UNL     1     -11.167   2.672  72.735  1.00  0.00    -0.162 F  
HETATM   11  C   UNL     1     -10.347   4.892  72.399  1.00  0.00    -0.262 A  
HETATM   12  F   UNL     1     -10.935   3.904  74.513  1.00  0.00    -0.238 F  
HETATM   13  F   UNL     1      -9.180   3.126  73.493  1.00  0.00    -0.084 F  
ENDROOT
BRANCH   5  14
HETATM   14  C   UNL     1      -9.906   8.459  69.989  1.00  0.00    -0.182 C  
HETATM   15  O   UNL     1      -8.843   9.066  70.085  1.00  0.00    -0.152 OA 
BRANCH  14  16
HETATM   16  C   UNL     1     -11.022   8.915  69.070  1.00  0.00     0.026 C  
HETATM   17  C   UNL     1     -10.432  11.560  67.814  1.00  0.00    -0.216 C  
HETATM   18  C   UNL     1     -10.850  11.473  69.276  1.00  0.00    -0.217 C  
HETATM   19  C   UNL     1     -11.652  10.213  69.518  1.00  0.00    -0.118 C  
HETATM   20  O   UNL     1     -12.715  10.234  70.134  1.00  0.00    -0.197 OA 
HETATM   21  C   UNL     1      -9.717  10.301  67.335  1.00  0.00    -0.189 C  
HETATM   22  C   UNL     1     -10.558   9.078  67.638  1.00  0.00    -0.231 C  
HETATM   23  O   UNL     1     -10.836   8.251  66.771  1.00  0.00    -0.188 OA 
ENDBRANCH  14  16
ENDBRANCH   5  14
TORSDOF 2
ENDMDL
MODEL      225
REMARK 921   NORMALIZED FREE ENERGY PREDICTED BY IDOCK:   -3.63 KCAL/MOL
REMARK 922        TOTAL FREE ENERGY PREDICTED BY IDOCK:   -4.42 KCAL/MOL
REMARK 923 INTER-LIGAND FREE ENERGY PREDICTED BY IDOCK:   -4.27 KCAL/MOL
REMARK 924 INTRA-LIGAND FREE ENERGY PREDICTED BY IDOCK:   -0.14 KCAL/MOL
REMARK 927      BINDING AFFINITY PREDICTED BY RF-SCORE:    0.00 PKD
ROOT
HETATM    1  O   UNL     1      -8.475   8.387  62.804  1.00  0.00    -0.168 OA 
HETATM    2  N   UNL     1      -8.136   9.377  63.465  1.00  0.00    -0.146 N  
HETATM    3  C   UNL     1      -8.922   9.657  64.658  1.00  0.00    -0.231 A  
HETATM    4  O   UNL     1      -7.274  10.210  63.157  1.00  0.00    -0.132 OA 
HETATM    5  C   UNL     1      -8.998   8.731  65.708  1.00  0.00    -0.253 A  
HETATM    6  C   UNL     1      -9.822   9.040  66.797  1.00  0.00    -0.300 A  
HETATM    7  C   UNL     1     -11.440  12.332  65.682  1.00  0.00    -0.368 C  
HETATM    8  C   UNL     1     -10.594  10.211  66.800  1.00  0.00    -0.239 A  
HETATM    9  C   UNL     1      -9.684  10.836  64.653  1.00  0.00    -0.344 A  
HETATM   10  F   UNL     1     -10.730  13.489  65.635  1.00  0.00    -0.270 F  
HETATM   11  C   UNL     1     -10.550  11.107  65.721  1.00  0.00    -0.289 A  
HETATM   12  F   UNL     1     -12.268  12.436  66.755  1.00  0.00    -0.413 F  
HETATM   13  F   UNL     1     -12.244  12.337  64.584  1.00  0.00    -0.436 F  
ENDROOT
BRANCH   5  14
HETATM   14  C   UNL     1      -8.209   7.467  65.705  1.00  0.00    -0.133 C  
HETATM   15  O   UNL     1      -8.706   6.491  65.151  1.00  0.00    -0.049 OA 
BRANCH  14  16
HETATM   16  C   UNL     1      -6.838   7.426  66.351  1.00  0.00    -0.061 C  
HETATM   17  C   UNL     1      -6.694   9.145  68.789  1.00  0.00    -0.053 C  
HETATM   18  C   UNL     1      -6.690   9.769  67.400  1.00  0.00    -0.074 C  
HETATM   19  C   UNL     1      -6.168   8.779  66.383  1.00  0.00    -0.061 C  
HETATM   20  O   UNL     1      -5.310   9.091  65.559  1.00  0.00    -0.037 OA 
HETATM   21  C   UNL     1      -7.433   7.811  68.828  1.00  0.00    -0.096 C  
HETATM   22  C   UNL     1      -6.884   6.883  67.763  1.00  0.00    -0.081 C  
HETATM   23  O   UNL     1      -6.511   5.741  68.029  1.00  0.00    -0.040 OA 
ENDBRANCH  14  16
ENDBRANCH   5  14
TORSDOF 2
ENDMDL
MODEL      226
REMARK 921   NORMALIZED FREE ENERGY PREDICTED BY IDOCK:   -3.62 KCAL/MOL
REMARK 922        TOTAL FREE ENERGY PREDICTED BY IDOCK:   -4.41 KCAL/MOL
REMARK 923 INTER-LIGAND FREE ENERGY PREDICTED BY IDOCK:   -3.89 KCAL/MOL
REMARK 924 INTRA-LIGAND FREE ENERGY PREDICTED BY IDOCK:   -0.52 KCAL/MOL
REMARK 927      BINDING AFFINITY PREDICTED BY RF-SCORE:    0.00 PKD
ROOT
HETATM    1  O   UNL     1     -12.348   7.397  70.113  1.00  0.00     0.198 OA 
HETATM    2  N   UNL     1     -11.498   7.504  71.007  1.00  0.00    -0.274 N  
HETATM    3  C   UNL     1     -10.156   7.040  70.681  1.00  0.00    -0.191 A  
HETATM    4  O   UNL     1     -11.697   7.859  72.176  1.00  0.00    -0.296 OA 
HETATM    5  C   UNL     1      -9.423   7.622  69.636  1.00  0.00    -0.156 A  
HETATM    6  C   UNL     1      -8.165   7.084  69.339  1.00  0.00    -0.132 A  
HETATM    7  C   UNL     1      -7.977   4.090  71.728  1.00  0.00    -0.071 C  
HETATM    8  C   UNL     1      -7.688   5.958  70.027  1.00  0.00    -0.088 A  
HETATM    9  C   UNL     1      -9.686   5.918  71.381  1.00  0.00    -0.196 A  
HETATM   10  F   UNL     1      -7.811   4.262  73.065  1.00  0.00    -0.079 F  
HETATM   11  C   UNL     1      -8.451   5.352  71.037  1.00  0.00    -0.124 A  
HETATM   12  F   UNL     1      -6.792   3.623  71.252  1.00  0.00    -0.028 F  
HETATM   13  F   UNL     1      -8.868   3.072  71.585  1.00  0.00    -0.089 F  
ENDROOT
BRANCH   5  14
HETATM   14  C   UNL     1      -9.931   8.797  68.875  1.00  0.00    -0.192 C  
HETATM   15  O   UNL     1     -10.404   8.589  67.762  1.00  0.00    -0.218 OA 
BRANCH  14  16
HETATM   16  C   UNL     1      -9.871  10.183  69.488  1.00  0.00    -0.255 C  
HETATM   17  C   UNL     1     -10.975  12.268  67.656  1.00  0.00    -0.287 C  
HETATM   18  C   UNL     1      -9.602  11.660  67.400  1.00  0.00    -0.173 C  
HETATM   19  C   UNL     1      -9.012  11.135  68.690  1.00  0.00    -0.162 C  
HETATM   20  O   UNL     1      -7.857  11.392  69.022  1.00  0.00    -0.120 OA 
HETATM   21  C   UNL     1     -11.910  11.312  68.390  1.00  0.00    -0.331 C  
HETATM   22  C   UNL     1     -11.243  10.800  69.651  1.00  0.00    -0.291 C  
HETATM   23  O   UNL     1     -11.796  10.866  70.749  1.00  0.00    -0.333 OA 
ENDBRANCH  14  16
ENDBRANCH   5  14
TORSDOF 2
ENDMDL
MODEL      227
REMARK 921   NORMALIZED FREE ENERGY PREDICTED BY IDOCK:   -3.61 KCAL/MOL
REMARK 922        TOTAL FREE ENERGY PREDICTED BY IDOCK:   -4.40 KCAL/MOL
REMARK 923 INTER-LIGAND FREE ENERGY PREDICTED BY IDOCK:   -4.11 KCAL/MOL
REMARK 924 INTRA-LIGAND FREE ENERGY PREDICTED BY IDOCK:   -0.29 KCAL/MOL
REMARK 927      BINDING AFFINITY PREDICTED BY RF-SCORE:    0.00 PKD
ROOT
HETATM    1  O   UNL     1      -7.313   5.093  71.799  1.00  0.00    -0.079 OA 
HETATM    2  N   UNL     1      -8.402   5.124  72.387  1.00  0.00    -0.120 N  
HETATM    3  C   UNL     1      -9.522   5.682  71.641  1.00  0.00    -0.150 A  
HETATM    4  O   UNL     1      -8.610   4.833  73.571  1.00  0.00    -0.105 OA 
HETATM    5  C   UNL     1      -9.956   5.098  70.442  1.00  0.00    -0.316 A  
HETATM    6  C   UNL     1     -10.998   5.725  69.748  1.00  0.00    -0.397 A  
HETATM    7  C   UNL     1     -11.592   8.879  71.846  1.00  0.00    -0.371 C  
HETATM    8  C   UNL     1     -11.540   6.933  70.210  1.00  0.00    -0.362 A  
HETATM    9  C   UNL     1     -10.063   6.887  72.118  1.00  0.00    -0.198 A  
HETATM   10  F   UNL     1     -12.177   8.815  73.069  1.00  0.00    -0.331 F  
HETATM   11  C   UNL     1     -11.065   7.535  71.385  1.00  0.00    -0.262 A  
HETATM   12  F   UNL     1     -12.516   9.417  71.007  1.00  0.00    -0.329 F  
HETATM   13  F   UNL     1     -10.597   9.802  71.950  1.00  0.00    -0.221 F  
ENDROOT
BRANCH   5  14
HETATM   14  C   UNL     1      -9.367   3.833  69.922  1.00  0.00    -0.177 C  
HETATM   15  O   UNL     1      -9.398   2.850  70.656  1.00  0.00    -0.126 OA 
BRANCH  14  16
HETATM   16  C   UNL     1      -8.777   3.788  68.526  1.00  0.00    -0.134 C  
HETATM   17  C   UNL     1      -5.846   4.362  68.528  1.00  0.00    -0.025 C  
HETATM   18  C   UNL     1      -6.855   5.486  68.722  1.00  0.00    -0.059 C  
HETATM   19  C   UNL     1      -8.183   5.110  68.102  1.00  0.00    -0.097 C  
HETATM   20  O   UNL     1      -8.794   5.884  67.367  1.00  0.00    -0.109 OA 
HETATM   21  C   UNL     1      -6.369   3.016  69.017  1.00  0.00    -0.029 C  
HETATM   22  C   UNL     1      -7.714   2.720  68.385  1.00  0.00    -0.055 C  
HETATM   23  O   UNL     1      -7.937   1.659  67.802  1.00  0.00    -0.058 OA 
ENDBRANCH  14  16
ENDBRANCH   5  14
TORSDOF 2
ENDMDL
MODEL      228
REMARK 921   NORMALIZED FREE ENERGY PREDICTED BY IDOCK:   -3.55 KCAL/MOL
REMARK 922        TOTAL FREE ENERGY PREDICTED BY IDOCK:   -4.33 KCAL/MOL
REMARK 923 INTER-LIGAND FREE ENERGY PREDICTED BY IDOCK:   -3.82 KCAL/MOL
REMARK 924 INTRA-LIGAND FREE ENERGY PREDICTED BY IDOCK:   -0.51 KCAL/MOL
REMARK 927      BINDING AFFINITY PREDICTED BY RF-SCORE:    0.00 PKD
ROOT
HETATM    1  O   UNL     1      -7.507   4.401  69.487  1.00  0.00    -0.054 OA 
HETATM    2  N   UNL     1      -8.722   4.538  69.675  1.00  0.00    -0.079 N  
HETATM    3  C   UNL     1      -9.328   5.746  69.134  1.00  0.00    -0.123 A  
HETATM    4  O   UNL     1      -9.448   3.812  70.367  1.00  0.00    -0.154 OA 
HETATM    5  C   UNL     1      -9.306   6.013  67.757  1.00  0.00    -0.106 A  
HETATM    6  C   UNL     1      -9.852   7.224  67.314  1.00  0.00    -0.224 A  
HETATM    7  C   UNL     1     -10.772   8.953  70.611  1.00  0.00    -0.234 C  
HETATM    8  C   UNL     1     -10.344   8.164  68.232  1.00  0.00    -0.241 A  
HETATM    9  C   UNL     1      -9.824   6.677  70.060  1.00  0.00    -0.178 A  
HETATM   10  F   UNL     1     -11.817   8.526  71.366  1.00  0.00    -0.285 F  
HETATM   11  C   UNL     1     -10.315   7.909  69.612  1.00  0.00    -0.216 A  
HETATM   12  F   UNL     1     -11.166  10.120  70.036  1.00  0.00    -0.247 F  
HETATM   13  F   UNL     1      -9.782   9.280  71.485  1.00  0.00    -0.350 F  
ENDROOT
BRANCH   5  14
HETATM   14  C   UNL     1      -8.757   5.038  66.773  1.00  0.00    -0.108 C  
HETATM   15  O   UNL     1      -7.664   5.290  66.276  1.00  0.00    -0.087 OA 
BRANCH  14  16
HETATM   16  C   UNL     1      -9.534   3.780  66.435  1.00  0.00    -0.197 C  
HETATM   17  C   UNL     1      -8.183   2.163  64.318  1.00  0.00    -0.081 C  
HETATM   18  C   UNL     1      -8.922   3.446  63.960  1.00  0.00    -0.097 C  
HETATM   19  C   UNL     1      -9.985   3.745  64.994  1.00  0.00    -0.152 C  
HETATM   20  O   UNL     1     -11.134   4.040  64.672  1.00  0.00    -0.300 OA 
HETATM   21  C   UNL     1      -7.636   2.183  65.741  1.00  0.00    -0.071 C  
HETATM   22  C   UNL     1      -8.743   2.522  66.719  1.00  0.00    -0.124 C  
HETATM   23  O   UNL     1      -8.976   1.820  67.703  1.00  0.00    -0.111 OA 
ENDBRANCH  14  16
ENDBRANCH   5  14
TORSDOF 2
ENDMDL
MODEL      229
REMARK 921   NORMALIZED FREE ENERGY PREDICTED BY IDOCK:   -3.54 KCAL/MOL
REMARK 922        TOTAL FREE ENERGY PREDICTED BY IDOCK:   -4.32 KCAL/MOL
REMARK 923 INTER-LIGAND FREE ENERGY PREDICTED BY IDOCK:   -3.55 KCAL/MOL
REMARK 924 INTRA-LIGAND FREE ENERGY PREDICTED BY IDOCK:   -0.77 KCAL/MOL
REMARK 927      BINDING AFFINITY PREDICTED BY RF-SCORE:    0.00 PKD
ROOT
HETATM    1  O   UNL     1     -11.854   6.230  68.585  1.00  0.00     0.319 OA 
HETATM    2  N   UNL     1     -11.071   6.420  69.524  1.00  0.00    -0.363 N  
HETATM    3  C   UNL     1      -9.657   6.491  69.181  1.00  0.00    -0.134 A  
HETATM    4  O   UNL     1     -11.355   6.446  70.728  1.00  0.00    -0.311 OA 
HETATM    5  C   UNL     1      -9.172   7.478  68.311  1.00  0.00    -0.138 A  
HETATM    6  C   UNL     1      -7.812   7.447  67.978  1.00  0.00    -0.118 A  
HETATM    7  C   UNL     1      -6.618   4.254  69.733  1.00  0.00    -0.033 C  
HETATM    8  C   UNL     1      -6.983   6.420  68.452  1.00  0.00    -0.080 A  
HETATM    9  C   UNL     1      -8.835   5.463  69.669  1.00  0.00    -0.123 A  
HETATM   10  F   UNL     1      -6.494   4.194  71.084  1.00  0.00    -0.022 F  
HETATM   11  C   UNL     1      -7.489   5.408  69.283  1.00  0.00    -0.073 A  
HETATM   12  F   UNL     1      -5.354   4.301  69.235  1.00  0.00    -0.009 F  
HETATM   13  F   UNL     1      -7.130   3.054  69.346  1.00  0.00    -0.042 F  
ENDROOT
BRANCH   5  14
HETATM   14  C   UNL     1     -10.048   8.555  67.773  1.00  0.00    -0.211 C  
HETATM   15  O   UNL     1     -10.436   8.444  66.614  1.00  0.00    -0.294 OA 
BRANCH  14  16
HETATM   16  C   UNL     1     -10.444   9.724  68.655  1.00  0.00    -0.233 C  
HETATM   17  C   UNL     1      -8.648  12.079  68.270  1.00  0.00    -0.174 C  
HETATM   18  C   UNL     1      -8.174  10.863  69.055  1.00  0.00    -0.126 C  
HETATM   19  C   UNL     1      -9.357  10.114  69.627  1.00  0.00    -0.190 C  
HETATM   20  O   UNL     1      -9.386   9.756  70.803  1.00  0.00    -0.124 OA 
HETATM   21  C   UNL     1      -9.691  11.724  67.216  1.00  0.00    -0.188 C  
HETATM   22  C   UNL     1     -10.828  10.947  67.850  1.00  0.00    -0.247 C  
HETATM   23  O   UNL     1     -12.002  11.283  67.705  1.00  0.00    -0.637 OA 
ENDBRANCH  14  16
ENDBRANCH   5  14
TORSDOF 2
ENDMDL
MODEL      230
REMARK 921   NORMALIZED FREE ENERGY PREDICTED BY IDOCK:   -3.51 KCAL/MOL
REMARK 922        TOTAL FREE ENERGY PREDICTED BY IDOCK:   -4.28 KCAL/MOL
REMARK 923 INTER-LIGAND FREE ENERGY PREDICTED BY IDOCK:   -3.94 KCAL/MOL
REMARK 924 INTRA-LIGAND FREE ENERGY PREDICTED BY IDOCK:   -0.33 KCAL/MOL
REMARK 927      BINDING AFFINITY PREDICTED BY RF-SCORE:    0.00 PKD
ROOT
HETATM    1  O   UNL     1      -8.950   6.071  67.702  1.00  0.00    -0.114 OA 
HETATM    2  N   UNL     1      -8.223   7.042  67.451  1.00  0.00    -0.118 N  
HETATM    3  C   UNL     1      -8.618   8.313  68.040  1.00  0.00    -0.132 A  
HETATM    4  O   UNL     1      -7.264   7.063  66.668  1.00  0.00    -0.078 OA 
HETATM    5  C   UNL     1      -8.697   8.475  69.431  1.00  0.00    -0.136 A  
HETATM    6  C   UNL     1      -9.144   9.706  69.924  1.00  0.00    -0.250 A  
HETATM    7  C   UNL     1     -10.049  11.590  66.709  1.00  0.00    -0.215 C  
HETATM    8  C   UNL     1      -9.561  10.719  69.048  1.00  0.00    -0.193 A  
HETATM    9  C   UNL     1      -9.025   9.323  67.153  1.00  0.00    -0.141 A  
HETATM   10  F   UNL     1      -9.089  12.049  65.865  1.00  0.00    -0.218 F  
HETATM   11  C   UNL     1      -9.526  10.530  67.657  1.00  0.00    -0.164 A  
HETATM   12  F   UNL     1     -10.557  12.681  67.341  1.00  0.00    -0.218 F  
HETATM   13  F   UNL     1     -11.049  11.111  65.920  1.00  0.00    -0.310 F  
ENDROOT
BRANCH   5  14
HETATM   14  C   UNL     1      -8.289   7.396  70.374  1.00  0.00    -0.129 C  
HETATM   15  O   UNL     1      -7.145   6.962  70.277  1.00  0.00    -0.064 OA 
BRANCH  14  16
HETATM   16  C   UNL     1      -9.267   6.889  71.416  1.00  0.00    -0.156 C  
HETATM   17  C   UNL     1      -9.972   4.018  70.989  1.00  0.00    -0.176 C  
HETATM   18  C   UNL     1     -10.554   5.101  70.090  1.00  0.00    -0.225 C  
HETATM   19  C   UNL     1     -10.573   6.428  70.814  1.00  0.00    -0.238 C  
HETATM   20  O   UNL     1     -11.574   7.142  70.826  1.00  0.00    -0.294 OA 
HETATM   21  C   UNL     1      -8.610   4.402  71.560  1.00  0.00    -0.128 C  
HETATM   22  C   UNL     1      -8.694   5.754  72.238  1.00  0.00    -0.132 C  
HETATM   23  O   UNL     1      -8.301   5.926  73.391  1.00  0.00    -0.115 OA 
ENDBRANCH  14  16
ENDBRANCH   5  14
TORSDOF 2
ENDMDL
MODEL      231
REMARK 921   NORMALIZED FREE ENERGY PREDICTED BY IDOCK:   -3.48 KCAL/MOL
REMARK 922        TOTAL FREE ENERGY PREDICTED BY IDOCK:   -4.25 KCAL/MOL
REMARK 923 INTER-LIGAND FREE ENERGY PREDICTED BY IDOCK:   -3.48 KCAL/MOL
REMARK 924 INTRA-LIGAND FREE ENERGY PREDICTED BY IDOCK:   -0.77 KCAL/MOL
REMARK 927      BINDING AFFINITY PREDICTED BY RF-SCORE:    0.00 PKD
ROOT
HETATM    1  O   UNL     1      -6.067   6.889  67.179  1.00  0.00    -0.027 OA 
HETATM    2  N   UNL     1      -6.866   7.214  66.291  1.00  0.00    -0.056 N  
HETATM    3  C   UNL     1      -8.157   6.541  66.307  1.00  0.00    -0.115 A  
HETATM    4  O   UNL     1      -6.641   7.965  65.333  1.00  0.00    -0.044 OA 
HETATM    5  C   UNL     1      -9.020   6.656  67.407  1.00  0.00    -0.114 A  
HETATM    6  C   UNL     1     -10.218   5.931  67.380  1.00  0.00    -0.237 A  
HETATM    7  C   UNL     1      -9.885   3.933  64.124  1.00  0.00    -0.181 C  
HETATM    8  C   UNL     1     -10.507   5.068  66.313  1.00  0.00    -0.352 A  
HETATM    9  C   UNL     1      -8.441   5.686  65.230  1.00  0.00    -0.147 A  
HETATM   10  F   UNL     1      -9.988   4.535  62.911  1.00  0.00    -0.134 F  
HETATM   11  C   UNL     1      -9.614   4.922  65.240  1.00  0.00    -0.079 A  
HETATM   12  F   UNL     1     -11.029   3.220  64.296  1.00  0.00    -0.165 F  
HETATM   13  F   UNL     1      -8.885   3.017  64.008  1.00  0.00    -0.095 F  
ENDROOT
BRANCH   5  14
HETATM   14  C   UNL     1      -8.710   7.542  68.563  1.00  0.00    -0.128 C  
HETATM   15  O   UNL     1      -8.506   7.007  69.649  1.00  0.00    -0.131 OA 
BRANCH  14  16
HETATM   16  C   UNL     1      -8.637   9.045  68.371  1.00  0.00    -0.130 C  
HETATM   17  C   UNL     1     -11.099  10.422  69.351  1.00  0.00    -0.304 C  
HETATM   18  C   UNL     1     -11.116   9.645  68.041  1.00  0.00    -0.108 C  
HETATM   19  C   UNL     1      -9.722   9.568  67.460  1.00  0.00    -0.155 C  
HETATM   20  O   UNL     1      -9.501   9.825  66.278  1.00  0.00    -0.170 OA 
HETATM   21  C   UNL     1     -10.073   9.879  70.340  1.00  0.00    -0.258 C  
HETATM   22  C   UNL     1      -8.711   9.797  69.682  1.00  0.00    -0.199 C  
HETATM   23  O   UNL     1      -7.712  10.300  70.195  1.00  0.00    -0.147 OA 
ENDBRANCH  14  16
ENDBRANCH   5  14
TORSDOF 2
ENDMDL
MODEL      232
REMARK 921   NORMALIZED FREE ENERGY PREDICTED BY IDOCK:   -3.48 KCAL/MOL
REMARK 922        TOTAL FREE ENERGY PREDICTED BY IDOCK:   -4.25 KCAL/MOL
REMARK 923 INTER-LIGAND FREE ENERGY PREDICTED BY IDOCK:   -5.44 KCAL/MOL
REMARK 924 INTRA-LIGAND FREE ENERGY PREDICTED BY IDOCK:    1.19 KCAL/MOL
REMARK 927      BINDING AFFINITY PREDICTED BY RF-SCORE:    0.00 PKD
ROOT
HETATM    1  O   UNL     1      -9.824  10.166  69.090  1.00  0.00    -0.191 OA 
HETATM    2  N   UNL     1     -10.921  10.374  68.557  1.00  0.00    -0.238 N  
HETATM    3  C   UNL     1     -10.891  10.825  67.172  1.00  0.00    -0.277 A  
HETATM    4  O   UNL     1     -12.028  10.343  69.109  1.00  0.00    -0.150 OA 
HETATM    5  C   UNL     1     -10.324  10.032  66.164  1.00  0.00    -0.225 A  
HETATM    6  C   UNL     1     -10.273  10.557  64.867  1.00  0.00    -0.371 A  
HETATM    7  C   UNL     1     -11.647  14.101  65.371  1.00  0.00    -0.334 C  
HETATM    8  C   UNL     1     -10.719  11.861  64.606  1.00  0.00    -0.356 A  
HETATM    9  C   UNL     1     -11.347  12.129  66.921  1.00  0.00    -0.402 A  
HETATM   10  F   UNL     1     -12.963  14.320  65.624  1.00  0.00    -0.518 F  
HETATM   11  C   UNL     1     -11.239  12.666  65.631  1.00  0.00    -0.344 A  
HETATM   12  F   UNL     1     -11.432  14.503  64.090  1.00  0.00    -0.324 F  
HETATM   13  F   UNL     1     -10.960  14.972  66.159  1.00  0.00    -0.313 F  
ENDROOT
BRANCH   5  14
HETATM   14  C   UNL     1      -9.816   8.658  66.434  1.00  0.00    -0.270 C  
HETATM   15  O   UNL     1     -10.635   7.807  66.768  1.00  0.00    -0.331 OA 
BRANCH  14  16
HETATM   16  C   UNL     1      -8.341   8.347  66.272  1.00  0.00    -0.123 C  
HETATM   17  C   UNL     1      -6.707  10.822  65.912  1.00  0.00    -0.084 C  
HETATM   18  C   UNL     1      -7.566  10.288  64.773  1.00  0.00    -0.109 C  
HETATM   19  C   UNL     1      -7.793   8.802  64.940  1.00  0.00    -0.120 C  
HETATM   20  O   UNL     1      -7.633   8.016  64.008  1.00  0.00    -0.108 OA 
HETATM   21  C   UNL     1      -7.265  10.458  67.284  1.00  0.00    -0.089 C  
HETATM   22  C   UNL     1      -7.500   8.963  67.370  1.00  0.00    -0.085 C  
HETATM   23  O   UNL     1      -7.046   8.287  68.292  1.00  0.00    -0.078 OA 
ENDBRANCH  14  16
ENDBRANCH   5  14
TORSDOF 2
ENDMDL
MODEL      233
REMARK 921   NORMALIZED FREE ENERGY PREDICTED BY IDOCK:   -3.47 KCAL/MOL
REMARK 922        TOTAL FREE ENERGY PREDICTED BY IDOCK:   -4.23 KCAL/MOL
REMARK 923 INTER-LIGAND FREE ENERGY PREDICTED BY IDOCK:   -3.77 KCAL/MOL
REMARK 924 INTRA-LIGAND FREE ENERGY PREDICTED BY IDOCK:   -0.47 KCAL/MOL
REMARK 927      BINDING AFFINITY PREDICTED BY RF-SCORE:    0.00 PKD
ROOT
HETATM    1  O   UNL     1     -10.582   5.287  70.359  1.00  0.00    -0.268 OA 
HETATM    2  N   UNL     1      -9.844   4.509  69.740  1.00  0.00    -0.219 N  
HETATM    3  C   UNL     1      -9.268   5.015  68.502  1.00  0.00    -0.120 A  
HETATM    4  O   UNL     1      -9.637   3.319  70.007  1.00  0.00    -0.175 OA 
HETATM    5  C   UNL     1      -8.425   6.136  68.500  1.00  0.00    -0.114 A  
HETATM    6  C   UNL     1      -7.957   6.603  67.266  1.00  0.00    -0.117 A  
HETATM    7  C   UNL     1      -9.776   4.311  64.788  1.00  0.00    -0.164 C  
HETATM    8  C   UNL     1      -8.375   6.003  66.069  1.00  0.00    -0.134 A  
HETATM    9  C   UNL     1      -9.687   4.401  67.311  1.00  0.00    -0.222 A  
HETATM   10  F   UNL     1      -9.433   3.004  64.650  1.00  0.00    -0.135 F  
HETATM   11  C   UNL     1      -9.259   4.912  66.079  1.00  0.00    -0.151 A  
HETATM   12  F   UNL     1      -9.323   4.945  63.673  1.00  0.00    -0.103 F  
HETATM   13  F   UNL     1     -11.135   4.355  64.720  1.00  0.00    -0.314 F  
ENDROOT
BRANCH   5  14
HETATM   14  C   UNL     1      -7.998   6.804  69.761  1.00  0.00    -0.124 C  
HETATM   15  O   UNL     1      -6.916   6.476  70.238  1.00  0.00    -0.062 OA 
BRANCH  14  16
HETATM   16  C   UNL     1      -8.881   7.860  70.397  1.00  0.00    -0.142 C  
HETATM   17  C   UNL     1      -8.202  10.610  69.448  1.00  0.00    -0.089 C  
HETATM   18  C   UNL     1      -7.304   9.891  70.446  1.00  0.00    -0.139 C  
HETATM   19  C   UNL     1      -8.097   8.858  71.216  1.00  0.00    -0.139 C  
HETATM   20  O   UNL     1      -8.029   8.774  72.440  1.00  0.00    -0.362 OA 
HETATM   21  C   UNL     1      -8.957   9.644  68.540  1.00  0.00    -0.124 C  
HETATM   22  C   UNL     1      -9.698   8.619  69.374  1.00  0.00    -0.176 C  
HETATM   23  O   UNL     1     -10.899   8.402  69.217  1.00  0.00    -0.175 OA 
ENDBRANCH  14  16
ENDBRANCH   5  14
TORSDOF 2
ENDMDL
MODEL      234
REMARK 921   NORMALIZED FREE ENERGY PREDICTED BY IDOCK:   -3.44 KCAL/MOL
REMARK 922        TOTAL FREE ENERGY PREDICTED BY IDOCK:   -4.20 KCAL/MOL
REMARK 923 INTER-LIGAND FREE ENERGY PREDICTED BY IDOCK:   -3.75 KCAL/MOL
REMARK 924 INTRA-LIGAND FREE ENERGY PREDICTED BY IDOCK:   -0.45 KCAL/MOL
REMARK 927      BINDING AFFINITY PREDICTED BY RF-SCORE:    0.00 PKD
ROOT
HETATM    1  O   UNL     1     -11.266   5.745  70.225  1.00  0.00    -0.304 OA 
HETATM    2  N   UNL     1     -10.352   5.039  69.780  1.00  0.00    -0.267 N  
HETATM    3  C   UNL     1      -9.697   5.518  68.571  1.00  0.00    -0.134 A  
HETATM    4  O   UNL     1     -10.016   3.921  70.191  1.00  0.00    -0.162 OA 
HETATM    5  C   UNL     1      -9.028   6.750  68.550  1.00  0.00    -0.121 A  
HETATM    6  C   UNL     1      -8.475   7.176  67.336  1.00  0.00    -0.122 A  
HETATM    7  C   UNL     1      -9.615   4.429  64.916  1.00  0.00    -0.154 C  
HETATM    8  C   UNL     1      -8.646   6.418  66.168  1.00  0.00    -0.144 A  
HETATM    9  C   UNL     1      -9.867   4.748  67.409  1.00  0.00    -0.214 A  
HETATM   10  F   UNL     1      -9.076   3.183  64.956  1.00  0.00    -0.122 F  
HETATM   11  C   UNL     1      -9.360   5.210  66.189  1.00  0.00    -0.160 A  
HETATM   12  F   UNL     1      -9.116   5.026  63.802  1.00  0.00    -0.131 F  
HETATM   13  F   UNL     1     -10.946   4.258  64.688  1.00  0.00    -0.305 F  
ENDROOT
BRANCH   5  14
HETATM   14  C   UNL     1      -8.867   7.582  69.775  1.00  0.00    -0.141 C  
HETATM   15  O   UNL     1      -9.793   8.329  70.078  1.00  0.00    -0.179 OA 
BRANCH  14  16
HETATM   16  C   UNL     1      -7.604   7.472  70.608  1.00  0.00    -0.085 C  
HETATM   17  C   UNL     1      -8.203   7.035  73.501  1.00  0.00    -0.132 C  
HETATM   18  C   UNL     1      -8.394   8.408  72.869  1.00  0.00    -0.205 C  
HETATM   19  C   UNL     1      -7.503   8.555  71.656  1.00  0.00    -0.105 C  
HETATM   20  O   UNL     1      -6.804   9.552  71.485  1.00  0.00    -0.314 OA 
HETATM   21  C   UNL     1      -8.377   5.900  72.497  1.00  0.00    -0.116 C  
HETATM   22  C   UNL     1      -7.483   6.129  71.295  1.00  0.00    -0.093 C  
HETATM   23  O   UNL     1      -6.711   5.262  70.887  1.00  0.00    -0.040 OA 
ENDBRANCH  14  16
ENDBRANCH   5  14
TORSDOF 2
ENDMDL
MODEL      235
REMARK 921   NORMALIZED FREE ENERGY PREDICTED BY IDOCK:   -3.42 KCAL/MOL
REMARK 922        TOTAL FREE ENERGY PREDICTED BY IDOCK:   -4.18 KCAL/MOL
REMARK 923 INTER-LIGAND FREE ENERGY PREDICTED BY IDOCK:   -3.98 KCAL/MOL
REMARK 924 INTRA-LIGAND FREE ENERGY PREDICTED BY IDOCK:   -0.20 KCAL/MOL
REMARK 927      BINDING AFFINITY PREDICTED BY RF-SCORE:    0.00 PKD
ROOT
HETATM    1  O   UNL     1      -9.065  12.775  66.757  1.00  0.00    -0.217 OA 
HETATM    2  N   UNL     1      -8.902  13.029  67.957  1.00  0.00    -0.185 N  
HETATM    3  C   UNL     1      -9.836  12.403  68.882  1.00  0.00     0.122 A  
HETATM    4  O   UNL     1      -8.101  13.841  68.438  1.00  0.00    -0.141 OA 
HETATM    5  C   UNL     1      -9.931  11.007  68.983  1.00  0.00    -0.184 A  
HETATM    6  C   UNL     1     -10.895  10.476  69.847  1.00  0.00    -0.334 A  
HETATM    7  C   UNL     1     -12.710  13.623  71.074  1.00  0.00    -0.332 C  
HETATM    8  C   UNL     1     -11.778  11.318  70.538  1.00  0.00    -0.345 A  
HETATM    9  C   UNL     1     -10.710  13.256  69.575  1.00  0.00     0.211 A  
HETATM   10  F   UNL     1     -12.120  14.488  71.940  1.00  0.00    -0.370 F  
HETATM   11  C   UNL     1     -11.709  12.713  70.393  1.00  0.00    -0.097 A  
HETATM   12  F   UNL     1     -13.656  12.954  71.786  1.00  0.00    -0.469 F  
HETATM   13  F   UNL     1     -13.387  14.389  70.176  1.00  0.00    -0.216 F  
ENDROOT
BRANCH   5  14
HETATM   14  C   UNL     1      -9.022  10.099  68.230  1.00  0.00    -0.120 C  
HETATM   15  O   UNL     1      -7.863  10.003  68.624  1.00  0.00    -0.086 OA 
BRANCH  14  16
HETATM   16  C   UNL     1      -9.543   9.321  67.037  1.00  0.00    -0.223 C  
HETATM   17  C   UNL     1      -7.422   7.625  65.792  1.00  0.00    -0.079 C  
HETATM   18  C   UNL     1      -7.431   9.133  65.580  1.00  0.00    -0.093 C  
HETATM   19  C   UNL     1      -8.832   9.678  65.753  1.00  0.00    -0.157 C  
HETATM   20  O   UNL     1      -9.328  10.451  64.937  1.00  0.00    -0.201 OA 
HETATM   21  C   UNL     1      -8.058   7.217  67.117  1.00  0.00    -0.114 C  
HETATM   22  C   UNL     1      -9.441   7.824  67.239  1.00  0.00    -0.148 C  
HETATM   23  O   UNL     1     -10.428   7.139  67.504  1.00  0.00    -0.208 OA 
ENDBRANCH  14  16
ENDBRANCH   5  14
TORSDOF 2
ENDMDL
MODEL      236
REMARK 921   NORMALIZED FREE ENERGY PREDICTED BY IDOCK:   -3.38 KCAL/MOL
REMARK 922        TOTAL FREE ENERGY PREDICTED BY IDOCK:   -4.14 KCAL/MOL
REMARK 923 INTER-LIGAND FREE ENERGY PREDICTED BY IDOCK:   -3.94 KCAL/MOL
REMARK 924 INTRA-LIGAND FREE ENERGY PREDICTED BY IDOCK:   -0.20 KCAL/MOL
REMARK 927      BINDING AFFINITY PREDICTED BY RF-SCORE:    0.00 PKD
ROOT
HETATM    1  O   UNL     1      -9.362  10.799  64.719  1.00  0.00    -0.202 OA 
HETATM    2  N   UNL     1      -9.834  10.546  65.835  1.00  0.00    -0.222 N  
HETATM    3  C   UNL     1      -9.295   9.376  66.514  1.00  0.00    -0.171 A  
HETATM    4  O   UNL     1     -10.788  11.117  66.380  1.00  0.00    -0.270 OA 
HETATM    5  C   UNL     1      -7.935   9.295  66.848  1.00  0.00    -0.105 A  
HETATM    6  C   UNL     1      -7.475   8.114  67.443  1.00  0.00    -0.093 A  
HETATM    7  C   UNL     1     -10.607   5.903  67.387  1.00  0.00    -0.282 C  
HETATM    8  C   UNL     1      -8.340   7.027  67.637  1.00  0.00    -0.117 A  
HETATM    9  C   UNL     1     -10.172   8.297  66.710  1.00  0.00    -0.375 A  
HETATM   10  F   UNL     1     -11.659   6.145  68.211  1.00  0.00    -0.342 F  
HETATM   11  C   UNL     1      -9.688   7.100  67.253  1.00  0.00    -0.198 A  
HETATM   12  F   UNL     1      -9.987   4.794  67.874  1.00  0.00    -0.190 F  
HETATM   13  F   UNL     1     -11.140   5.540  66.188  1.00  0.00    -0.288 F  
ENDROOT
BRANCH   5  14
HETATM   14  C   UNL     1      -6.998  10.430  66.618  1.00  0.00    -0.111 C  
HETATM   15  O   UNL     1      -6.608  10.619  65.469  1.00  0.00    -0.116 OA 
BRANCH  14  16
HETATM   16  C   UNL     1      -6.575  11.313  67.776  1.00  0.00    -0.068 C  
HETATM   17  C   UNL     1      -8.598  13.428  68.371  1.00  0.00    -0.134 C  
HETATM   18  C   UNL     1      -7.688  13.547  67.155  1.00  0.00     0.008 C  
HETATM   19  C   UNL     1      -6.415  12.760  67.376  1.00  0.00    -0.137 C  
HETATM   20  O   UNL     1      -5.309  13.246  67.146  1.00  0.00    -0.331 OA 
HETATM   21  C   UNL     1      -8.858  11.978  68.767  1.00  0.00     0.079 C  
HETATM   22  C   UNL     1      -7.544  11.243  68.936  1.00  0.00    -0.126 C  
HETATM   23  O   UNL     1      -7.285  10.606  69.957  1.00  0.00    -0.147 OA 
ENDBRANCH  14  16
ENDBRANCH   5  14
TORSDOF 2
ENDMDL
MODEL      237
REMARK 921   NORMALIZED FREE ENERGY PREDICTED BY IDOCK:   -3.37 KCAL/MOL
REMARK 922        TOTAL FREE ENERGY PREDICTED BY IDOCK:   -4.12 KCAL/MOL
REMARK 923 INTER-LIGAND FREE ENERGY PREDICTED BY IDOCK:   -3.88 KCAL/MOL
REMARK 924 INTRA-LIGAND FREE ENERGY PREDICTED BY IDOCK:   -0.24 KCAL/MOL
REMARK 927      BINDING AFFINITY PREDICTED BY RF-SCORE:    0.00 PKD
ROOT
HETATM    1  O   UNL     1      -8.107   4.333  69.746  1.00  0.00    -0.059 OA 
HETATM    2  N   UNL     1      -9.287   4.521  70.071  1.00  0.00    -0.136 N  
HETATM    3  C   UNL     1      -9.847   5.825  69.743  1.00  0.00    -0.178 A  
HETATM    4  O   UNL     1      -9.998   3.761  70.741  1.00  0.00    -0.161 OA 
HETATM    5  C   UNL     1      -9.934   6.261  68.413  1.00  0.00    -0.156 A  
HETATM    6  C   UNL     1     -10.426   7.551  68.176  1.00  0.00    -0.233 A  
HETATM    7  C   UNL     1     -10.903   8.903  71.732  1.00  0.00    -0.365 C  
HETATM    8  C   UNL     1     -10.758   8.396  69.244  1.00  0.00    -0.139 A  
HETATM    9  C   UNL     1     -10.185   6.660  70.820  1.00  0.00    -0.221 A  
HETATM   10  F   UNL     1     -11.903   8.451  72.533  1.00  0.00    -0.402 F  
HETATM   11  C   UNL     1     -10.621   7.968  70.574  1.00  0.00    -0.222 A  
HETATM   12  F   UNL     1     -11.261  10.156  71.344  1.00  0.00    -0.404 F  
HETATM   13  F   UNL     1      -9.815   9.054  72.535  1.00  0.00    -0.320 F  
ENDROOT
BRANCH   5  14
HETATM   14  C   UNL     1      -9.553   5.386  67.269  1.00  0.00    -0.132 C  
HETATM   15  O   UNL     1     -10.130   4.308  67.164  1.00  0.00    -0.158 OA 
BRANCH  14  16
HETATM   16  C   UNL     1      -8.502   5.847  66.277  1.00  0.00    -0.128 C  
HETATM   17  C   UNL     1      -5.742   5.093  67.135  1.00  0.00    -0.014 C  
HETATM   18  C   UNL     1      -6.478   6.240  67.814  1.00  0.00    -0.049 C  
HETATM   19  C   UNL     1      -7.518   6.820  66.881  1.00  0.00    -0.083 C  
HETATM   20  O   UNL     1      -7.620   8.032  66.701  1.00  0.00    -0.090 OA 
HETATM   21  C   UNL     1      -6.693   4.038  66.578  1.00  0.00    -0.050 C  
HETATM   22  C   UNL     1      -7.727   4.691  65.683  1.00  0.00    -0.094 C  
HETATM   23  O   UNL     1      -7.938   4.292  64.538  1.00  0.00    -0.087 OA 
ENDBRANCH  14  16
ENDBRANCH   5  14
TORSDOF 2
ENDMDL
MODEL      238
REMARK 921   NORMALIZED FREE ENERGY PREDICTED BY IDOCK:   -3.35 KCAL/MOL
REMARK 922        TOTAL FREE ENERGY PREDICTED BY IDOCK:   -4.10 KCAL/MOL
REMARK 923 INTER-LIGAND FREE ENERGY PREDICTED BY IDOCK:   -3.60 KCAL/MOL
REMARK 924 INTRA-LIGAND FREE ENERGY PREDICTED BY IDOCK:   -0.50 KCAL/MOL
REMARK 927      BINDING AFFINITY PREDICTED BY RF-SCORE:    0.00 PKD
ROOT
HETATM    1  O   UNL     1     -11.474   5.974  69.233  1.00  0.00    -0.345 OA 
HETATM    2  N   UNL     1     -10.301   5.584  69.308  1.00  0.00    -0.250 N  
HETATM    3  C   UNL     1      -9.564   5.511  68.055  1.00  0.00    -0.125 A  
HETATM    4  O   UNL     1      -9.732   5.149  70.317  1.00  0.00    -0.171 OA 
HETATM    5  C   UNL     1      -9.345   6.655  67.275  1.00  0.00    -0.144 A  
HETATM    6  C   UNL     1      -8.683   6.499  66.051  1.00  0.00    -0.155 A  
HETATM    7  C   UNL     1      -8.250   2.695  65.842  1.00  0.00    -0.087 C  
HETATM    8  C   UNL     1      -8.310   5.225  65.598  1.00  0.00    -0.126 A  
HETATM    9  C   UNL     1      -9.189   4.231  67.614  1.00  0.00    -0.178 A  
HETATM   10  F   UNL     1      -7.364   2.039  66.636  1.00  0.00    -0.052 F  
HETATM   11  C   UNL     1      -8.578   4.079  66.363  1.00  0.00    -0.110 A  
HETATM   12  F   UNL     1      -7.716   2.696  64.592  1.00  0.00    -0.071 F  
HETATM   13  F   UNL     1      -9.357   1.905  65.778  1.00  0.00    -0.116 F  
ENDROOT
BRANCH   5  14
HETATM   14  C   UNL     1      -9.765   8.011  67.728  1.00  0.00    -0.156 C  
HETATM   15  O   UNL     1     -10.858   8.422  67.350  1.00  0.00    -0.213 OA 
BRANCH  14  16
HETATM   16  C   UNL     1      -8.862   8.820  68.639  1.00  0.00    -0.138 C  
HETATM   17  C   UNL     1      -9.119  11.756  68.152  1.00  0.00    -0.185 C  
HETATM   18  C   UNL     1      -8.356  10.872  67.174  1.00  0.00    -0.125 C  
HETATM   19  C   UNL     1      -7.844   9.634  67.876  1.00  0.00    -0.087 C  
HETATM   20  O   UNL     1      -6.681   9.256  67.751  1.00  0.00    -0.066 OA 
HETATM   21  C   UNL     1     -10.217  10.997  68.891  1.00  0.00    -0.218 C  
HETATM   22  C   UNL     1      -9.642   9.754  69.540  1.00  0.00    -0.210 C  
HETATM   23  O   UNL     1      -9.815   9.506  70.733  1.00  0.00    -0.272 OA 
ENDBRANCH  14  16
ENDBRANCH   5  14
TORSDOF 2
ENDMDL
MODEL      239
REMARK 921   NORMALIZED FREE ENERGY PREDICTED BY IDOCK:   -3.34 KCAL/MOL
REMARK 922        TOTAL FREE ENERGY PREDICTED BY IDOCK:   -4.09 KCAL/MOL
REMARK 923 INTER-LIGAND FREE ENERGY PREDICTED BY IDOCK:   -3.46 KCAL/MOL
REMARK 924 INTRA-LIGAND FREE ENERGY PREDICTED BY IDOCK:   -0.63 KCAL/MOL
REMARK 927      BINDING AFFINITY PREDICTED BY RF-SCORE:    0.00 PKD
ROOT
HETATM    1  O   UNL     1      -6.162   8.882  66.803  1.00  0.00    -0.057 OA 
HETATM    2  N   UNL     1      -6.789   8.550  67.817  1.00  0.00    -0.066 N  
HETATM    3  C   UNL     1      -8.241   8.632  67.733  1.00  0.00    -0.118 A  
HETATM    4  O   UNL     1      -6.310   8.265  68.921  1.00  0.00    -0.043 OA 
HETATM    5  C   UNL     1      -8.956   7.872  66.796  1.00  0.00    -0.169 A  
HETATM    6  C   UNL     1     -10.344   8.048  66.731  1.00  0.00    -0.360 A  
HETATM    7  C   UNL     1     -10.923  10.882  69.247  1.00  0.00    -0.244 C  
HETATM    8  C   UNL     1     -10.982   9.003  67.535  1.00  0.00     0.027 A  
HETATM    9  C   UNL     1      -8.870   9.586  68.549  1.00  0.00    -0.124 A  
HETATM   10  F   UNL     1     -10.811  10.674  70.585  1.00  0.00    -0.320 F  
HETATM   11  C   UNL     1     -10.251   9.794  68.434  1.00  0.00    -0.210 A  
HETATM   12  F   UNL     1     -12.252  11.010  68.990  1.00  0.00    -0.391 F  
HETATM   13  F   UNL     1     -10.374  12.104  69.007  1.00  0.00    -0.206 F  
ENDROOT
BRANCH   5  14
HETATM   14  C   UNL     1      -8.287   6.877  65.912  1.00  0.00    -0.137 C  
HETATM   15  O   UNL     1      -8.000   7.234  64.773  1.00  0.00    -0.121 OA 
BRANCH  14  16
HETATM   16  C   UNL     1      -7.968   5.490  66.434  1.00  0.00    -0.105 C  
HETATM   17  C   UNL     1      -9.381   3.358  64.892  1.00  0.00    -0.149 C  
HETATM   18  C   UNL     1     -10.139   4.221  65.892  1.00  0.00    -0.223 C  
HETATM   19  C   UNL     1      -9.191   4.762  66.940  1.00  0.00    -0.126 C  
HETATM   20  O   UNL     1      -9.452   4.700  68.140  1.00  0.00    -0.132 OA 
HETATM   21  C   UNL     1      -8.180   4.079  64.289  1.00  0.00    -0.091 C  
HETATM   22  C   UNL     1      -7.295   4.623  65.392  1.00  0.00    -0.076 C  
HETATM   23  O   UNL     1      -6.087   4.389  65.429  1.00  0.00    -0.022 OA 
ENDBRANCH  14  16
ENDBRANCH   5  14
TORSDOF 2
ENDMDL
MODEL      240
REMARK 921   NORMALIZED FREE ENERGY PREDICTED BY IDOCK:   -3.34 KCAL/MOL
REMARK 922        TOTAL FREE ENERGY PREDICTED BY IDOCK:   -4.09 KCAL/MOL
REMARK 923 INTER-LIGAND FREE ENERGY PREDICTED BY IDOCK:   -4.01 KCAL/MOL
REMARK 924 INTRA-LIGAND FREE ENERGY PREDICTED BY IDOCK:   -0.08 KCAL/MOL
REMARK 927      BINDING AFFINITY PREDICTED BY RF-SCORE:    0.00 PKD
ROOT
HETATM    1  O   UNL     1      -8.262   9.064  71.503  1.00  0.00    -0.303 OA 
HETATM    2  N   UNL     1      -7.731   8.068  72.012  1.00  0.00    -0.095 N  
HETATM    3  C   UNL     1      -8.303   6.777  71.656  1.00  0.00    -0.111 A  
HETATM    4  O   UNL     1      -6.841   8.066  72.872  1.00  0.00    -0.079 OA 
HETATM    5  C   UNL     1      -8.322   6.336  70.325  1.00  0.00    -0.126 A  
HETATM    6  C   UNL     1      -8.945   5.112  70.049  1.00  0.00    -0.153 A  
HETATM    7  C   UNL     1     -10.356   4.127  73.475  1.00  0.00    -0.170 C  
HETATM    8  C   UNL     1      -9.583   4.389  71.067  1.00  0.00    -0.249 A  
HETATM    9  C   UNL     1      -8.932   6.057  72.685  1.00  0.00    -0.127 A  
HETATM   10  F   UNL     1      -9.544   3.715  74.483  1.00  0.00    -0.115 F  
HETATM   11  C   UNL     1      -9.601   4.864  72.387  1.00  0.00    -0.183 A  
HETATM   12  F   UNL     1     -11.006   3.018  73.030  1.00  0.00    -0.245 F  
HETATM   13  F   UNL     1     -11.306   4.913  74.051  1.00  0.00    -0.324 F  
ENDROOT
BRANCH   5  14
HETATM   14  C   UNL     1      -7.678   7.110  69.228  1.00  0.00    -0.108 C  
HETATM   15  O   UNL     1      -6.465   6.988  69.086  1.00  0.00    -0.037 OA 
BRANCH  14  16
HETATM   16  C   UNL     1      -8.518   7.992  68.325  1.00  0.00    -0.123 C  
HETATM   17  C   UNL     1     -10.586   6.430  66.840  1.00  0.00    -0.379 C  
HETATM   18  C   UNL     1      -9.121   6.363  66.428  1.00  0.00    -0.168 C  
HETATM   19  C   UNL     1      -8.396   7.616  66.867  1.00  0.00    -0.124 C  
HETATM   20  O   UNL     1      -7.666   8.241  66.101  1.00  0.00    -0.092 OA 
HETATM   21  C   UNL     1     -10.762   6.727  68.326  1.00  0.00    -0.290 C  
HETATM   22  C   UNL     1      -9.984   7.971  68.703  1.00  0.00    -0.189 C  
HETATM   23  O   UNL     1     -10.510   8.910  69.300  1.00  0.00    -0.221 OA 
ENDBRANCH  14  16
ENDBRANCH   5  14
TORSDOF 2
ENDMDL
MODEL      241
REMARK 921   NORMALIZED FREE ENERGY PREDICTED BY IDOCK:   -3.33 KCAL/MOL
REMARK 922        TOTAL FREE ENERGY PREDICTED BY IDOCK:   -4.08 KCAL/MOL
REMARK 923 INTER-LIGAND FREE ENERGY PREDICTED BY IDOCK:   -3.58 KCAL/MOL
REMARK 924 INTRA-LIGAND FREE ENERGY PREDICTED BY IDOCK:   -0.51 KCAL/MOL
REMARK 927      BINDING AFFINITY PREDICTED BY RF-SCORE:    0.00 PKD
ROOT
HETATM    1  O   UNL     1      -7.353   6.775  66.479  1.00  0.00    -0.071 OA 
HETATM    2  N   UNL     1      -8.158   6.210  67.230  1.00  0.00    -0.106 N  
HETATM    3  C   UNL     1      -8.534   6.935  68.436  1.00  0.00    -0.123 A  
HETATM    4  O   UNL     1      -8.587   5.054  67.117  1.00  0.00    -0.106 OA 
HETATM    5  C   UNL     1      -9.171   8.182  68.361  1.00  0.00    -0.135 A  
HETATM    6  C   UNL     1      -9.447   8.850  69.561  1.00  0.00    -0.159 A  
HETATM    7  C   UNL     1      -7.845   6.537  72.166  1.00  0.00    -0.098 C  
HETATM    8  C   UNL     1      -9.038   8.311  70.790  1.00  0.00    -0.168 A  
HETATM    9  C   UNL     1      -8.128   6.382  69.661  1.00  0.00    -0.124 A  
HETATM   10  F   UNL     1      -8.393   5.334  72.476  1.00  0.00    -0.112 F  
HETATM   11  C   UNL     1      -8.358   7.085  70.850  1.00  0.00    -0.129 A  
HETATM   12  F   UNL     1      -8.088   7.353  73.226  1.00  0.00    -0.113 F  
HETATM   13  F   UNL     1      -6.498   6.344  72.141  1.00  0.00    -0.049 F  
ENDROOT
BRANCH   5  14
HETATM   14  C   UNL     1      -9.580   8.783  67.061  1.00  0.00    -0.179 C  
HETATM   15  O   UNL     1     -10.658   8.432  66.590  1.00  0.00    -0.262 OA 
BRANCH  14  16
HETATM   16  C   UNL     1      -8.687   9.801  66.380  1.00  0.00    -0.144 C  
HETATM   17  C   UNL     1     -10.262  11.963  65.051  1.00  0.00    -0.316 C  
HETATM   18  C   UNL     1     -10.178  10.574  64.432  1.00  0.00    -0.337 C  
HETATM   19  C   UNL     1      -8.918   9.873  64.889  1.00  0.00    -0.207 C  
HETATM   20  O   UNL     1      -8.172   9.305  64.094  1.00  0.00    -0.140 OA 
HETATM   21  C   UNL     1     -10.116  11.936  66.569  1.00  0.00    -0.229 C  
HETATM   22  C   UNL     1      -8.855  11.191  66.956  1.00  0.00    -0.149 C  
HETATM   23  O   UNL     1      -8.019  11.682  67.714  1.00  0.00    -0.119 OA 
ENDBRANCH  14  16
ENDBRANCH   5  14
TORSDOF 2
ENDMDL
MODEL      242
REMARK 921   NORMALIZED FREE ENERGY PREDICTED BY IDOCK:   -3.32 KCAL/MOL
REMARK 922        TOTAL FREE ENERGY PREDICTED BY IDOCK:   -4.08 KCAL/MOL
REMARK 923 INTER-LIGAND FREE ENERGY PREDICTED BY IDOCK:   -3.61 KCAL/MOL
REMARK 924 INTRA-LIGAND FREE ENERGY PREDICTED BY IDOCK:   -0.46 KCAL/MOL
REMARK 927      BINDING AFFINITY PREDICTED BY RF-SCORE:    0.00 PKD
ROOT
HETATM    1  O   UNL     1     -11.450   9.738  69.009  1.00  0.00    -0.041 OA 
HETATM    2  N   UNL     1     -11.151   9.801  70.209  1.00  0.00    -0.271 N  
HETATM    3  C   UNL     1     -10.287   8.744  70.716  1.00  0.00    -0.213 A  
HETATM    4  O   UNL     1     -11.598  10.603  71.039  1.00  0.00    -0.299 OA 
HETATM    5  C   UNL     1      -8.998   8.552  70.198  1.00  0.00    -0.148 A  
HETATM    6  C   UNL     1      -8.247   7.477  70.690  1.00  0.00    -0.111 A  
HETATM    7  C   UNL     1     -10.736   5.759  73.047  1.00  0.00    -0.257 C  
HETATM    8  C   UNL     1      -8.799   6.588  71.624  1.00  0.00    -0.135 A  
HETATM    9  C   UNL     1     -10.846   7.865  71.657  1.00  0.00    -0.275 A  
HETATM   10  F   UNL     1     -11.087   6.318  74.234  1.00  0.00     0.039 F  
HETATM   11  C   UNL     1     -10.108   6.760  72.099  1.00  0.00    -0.198 A  
HETATM   12  F   UNL     1      -9.925   4.709  73.343  1.00  0.00    -0.150 F  
HETATM   13  F   UNL     1     -11.874   5.221  72.530  1.00  0.00    -0.292 F  
ENDROOT
BRANCH   5  14
HETATM   14  C   UNL     1      -8.412   9.469  69.181  1.00  0.00    -0.131 C  
HETATM   15  O   UNL     1      -8.178   9.005  68.068  1.00  0.00    -0.109 OA 
BRANCH  14  16
HETATM   16  C   UNL     1      -8.144  10.919  69.531  1.00  0.00     0.086 C  
HETATM   17  C   UNL     1      -6.286  12.218  67.585  1.00  0.00    -0.120 C  
HETATM   18  C   UNL     1      -5.758  11.237  68.624  1.00  0.00    -0.042 C  
HETATM   19  C   UNL     1      -6.685  11.189  69.818  1.00  0.00    -0.121 C  
HETATM   20  O   UNL     1      -6.260  11.267  70.969  1.00  0.00    -0.319 OA 
HETATM   21  C   UNL     1      -7.735  11.936  67.199  1.00  0.00    -0.163 C  
HETATM   22  C   UNL     1      -8.599  11.867  68.442  1.00  0.00    -0.152 C  
HETATM   23  O   UNL     1      -9.627  12.534  68.554  1.00  0.00    -0.194 OA 
ENDBRANCH  14  16
ENDBRANCH   5  14
TORSDOF 2
ENDMDL
MODEL      243
REMARK 921   NORMALIZED FREE ENERGY PREDICTED BY IDOCK:   -3.31 KCAL/MOL
REMARK 922        TOTAL FREE ENERGY PREDICTED BY IDOCK:   -4.06 KCAL/MOL
REMARK 923 INTER-LIGAND FREE ENERGY PREDICTED BY IDOCK:   -3.58 KCAL/MOL
REMARK 924 INTRA-LIGAND FREE ENERGY PREDICTED BY IDOCK:   -0.48 KCAL/MOL
REMARK 927      BINDING AFFINITY PREDICTED BY RF-SCORE:    0.00 PKD
ROOT
HETATM    1  O   UNL     1      -9.789   8.533  71.707  1.00  0.00    -0.215 OA 
HETATM    2  N   UNL     1     -10.678   8.729  70.867  1.00  0.00    -0.214 N  
HETATM    3  C   UNL     1     -10.292   9.485  69.684  1.00  0.00    -0.221 A  
HETATM    4  O   UNL     1     -11.877   8.446  70.981  1.00  0.00    -0.282 OA 
HETATM    5  C   UNL     1      -9.295   9.014  68.816  1.00  0.00    -0.140 A  
HETATM    6  C   UNL     1      -8.932   9.824  67.733  1.00  0.00    -0.132 A  
HETATM    7  C   UNL     1     -11.031  12.976  68.336  1.00  0.00    -0.262 C  
HETATM    8  C   UNL     1      -9.506  11.093  67.565  1.00  0.00    -0.178 A  
HETATM    9  C   UNL     1     -10.878  10.751  69.521  1.00  0.00    -0.288 A  
HETATM   10  F   UNL     1     -12.375  12.978  68.145  1.00  0.00    -0.313 F  
HETATM   11  C   UNL     1     -10.466  11.576  68.467  1.00  0.00    -0.228 A  
HETATM   12  F   UNL     1     -10.497  13.683  67.304  1.00  0.00    -0.251 F  
HETATM   13  F   UNL     1     -10.806  13.717  69.455  1.00  0.00    -0.224 F  
ENDROOT
BRANCH   5  14
HETATM   14  C   UNL     1      -8.653   7.683  69.001  1.00  0.00    -0.136 C  
HETATM   15  O   UNL     1      -9.211   6.711  68.501  1.00  0.00    -0.129 OA 
BRANCH  14  16
HETATM   16  C   UNL     1      -7.349   7.568  69.766  1.00  0.00    -0.082 C  
HETATM   17  C   UNL     1      -5.356   5.865  68.334  1.00  0.00    -0.004 C  
HETATM   18  C   UNL     1      -6.538   5.233  69.057  1.00  0.00    -0.051 C  
HETATM   19  C   UNL     1      -7.028   6.146  70.159  1.00  0.00    -0.062 C  
HETATM   20  O   UNL     1      -7.247   5.727  71.294  1.00  0.00    -0.070 OA 
HETATM   21  C   UNL     1      -5.658   7.278  67.844  1.00  0.00    -0.025 C  
HETATM   22  C   UNL     1      -6.175   8.125  68.989  1.00  0.00    -0.040 C  
HETATM   23  O   UNL     1      -5.680   9.218  69.262  1.00  0.00    -0.035 OA 
ENDBRANCH  14  16
ENDBRANCH   5  14
TORSDOF 2
ENDMDL
MODEL      244
REMARK 921   NORMALIZED FREE ENERGY PREDICTED BY IDOCK:   -3.25 KCAL/MOL
REMARK 922        TOTAL FREE ENERGY PREDICTED BY IDOCK:   -4.00 KCAL/MOL
REMARK 923 INTER-LIGAND FREE ENERGY PREDICTED BY IDOCK:   -3.53 KCAL/MOL
REMARK 924 INTRA-LIGAND FREE ENERGY PREDICTED BY IDOCK:   -0.47 KCAL/MOL
REMARK 927      BINDING AFFINITY PREDICTED BY RF-SCORE:    0.00 PKD
ROOT
HETATM    1  O   UNL     1      -6.326   5.679  67.601  1.00  0.00    -0.038 OA 
HETATM    2  N   UNL     1      -7.129   5.918  68.513  1.00  0.00    -0.079 N  
HETATM    3  C   UNL     1      -8.448   6.381  68.106  1.00  0.00    -0.115 A  
HETATM    4  O   UNL     1      -6.890   5.910  69.727  1.00  0.00    -0.059 OA 
HETATM    5  C   UNL     1      -9.281   5.583  67.309  1.00  0.00    -0.110 A  
HETATM    6  C   UNL     1     -10.511   6.118  66.904  1.00  0.00    -0.340 A  
HETATM    7  C   UNL     1     -10.336   9.690  68.287  1.00  0.00    -0.204 C  
HETATM    8  C   UNL     1     -10.861   7.435  67.236  1.00  0.00    -0.326 A  
HETATM    9  C   UNL     1      -8.792   7.698  68.451  1.00  0.00    -0.130 A  
HETATM   10  F   UNL     1     -10.438   9.939  69.619  1.00  0.00    -0.199 F  
HETATM   11  C   UNL     1      -9.998   8.243  67.993  1.00  0.00    -0.224 A  
HETATM   12  F   UNL     1     -11.508  10.098  67.731  1.00  0.00    -0.361 F  
HETATM   13  F   UNL     1      -9.381  10.537  67.816  1.00  0.00    -0.144 F  
ENDROOT
BRANCH   5  14
HETATM   14  C   UNL     1      -8.908   4.195  66.920  1.00  0.00    -0.119 C  
HETATM   15  O   UNL     1      -9.283   3.282  67.650  1.00  0.00    -0.162 OA 
BRANCH  14  16
HETATM   16  C   UNL     1      -8.110   3.949  65.654  1.00  0.00    -0.097 C  
HETATM   17  C   UNL     1      -9.643   2.342  63.656  1.00  0.00    -0.116 C  
HETATM   18  C   UNL     1      -9.043   1.678  64.889  1.00  0.00    -0.123 C  
HETATM   19  C   UNL     1      -7.866   2.480  65.396  1.00  0.00    -0.078 C  
HETATM   20  O   UNL     1      -6.795   1.947  65.677  1.00  0.00    -0.034 OA 
HETATM   21  C   UNL     1      -9.984   3.810  63.892  1.00  0.00    -0.189 C  
HETATM   22  C   UNL     1      -8.773   4.545  64.431  1.00  0.00    -0.149 C  
HETATM   23  O   UNL     1      -8.360   5.581  63.913  1.00  0.00    -0.130 OA 
ENDBRANCH  14  16
ENDBRANCH   5  14
TORSDOF 2
ENDMDL
MODEL      245
REMARK 921   NORMALIZED FREE ENERGY PREDICTED BY IDOCK:   -3.22 KCAL/MOL
REMARK 922        TOTAL FREE ENERGY PREDICTED BY IDOCK:   -3.96 KCAL/MOL
REMARK 923 INTER-LIGAND FREE ENERGY PREDICTED BY IDOCK:   -3.62 KCAL/MOL
REMARK 924 INTRA-LIGAND FREE ENERGY PREDICTED BY IDOCK:   -0.35 KCAL/MOL
REMARK 927      BINDING AFFINITY PREDICTED BY RF-SCORE:    0.00 PKD
ROOT
HETATM    1  O   UNL     1      -6.043  10.206  67.453  1.00  0.00    -0.056 OA 
HETATM    2  N   UNL     1      -6.920  10.686  68.184  1.00  0.00    -0.072 N  
HETATM    3  C   UNL     1      -8.243  10.834  67.594  1.00  0.00    -0.115 A  
HETATM    4  O   UNL     1      -6.761  11.151  69.320  1.00  0.00    -0.081 OA 
HETATM    5  C   UNL     1      -8.957   9.720  67.128  1.00  0.00    -0.148 A  
HETATM    6  C   UNL     1     -10.196   9.944  66.515  1.00  0.00    -0.292 A  
HETATM    7  C   UNL     1     -10.397  13.773  66.465  1.00  0.00    -0.286 C  
HETATM    8  C   UNL     1     -10.671  11.249  66.319  1.00  0.00    -0.312 A  
HETATM    9  C   UNL     1      -8.713  12.144  67.410  1.00  0.00    -0.177 A  
HETATM   10  F   UNL     1     -10.604  14.485  67.603  1.00  0.00    -0.244 F  
HETATM   11  C   UNL     1      -9.926  12.360  66.745  1.00  0.00    -0.234 A  
HETATM   12  F   UNL     1     -11.558  13.829  65.761  1.00  0.00    -0.311 F  
HETATM   13  F   UNL     1      -9.483  14.474  65.741  1.00  0.00    -0.316 F  
ENDROOT
BRANCH   5  14
HETATM   14  C   UNL     1      -8.449   8.330  67.299  1.00  0.00    -0.124 C  
HETATM   15  O   UNL     1      -8.125   7.980  68.430  1.00  0.00    -0.119 OA 
BRANCH  14  16
HETATM   16  C   UNL     1      -8.367   7.399  66.104  1.00  0.00    -0.139 C  
HETATM   17  C   UNL     1      -5.544   6.897  65.266  1.00  0.00    -0.031 C  
HETATM   18  C   UNL     1      -6.221   8.225  64.952  1.00  0.00    -0.052 C  
HETATM   19  C   UNL     1      -7.722   8.049  64.903  1.00  0.00    -0.118 C  
HETATM   20  O   UNL     1      -8.395   8.499  63.978  1.00  0.00    -0.161 OA 
HETATM   21  C   UNL     1      -6.105   6.238  66.522  1.00  0.00    -0.029 C  
HETATM   22  C   UNL     1      -7.613   6.125  66.420  1.00  0.00    -0.094 C  
HETATM   23  O   UNL     1      -8.196   5.057  66.600  1.00  0.00    -0.108 OA 
ENDBRANCH  14  16
ENDBRANCH   5  14
TORSDOF 2
ENDMDL
MODEL      246
REMARK 921   NORMALIZED FREE ENERGY PREDICTED BY IDOCK:   -3.17 KCAL/MOL
REMARK 922        TOTAL FREE ENERGY PREDICTED BY IDOCK:   -3.91 KCAL/MOL
REMARK 923 INTER-LIGAND FREE ENERGY PREDICTED BY IDOCK:   -3.82 KCAL/MOL
REMARK 924 INTRA-LIGAND FREE ENERGY PREDICTED BY IDOCK:   -0.08 KCAL/MOL
REMARK 927      BINDING AFFINITY PREDICTED BY RF-SCORE:    0.00 PKD
ROOT
HETATM    1  O   UNL     1     -12.410  11.888  65.838  1.00  0.00    -0.340 OA 
HETATM    2  N   UNL     1     -12.160  13.080  66.058  1.00  0.00    -0.432 N  
HETATM    3  C   UNL     1     -11.441  13.373  67.290  1.00  0.00    -0.340 A  
HETATM    4  O   UNL     1     -12.553  14.050  65.397  1.00  0.00    -0.483 OA 
HETATM    5  C   UNL     1     -10.159  12.853  67.521  1.00  0.00    -0.214 A  
HETATM    6  C   UNL     1      -9.553  13.125  68.754  1.00  0.00     0.073 A  
HETATM    7  C   UNL     1     -12.319  15.018  70.617  1.00  0.00    -0.348 C  
HETATM    8  C   UNL     1     -10.240  13.841  69.745  1.00  0.00     0.789 A  
HETATM    9  C   UNL     1     -12.135  14.097  68.272  1.00  0.00    -0.297 A  
HETATM   10  F   UNL     1     -12.660  16.288  70.278  1.00  0.00    -0.188 F  
HETATM   11  C   UNL     1     -11.543  14.314  69.523  1.00  0.00    -0.353 A  
HETATM   12  F   UNL     1     -11.642  15.105  71.793  1.00  0.00    -0.368 F  
HETATM   13  F   UNL     1     -13.485  14.376  70.901  1.00  0.00    -0.407 F  
ENDROOT
BRANCH   5  14
HETATM   14  C   UNL     1      -9.430  12.064  66.489  1.00  0.00    -0.228 C  
HETATM   15  O   UNL     1      -8.864  12.685  65.595  1.00  0.00     0.375 OA 
BRANCH  14  16
HETATM   16  C   UNL     1      -9.391  10.550  66.579  1.00  0.00    -0.189 C  
HETATM   17  C   UNL     1      -8.055   9.608  69.078  1.00  0.00    -0.103 C  
HETATM   18  C   UNL     1      -7.233  10.168  67.924  1.00  0.00    -0.086 C  
HETATM   19  C   UNL     1      -7.983  10.006  66.621  1.00  0.00    -0.115 C  
HETATM   20  O   UNL     1      -7.442   9.545  65.618  1.00  0.00    -0.091 OA 
HETATM   21  C   UNL     1      -9.464  10.190  69.128  1.00  0.00    -0.215 C  
HETATM   22  C   UNL     1     -10.142  10.026  67.784  1.00  0.00    -0.183 C  
HETATM   23  O   UNL     1     -11.253   9.508  67.677  1.00  0.00    -0.081 OA 
ENDBRANCH  14  16
ENDBRANCH   5  14
TORSDOF 2
ENDMDL
MODEL      247
REMARK 921   NORMALIZED FREE ENERGY PREDICTED BY IDOCK:   -3.15 KCAL/MOL
REMARK 922        TOTAL FREE ENERGY PREDICTED BY IDOCK:   -3.88 KCAL/MOL
REMARK 923 INTER-LIGAND FREE ENERGY PREDICTED BY IDOCK:   -3.63 KCAL/MOL
REMARK 924 INTRA-LIGAND FREE ENERGY PREDICTED BY IDOCK:   -0.25 KCAL/MOL
REMARK 927      BINDING AFFINITY PREDICTED BY RF-SCORE:    0.00 PKD
ROOT
HETATM    1  O   UNL     1     -11.082   5.878  68.595  1.00  0.00    -0.284 OA 
HETATM    2  N   UNL     1     -11.095   6.155  69.802  1.00  0.00    -0.387 N  
HETATM    3  C   UNL     1     -10.072   5.518  70.621  1.00  0.00    -0.223 A  
HETATM    4  O   UNL     1     -11.948   6.826  70.396  1.00  0.00    -0.373 OA 
HETATM    5  C   UNL     1      -8.709   5.738  70.378  1.00  0.00    -0.135 A  
HETATM    6  C   UNL     1      -7.782   5.044  71.165  1.00  0.00    -0.091 A  
HETATM    7  C   UNL     1     -10.045   2.799  73.296  1.00  0.00    -0.120 C  
HETATM    8  C   UNL     1      -8.212   4.111  72.121  1.00  0.00    -0.101 A  
HETATM    9  C   UNL     1     -10.514   4.593  71.580  1.00  0.00    -0.123 A  
HETATM   10  F   UNL     1     -10.812   3.311  74.293  1.00  0.00    -0.235 F  
HETATM   11  C   UNL     1      -9.578   3.862  72.322  1.00  0.00    -0.202 A  
HETATM   12  F   UNL     1      -9.028   2.130  73.900  1.00  0.00    -0.064 F  
HETATM   13  F   UNL     1     -10.806   1.852  72.682  1.00  0.00    -0.222 F  
ENDROOT
BRANCH   5  14
HETATM   14  C   UNL     1      -8.237   6.701  69.344  1.00  0.00    -0.124 C  
HETATM   15  O   UNL     1      -8.558   7.878  69.477  1.00  0.00    -0.134 OA 
BRANCH  14  16
HETATM   16  C   UNL     1      -7.377   6.218  68.192  1.00  0.00    -0.089 C  
HETATM   17  C   UNL     1      -9.013   5.461  65.810  1.00  0.00    -0.161 C  
HETATM   18  C   UNL     1      -8.956   4.552  67.031  1.00  0.00    -0.120 C  
HETATM   19  C   UNL     1      -7.676   4.790  67.801  1.00  0.00    -0.083 C  
HETATM   20  O   UNL     1      -6.966   3.859  68.175  1.00  0.00    -0.050 OA 
HETATM   21  C   UNL     1      -8.798   6.929  66.164  1.00  0.00    -0.163 C  
HETATM   22  C   UNL     1      -7.520   7.089  66.962  1.00  0.00    -0.094 C  
HETATM   23  O   UNL     1      -6.651   7.897  66.639  1.00  0.00    -0.056 OA 
ENDBRANCH  14  16
ENDBRANCH   5  14
TORSDOF 2
ENDMDL
MODEL      248
REMARK 921   NORMALIZED FREE ENERGY PREDICTED BY IDOCK:   -3.09 KCAL/MOL
REMARK 922        TOTAL FREE ENERGY PREDICTED BY IDOCK:   -3.81 KCAL/MOL
REMARK 923 INTER-LIGAND FREE ENERGY PREDICTED BY IDOCK:   -3.80 KCAL/MOL
REMARK 924 INTRA-LIGAND FREE ENERGY PREDICTED BY IDOCK:   -0.02 KCAL/MOL
REMARK 927      BINDING AFFINITY PREDICTED BY RF-SCORE:    0.00 PKD
ROOT
HETATM    1  O   UNL     1      -7.298   8.701  65.330  1.00  0.00    -0.082 OA 
HETATM    2  N   UNL     1      -7.276   9.239  66.445  1.00  0.00    -0.088 N  
HETATM    3  C   UNL     1      -8.569   9.541  67.042  1.00  0.00    -0.128 A  
HETATM    4  O   UNL     1      -6.274   9.642  67.050  1.00  0.00    -0.062 OA 
HETATM    5  C   UNL     1      -9.491   8.523  67.328  1.00  0.00    -0.199 A  
HETATM    6  C   UNL     1     -10.739   8.894  67.843  1.00  0.00    -0.185 A  
HETATM    7  C   UNL     1     -10.545  12.722  67.765  1.00  0.00    -0.221 C  
HETATM    8  C   UNL     1     -11.073  10.246  68.004  1.00  0.00    -0.336 A  
HETATM    9  C   UNL     1      -8.890  10.898  67.207  1.00  0.00    -0.134 A  
HETATM   10  F   UNL     1      -9.758  13.409  68.634  1.00  0.00    -0.215 F  
HETATM   11  C   UNL     1     -10.162  11.260  67.668  1.00  0.00    -0.206 A  
HETATM   12  F   UNL     1     -11.828  12.922  68.171  1.00  0.00    -0.329 F  
HETATM   13  F   UNL     1     -10.427  13.355  66.566  1.00  0.00    -0.269 F  
ENDROOT
BRANCH   5  14
HETATM   14  C   UNL     1      -9.162   7.084  67.130  1.00  0.00    -0.137 C  
HETATM   15  O   UNL     1      -9.355   6.606  66.016  1.00  0.00    -0.112 OA 
BRANCH  14  16
HETATM   16  C   UNL     1      -8.594   6.270  68.277  1.00  0.00    -0.117 C  
HETATM   17  C   UNL     1      -9.467   7.315  70.935  1.00  0.00    -0.159 C  
HETATM   18  C   UNL     1      -8.403   8.046  70.127  1.00  0.00    -0.126 C  
HETATM   19  C   UNL     1      -7.708   7.087  69.187  1.00  0.00    -0.105 C  
HETATM   20  O   UNL     1      -6.482   7.045  69.099  1.00  0.00    -0.037 OA 
HETATM   21  C   UNL     1     -10.440   6.538  70.054  1.00  0.00    -0.257 C  
HETATM   22  C   UNL     1      -9.676   5.625  69.116  1.00  0.00    -0.145 C  
HETATM   23  O   UNL     1      -9.932   4.425  69.029  1.00  0.00    -0.147 OA 
ENDBRANCH  14  16
ENDBRANCH   5  14
TORSDOF 2
ENDMDL
MODEL      249
REMARK 921   NORMALIZED FREE ENERGY PREDICTED BY IDOCK:   -3.06 KCAL/MOL
REMARK 922        TOTAL FREE ENERGY PREDICTED BY IDOCK:   -3.78 KCAL/MOL
REMARK 923 INTER-LIGAND FREE ENERGY PREDICTED BY IDOCK:   -4.24 KCAL/MOL
REMARK 924 INTRA-LIGAND FREE ENERGY PREDICTED BY IDOCK:    0.46 KCAL/MOL
REMARK 927      BINDING AFFINITY PREDICTED BY RF-SCORE:    0.00 PKD
ROOT
HETATM    1  O   UNL     1      -7.942  14.376  69.143  1.00  0.00    -0.103 OA 
HETATM    2  N   UNL     1      -8.817  13.511  69.007  1.00  0.00     0.259 N  
HETATM    3  C   UNL     1     -10.196  13.974  69.057  1.00  0.00    -0.089 A  
HETATM    4  O   UNL     1      -8.641  12.287  68.945  1.00  0.00     0.063 OA 
HETATM    5  C   UNL     1     -10.684  14.900  68.123  1.00  0.00    -0.251 A  
HETATM    6  C   UNL     1     -12.003  15.347  68.270  1.00  0.00    -0.109 A  
HETATM    7  C   UNL     1     -13.080  13.643  71.531  1.00  0.00    -0.350 C  
HETATM    8  C   UNL     1     -12.783  14.927  69.357  1.00  0.00     0.169 A  
HETATM    9  C   UNL     1     -10.972  13.540  70.144  1.00  0.00     0.534 A  
HETATM   10  F   UNL     1     -13.315  12.306  71.587  1.00  0.00    -0.475 F  
HETATM   11  C   UNL     1     -12.270  14.038  70.314  1.00  0.00    -0.430 A  
HETATM   12  F   UNL     1     -14.296  14.248  71.595  1.00  0.00    -0.460 F  
HETATM   13  F   UNL     1     -12.440  13.963  72.689  1.00  0.00    -0.272 F  
ENDROOT
BRANCH   5  14
HETATM   14  C   UNL     1      -9.855  15.381  66.983  1.00  0.00    -0.232 C  
HETATM   15  O   UNL     1      -9.022  16.251  67.216  1.00  0.00    -0.191 OA 
BRANCH  14  16
HETATM   16  C   UNL     1     -10.044  14.783  65.602  1.00  0.00    -0.393 C  
HETATM   17  C   UNL     1     -12.549  13.169  65.410  1.00  0.00    -0.512 C  
HETATM   18  C   UNL     1     -11.331  12.624  66.144  1.00  0.00    -0.375 C  
HETATM   19  C   UNL     1     -10.070  13.273  65.619  1.00  0.00    -0.272 C  
HETATM   20  O   UNL     1      -9.081  12.609  65.315  1.00  0.00     0.368 OA 
HETATM   21  C   UNL     1     -12.613  14.693  65.434  1.00  0.00    -0.123 C  
HETATM   22  C   UNL     1     -11.308  15.275  64.930  1.00  0.00    -0.384 C  
HETATM   23  O   UNL     1     -11.277  16.117  64.033  1.00  0.00    -0.609 OA 
ENDBRANCH  14  16
ENDBRANCH   5  14
TORSDOF 2
ENDMDL
MODEL      250
REMARK 921   NORMALIZED FREE ENERGY PREDICTED BY IDOCK:   -3.02 KCAL/MOL
REMARK 922        TOTAL FREE ENERGY PREDICTED BY IDOCK:   -3.73 KCAL/MOL
REMARK 923 INTER-LIGAND FREE ENERGY PREDICTED BY IDOCK:   -3.12 KCAL/MOL
REMARK 924 INTRA-LIGAND FREE ENERGY PREDICTED BY IDOCK:   -0.61 KCAL/MOL
REMARK 927      BINDING AFFINITY PREDICTED BY RF-SCORE:    0.00 PKD
ROOT
HETATM    1  O   UNL     1     -10.157  11.160  68.333  1.00  0.00    -0.171 OA 
HETATM    2  N   UNL     1     -10.187  10.168  67.594  1.00  0.00    -0.190 N  
HETATM    3  C   UNL     1      -8.940   9.428  67.456  1.00  0.00    -0.121 A  
HETATM    4  O   UNL     1     -11.131   9.807  66.880  1.00  0.00    -0.041 OA 
HETATM    5  C   UNL     1      -8.324   8.834  68.566  1.00  0.00    -0.129 A  
HETATM    6  C   UNL     1      -7.095   8.192  68.369  1.00  0.00    -0.077 A  
HETATM    7  C   UNL     1      -6.377   8.930  64.676  1.00  0.00    -0.066 C  
HETATM    8  C   UNL     1      -6.476   8.205  67.111  1.00  0.00    -0.057 A  
HETATM    9  C   UNL     1      -8.333   9.440  66.190  1.00  0.00    -0.118 A  
HETATM   10  F   UNL     1      -7.080   8.325  63.683  1.00  0.00    -0.079 F  
HETATM   11  C   UNL     1      -7.077   8.846  66.016  1.00  0.00    -0.088 A  
HETATM   12  F   UNL     1      -5.142   8.362  64.671  1.00  0.00    -0.034 F  
HETATM   13  F   UNL     1      -6.198  10.221  64.281  1.00  0.00    -0.118 F  
ENDROOT
BRANCH   5  14
HETATM   14  C   UNL     1      -8.953   8.841  69.916  1.00  0.00    -0.152 C  
HETATM   15  O   UNL     1      -8.574   9.694  70.713  1.00  0.00    -0.227 OA 
BRANCH  14  16
HETATM   16  C   UNL     1     -10.034   7.833  70.256  1.00  0.00    -0.189 C  
HETATM   17  C   UNL     1      -8.896   5.164  70.963  1.00  0.00    -0.151 C  
HETATM   18  C   UNL     1      -8.937   5.629  69.514  1.00  0.00    -0.129 C  
HETATM   19  C   UNL     1     -10.038   6.647  69.321  1.00  0.00    -0.169 C  
HETATM   20  O   UNL     1     -10.837   6.565  68.390  1.00  0.00    -0.250 OA 
HETATM   21  C   UNL     1      -8.808   6.326  71.947  1.00  0.00    -0.139 C  
HETATM   22  C   UNL     1      -9.917   7.322  71.676  1.00  0.00    -0.180 C  
HETATM   23  O   UNL     1     -10.674   7.708  72.566  1.00  0.00    -0.245 OA 
ENDBRANCH  14  16
ENDBRANCH   5  14
TORSDOF 2
ENDMDL
MODEL      251
REMARK 921   NORMALIZED FREE ENERGY PREDICTED BY IDOCK:   -3.02 KCAL/MOL
REMARK 922        TOTAL FREE ENERGY PREDICTED BY IDOCK:   -3.73 KCAL/MOL
REMARK 923 INTER-LIGAND FREE ENERGY PREDICTED BY IDOCK:   -3.38 KCAL/MOL
REMARK 924 INTRA-LIGAND FREE ENERGY PREDICTED BY IDOCK:   -0.35 KCAL/MOL
REMARK 927      BINDING AFFINITY PREDICTED BY RF-SCORE:    0.00 PKD
ROOT
HETATM    1  O   UNL     1      -8.395   4.159  68.501  1.00  0.00    -0.082 OA 
HETATM    2  N   UNL     1      -9.365   4.823  68.891  1.00  0.00    -0.125 N  
HETATM    3  C   UNL     1      -9.466   6.181  68.375  1.00  0.00    -0.118 A  
HETATM    4  O   UNL     1     -10.189   4.490  69.752  1.00  0.00    -0.201 OA 
HETATM    5  C   UNL     1      -9.594   6.426  67.000  1.00  0.00    -0.168 A  
HETATM    6  C   UNL     1      -9.623   7.759  66.571  1.00  0.00    -0.270 A  
HETATM    7  C   UNL     1      -9.036   9.677  69.839  1.00  0.00    -0.225 C  
HETATM    8  C   UNL     1      -9.464   8.809  67.488  1.00  0.00    -0.173 A  
HETATM    9  C   UNL     1      -9.314   7.224  69.303  1.00  0.00    -0.154 A  
HETATM   10  F   UNL     1      -9.996   9.754  70.797  1.00  0.00    -0.318 F  
HETATM   11  C   UNL     1      -9.287   8.552  68.856  1.00  0.00    -0.146 A  
HETATM   12  F   UNL     1      -8.977  10.904  69.257  1.00  0.00    -0.168 F  
HETATM   13  F   UNL     1      -7.856   9.517  70.498  1.00  0.00    -0.123 F  
ENDROOT
BRANCH   5  14
HETATM   14  C   UNL     1      -9.730   5.321  66.011  1.00  0.00    -0.139 C  
HETATM   15  O   UNL     1     -10.637   4.513  66.186  1.00  0.00    -0.254 OA 
BRANCH  14  16
HETATM   16  C   UNL     1      -8.781   5.235  64.832  1.00  0.00    -0.122 C  
HETATM   17  C   UNL     1      -7.186   2.710  64.856  1.00  0.00    -0.058 C  
HETATM   18  C   UNL     1      -6.855   3.844  65.817  1.00  0.00    -0.054 C  
HETATM   19  C   UNL     1      -7.332   5.164  65.254  1.00  0.00    -0.068 C  
HETATM   20  O   UNL     1      -6.606   6.156  65.232  1.00  0.00    -0.041 OA 
HETATM   21  C   UNL     1      -8.659   2.689  64.462  1.00  0.00    -0.093 C  
HETATM   22  C   UNL     1      -9.077   4.049  63.940  1.00  0.00    -0.139 C  
HETATM   23  O   UNL     1      -9.643   4.181  62.855  1.00  0.00    -0.140 OA 
ENDBRANCH  14  16
ENDBRANCH   5  14
TORSDOF 2
ENDMDL
MODEL      252
REMARK 921   NORMALIZED FREE ENERGY PREDICTED BY IDOCK:   -2.94 KCAL/MOL
REMARK 922        TOTAL FREE ENERGY PREDICTED BY IDOCK:   -3.65 KCAL/MOL
REMARK 923 INTER-LIGAND FREE ENERGY PREDICTED BY IDOCK:   -4.00 KCAL/MOL
REMARK 924 INTRA-LIGAND FREE ENERGY PREDICTED BY IDOCK:    0.35 KCAL/MOL
REMARK 927      BINDING AFFINITY PREDICTED BY RF-SCORE:    0.00 PKD
ROOT
HETATM    1  O   UNL     1     -10.582  19.201  68.527  1.00  0.00    -0.226 OA 
HETATM    2  N   UNL     1     -10.260  18.546  69.527  1.00  0.00     0.150 N  
HETATM    3  C   UNL     1     -10.136  17.106  69.343  1.00  0.00    -0.116 A  
HETATM    4  O   UNL     1     -10.143  18.973  70.682  1.00  0.00     1.222 OA 
HETATM    5  C   UNL     1      -9.204  16.570  68.443  1.00  0.00    -0.222 A  
HETATM    6  C   UNL     1      -9.183  15.180  68.272  1.00  0.00    -0.188 A  
HETATM    7  C   UNL     1     -12.127  14.048  70.451  1.00  0.00    -0.356 C  
HETATM    8  C   UNL     1     -10.111  14.364  68.934  1.00  0.00    -0.202 A  
HETATM    9  C   UNL     1     -11.064  16.298  70.018  1.00  0.00    -0.351 A  
HETATM   10  F   UNL     1     -12.058  14.084  71.807  1.00  0.00    -0.360 F  
HETATM   11  C   UNL     1     -11.072  14.915  69.795  1.00  0.00    -0.300 A  
HETATM   12  F   UNL     1     -12.049  12.737  70.099  1.00  0.00    -0.375 F  
HETATM   13  F   UNL     1     -13.386  14.451  70.126  1.00  0.00    -0.216 F  
ENDROOT
BRANCH   5  14
HETATM   14  C   UNL     1      -8.234  17.427  67.707  1.00  0.00    -0.216 C  
HETATM   15  O   UNL     1      -7.337  17.955  68.357  1.00  0.00    -0.239 OA 
BRANCH  14  16
HETATM   16  C   UNL     1      -8.363  17.605  66.206  1.00  0.00    -0.251 C  
HETATM   17  C   UNL     1      -9.716  20.171  65.494  1.00  0.00     0.062 C  
HETATM   18  C   UNL     1     -10.520  18.995  66.035  1.00  0.00    -0.530 C  
HETATM   19  C   UNL     1      -9.801  17.695  65.753  1.00  0.00     0.052 C  
HETATM   20  O   UNL     1     -10.384  16.728  65.268  1.00  0.00    -0.622 OA 
HETATM   21  C   UNL     1      -8.274  20.171  65.990  1.00  0.00    -0.200 C  
HETATM   22  C   UNL     1      -7.627  18.830  65.707  1.00  0.00    -0.060 C  
HETATM   23  O   UNL     1      -6.551  18.741  65.117  1.00  0.00    -0.457 OA 
ENDBRANCH  14  16
ENDBRANCH   5  14
TORSDOF 2
ENDMDL
MODEL      253
REMARK 921   NORMALIZED FREE ENERGY PREDICTED BY IDOCK:   -2.94 KCAL/MOL
REMARK 922        TOTAL FREE ENERGY PREDICTED BY IDOCK:   -3.64 KCAL/MOL
REMARK 923 INTER-LIGAND FREE ENERGY PREDICTED BY IDOCK:   -3.12 KCAL/MOL
REMARK 924 INTRA-LIGAND FREE ENERGY PREDICTED BY IDOCK:   -0.52 KCAL/MOL
REMARK 927      BINDING AFFINITY PREDICTED BY RF-SCORE:    0.00 PKD
ROOT
HETATM    1  O   UNL     1      -8.707   8.620  65.588  1.00  0.00    -0.163 OA 
HETATM    2  N   UNL     1      -9.380   8.290  66.574  1.00  0.00    -0.191 N  
HETATM    3  C   UNL     1      -8.660   7.635  67.657  1.00  0.00    -0.116 A  
HETATM    4  O   UNL     1     -10.611   8.359  66.683  1.00  0.00    -0.262 OA 
HETATM    5  C   UNL     1      -7.620   8.289  68.334  1.00  0.00    -0.101 A  
HETATM    6  C   UNL     1      -6.932   7.576  69.323  1.00  0.00    -0.068 A  
HETATM    7  C   UNL     1      -8.525   4.097  69.075  1.00  0.00    -0.081 C  
HETATM    8  C   UNL     1      -7.236   6.230  69.578  1.00  0.00    -0.078 A  
HETATM    9  C   UNL     1      -8.979   6.291  67.909  1.00  0.00    -0.113 A  
HETATM   10  F   UNL     1      -9.791   3.866  69.507  1.00  0.00    -0.263 F  
HETATM   11  C   UNL     1      -8.246   5.570  68.860  1.00  0.00    -0.099 A  
HETATM   12  F   UNL     1      -7.698   3.514  69.983  1.00  0.00    -0.047 F  
HETATM   13  F   UNL     1      -8.382   3.384  67.925  1.00  0.00    -0.081 F  
ENDROOT
BRANCH   5  14
HETATM   14  C   UNL     1      -7.264   9.707  68.051  1.00  0.00    -0.081 C  
HETATM   15  O   UNL     1      -6.496   9.923  67.119  1.00  0.00    -0.067 OA 
BRANCH  14  16
HETATM   16  C   UNL     1      -7.859  10.822  68.890  1.00  0.00    -0.136 C  
HETATM   17  C   UNL     1      -8.700  13.153  67.222  1.00  0.00    -0.210 C  
HETATM   18  C   UNL     1      -7.226  12.899  67.512  1.00  0.00    -0.149 C  
HETATM   19  C   UNL     1      -7.073  12.107  68.792  1.00  0.00    -0.110 C  
HETATM   20  O   UNL     1      -6.276  12.442  69.665  1.00  0.00    -0.121 OA 
HETATM   21  C   UNL     1      -9.526  11.870  67.228  1.00  0.00    -0.176 C  
HETATM   22  C   UNL     1      -9.298  11.113  68.521  1.00  0.00    -0.190 C  
HETATM   23  O   UNL     1     -10.235  10.737  69.225  1.00  0.00    -0.218 OA 
ENDBRANCH  14  16
ENDBRANCH   5  14
TORSDOF 2
ENDMDL
MODEL      254
REMARK 921   NORMALIZED FREE ENERGY PREDICTED BY IDOCK:   -2.91 KCAL/MOL
REMARK 922        TOTAL FREE ENERGY PREDICTED BY IDOCK:   -3.62 KCAL/MOL
REMARK 923 INTER-LIGAND FREE ENERGY PREDICTED BY IDOCK:   -3.40 KCAL/MOL
REMARK 924 INTRA-LIGAND FREE ENERGY PREDICTED BY IDOCK:   -0.22 KCAL/MOL
REMARK 927      BINDING AFFINITY PREDICTED BY RF-SCORE:    0.00 PKD
ROOT
HETATM    1  O   UNL     1      -9.579   9.219  65.304  1.00  0.00    -0.242 OA 
HETATM    2  N   UNL     1      -9.794   8.575  66.339  1.00  0.00    -0.266 N  
HETATM    3  C   UNL     1      -8.636   7.952  66.964  1.00  0.00    -0.128 A  
HETATM    4  O   UNL     1     -10.900   8.316  66.831  1.00  0.00    -0.228 OA 
HETATM    5  C   UNL     1      -7.560   8.723  67.427  1.00  0.00    -0.090 A  
HETATM    6  C   UNL     1      -6.453   8.052  67.961  1.00  0.00    -0.056 A  
HETATM    7  C   UNL     1      -7.378   4.376  67.387  1.00  0.00    -0.069 C  
HETATM    8  C   UNL     1      -6.402   6.651  67.967  1.00  0.00    -0.044 A  
HETATM    9  C   UNL     1      -8.598   6.548  66.973  1.00  0.00    -0.113 A  
HETATM   10  F   UNL     1      -8.350   3.769  68.117  1.00  0.00    -0.087 F  
HETATM   11  C   UNL     1      -7.462   5.887  67.455  1.00  0.00    -0.078 A  
HETATM   12  F   UNL     1      -6.196   3.876  67.835  1.00  0.00    -0.031 F  
HETATM   13  F   UNL     1      -7.520   3.919  66.113  1.00  0.00    -0.080 F  
ENDROOT
BRANCH   5  14
HETATM   14  C   UNL     1      -7.587  10.212  67.396  1.00  0.00    -0.094 C  
HETATM   15  O   UNL     1      -7.362  10.760  66.321  1.00  0.00    -0.131 OA 
BRANCH  14  16
HETATM   16  C   UNL     1      -7.902  10.993  68.657  1.00  0.00    -0.136 C  
HETATM   17  C   UNL     1     -10.687  10.496  69.617  1.00  0.00    -0.302 C  
HETATM   18  C   UNL     1     -10.432  11.382  68.404  1.00  0.00    -0.221 C  
HETATM   19  C   UNL     1      -9.040  11.969  68.468  1.00  0.00    -0.106 C  
HETATM   20  O   UNL     1      -8.835  13.166  68.278  1.00  0.00    -0.188 OA 
HETATM   21  C   UNL     1      -9.605   9.437  69.805  1.00  0.00    -0.216 C  
HETATM   22  C   UNL     1      -8.238  10.090  69.824  1.00  0.00    -0.178 C  
HETATM   23  O   UNL     1      -7.434   9.883  70.733  1.00  0.00    -0.313 OA 
ENDBRANCH  14  16
ENDBRANCH   5  14
TORSDOF 2
ENDMDL
MODEL      255
REMARK 921   NORMALIZED FREE ENERGY PREDICTED BY IDOCK:   -2.91 KCAL/MOL
REMARK 922        TOTAL FREE ENERGY PREDICTED BY IDOCK:   -3.61 KCAL/MOL
REMARK 923 INTER-LIGAND FREE ENERGY PREDICTED BY IDOCK:   -3.87 KCAL/MOL
REMARK 924 INTRA-LIGAND FREE ENERGY PREDICTED BY IDOCK:    0.26 KCAL/MOL
REMARK 927      BINDING AFFINITY PREDICTED BY RF-SCORE:    0.00 PKD
ROOT
HETATM    1  O   UNL     1      -7.557   3.562  69.041  1.00  0.00    -0.052 OA 
HETATM    2  N   UNL     1      -8.794   3.525  69.012  1.00  0.00    -0.095 N  
HETATM    3  C   UNL     1      -9.475   4.805  68.877  1.00  0.00    -0.146 A  
HETATM    4  O   UNL     1      -9.506   2.530  69.197  1.00  0.00    -0.143 OA 
HETATM    5  C   UNL     1      -9.273   5.618  67.752  1.00  0.00    -0.106 A  
HETATM    6  C   UNL     1      -9.913   6.863  67.719  1.00  0.00    -0.180 A  
HETATM    7  C   UNL     1     -11.594   7.004  71.162  1.00  0.00    -0.312 C  
HETATM    8  C   UNL     1     -10.678   7.302  68.809  1.00  0.00    -0.168 A  
HETATM    9  C   UNL     1     -10.246   5.231  69.970  1.00  0.00    -0.358 A  
HETATM   10  F   UNL     1     -12.673   6.232  71.455  1.00  0.00    -0.281 F  
HETATM   11  C   UNL     1     -10.835   6.502  69.951  1.00  0.00    -0.341 A  
HETATM   12  F   UNL     1     -12.059   8.274  71.024  1.00  0.00    -0.299 F  
HETATM   13  F   UNL     1     -10.816   7.007  72.279  1.00  0.00    -0.215 F  
ENDROOT
BRANCH   5  14
HETATM   14  C   UNL     1      -8.435   5.178  66.602  1.00  0.00    -0.107 C  
HETATM   15  O   UNL     1      -7.276   4.851  66.837  1.00  0.00    -0.074 OA 
BRANCH  14  16
HETATM   16  C   UNL     1      -9.027   5.127  65.207  1.00  0.00    -0.144 C  
HETATM   17  C   UNL     1      -8.457   2.534  63.839  1.00  0.00    -0.086 C  
HETATM   18  C   UNL     1      -7.365   3.584  63.995  1.00  0.00    -0.059 C  
HETATM   19  C   UNL     1      -7.977   4.960  64.134  1.00  0.00    -0.105 C  
HETATM   20  O   UNL     1      -7.572   5.916  63.476  1.00  0.00    -0.065 OA 
HETATM   21  C   UNL     1      -9.502   2.609  64.948  1.00  0.00    -0.094 C  
HETATM   22  C   UNL     1     -10.047   4.019  65.054  1.00  0.00    -0.195 C  
HETATM   23  O   UNL     1     -11.255   4.250  65.035  1.00  0.00    -0.249 OA 
ENDBRANCH  14  16
ENDBRANCH   5  14
TORSDOF 2
ENDMDL
MODEL      256
REMARK 921   NORMALIZED FREE ENERGY PREDICTED BY IDOCK:   -2.84 KCAL/MOL
REMARK 922        TOTAL FREE ENERGY PREDICTED BY IDOCK:   -3.54 KCAL/MOL
REMARK 923 INTER-LIGAND FREE ENERGY PREDICTED BY IDOCK:   -3.28 KCAL/MOL
REMARK 924 INTRA-LIGAND FREE ENERGY PREDICTED BY IDOCK:   -0.25 KCAL/MOL
REMARK 927      BINDING AFFINITY PREDICTED BY RF-SCORE:    0.00 PKD
ROOT
HETATM    1  O   UNL     1      -6.661   6.118  70.684  1.00  0.00    -0.050 OA 
HETATM    2  N   UNL     1      -7.579   5.289  70.735  1.00  0.00    -0.081 N  
HETATM    3  C   UNL     1      -8.898   5.760  70.337  1.00  0.00    -0.142 A  
HETATM    4  O   UNL     1      -7.511   4.140  71.190  1.00  0.00    -0.046 OA 
HETATM    5  C   UNL     1      -9.134   6.243  69.042  1.00  0.00    -0.129 A  
HETATM    6  C   UNL     1     -10.411   6.739  68.749  1.00  0.00    -0.231 A  
HETATM    7  C   UNL     1     -12.170   6.509  72.148  1.00  0.00    -0.232 C  
HETATM    8  C   UNL     1     -11.397   6.806  69.744  1.00  0.00    -0.350 A  
HETATM    9  C   UNL     1      -9.880   5.815  71.339  1.00  0.00    -0.213 A  
HETATM   10  F   UNL     1     -12.536   5.312  72.676  1.00  0.00    -0.209 F  
HETATM   11  C   UNL     1     -11.136   6.366  71.051  1.00  0.00    -0.349 A  
HETATM   12  F   UNL     1     -13.317   7.113  71.738  1.00  0.00    -0.371 F  
HETATM   13  F   UNL     1     -11.704   7.254  73.187  1.00  0.00    -0.203 F  
ENDROOT
BRANCH   5  14
HETATM   14  C   UNL     1      -8.086   6.209  67.984  1.00  0.00    -0.114 C  
HETATM   15  O   UNL     1      -7.120   6.955  68.119  1.00  0.00    -0.080 OA 
BRANCH  14  16
HETATM   16  C   UNL     1      -8.226   5.264  66.806  1.00  0.00    -0.108 C  
HETATM   17  C   UNL     1      -6.838   2.663  67.285  1.00  0.00    -0.044 C  
HETATM   18  C   UNL     1      -6.040   3.919  66.961  1.00  0.00    -0.025 C  
HETATM   19  C   UNL     1      -6.896   4.900  66.191  1.00  0.00    -0.058 C  
HETATM   20  O   UNL     1      -6.488   5.447  65.169  1.00  0.00    -0.037 OA 
HETATM   21  C   UNL     1      -8.158   2.974  67.983  1.00  0.00    -0.083 C  
HETATM   22  C   UNL     1      -8.947   3.986  67.177  1.00  0.00    -0.133 C  
HETATM   23  O   UNL     1     -10.118   3.787  66.855  1.00  0.00     0.006 OA 
ENDBRANCH  14  16
ENDBRANCH   5  14
TORSDOF 2
ENDMDL
MODEL      257
REMARK 921   NORMALIZED FREE ENERGY PREDICTED BY IDOCK:   -2.83 KCAL/MOL
REMARK 922        TOTAL FREE ENERGY PREDICTED BY IDOCK:   -3.53 KCAL/MOL
REMARK 923 INTER-LIGAND FREE ENERGY PREDICTED BY IDOCK:   -3.20 KCAL/MOL
REMARK 924 INTRA-LIGAND FREE ENERGY PREDICTED BY IDOCK:   -0.33 KCAL/MOL
REMARK 927      BINDING AFFINITY PREDICTED BY RF-SCORE:    0.00 PKD
ROOT
HETATM    1  O   UNL     1      -5.399  12.527  68.476  1.00  0.00    -0.051 OA 
HETATM    2  N   UNL     1      -6.196  13.024  69.282  1.00  0.00    -0.098 N  
HETATM    3  C   UNL     1      -7.558  13.220  68.806  1.00  0.00    -0.043 A  
HETATM    4  O   UNL     1      -5.928  13.471  70.405  1.00  0.00    -0.157 OA 
HETATM    5  C   UNL     1      -8.343  12.134  68.392  1.00  0.00    -0.143 A  
HETATM    6  C   UNL     1      -9.622  12.403  67.887  1.00  0.00    -0.205 A  
HETATM    7  C   UNL     1      -9.705  16.237  67.890  1.00  0.00    -0.233 C  
HETATM    8  C   UNL     1     -10.070  13.724  67.744  1.00  0.00    -0.245 A  
HETATM    9  C   UNL     1      -8.000  14.546  68.675  1.00  0.00    -0.145 A  
HETATM   10  F   UNL     1      -9.793  16.942  69.047  1.00  0.00    -0.239 F  
HETATM   11  C   UNL     1      -9.257  14.807  68.116  1.00  0.00    -0.195 A  
HETATM   12  F   UNL     1     -10.919  16.337  67.286  1.00  0.00    -0.319 F  
HETATM   13  F   UNL     1      -8.833  16.918  67.097  1.00  0.00    -0.195 F  
ENDROOT
BRANCH   5  14
HETATM   14  C   UNL     1      -7.867  10.727  68.507  1.00  0.00    -0.122 C  
HETATM   15  O   UNL     1      -7.431  10.364  69.595  1.00  0.00    -0.136 OA 
BRANCH  14  16
HETATM   16  C   UNL     1      -7.951   9.797  67.312  1.00  0.00    -0.106 C  
HETATM   17  C   UNL     1      -5.508   8.099  67.040  1.00  0.00    -0.037 C  
HETATM   18  C   UNL     1      -5.474   9.573  66.658  1.00  0.00    -0.046 C  
HETATM   19  C   UNL     1      -6.862  10.054  66.298  1.00  0.00    -0.099 C  
HETATM   20  O   UNL     1      -7.074  10.705  65.277  1.00  0.00    -0.089 OA 
HETATM   21  C   UNL     1      -6.539   7.801  68.124  1.00  0.00    -0.059 C  
HETATM   22  C   UNL     1      -7.895   8.338  67.714  1.00  0.00    -0.114 C  
HETATM   23  O   UNL     1      -8.902   7.632  67.723  1.00  0.00    -0.126 OA 
ENDBRANCH  14  16
ENDBRANCH   5  14
TORSDOF 2
ENDMDL
MODEL      258
REMARK 921   NORMALIZED FREE ENERGY PREDICTED BY IDOCK:   -2.81 KCAL/MOL
REMARK 922        TOTAL FREE ENERGY PREDICTED BY IDOCK:   -3.51 KCAL/MOL
REMARK 923 INTER-LIGAND FREE ENERGY PREDICTED BY IDOCK:   -4.67 KCAL/MOL
REMARK 924 INTRA-LIGAND FREE ENERGY PREDICTED BY IDOCK:    1.16 KCAL/MOL
REMARK 927      BINDING AFFINITY PREDICTED BY RF-SCORE:    0.00 PKD
ROOT
HETATM    1  O   UNL     1      -9.352  15.027  64.738  1.00  0.00     0.612 OA 
HETATM    2  N   UNL     1     -10.471  14.524  64.903  1.00  0.00    -0.431 N  
HETATM    3  C   UNL     1     -10.926  14.401  66.281  1.00  0.00    -0.318 A  
HETATM    4  O   UNL     1     -11.189  14.019  64.031  1.00  0.00    -0.185 OA 
HETATM    5  C   UNL     1     -11.092  15.532  67.093  1.00  0.00    -0.256 A  
HETATM    6  C   UNL     1     -11.473  15.333  68.426  1.00  0.00    -0.358 A  
HETATM    7  C   UNL     1     -11.479  11.509  68.706  1.00  0.00    -0.287 C  
HETATM    8  C   UNL     1     -11.618  14.037  68.941  1.00  0.00    -0.351 A  
HETATM    9  C   UNL     1     -11.077  13.099  66.784  1.00  0.00    -0.314 A  
HETATM   10  F   UNL     1     -12.440  10.757  68.108  1.00  0.00     0.069 F  
HETATM   11  C   UNL     1     -11.401  12.910  68.134  1.00  0.00    -0.327 A  
HETATM   12  F   UNL     1     -11.744  11.480  70.039  1.00  0.00    -0.330 F  
HETATM   13  F   UNL     1     -10.310  10.831  68.539  1.00  0.00    -0.163 F  
ENDROOT
BRANCH   5  14
HETATM   14  C   UNL     1     -10.909  16.914  66.568  1.00  0.00     0.032 C  
HETATM   15  O   UNL     1     -11.269  17.134  65.415  1.00  0.00     0.013 OA 
BRANCH  14  16
HETATM   16  C   UNL     1     -10.316  17.991  67.455  1.00  0.00    -0.391 C  
HETATM   17  C   UNL     1      -7.339  17.808  67.606  1.00  0.00    -0.207 C  
HETATM   18  C   UNL     1      -8.215  16.817  68.361  1.00  0.00    -0.224 C  
HETATM   19  C   UNL     1      -9.572  17.425  68.640  1.00  0.00    -0.295 C  
HETATM   20  O   UNL     1     -10.084  17.373  69.757  1.00  0.00     0.059 OA 
HETATM   21  C   UNL     1      -8.016  18.349  66.351  1.00  0.00    -0.288 C  
HETATM   22  C   UNL     1      -9.381  18.910  66.698  1.00  0.00    -0.330 C  
HETATM   23  O   UNL     1      -9.718  20.046  66.367  1.00  0.00    -0.400 OA 
ENDBRANCH  14  16
ENDBRANCH   5  14
TORSDOF 2
ENDMDL
MODEL      259
REMARK 921   NORMALIZED FREE ENERGY PREDICTED BY IDOCK:   -2.74 KCAL/MOL
REMARK 922        TOTAL FREE ENERGY PREDICTED BY IDOCK:   -3.42 KCAL/MOL
REMARK 923 INTER-LIGAND FREE ENERGY PREDICTED BY IDOCK:   -3.31 KCAL/MOL
REMARK 924 INTRA-LIGAND FREE ENERGY PREDICTED BY IDOCK:   -0.11 KCAL/MOL
REMARK 927      BINDING AFFINITY PREDICTED BY RF-SCORE:    0.00 PKD
ROOT
HETATM    1  O   UNL     1      -7.564  15.225  68.909  1.00  0.00    -0.128 OA 
HETATM    2  N   UNL     1      -7.623  14.624  67.829  1.00  0.00    -0.143 N  
HETATM    3  C   UNL     1      -8.176  13.277  67.868  1.00  0.00    -0.163 A  
HETATM    4  O   UNL     1      -7.164  15.007  66.745  1.00  0.00    -0.001 OA 
HETATM    5  C   UNL     1      -9.490  13.045  68.300  1.00  0.00    -0.208 A  
HETATM    6  C   UNL     1      -9.932  11.719  68.371  1.00  0.00    -0.202 A  
HETATM    7  C   UNL     1      -6.767   9.756  67.459  1.00  0.00    -0.070 C  
HETATM    8  C   UNL     1      -9.062  10.658  68.081  1.00  0.00    -0.148 A  
HETATM    9  C   UNL     1      -7.298  12.223  67.567  1.00  0.00    -0.137 A  
HETATM   10  F   UNL     1      -6.287   9.738  66.189  1.00  0.00    -0.063 F  
HETATM   11  C   UNL     1      -7.733  10.898  67.697  1.00  0.00    -0.108 A  
HETATM   12  F   UNL     1      -7.311   8.529  67.680  1.00  0.00    -0.082 F  
HETATM   13  F   UNL     1      -5.680   9.837  68.274  1.00  0.00    -0.042 F  
ENDROOT
BRANCH   5  14
HETATM   14  C   UNL     1     -10.415  14.160  68.644  1.00  0.00    -0.250 C  
HETATM   15  O   UNL     1     -10.285  14.685  69.747  1.00  0.00    -0.046 OA 
BRANCH  14  16
HETATM   16  C   UNL     1     -11.455  14.622  67.641  1.00  0.00    -0.364 C  
HETATM   17  C   UNL     1     -10.224  15.442  65.046  1.00  0.00    -0.295 C  
HETATM   18  C   UNL     1     -10.123  16.343  66.271  1.00  0.00    -0.346 C  
HETATM   19  C   UNL     1     -11.262  16.061  67.224  1.00  0.00    -0.041 C  
HETATM   20  O   UNL     1     -11.936  16.967  67.711  1.00  0.00     0.719 OA 
HETATM   21  C   UNL     1     -10.338  13.967  65.414  1.00  0.00    -0.364 C  
HETATM   22  C   UNL     1     -11.474  13.762  66.396  1.00  0.00    -0.336 C  
HETATM   23  O   UNL     1     -12.357  12.928  66.200  1.00  0.00    -0.495 OA 
ENDBRANCH  14  16
ENDBRANCH   5  14
TORSDOF 2
ENDMDL
MODEL      260
REMARK 921   NORMALIZED FREE ENERGY PREDICTED BY IDOCK:   -2.71 KCAL/MOL
REMARK 922        TOTAL FREE ENERGY PREDICTED BY IDOCK:   -3.39 KCAL/MOL
REMARK 923 INTER-LIGAND FREE ENERGY PREDICTED BY IDOCK:   -3.16 KCAL/MOL
REMARK 924 INTRA-LIGAND FREE ENERGY PREDICTED BY IDOCK:   -0.23 KCAL/MOL
REMARK 927      BINDING AFFINITY PREDICTED BY RF-SCORE:    0.00 PKD
ROOT
HETATM    1  O   UNL     1      -6.095   8.040  66.276  1.00  0.00    -0.043 OA 
HETATM    2  N   UNL     1      -6.642   7.707  67.336  1.00  0.00    -0.061 N  
HETATM    3  C   UNL     1      -8.082   7.914  67.412  1.00  0.00    -0.123 A  
HETATM    4  O   UNL     1      -6.079   7.322  68.368  1.00  0.00    -0.029 OA 
HETATM    5  C   UNL     1      -8.954   7.269  66.524  1.00  0.00    -0.175 A  
HETATM    6  C   UNL     1     -10.320   7.564  66.615  1.00  0.00    -0.252 A  
HETATM    7  C   UNL     1     -10.382  10.295  69.306  1.00  0.00    -0.231 C  
HETATM    8  C   UNL     1     -10.784   8.525  67.526  1.00  0.00    -0.211 A  
HETATM    9  C   UNL     1      -8.536   8.871  68.333  1.00  0.00    -0.134 A  
HETATM   10  F   UNL     1     -10.152  10.006  70.613  1.00  0.00    -0.322 F  
HETATM   11  C   UNL     1      -9.897   9.201  68.377  1.00  0.00    -0.181 A  
HETATM   12  F   UNL     1     -11.714  10.548  69.200  1.00  0.00    -0.295 F  
HETATM   13  F   UNL     1      -9.754  11.478  69.064  1.00  0.00    -0.189 F  
ENDROOT
BRANCH   5  14
HETATM   14  C   UNL     1      -8.471   6.272  65.528  1.00  0.00    -0.144 C  
HETATM   15  O   UNL     1      -7.891   6.699  64.535  1.00  0.00    -0.107 OA 
BRANCH  14  16
HETATM   16  C   UNL     1      -8.686   4.791  65.771  1.00  0.00    -0.127 C  
HETATM   17  C   UNL     1      -6.407   3.555  67.255  1.00  0.00    -0.037 C  
HETATM   18  C   UNL     1      -6.269   3.912  65.781  1.00  0.00    -0.032 C  
HETATM   19  C   UNL     1      -7.628   3.934  65.117  1.00  0.00    -0.081 C  
HETATM   20  O   UNL     1      -7.834   3.363  64.048  1.00  0.00    -0.079 OA 
HETATM   21  C   UNL     1      -7.408   4.448  67.981  1.00  0.00    -0.065 C  
HETATM   22  C   UNL     1      -8.732   4.450  67.246  1.00  0.00    -0.105 C  
HETATM   23  O   UNL     1      -9.793   4.205  67.819  1.00  0.00    -0.141 OA 
ENDBRANCH  14  16
ENDBRANCH   5  14
TORSDOF 2
ENDMDL
MODEL      261
REMARK 921   NORMALIZED FREE ENERGY PREDICTED BY IDOCK:   -2.67 KCAL/MOL
REMARK 922        TOTAL FREE ENERGY PREDICTED BY IDOCK:   -3.34 KCAL/MOL
REMARK 923 INTER-LIGAND FREE ENERGY PREDICTED BY IDOCK:   -3.05 KCAL/MOL
REMARK 924 INTRA-LIGAND FREE ENERGY PREDICTED BY IDOCK:   -0.29 KCAL/MOL
REMARK 927      BINDING AFFINITY PREDICTED BY RF-SCORE:    0.00 PKD
ROOT
HETATM    1  O   UNL     1     -10.732   4.635  67.649  1.00  0.00     0.217 OA 
HETATM    2  N   UNL     1     -10.732   5.871  67.718  1.00  0.00    -0.269 N  
HETATM    3  C   UNL     1     -10.196   6.449  68.943  1.00  0.00    -0.184 A  
HETATM    4  O   UNL     1     -11.236   6.656  66.905  1.00  0.00    -0.391 OA 
HETATM    5  C   UNL     1      -8.866   6.226  69.328  1.00  0.00    -0.123 A  
HETATM    6  C   UNL     1      -8.438   6.761  70.549  1.00  0.00    -0.138 A  
HETATM    7  C   UNL     1     -11.669   8.284  71.945  1.00  0.00    -0.322 C  
HETATM    8  C   UNL     1      -9.335   7.443  71.385  1.00  0.00    -0.149 A  
HETATM    9  C   UNL     1     -11.101   7.137  69.767  1.00  0.00    -0.239 A  
HETATM   10  F   UNL     1     -12.208   9.410  71.411  1.00  0.00    -0.329 F  
HETATM   11  C   UNL     1     -10.677   7.619  71.013  1.00  0.00    -0.239 A  
HETATM   12  F   UNL     1     -11.131   8.647  73.140  1.00  0.00    -0.103 F  
HETATM   13  F   UNL     1     -12.715   7.465  72.237  1.00  0.00    -0.272 F  
ENDROOT
BRANCH   5  14
HETATM   14  C   UNL     1      -7.911   5.475  68.467  1.00  0.00    -0.088 C  
HETATM   15  O   UNL     1      -7.134   6.130  67.778  1.00  0.00    -0.076 OA 
BRANCH  14  16
HETATM   16  C   UNL     1      -7.909   3.958  68.477  1.00  0.00    -0.068 C  
HETATM   17  C   UNL     1      -5.141   2.839  68.404  1.00  0.00    -0.012 C  
HETATM   18  C   UNL     1      -5.769   3.435  67.151  1.00  0.00    -0.022 C  
HETATM   19  C   UNL     1      -7.277   3.369  67.238  1.00  0.00    -0.059 C  
HETATM   20  O   UNL     1      -7.959   2.946  66.307  1.00  0.00    -0.080 OA 
HETATM   21  C   UNL     1      -5.688   3.462  69.684  1.00  0.00    -0.018 C  
HETATM   22  C   UNL     1      -7.202   3.392  69.690  1.00  0.00    -0.041 C  
HETATM   23  O   UNL     1      -7.826   2.916  70.637  1.00  0.00    -0.043 OA 
ENDBRANCH  14  16
ENDBRANCH   5  14
TORSDOF 2
ENDMDL
MODEL      262
REMARK 921   NORMALIZED FREE ENERGY PREDICTED BY IDOCK:   -2.59 KCAL/MOL
REMARK 922        TOTAL FREE ENERGY PREDICTED BY IDOCK:   -3.26 KCAL/MOL
REMARK 923 INTER-LIGAND FREE ENERGY PREDICTED BY IDOCK:   -2.96 KCAL/MOL
REMARK 924 INTRA-LIGAND FREE ENERGY PREDICTED BY IDOCK:   -0.29 KCAL/MOL
REMARK 927      BINDING AFFINITY PREDICTED BY RF-SCORE:    0.00 PKD
ROOT
HETATM    1  O   UNL     1      -7.971   4.947  70.740  1.00  0.00    -0.079 OA 
HETATM    2  N   UNL     1      -8.961   5.243  70.058  1.00  0.00    -0.125 N  
HETATM    3  C   UNL     1      -8.864   6.470  69.280  1.00  0.00    -0.132 A  
HETATM    4  O   UNL     1     -10.055   4.666  70.055  1.00  0.00    -0.238 OA 
HETATM    5  C   UNL     1      -7.883   6.625  68.289  1.00  0.00    -0.110 A  
HETATM    6  C   UNL     1      -7.810   7.855  67.624  1.00  0.00    -0.122 A  
HETATM    7  C   UNL     1     -10.456   9.932  69.466  1.00  0.00    -0.241 C  
HETATM    8  C   UNL     1      -8.653   8.916  67.988  1.00  0.00    -0.130 A  
HETATM    9  C   UNL     1      -9.718   7.523  69.647  1.00  0.00    -0.167 A  
HETATM   10  F   UNL     1     -11.783   9.694  69.301  1.00  0.00    -0.070 F  
HETATM   11  C   UNL     1      -9.598   8.767  69.015  1.00  0.00    -0.162 A  
HETATM   12  F   UNL     1     -10.190  11.090  68.805  1.00  0.00    -0.169 F  
HETATM   13  F   UNL     1     -10.281  10.205  70.788  1.00  0.00    -0.300 F  
ENDROOT
BRANCH   5  14
HETATM   14  C   UNL     1      -6.959   5.518  67.915  1.00  0.00    -0.066 C  
HETATM   15  O   UNL     1      -6.088   5.209  68.723  1.00  0.00    -0.027 OA 
BRANCH  14  16
HETATM   16  C   UNL     1      -7.126   4.806  66.587  1.00  0.00    -0.072 C  
HETATM   17  C   UNL     1      -8.798   2.343  66.837  1.00  0.00    -0.147 C  
HETATM   18  C   UNL     1      -7.360   2.358  67.339  1.00  0.00    -0.056 C  
HETATM   19  C   UNL     1      -6.558   3.406  66.602  1.00  0.00    -0.041 C  
HETATM   20  O   UNL     1      -5.454   3.155  66.123  1.00  0.00    -0.015 OA 
HETATM   21  C   UNL     1      -9.445   3.723  66.879  1.00  0.00    -0.224 C  
HETATM   22  C   UNL     1      -8.574   4.728  66.153  1.00  0.00    -0.115 C  
HETATM   23  O   UNL     1      -9.024   5.457  65.269  1.00  0.00    -0.157 OA 
ENDBRANCH  14  16
ENDBRANCH   5  14
TORSDOF 2
ENDMDL
MODEL      263
REMARK 921   NORMALIZED FREE ENERGY PREDICTED BY IDOCK:   -2.58 KCAL/MOL
REMARK 922        TOTAL FREE ENERGY PREDICTED BY IDOCK:   -3.24 KCAL/MOL
REMARK 923 INTER-LIGAND FREE ENERGY PREDICTED BY IDOCK:   -2.93 KCAL/MOL
REMARK 924 INTRA-LIGAND FREE ENERGY PREDICTED BY IDOCK:   -0.32 KCAL/MOL
REMARK 927      BINDING AFFINITY PREDICTED BY RF-SCORE:    0.00 PKD
ROOT
HETATM    1  O   UNL     1      -8.972   4.950  67.160  1.00  0.00    -0.110 OA 
HETATM    2  N   UNL     1      -9.839   5.662  66.636  1.00  0.00    -0.156 N  
HETATM    3  C   UNL     1      -9.447   7.028  66.318  1.00  0.00    -0.072 A  
HETATM    4  O   UNL     1     -11.028   5.367  66.458  1.00  0.00    -0.239 OA 
HETATM    5  C   UNL     1      -8.402   7.290  65.420  1.00  0.00    -0.127 A  
HETATM    6  C   UNL     1      -8.038   8.626  65.210  1.00  0.00    -0.136 A  
HETATM    7  C   UNL     1     -10.294  10.483  67.693  1.00  0.00    -0.217 C  
HETATM    8  C   UNL     1      -8.661   9.658  65.926  1.00  0.00    -0.163 A  
HETATM    9  C   UNL     1     -10.083   8.053  67.035  1.00  0.00    -0.350 A  
HETATM   10  F   UNL     1     -11.630  10.604  67.481  1.00  0.00    -0.380 F  
HETATM   11  C   UNL     1      -9.673   9.381  66.859  1.00  0.00    -0.242 A  
HETATM   12  F   UNL     1      -9.757  11.710  67.458  1.00  0.00    -0.172 F  
HETATM   13  F   UNL     1     -10.140  10.254  69.026  1.00  0.00    -0.174 F  
ENDROOT
BRANCH   5  14
HETATM   14  C   UNL     1      -7.708   6.202  64.677  1.00  0.00    -0.101 C  
HETATM   15  O   UNL     1      -8.391   5.489  63.948  1.00  0.00    -0.130 OA 
BRANCH  14  16
HETATM   16  C   UNL     1      -6.210   6.019  64.821  1.00  0.00    -0.030 C  
HETATM   17  C   UNL     1      -5.525   3.640  66.492  1.00  0.00    -0.017 C  
HETATM   18  C   UNL     1      -6.044   4.917  67.139  1.00  0.00    -0.031 C  
HETATM   19  C   UNL     1      -5.747   6.109  66.256  1.00  0.00    -0.017 C  
HETATM   20  O   UNL     1      -5.244   7.136  66.706  1.00  0.00    -0.020 OA 
HETATM   21  C   UNL     1      -6.032   3.460  65.064  1.00  0.00    -0.022 C  
HETATM   22  C   UNL     1      -5.733   4.701  64.247  1.00  0.00    -0.014 C  
HETATM   23  O   UNL     1      -5.150   4.641  63.166  1.00  0.00    -0.008 OA 
ENDBRANCH  14  16
ENDBRANCH   5  14
TORSDOF 2
ENDMDL
MODEL      264
REMARK 921   NORMALIZED FREE ENERGY PREDICTED BY IDOCK:   -2.56 KCAL/MOL
REMARK 922        TOTAL FREE ENERGY PREDICTED BY IDOCK:   -3.23 KCAL/MOL
REMARK 923 INTER-LIGAND FREE ENERGY PREDICTED BY IDOCK:   -4.48 KCAL/MOL
REMARK 924 INTRA-LIGAND FREE ENERGY PREDICTED BY IDOCK:    1.25 KCAL/MOL
REMARK 927      BINDING AFFINITY PREDICTED BY RF-SCORE:    0.00 PKD
ROOT
HETATM    1  O   UNL     1      -7.779  14.287  68.680  1.00  0.00    -0.126 OA 
HETATM    2  N   UNL     1      -8.713  13.512  68.928  1.00  0.00     0.118 N  
HETATM    3  C   UNL     1     -10.048  14.094  68.941  1.00  0.00    -0.150 A  
HETATM    4  O   UNL     1      -8.617  12.327  69.271  1.00  0.00     0.492 OA 
HETATM    5  C   UNL     1     -10.586  14.697  67.796  1.00  0.00    -0.251 A  
HETATM    6  C   UNL     1     -11.850  15.291  67.899  1.00  0.00    -0.144 A  
HETATM    7  C   UNL     1     -12.636  14.882  71.630  1.00  0.00    -0.329 C  
HETATM    8  C   UNL     1     -12.521  15.333  69.130  1.00  0.00     0.026 A  
HETATM    9  C   UNL     1     -10.714  14.123  70.177  1.00  0.00     0.407 A  
HETATM   10  F   UNL     1     -12.940  13.669  72.160  1.00  0.00    -0.405 F  
HETATM   11  C   UNL     1     -11.952  14.770  70.283  1.00  0.00    -0.367 A  
HETATM   12  F   UNL     1     -13.799  15.585  71.592  1.00  0.00    -0.488 F  
HETATM   13  F   UNL     1     -11.847  15.507  72.546  1.00  0.00    -0.409 F  
ENDROOT
BRANCH   5  14
HETATM   14  C   UNL     1      -9.870  14.690  66.490  1.00  0.00    -0.275 C  
HETATM   15  O   UNL     1      -9.678  13.602  65.955  1.00  0.00    -0.277 OA 
BRANCH  14  16
HETATM   16  C   UNL     1      -9.426  15.996  65.859  1.00  0.00    -0.351 C  
HETATM   17  C   UNL     1      -9.471  18.256  67.811  1.00  0.00    -0.281 C  
HETATM   18  C   UNL     1     -10.767  17.712  67.226  1.00  0.00    -0.234 C  
HETATM   19  C   UNL     1     -10.504  17.053  65.890  1.00  0.00    -0.274 C  
HETATM   20  O   UNL     1     -11.196  17.295  64.903  1.00  0.00    -0.717 OA 
HETATM   21  C   UNL     1      -8.372  17.201  67.877  1.00  0.00    -0.207 C  
HETATM   22  C   UNL     1      -8.185  16.559  66.518  1.00  0.00    -0.300 C  
HETATM   23  O   UNL     1      -7.079  16.484  65.983  1.00  0.00     0.065 OA 
ENDBRANCH  14  16
ENDBRANCH   5  14
TORSDOF 2
ENDMDL
MODEL      265
REMARK 921   NORMALIZED FREE ENERGY PREDICTED BY IDOCK:   -2.53 KCAL/MOL
REMARK 922        TOTAL FREE ENERGY PREDICTED BY IDOCK:   -3.19 KCAL/MOL
REMARK 923 INTER-LIGAND FREE ENERGY PREDICTED BY IDOCK:   -4.56 KCAL/MOL
REMARK 924 INTRA-LIGAND FREE ENERGY PREDICTED BY IDOCK:    1.37 KCAL/MOL
REMARK 927      BINDING AFFINITY PREDICTED BY RF-SCORE:    0.00 PKD
ROOT
HETATM    1  O   UNL     1      -9.206  14.912  69.363  1.00  0.00    -0.146 OA 
HETATM    2  N   UNL     1      -8.169  14.693  68.724  1.00  0.00    -0.155 N  
HETATM    3  C   UNL     1      -8.187  13.534  67.842  1.00  0.00    -0.168 A  
HETATM    4  O   UNL     1      -7.091  15.289  68.840  1.00  0.00    -0.115 OA 
HETATM    5  C   UNL     1      -9.099  13.445  66.781  1.00  0.00    -0.221 A  
HETATM    6  C   UNL     1      -9.101  12.274  66.013  1.00  0.00    -0.016 A  
HETATM    7  C   UNL     1      -6.529  10.099  67.844  1.00  0.00    -0.062 C  
HETATM    8  C   UNL     1      -8.258  11.203  66.342  1.00  0.00    -0.164 A  
HETATM    9  C   UNL     1      -7.333  12.471  68.176  1.00  0.00    -0.110 A  
HETATM   10  F   UNL     1      -5.200  10.374  67.786  1.00  0.00    -0.038 F  
HETATM   11  C   UNL     1      -7.383  11.282  67.437  1.00  0.00    -0.115 A  
HETATM   12  F   UNL     1      -6.725   8.996  67.074  1.00  0.00    -0.065 F  
HETATM   13  F   UNL     1      -6.780   9.713  69.125  1.00  0.00    -0.047 F  
ENDROOT
BRANCH   5  14
HETATM   14  C   UNL     1     -10.024  14.562  66.440  1.00  0.00    -0.292 C  
HETATM   15  O   UNL     1      -9.534  15.570  65.939  1.00  0.00    -0.331 OA 
BRANCH  14  16
HETATM   16  C   UNL     1     -11.512  14.422  66.696  1.00  0.00    -0.372 C  
HETATM   17  C   UNL     1     -12.142  12.029  68.368  1.00  0.00    -0.090 C  
HETATM   18  C   UNL     1     -11.762  11.871  66.902  1.00  0.00    -0.291 C  
HETATM   19  C   UNL     1     -12.080  13.138  66.139  1.00  0.00    -0.417 C  
HETATM   20  O   UNL     1     -12.685  13.113  65.069  1.00  0.00    -0.621 OA 
HETATM   21  C   UNL     1     -11.524  13.272  69.001  1.00  0.00    -0.350 C  
HETATM   22  C   UNL     1     -11.852  14.495  68.169  1.00  0.00    -0.313 C  
HETATM   23  O   UNL     1     -12.352  15.503  68.667  1.00  0.00    -0.060 OA 
ENDBRANCH  14  16
ENDBRANCH   5  14
TORSDOF 2
ENDMDL
MODEL      266
REMARK 921   NORMALIZED FREE ENERGY PREDICTED BY IDOCK:   -2.52 KCAL/MOL
REMARK 922        TOTAL FREE ENERGY PREDICTED BY IDOCK:   -3.17 KCAL/MOL
REMARK 923 INTER-LIGAND FREE ENERGY PREDICTED BY IDOCK:   -2.50 KCAL/MOL
REMARK 924 INTRA-LIGAND FREE ENERGY PREDICTED BY IDOCK:   -0.67 KCAL/MOL
REMARK 927      BINDING AFFINITY PREDICTED BY RF-SCORE:    0.00 PKD
ROOT
HETATM    1  O   UNL     1     -10.698   4.743  68.064  1.00  0.00     0.202 OA 
HETATM    2  N   UNL     1     -10.645   5.327  66.974  1.00  0.00    -0.231 N  
HETATM    3  C   UNL     1      -9.796   6.508  66.915  1.00  0.00    -0.164 A  
HETATM    4  O   UNL     1     -11.320   5.074  65.968  1.00  0.00     0.109 OA 
HETATM    5  C   UNL     1      -8.419   6.424  67.165  1.00  0.00    -0.112 A  
HETATM    6  C   UNL     1      -7.676   7.611  67.153  1.00  0.00    -0.112 A  
HETATM    7  C   UNL     1     -10.393  10.265  66.628  1.00  0.00    -0.219 C  
HETATM    8  C   UNL     1      -8.308   8.848  66.959  1.00  0.00    -0.106 A  
HETATM    9  C   UNL     1     -10.438   7.741  66.712  1.00  0.00    -0.318 A  
HETATM   10  F   UNL     1     -11.020  10.408  65.431  1.00  0.00    -0.131 F  
HETATM   11  C   UNL     1      -9.695   8.927  66.758  1.00  0.00    -0.282 A  
HETATM   12  F   UNL     1      -9.556  11.329  66.751  1.00  0.00    -0.190 F  
HETATM   13  F   UNL     1     -11.352  10.428  67.579  1.00  0.00    -0.371 F  
ENDROOT
BRANCH   5  14
HETATM   14  C   UNL     1      -7.739   5.121  67.406  1.00  0.00    -0.092 C  
HETATM   15  O   UNL     1      -7.185   4.962  68.490  1.00  0.00    -0.060 OA 
BRANCH  14  16
HETATM   16  C   UNL     1      -7.766   4.042  66.341  1.00  0.00    -0.090 C  
HETATM   17  C   UNL     1      -5.185   3.877  64.846  1.00  0.00    -0.009 C  
HETATM   18  C   UNL     1      -6.163   5.015  64.580  1.00  0.00    -0.030 C  
HETATM   19  C   UNL     1      -7.568   4.594  64.948  1.00  0.00    -0.077 C  
HETATM   20  O   UNL     1      -8.517   4.782  64.190  1.00  0.00    -0.124 OA 
HETATM   21  C   UNL     1      -5.289   3.338  66.269  1.00  0.00    -0.013 C  
HETATM   22  C   UNL     1      -6.725   2.970  66.581  1.00  0.00    -0.041 C  
HETATM   23  O   UNL     1      -7.028   1.863  67.025  1.00  0.00    -0.038 OA 
ENDBRANCH  14  16
ENDBRANCH   5  14
TORSDOF 2
ENDMDL
MODEL      267
REMARK 921   NORMALIZED FREE ENERGY PREDICTED BY IDOCK:   -2.50 KCAL/MOL
REMARK 922        TOTAL FREE ENERGY PREDICTED BY IDOCK:   -3.16 KCAL/MOL
REMARK 923 INTER-LIGAND FREE ENERGY PREDICTED BY IDOCK:   -2.73 KCAL/MOL
REMARK 924 INTRA-LIGAND FREE ENERGY PREDICTED BY IDOCK:   -0.43 KCAL/MOL
REMARK 927      BINDING AFFINITY PREDICTED BY RF-SCORE:    0.00 PKD
ROOT
HETATM    1  O   UNL     1      -7.348  16.282  65.404  1.00  0.00     1.819 OA 
HETATM    2  N   UNL     1      -7.079  16.494  66.594  1.00  0.00    -0.215 N  
HETATM    3  C   UNL     1      -8.207  16.775  67.471  1.00  0.00    -0.173 A  
HETATM    4  O   UNL     1      -5.949  16.599  67.088  1.00  0.00    -0.144 OA 
HETATM    5  C   UNL     1      -9.229  15.834  67.661  1.00  0.00    -0.200 A  
HETATM    6  C   UNL     1     -10.314  16.197  68.469  1.00  0.00    -0.254 A  
HETATM    7  C   UNL     1      -9.519  19.855  69.298  1.00  0.00     0.030 C  
HETATM    8  C   UNL     1     -10.399  17.487  69.014  1.00  0.00    -0.303 A  
HETATM    9  C   UNL     1      -8.278  18.066  68.019  1.00  0.00    -0.261 A  
HETATM   10  F   UNL     1      -8.515  20.185  70.151  1.00  0.00     0.264 F  
HETATM   11  C   UNL     1      -9.394  18.438  68.778  1.00  0.00    -0.301 A  
HETATM   12  F   UNL     1     -10.680  20.089  69.966  1.00  0.00    -0.046 F  
HETATM   13  F   UNL     1      -9.475  20.769  68.290  1.00  0.00    -0.178 F  
ENDROOT
BRANCH   5  14
HETATM   14  C   UNL     1      -9.169  14.472  67.060  1.00  0.00    -0.240 C  
HETATM   15  O   UNL     1      -8.701  13.570  67.748  1.00  0.00    -0.165 OA 
BRANCH  14  16
HETATM   16  C   UNL     1      -9.693  14.236  65.657  1.00  0.00    -0.238 C  
HETATM   17  C   UNL     1     -12.622  13.651  65.637  1.00  0.00    -0.531 C  
HETATM   18  C   UNL     1     -11.625  12.596  66.095  1.00  0.00    -0.445 C  
HETATM   19  C   UNL     1     -10.269  12.852  65.475  1.00  0.00    -0.287 C  
HETATM   20  O   UNL     1      -9.626  11.954  64.937  1.00  0.00    -0.185 OA 
HETATM   21  C   UNL     1     -12.120  15.072  65.875  1.00  0.00     0.142 C  
HETATM   22  C   UNL     1     -10.747  15.248  65.259  1.00  0.00    -0.415 C  
HETATM   23  O   UNL     1     -10.495  16.174  64.489  1.00  0.00    -0.399 OA 
ENDBRANCH  14  16
ENDBRANCH   5  14
TORSDOF 2
ENDMDL
MODEL      268
REMARK 921   NORMALIZED FREE ENERGY PREDICTED BY IDOCK:   -2.46 KCAL/MOL
REMARK 922        TOTAL FREE ENERGY PREDICTED BY IDOCK:   -3.11 KCAL/MOL
REMARK 923 INTER-LIGAND FREE ENERGY PREDICTED BY IDOCK:   -2.70 KCAL/MOL
REMARK 924 INTRA-LIGAND FREE ENERGY PREDICTED BY IDOCK:   -0.41 KCAL/MOL
REMARK 927      BINDING AFFINITY PREDICTED BY RF-SCORE:    0.00 PKD
ROOT
HETATM    1  O   UNL     1      -8.680   8.719  66.120  1.00  0.00    -0.142 OA 
HETATM    2  N   UNL     1      -9.229   8.076  67.025  1.00  0.00    -0.141 N  
HETATM    3  C   UNL     1      -8.463   6.975  67.591  1.00  0.00    -0.123 A  
HETATM    4  O   UNL     1     -10.395   8.204  67.418  1.00  0.00    -0.234 OA 
HETATM    5  C   UNL     1      -7.231   7.199  68.223  1.00  0.00    -0.091 A  
HETATM    6  C   UNL     1      -6.520   6.086  68.689  1.00  0.00    -0.049 A  
HETATM    7  C   UNL     1      -8.696   3.169  67.480  1.00  0.00    -0.120 C  
HETATM    8  C   UNL     1      -7.001   4.787  68.468  1.00  0.00    -0.056 A  
HETATM    9  C   UNL     1      -8.958   5.680  67.372  1.00  0.00    -0.107 A  
HETATM   10  F   UNL     1      -9.896   2.896  68.055  1.00  0.00    -0.234 F  
HETATM   11  C   UNL     1      -8.211   4.571  67.790  1.00  0.00    -0.099 A  
HETATM   12  F   UNL     1      -7.843   2.195  67.893  1.00  0.00    -0.057 F  
HETATM   13  F   UNL     1      -8.865   2.979  66.143  1.00  0.00    -0.117 F  
ENDROOT
BRANCH   5  14
HETATM   14  C   UNL     1      -6.691   8.571  68.435  1.00  0.00    -0.064 C  
HETATM   15  O   UNL     1      -5.620   8.847  67.902  1.00  0.00    -0.035 OA 
BRANCH  14  16
HETATM   16  C   UNL     1      -7.469   9.574  69.266  1.00  0.00    -0.078 C  
HETATM   17  C   UNL     1      -5.714  11.738  70.343  1.00  0.00    -0.161 C  
HETATM   18  C   UNL     1      -5.685  10.342  70.951  1.00  0.00    -0.086 C  
HETATM   19  C   UNL     1      -6.996   9.632  70.699  1.00  0.00    -0.110 C  
HETATM   20  O   UNL     1      -7.598   9.049  71.599  1.00  0.00    -0.302 OA 
HETATM   21  C   UNL     1      -6.108  11.725  68.870  1.00  0.00    -0.054 C  
HETATM   22  C   UNL     1      -7.409  10.971  68.686  1.00  0.00    -0.104 C  
HETATM   23  O   UNL     1      -8.362  11.460  68.082  1.00  0.00    -0.135 OA 
ENDBRANCH  14  16
ENDBRANCH   5  14
TORSDOF 2
ENDMDL
MODEL      269
REMARK 921   NORMALIZED FREE ENERGY PREDICTED BY IDOCK:   -2.28 KCAL/MOL
REMARK 922        TOTAL FREE ENERGY PREDICTED BY IDOCK:   -2.90 KCAL/MOL
REMARK 923 INTER-LIGAND FREE ENERGY PREDICTED BY IDOCK:   -2.35 KCAL/MOL
REMARK 924 INTRA-LIGAND FREE ENERGY PREDICTED BY IDOCK:   -0.56 KCAL/MOL
REMARK 927      BINDING AFFINITY PREDICTED BY RF-SCORE:    0.00 PKD
ROOT
HETATM    1  O   UNL     1      -6.647   7.645  64.083  1.00  0.00    -0.051 OA 
HETATM    2  N   UNL     1      -6.552   7.337  65.279  1.00  0.00    -0.047 N  
HETATM    3  C   UNL     1      -7.804   7.135  65.994  1.00  0.00    -0.107 A  
HETATM    4  O   UNL     1      -5.512   7.292  65.949  1.00  0.00    -0.026 OA 
HETATM    5  C   UNL     1      -8.710   6.139  65.602  1.00  0.00    -0.133 A  
HETATM    6  C   UNL     1      -9.922   6.043  66.297  1.00  0.00    -0.085 A  
HETATM    7  C   UNL     1      -9.716   9.023  68.701  1.00  0.00    -0.160 C  
HETATM    8  C   UNL     1     -10.238   6.960  67.311  1.00  0.00    -0.284 A  
HETATM    9  C   UNL     1      -8.107   8.052  67.013  1.00  0.00    -0.116 A  
HETATM   10  F   UNL     1      -8.872   9.016  69.766  1.00  0.00    -0.129 F  
HETATM   11  C   UNL     1      -9.346   7.984  67.663  1.00  0.00    -0.162 A  
HETATM   12  F   UNL     1     -10.969   8.866  69.205  1.00  0.00    -0.219 F  
HETATM   13  F   UNL     1      -9.670  10.284  68.191  1.00  0.00    -0.141 F  
ENDROOT
BRANCH   5  14
HETATM   14  C   UNL     1      -8.401   5.180  64.505  1.00  0.00    -0.137 C  
HETATM   15  O   UNL     1      -8.893   5.402  63.402  1.00  0.00    -0.007 OA 
BRANCH  14  16
HETATM   16  C   UNL     1      -7.494   3.993  64.766  1.00  0.00    -0.073 C  
HETATM   17  C   UNL     1      -8.426   1.534  63.349  1.00  0.00    -0.065 C  
HETATM   18  C   UNL     1      -9.147   2.031  64.596  1.00  0.00    -0.125 C  
HETATM   19  C   UNL     1      -8.209   2.853  65.451  1.00  0.00    -0.091 C  
HETATM   20  O   UNL     1      -8.108   2.666  66.662  1.00  0.00    -0.079 OA 
HETATM   21  C   UNL     1      -7.754   2.664  62.575  1.00  0.00    -0.058 C  
HETATM   22  C   UNL     1      -6.858   3.465  63.498  1.00  0.00    -0.043 C  
HETATM   23  O   UNL     1      -5.680   3.690  63.223  1.00  0.00    -0.012 OA 
ENDBRANCH  14  16
ENDBRANCH   5  14
TORSDOF 2
ENDMDL
MODEL      270
REMARK 921   NORMALIZED FREE ENERGY PREDICTED BY IDOCK:   -2.23 KCAL/MOL
REMARK 922        TOTAL FREE ENERGY PREDICTED BY IDOCK:   -2.86 KCAL/MOL
REMARK 923 INTER-LIGAND FREE ENERGY PREDICTED BY IDOCK:   -2.50 KCAL/MOL
REMARK 924 INTRA-LIGAND FREE ENERGY PREDICTED BY IDOCK:   -0.36 KCAL/MOL
REMARK 927      BINDING AFFINITY PREDICTED BY RF-SCORE:    0.00 PKD
ROOT
HETATM    1  O   UNL     1     -11.910  11.812  65.860  1.00  0.00    -0.414 OA 
HETATM    2  N   UNL     1     -10.992  12.382  66.465  1.00  0.00    -0.261 N  
HETATM    3  C   UNL     1     -11.115  12.443  67.915  1.00  0.00    -0.239 A  
HETATM    4  O   UNL     1     -10.044  12.996  65.959  1.00  0.00    -0.275 OA 
HETATM    5  C   UNL     1     -11.170  11.274  68.687  1.00  0.00    -0.310 A  
HETATM    6  C   UNL     1     -11.351  11.409  70.069  1.00  0.00    -0.260 A  
HETATM    7  C   UNL     1     -11.810  15.195  70.463  1.00  0.00    -0.318 C  
HETATM    8  C   UNL     1     -11.537  12.674  70.646  1.00  0.00     0.455 A  
HETATM    9  C   UNL     1     -11.292  13.715  68.482  1.00  0.00    -0.325 A  
HETATM   10  F   UNL     1     -10.767  16.054  70.313  1.00  0.00    -0.281 F  
HETATM   11  C   UNL     1     -11.531  13.835  69.857  1.00  0.00    -0.230 A  
HETATM   12  F   UNL     1     -12.082  15.152  71.794  1.00  0.00    -0.323 F  
HETATM   13  F   UNL     1     -12.882  15.797  69.879  1.00  0.00    -0.320 F  
ENDROOT
BRANCH   5  14
HETATM   14  C   UNL     1     -11.007   9.922  68.084  1.00  0.00    -0.207 C  
HETATM   15  O   UNL     1     -12.008   9.385  67.619  1.00  0.00     1.749 OA 
BRANCH  14  16
HETATM   16  C   UNL     1      -9.640   9.267  68.043  1.00  0.00    -0.161 C  
HETATM   17  C   UNL     1      -8.885   8.418  65.281  1.00  0.00    -0.113 C  
HETATM   18  C   UNL     1      -9.911   7.627  66.082  1.00  0.00     0.044 C  
HETATM   19  C   UNL     1      -9.694   7.836  67.564  1.00  0.00    -0.158 C  
HETATM   20  O   UNL     1      -9.661   6.893  68.351  1.00  0.00    -0.136 OA 
HETATM   21  C   UNL     1      -8.849   9.892  65.673  1.00  0.00    -0.184 C  
HETATM   22  C   UNL     1      -8.664  10.027  67.170  1.00  0.00    -0.128 C  
HETATM   23  O   UNL     1      -7.779  10.732  67.653  1.00  0.00    -0.102 OA 
ENDBRANCH  14  16
ENDBRANCH   5  14
TORSDOF 2
ENDMDL
MODEL      271
REMARK 921   NORMALIZED FREE ENERGY PREDICTED BY IDOCK:   -1.74 KCAL/MOL
REMARK 922        TOTAL FREE ENERGY PREDICTED BY IDOCK:   -2.31 KCAL/MOL
REMARK 923 INTER-LIGAND FREE ENERGY PREDICTED BY IDOCK:   -3.51 KCAL/MOL
REMARK 924 INTRA-LIGAND FREE ENERGY PREDICTED BY IDOCK:    1.20 KCAL/MOL
REMARK 927      BINDING AFFINITY PREDICTED BY RF-SCORE:    0.00 PKD
ROOT
HETATM    1  O   UNL     1      -6.271   8.191  69.464  1.00  0.00    -0.033 OA 
HETATM    2  N   UNL     1      -6.790   9.037  70.205  1.00  0.00    -0.044 N  
HETATM    3  C   UNL     1      -8.240   8.985  70.328  1.00  0.00    -0.143 A  
HETATM    4  O   UNL     1      -6.216   9.983  70.760  1.00  0.00    -0.094 OA 
HETATM    5  C   UNL     1      -8.883   7.848  70.839  1.00  0.00    -0.141 A  
HETATM    6  C   UNL     1     -10.283   7.845  70.870  1.00  0.00    -0.213 A  
HETATM    7  C   UNL     1     -11.141  11.162  69.149  1.00  0.00    -0.248 C  
HETATM    8  C   UNL     1     -11.012   8.922  70.344  1.00  0.00    -0.275 A  
HETATM    9  C   UNL     1      -8.959  10.072  69.806  1.00  0.00    -0.209 A  
HETATM   10  F   UNL     1     -10.930  12.354  69.765  1.00  0.00    -0.150 F  
HETATM   11  C   UNL     1     -10.360  10.033  69.789  1.00  0.00    -0.290 A  
HETATM   12  F   UNL     1     -12.486  10.962  69.153  1.00  0.00    -0.384 F  
HETATM   13  F   UNL     1     -10.791  11.343  67.846  1.00  0.00    -0.207 F  
ENDROOT
BRANCH   5  14
HETATM   14  C   UNL     1      -8.122   6.683  71.370  1.00  0.00    -0.111 C  
HETATM   15  O   UNL     1      -6.897   6.753  71.356  1.00  0.00    -0.060 OA 
BRANCH  14  16
HETATM   16  C   UNL     1      -8.862   5.479  71.920  1.00  0.00    -0.139 C  
HETATM   17  C   UNL     1      -7.522   4.347  74.338  1.00  0.00    -0.077 C  
HETATM   18  C   UNL     1      -6.939   4.117  72.949  1.00  0.00    -0.061 C  
HETATM   19  C   UNL     1      -8.024   4.223  71.901  1.00  0.00    -0.088 C  
HETATM   20  O   UNL     1      -8.154   3.376  71.019  1.00  0.00    -0.060 OA 
HETATM   21  C   UNL     1      -8.312   5.649  74.431  1.00  0.00    -0.105 C  
HETATM   22  C   UNL     1      -9.355   5.703  73.334  1.00  0.00    -0.134 C  
HETATM   23  O   UNL     1     -10.539   5.935  73.576  1.00  0.00    -0.239 OA 
ENDBRANCH  14  16
ENDBRANCH   5  14
TORSDOF 2
ENDMDL
MODEL      272
REMARK 921   NORMALIZED FREE ENERGY PREDICTED BY IDOCK:   -1.16 KCAL/MOL
REMARK 922        TOTAL FREE ENERGY PREDICTED BY IDOCK:   -1.65 KCAL/MOL
REMARK 923 INTER-LIGAND FREE ENERGY PREDICTED BY IDOCK:   -2.20 KCAL/MOL
REMARK 924 INTRA-LIGAND FREE ENERGY PREDICTED BY IDOCK:    0.55 KCAL/MOL
REMARK 927      BINDING AFFINITY PREDICTED BY RF-SCORE:    0.00 PKD
ROOT
HETATM    1  O   UNL     1     -11.153   9.472  67.740  1.00  0.00    -0.186 OA 
HETATM    2  N   UNL     1     -10.540  10.000  68.678  1.00  0.00    -0.203 N  
HETATM    3  C   UNL     1      -9.297   9.356  69.080  1.00  0.00    -0.153 A  
HETATM    4  O   UNL     1     -10.929  10.947  69.373  1.00  0.00    -0.222 OA 
HETATM    5  C   UNL     1      -8.225   9.228  68.185  1.00  0.00    -0.119 A  
HETATM    6  C   UNL     1      -7.085   8.543  68.622  1.00  0.00    -0.072 A  
HETATM    7  C   UNL     1      -8.145   7.336  72.103  1.00  0.00    -0.094 C  
HETATM    8  C   UNL     1      -7.049   7.950  69.892  1.00  0.00    -0.061 A  
HETATM    9  C   UNL     1      -9.270   8.774  70.357  1.00  0.00    -0.204 A  
HETATM   10  F   UNL     1      -8.269   8.200  73.144  1.00  0.00    -0.185 F  
HETATM   11  C   UNL     1      -8.147   8.041  70.762  1.00  0.00    -0.101 A  
HETATM   12  F   UNL     1      -7.015   6.616  72.337  1.00  0.00    -0.065 F  
HETATM   13  F   UNL     1      -9.180   6.459  72.213  1.00  0.00    -0.141 F  
ENDROOT
BRANCH   5  14
HETATM   14  C   UNL     1      -8.261   9.824  66.820  1.00  0.00    -0.120 C  
HETATM   15  O   UNL     1      -8.672  10.976  66.716  1.00  0.00    -0.144 OA 
BRANCH  14  16
HETATM   16  C   UNL     1      -7.783   9.019  65.627  1.00  0.00    -0.091 C  
HETATM   17  C   UNL     1      -5.679  10.460  64.072  1.00  0.00    -0.133 C  
HETATM   18  C   UNL     1      -7.140  10.880  63.973  1.00  0.00     0.599 C  
HETATM   19  C   UNL     1      -8.044   9.716  64.313  1.00  0.00    -0.146 C  
HETATM   20  O   UNL     1      -9.002   9.415  63.604  1.00  0.00    -0.218 OA 
HETATM   21  C   UNL     1      -5.345   9.823  65.417  1.00  0.00    -0.050 C  
HETATM   22  C   UNL     1      -6.308   8.690  65.709  1.00  0.00    -0.056 C  
HETATM   23  O   UNL     1      -5.913   7.566  66.014  1.00  0.00    -0.036 OA 
ENDBRANCH  14  16
ENDBRANCH   5  14
TORSDOF 2
ENDMDL
MODEL      273
REMARK 921   NORMALIZED FREE ENERGY PREDICTED BY IDOCK:   -1.05 KCAL/MOL
REMARK 922        TOTAL FREE ENERGY PREDICTED BY IDOCK:   -1.54 KCAL/MOL
REMARK 923 INTER-LIGAND FREE ENERGY PREDICTED BY IDOCK:   -2.65 KCAL/MOL
REMARK 924 INTRA-LIGAND FREE ENERGY PREDICTED BY IDOCK:    1.11 KCAL/MOL
REMARK 927      BINDING AFFINITY PREDICTED BY RF-SCORE:    0.00 PKD
ROOT
HETATM    1  O   UNL     1      -5.726  13.288  68.023  1.00  0.00    -0.095 OA 
HETATM    2  N   UNL     1      -6.788  13.334  68.658  1.00  0.00    -0.093 N  
HETATM    3  C   UNL     1      -8.006  13.474  67.871  1.00  0.00    -0.162 A  
HETATM    4  O   UNL     1      -6.910  13.384  69.888  1.00  0.00     0.086 OA 
HETATM    5  C   UNL     1      -8.376  12.501  66.931  1.00  0.00    -0.097 A  
HETATM    6  C   UNL     1      -9.526  12.733  66.166  1.00  0.00    -0.169 A  
HETATM    7  C   UNL     1     -10.559  16.248  67.296  1.00  0.00    -0.298 C  
HETATM    8  C   UNL     1     -10.243  13.931  66.298  1.00  0.00    -0.299 A  
HETATM    9  C   UNL     1      -8.720  14.673  68.017  1.00  0.00    -0.167 A  
HETATM   10  F   UNL     1     -11.090  16.468  68.527  1.00  0.00    -0.313 F  
HETATM   11  C   UNL     1      -9.836  14.920  67.207  1.00  0.00    -0.229 A  
HETATM   12  F   UNL     1     -11.584  16.369  66.411  1.00  0.00     0.273 F  
HETATM   13  F   UNL     1      -9.725  17.294  67.051  1.00  0.00    -0.242 F  
ENDROOT
BRANCH   5  14
HETATM   14  C   UNL     1      -7.605  11.239  66.757  1.00  0.00    -0.151 C  
HETATM   15  O   UNL     1      -6.730  11.223  65.895  1.00  0.00     0.032 OA 
BRANCH  14  16
HETATM   16  C   UNL     1      -7.900  10.041  67.639  1.00  0.00    -0.095 C  
HETATM   17  C   UNL     1      -5.769   9.605  69.686  1.00  0.00    -0.033 C  
HETATM   18  C   UNL     1      -5.529   9.237  68.228  1.00  0.00    -0.037 C  
HETATM   19  C   UNL     1      -6.844   8.966  67.532  1.00  0.00    -0.071 C  
HETATM   20  O   UNL     1      -7.011   7.967  66.835  1.00  0.00    -0.071 OA 
HETATM   21  C   UNL     1      -6.770  10.745  69.844  1.00  0.00    -0.156 C  
HETATM   22  C   UNL     1      -8.048  10.422  69.096  1.00  0.00    -0.151 C  
HETATM   23  O   UNL     1      -9.150  10.484  69.639  1.00  0.00    -0.111 OA 
ENDBRANCH  14  16
ENDBRANCH   5  14
TORSDOF 2
ENDMDL
MODEL      274
REMARK 921   NORMALIZED FREE ENERGY PREDICTED BY IDOCK:   -0.46 KCAL/MOL
REMARK 922        TOTAL FREE ENERGY PREDICTED BY IDOCK:   -0.88 KCAL/MOL
REMARK 923 INTER-LIGAND FREE ENERGY PREDICTED BY IDOCK:   -0.53 KCAL/MOL
REMARK 924 INTRA-LIGAND FREE ENERGY PREDICTED BY IDOCK:   -0.34 KCAL/MOL
REMARK 927      BINDING AFFINITY PREDICTED BY RF-SCORE:    0.00 PKD
ROOT
HETATM    1  O   UNL     1     -10.481  19.166  68.668  1.00  0.00    -0.288 OA 
HETATM    2  N   UNL     1     -10.461  18.856  69.866  1.00  0.00     0.865 N  
HETATM    3  C   UNL     1     -10.593  17.438  70.169  1.00  0.00     0.715 A  
HETATM    4  O   UNL     1     -10.451  19.634  70.829  1.00  0.00     1.028 OA 
HETATM    5  C   UNL     1      -9.651  16.508  69.705  1.00  0.00     0.325 A  
HETATM    6  C   UNL     1      -9.876  15.154  69.982  1.00  0.00     0.003 A  
HETATM    7  C   UNL     1     -13.298  15.234  71.709  1.00  0.00    -0.448 C  
HETATM    8  C   UNL     1     -11.041  14.743  70.646  1.00  0.00    -0.103 A  
HETATM    9  C   UNL     1     -11.759  17.039  70.842  1.00  0.00     1.364 A  
HETATM   10  F   UNL     1     -13.444  15.722  72.968  1.00  0.00    -0.512 F  
HETATM   11  C   UNL     1     -12.002  15.677  71.063  1.00  0.00    -0.445 A  
HETATM   12  F   UNL     1     -13.423  13.883  71.805  1.00  0.00    -0.379 F  
HETATM   13  F   UNL     1     -14.384  15.662  71.008  1.00  0.00    -0.481 F  
ENDROOT
BRANCH   5  14
HETATM   14  C   UNL     1      -8.426  16.926  68.970  1.00  0.00    -0.142 C  
HETATM   15  O   UNL     1      -7.615  17.625  69.571  1.00  0.00     0.079 OA 
BRANCH  14  16
HETATM   16  C   UNL     1      -8.206  16.473  67.539  1.00  0.00    -0.170 C  
HETATM   17  C   UNL     1      -6.163  18.139  66.136  1.00  0.00    -0.250 C  
HETATM   18  C   UNL     1      -7.563  18.683  66.391  1.00  0.00    -0.284 C  
HETATM   19  C   UNL     1      -8.549  17.544  66.531  1.00  0.00    -0.263 C  
HETATM   20  O   UNL     1      -9.620  17.541  65.927  1.00  0.00    -0.514 OA 
HETATM   21  C   UNL     1      -5.737  17.111  67.178  1.00  0.00    -0.187 C  
HETATM   22  C   UNL     1      -6.783  16.021  67.291  1.00  0.00    -0.197 C  
HETATM   23  O   UNL     1      -6.491  14.829  67.202  1.00  0.00    -0.250 OA 
ENDBRANCH  14  16
ENDBRANCH   5  14
TORSDOF 2
ENDMDL
MODEL      275
REMARK 921   NORMALIZED FREE ENERGY PREDICTED BY IDOCK:   -0.00 KCAL/MOL
REMARK 922        TOTAL FREE ENERGY PREDICTED BY IDOCK:   -0.37 KCAL/MOL
REMARK 923 INTER-LIGAND FREE ENERGY PREDICTED BY IDOCK:   -0.17 KCAL/MOL
REMARK 924 INTRA-LIGAND FREE ENERGY PREDICTED BY IDOCK:   -0.20 KCAL/MOL
REMARK 927      BINDING AFFINITY PREDICTED BY RF-SCORE:    0.00 PKD
ROOT
HETATM    1  O   UNL     1     -10.436   9.982  67.454  1.00  0.00    -0.225 OA 
HETATM    2  N   UNL     1     -10.552  10.043  68.685  1.00  0.00    -0.203 N  
HETATM    3  C   UNL     1      -9.332  10.303  69.437  1.00  0.00    -0.199 A  
HETATM    4  O   UNL     1     -11.571   9.798  69.343  1.00  0.00    -0.048 OA 
HETATM    5  C   UNL     1      -8.601  11.484  69.246  1.00  0.00     0.390 A  
HETATM    6  C   UNL     1      -7.405  11.638  69.958  1.00  0.00     0.951 A  
HETATM    7  C   UNL     1      -7.093   8.268  71.759  1.00  0.00    -0.085 C  
HETATM    8  C   UNL     1      -6.928  10.610  70.784  1.00  0.00     0.760 A  
HETATM    9  C   UNL     1      -8.868   9.271  70.268  1.00  0.00    -0.254 A  
HETATM   10  F   UNL     1      -7.904   7.943  72.799  1.00  0.00    -0.102 F  
HETATM   11  C   UNL     1      -7.642   9.411  70.931  1.00  0.00    -0.097 A  
HETATM   12  F   UNL     1      -5.869   8.523  72.294  1.00  0.00    -0.042 F  
HETATM   13  F   UNL     1      -6.951   7.133  71.021  1.00  0.00    -0.056 F  
ENDROOT
BRANCH   5  14
HETATM   14  C   UNL     1      -9.079  12.570  68.346  1.00  0.00    -0.135 C  
HETATM   15  O   UNL     1     -10.039  13.236  68.721  1.00  0.00    -0.186 OA 
BRANCH  14  16
HETATM   16  C   UNL     1      -8.372  12.833  67.030  1.00  0.00    -0.123 C  
HETATM   17  C   UNL     1      -6.749  15.339  67.108  1.00  0.00     0.090 C  
HETATM   18  C   UNL     1      -8.268  15.402  67.002  1.00  0.00    -0.270 C  
HETATM   19  C   UNL     1      -8.803  14.129  66.386  1.00  0.00     0.064 C  
HETATM   20  O   UNL     1      -9.623  14.151  65.471  1.00  0.00    -0.180 OA 
HETATM   21  C   UNL     1      -6.265  14.083  67.826  1.00  0.00    -0.152 C  
HETATM   22  C   UNL     1      -6.866  12.852  67.180  1.00  0.00     0.077 C  
HETATM   23  O   UNL     1      -6.168  11.907  66.811  1.00  0.00    -0.141 OA 
ENDBRANCH  14  16
ENDBRANCH   5  14
TORSDOF 2
ENDMDL
MODEL      276
REMARK 921   NORMALIZED FREE ENERGY PREDICTED BY IDOCK:    0.08 KCAL/MOL
REMARK 922        TOTAL FREE ENERGY PREDICTED BY IDOCK:   -0.27 KCAL/MOL
REMARK 923 INTER-LIGAND FREE ENERGY PREDICTED BY IDOCK:   -1.80 KCAL/MOL
REMARK 924 INTRA-LIGAND FREE ENERGY PREDICTED BY IDOCK:    1.53 KCAL/MOL
REMARK 927      BINDING AFFINITY PREDICTED BY RF-SCORE:    0.00 PKD
ROOT
HETATM    1  O   UNL     1      -9.141  15.431  67.445  1.00  0.00    -0.190 OA 
HETATM    2  N   UNL     1      -8.905  15.393  68.660  1.00  0.00    -0.176 N  
HETATM    3  C   UNL     1      -9.753  14.516  69.455  1.00  0.00     0.211 A  
HETATM    4  O   UNL     1      -8.100  16.101  69.278  1.00  0.00    -0.236 OA 
HETATM    5  C   UNL     1      -9.794  13.135  69.215  1.00  0.00     0.597 A  
HETATM    6  C   UNL     1     -10.679  12.362  69.977  1.00  0.00     1.043 A  
HETATM    7  C   UNL     1     -12.508  15.025  72.043  1.00  0.00    -0.336 C  
HETATM    8  C   UNL     1     -11.540  12.968  70.904  1.00  0.00     0.784 A  
HETATM    9  C   UNL     1     -10.604  15.132  70.386  1.00  0.00    -0.166 A  
HETATM   10  F   UNL     1     -11.889  15.681  73.059  1.00  0.00    -0.478 F  
HETATM   11  C   UNL     1     -11.526  14.357  71.102  1.00  0.00     0.008 A  
HETATM   12  F   UNL     1     -13.380  14.158  72.623  1.00  0.00    -0.462 F  
HETATM   13  F   UNL     1     -13.270  15.953  71.402  1.00  0.00    -0.521 F  
ENDROOT
BRANCH   5  14
HETATM   14  C   UNL     1      -8.909  12.482  68.210  1.00  0.00    -0.171 C  
HETATM   15  O   UNL     1      -7.726  12.809  68.200  1.00  0.00    -0.116 OA 
BRANCH  14  16
HETATM   16  C   UNL     1      -9.474  11.443  67.261  1.00  0.00    -0.176 C  
HETATM   17  C   UNL     1     -11.938  12.409  65.877  1.00  0.00    -0.434 C  
HETATM   18  C   UNL     1     -11.987  11.984  67.339  1.00  0.00    -0.125 C  
HETATM   19  C   UNL     1     -10.871  11.008  67.639  1.00  0.00    -0.256 C  
HETATM   20  O   UNL     1     -11.076   9.960  68.246  1.00  0.00    -0.230 OA 
HETATM   21  C   UNL     1     -10.566  12.934  65.467  1.00  0.00    -0.298 C  
HETATM   22  C   UNL     1      -9.495  11.925  65.827  1.00  0.00    -0.196 C  
HETATM   23  O   UNL     1      -8.673  11.530  65.000  1.00  0.00     0.121 OA 
ENDBRANCH  14  16
ENDBRANCH   5  14
TORSDOF 2
ENDMDL
MODEL      277
REMARK 921   NORMALIZED FREE ENERGY PREDICTED BY IDOCK:    8.40 KCAL/MOL
REMARK 922        TOTAL FREE ENERGY PREDICTED BY IDOCK:    9.02 KCAL/MOL
REMARK 923 INTER-LIGAND FREE ENERGY PREDICTED BY IDOCK:    7.79 KCAL/MOL
REMARK 924 INTRA-LIGAND FREE ENERGY PREDICTED BY IDOCK:    1.22 KCAL/MOL
REMARK 927      BINDING AFFINITY PREDICTED BY RF-SCORE:    0.00 PKD
ROOT
HETATM    1  O   UNL     1      -9.004  14.564  67.857  1.00  0.00    -0.176 OA 
HETATM    2  N   UNL     1      -9.306  13.594  67.150  1.00  0.00    -0.231 N  
HETATM    3  C   UNL     1      -8.843  12.292  67.609  1.00  0.00    -0.175 A  
HETATM    4  O   UNL     1      -9.863  13.631  66.045  1.00  0.00    -0.295 OA 
HETATM    5  C   UNL     1      -9.250  11.773  68.846  1.00  0.00     0.089 A  
HETATM    6  C   UNL     1      -8.716  10.543  69.250  1.00  0.00    -0.135 A  
HETATM    7  C   UNL     1      -6.224   9.778  66.438  1.00  0.00    -0.068 C  
HETATM    8  C   UNL     1      -7.755   9.889  68.465  1.00  0.00    -0.081 A  
HETATM    9  C   UNL     1      -7.889  11.641  66.811  1.00  0.00    -0.130 A  
HETATM   10  F   UNL     1      -6.645   9.416  65.199  1.00  0.00    -0.072 F  
HETATM   11  C   UNL     1      -7.318  10.441  67.251  1.00  0.00    -0.090 A  
HETATM   12  F   UNL     1      -5.723   8.654  67.016  1.00  0.00    -0.038 F  
HETATM   13  F   UNL     1      -5.162  10.609  66.250  1.00  0.00    -0.042 F  
ENDROOT
BRANCH   5  14
HETATM   14  C   UNL     1     -10.244  12.474  69.707  1.00  0.00     1.382 C  
HETATM   15  O   UNL     1      -9.818  13.304  70.504  1.00  0.00     3.508 OA 
BRANCH  14  16
HETATM   16  C   UNL     1     -11.722  12.165  69.565  1.00  0.00    -0.402 C  
HETATM   17  C   UNL     1     -12.348  10.842  66.961  1.00  0.00     3.273 C  
HETATM   18  C   UNL     1     -12.044  12.333  67.019  1.00  0.00    -0.019 C  
HETATM   19  C   UNL     1     -12.357  12.879  68.395  1.00  0.00     0.257 C  
HETATM   20  O   UNL     1     -13.012  13.907  68.548  1.00  0.00     0.983 OA 
HETATM   21  C   UNL     1     -11.662  10.062  68.078  1.00  0.00     0.696 C  
HETATM   22  C   UNL     1     -11.989  10.682  69.422  1.00  0.00    -0.226 C  
HETATM   23  O   UNL     1     -12.432  10.012  70.354  1.00  0.00    -0.216 OA 
ENDBRANCH  14  16
ENDBRANCH   5  14
TORSDOF 2
ENDMDL
MODEL      278
REMARK 921   NORMALIZED FREE ENERGY PREDICTED BY IDOCK:   12.16 KCAL/MOL
REMARK 922        TOTAL FREE ENERGY PREDICTED BY IDOCK:   13.22 KCAL/MOL
REMARK 923 INTER-LIGAND FREE ENERGY PREDICTED BY IDOCK:   10.33 KCAL/MOL
REMARK 924 INTRA-LIGAND FREE ENERGY PREDICTED BY IDOCK:    2.89 KCAL/MOL
REMARK 927      BINDING AFFINITY PREDICTED BY RF-SCORE:    0.00 PKD
ROOT
HETATM    1  O   UNL     1      -7.865  15.504  67.663  1.00  0.00    -0.133 OA 
HETATM    2  N   UNL     1      -8.874  15.723  68.346  1.00  0.00    -0.180 N  
HETATM    3  C   UNL     1      -9.787  16.738  67.842  1.00  0.00    -0.257 A  
HETATM    4  O   UNL     1      -9.128  15.248  69.461  1.00  0.00    -0.241 OA 
HETATM    5  C   UNL     1     -10.415  16.594  66.596  1.00  0.00    -0.258 A  
HETATM    6  C   UNL     1     -11.231  17.639  66.147  1.00  0.00     0.818 A  
HETATM    7  C   UNL     1     -10.759  20.274  68.893  1.00  0.00     0.519 C  
HETATM    8  C   UNL     1     -11.360  18.818  66.896  1.00  0.00     0.610 A  
HETATM    9  C   UNL     1      -9.915  17.911  68.604  1.00  0.00    -0.387 A  
HETATM   10  F   UNL     1     -11.301  20.113  70.128  1.00  0.00     1.356 F  
HETATM   11  C   UNL     1     -10.688  18.974  68.119  1.00  0.00    -0.202 A  
HETATM   12  F   UNL     1     -11.496  21.235  68.274  1.00  0.00     1.839 F  
HETATM   13  F   UNL     1      -9.525  20.813  69.088  1.00  0.00     0.449 F  
ENDROOT
BRANCH   5  14
HETATM   14  C   UNL     1     -10.261  15.361  65.774  1.00  0.00    -0.354 C  
HETATM   15  O   UNL     1      -9.272  14.663  65.978  1.00  0.00    -0.234 OA 
BRANCH  14  16
HETATM   16  C   UNL     1     -11.314  14.999  64.744  1.00  0.00    -0.409 C  
HETATM   17  C   UNL     1     -13.751  13.814  66.001  1.00  0.00     2.671 C  
HETATM   18  C   UNL     1     -12.472  12.998  65.872  1.00  0.00    -0.323 C  
HETATM   19  C   UNL     1     -11.629  13.522  64.730  1.00  0.00    -0.349 C  
HETATM   20  O   UNL     1     -11.145  12.769  63.887  1.00  0.00    -0.383 OA 
HETATM   21  C   UNL     1     -13.481  15.312  66.102  1.00  0.00     3.147 C  
HETATM   22  C   UNL     1     -12.605  15.761  64.949  1.00  0.00     0.900 C  
HETATM   23  O   UNL     1     -12.919  16.707  64.227  1.00  0.00     1.735 OA 
ENDBRANCH  14  16
ENDBRANCH   5  14
TORSDOF 2
ENDMDL
MODEL      279
REMARK 921   NORMALIZED FREE ENERGY PREDICTED BY IDOCK:   12.59 KCAL/MOL
REMARK 922        TOTAL FREE ENERGY PREDICTED BY IDOCK:   13.69 KCAL/MOL
REMARK 923 INTER-LIGAND FREE ENERGY PREDICTED BY IDOCK:   12.30 KCAL/MOL
REMARK 924 INTRA-LIGAND FREE ENERGY PREDICTED BY IDOCK:    1.39 KCAL/MOL
REMARK 927      BINDING AFFINITY PREDICTED BY RF-SCORE:    0.00 PKD
ROOT
HETATM    1  O   UNL     1      -6.895  16.409  67.540  1.00  0.00    -0.125 OA 
HETATM    2  N   UNL     1      -7.592  17.343  67.956  1.00  0.00    -0.200 N  
HETATM    3  C   UNL     1      -8.925  17.459  67.383  1.00  0.00    -0.231 A  
HETATM    4  O   UNL     1      -7.234  18.247  68.722  1.00  0.00    -0.269 OA 
HETATM    5  C   UNL     1      -9.866  16.428  67.524  1.00  0.00    -0.239 A  
HETATM    6  C   UNL     1     -11.107  16.582  66.893  1.00  0.00     0.149 A  
HETATM    7  C   UNL     1     -10.651  19.881  64.995  1.00  0.00     0.689 C  
HETATM    8  C   UNL     1     -11.369  17.704  66.094  1.00  0.00     1.161 A  
HETATM    9  C   UNL     1      -9.180  18.591  66.592  1.00  0.00    -0.306 A  
HETATM   10  F   UNL     1     -10.609  21.072  65.646  1.00  0.00     0.312 F  
HETATM   11  C   UNL     1     -10.403  18.707  65.919  1.00  0.00    -0.358 A  
HETATM   12  F   UNL     1     -11.854  19.832  64.365  1.00  0.00     1.424 F  
HETATM   13  F   UNL     1      -9.714  19.955  64.010  1.00  0.00     3.929 F  
ENDROOT
BRANCH   5  14
HETATM   14  C   UNL     1      -9.590  15.215  68.342  1.00  0.00    -0.212 C  
HETATM   15  O   UNL     1      -9.517  15.356  69.559  1.00  0.00    -0.256 OA 
BRANCH  14  16
HETATM   16  C   UNL     1      -9.429  13.865  67.669  1.00  0.00    -0.212 C  
HETATM   17  C   UNL     1      -8.808  14.129  64.759  1.00  0.00     3.808 C  
HETATM   18  C   UNL     1     -10.218  14.383  65.277  1.00  0.00    -0.416 C  
HETATM   19  C   UNL     1     -10.443  13.637  66.573  1.00  0.00    -0.281 C  
HETATM   20  O   UNL     1     -11.450  12.957  66.760  1.00  0.00    -0.305 OA 
HETATM   21  C   UNL     1      -7.740  14.424  65.807  1.00  0.00     4.440 C  
HETATM   22  C   UNL     1      -8.045  13.673  67.087  1.00  0.00    -0.077 C  
HETATM   23  O   UNL     1      -7.207  12.959  67.635  1.00  0.00    -0.118 OA 
ENDBRANCH  14  16
ENDBRANCH   5  14
TORSDOF 2
ENDMDL
MODEL      280
REMARK 921   NORMALIZED FREE ENERGY PREDICTED BY IDOCK:   13.62 KCAL/MOL
REMARK 922        TOTAL FREE ENERGY PREDICTED BY IDOCK:   14.85 KCAL/MOL
REMARK 923 INTER-LIGAND FREE ENERGY PREDICTED BY IDOCK:   13.65 KCAL/MOL
REMARK 924 INTRA-LIGAND FREE ENERGY PREDICTED BY IDOCK:    1.19 KCAL/MOL
REMARK 927      BINDING AFFINITY PREDICTED BY RF-SCORE:    0.00 PKD
ROOT
HETATM    1  O   UNL     1      -9.356  14.984  68.410  1.00  0.00    -0.182 OA 
HETATM    2  N   UNL     1      -9.540  15.030  69.634  1.00  0.00    -0.101 N  
HETATM    3  C   UNL     1     -10.114  13.839  70.245  1.00  0.00     2.121 A  
HETATM    4  O   UNL     1      -9.390  16.016  70.366  1.00  0.00     0.703 OA 
HETATM    5  C   UNL     1      -9.451  12.604  70.188  1.00  0.00     3.909 A  
HETATM    6  C   UNL     1     -10.092  11.490  70.743  1.00  0.00     4.234 A  
HETATM    7  C   UNL     1     -13.482  12.941  71.793  1.00  0.00    -0.280 C  
HETATM    8  C   UNL     1     -11.383  11.601  71.280  1.00  0.00     2.082 A  
HETATM    9  C   UNL     1     -11.403  13.964  70.787  1.00  0.00     0.390 A  
HETATM   10  F   UNL     1     -13.593  13.784  72.852  1.00  0.00    -0.587 F  
HETATM   11  C   UNL     1     -12.058  12.831  71.288  1.00  0.00     0.257 A  
HETATM   12  F   UNL     1     -14.010  11.753  72.193  1.00  0.00    -0.252 F  
HETATM   13  F   UNL     1     -14.321  13.423  70.836  1.00  0.00     0.568 F  
ENDROOT
BRANCH   5  14
HETATM   14  C   UNL     1      -8.094  12.464  69.591  1.00  0.00     1.506 C  
HETATM   15  O   UNL     1      -7.232  13.262  69.950  1.00  0.00     0.415 OA 
BRANCH  14  16
HETATM   16  C   UNL     1      -7.812  11.356  68.595  1.00  0.00    -0.139 C  
HETATM   17  C   UNL     1      -9.774  11.347  66.343  1.00  0.00    -0.231 C  
HETATM   18  C   UNL     1     -10.174  10.835  67.721  1.00  0.00    -0.212 C  
HETATM   19  C   UNL     1      -8.952  10.372  68.482  1.00  0.00    -0.139 C  
HETATM   20  O   UNL     1      -8.926   9.288  69.062  1.00  0.00    -0.135 OA 
HETATM   21  C   UNL     1      -8.679  12.407  66.408  1.00  0.00     0.013 C  
HETATM   22  C   UNL     1      -7.504  11.890  67.213  1.00  0.00    -0.151 C  
HETATM   23  O   UNL     1      -6.355  11.918  66.773  1.00  0.00    -0.135 OA 
ENDBRANCH  14  16
ENDBRANCH   5  14
TORSDOF 2
ENDMDL
MODEL      281
REMARK 921   NORMALIZED FREE ENERGY PREDICTED BY IDOCK:   14.34 KCAL/MOL
REMARK 922        TOTAL FREE ENERGY PREDICTED BY IDOCK:   15.65 KCAL/MOL
REMARK 923 INTER-LIGAND FREE ENERGY PREDICTED BY IDOCK:   14.04 KCAL/MOL
REMARK 924 INTRA-LIGAND FREE ENERGY PREDICTED BY IDOCK:    1.61 KCAL/MOL
REMARK 927      BINDING AFFINITY PREDICTED BY RF-SCORE:    0.00 PKD
ROOT
HETATM    1  O   UNL     1      -7.449  18.533  65.167  1.00  0.00    -0.139 OA 
HETATM    2  N   UNL     1      -7.618  19.255  66.158  1.00  0.00    -0.279 N  
HETATM    3  C   UNL     1      -8.522  18.746  67.180  1.00  0.00    -0.272 A  
HETATM    4  O   UNL     1      -7.187  20.404  66.317  1.00  0.00    -0.265 OA 
HETATM    5  C   UNL     1      -8.255  17.543  67.850  1.00  0.00    -0.231 A  
HETATM    6  C   UNL     1      -9.200  17.083  68.775  1.00  0.00    -0.252 A  
HETATM    7  C   UNL     1     -12.014  19.661  68.411  1.00  0.00     3.656 C  
HETATM    8  C   UNL     1     -10.403  17.776  68.972  1.00  0.00    -0.234 A  
HETATM    9  C   UNL     1      -9.720  19.452  67.375  1.00  0.00    -0.424 A  
HETATM   10  F   UNL     1     -11.877  20.929  68.879  1.00  0.00     1.610 F  
HETATM   11  C   UNL     1     -10.684  18.953  68.261  1.00  0.00    -0.082 A  
HETATM   12  F   UNL     1     -12.872  19.032  69.258  1.00  0.00     9.405 F  
HETATM   13  F   UNL     1     -12.668  19.765  67.222  1.00  0.00     1.762 F  
ENDROOT
BRANCH   5  14
HETATM   14  C   UNL     1      -6.996  16.778  67.626  1.00  0.00    -0.135 C  
HETATM   15  O   UNL     1      -5.935  17.373  67.792  1.00  0.00    -0.132 OA 
BRANCH  14  16
HETATM   16  C   UNL     1      -7.056  15.316  67.227  1.00  0.00    -0.187 C  
HETATM   17  C   UNL     1      -8.818  13.729  69.043  1.00  0.00     0.273 C  
HETATM   18  C   UNL     1      -7.435  14.176  69.501  1.00  0.00     0.159 C  
HETATM   19  C   UNL     1      -6.534  14.397  68.306  1.00  0.00    -0.115 C  
HETATM   20  O   UNL     1      -5.397  13.932  68.261  1.00  0.00    -0.095 OA 
HETATM   21  C   UNL     1      -9.424  14.673  68.010  1.00  0.00    -0.207 C  
HETATM   22  C   UNL     1      -8.457  14.877  66.861  1.00  0.00    -0.223 C  
HETATM   23  O   UNL     1      -8.797  14.710  65.690  1.00  0.00     0.450 OA 
ENDBRANCH  14  16
ENDBRANCH   5  14
TORSDOF 2
ENDMDL
MODEL      282
REMARK 921   NORMALIZED FREE ENERGY PREDICTED BY IDOCK:   25.51 KCAL/MOL
REMARK 922        TOTAL FREE ENERGY PREDICTED BY IDOCK:   28.13 KCAL/MOL
REMARK 923 INTER-LIGAND FREE ENERGY PREDICTED BY IDOCK:    9.75 KCAL/MOL
REMARK 924 INTRA-LIGAND FREE ENERGY PREDICTED BY IDOCK:   18.38 KCAL/MOL
REMARK 927      BINDING AFFINITY PREDICTED BY RF-SCORE:    0.00 PKD
ROOT
HETATM    1  O   UNL     1     -10.411  14.372  69.824  1.00  0.00    -0.031 OA 
HETATM    2  N   UNL     1     -11.032  13.481  69.230  1.00  0.00    -0.177 N  
HETATM    3  C   UNL     1     -11.523  12.381  70.047  1.00  0.00    -0.031 A  
HETATM    4  O   UNL     1     -11.182  13.377  68.006  1.00  0.00    -0.246 OA 
HETATM    5  C   UNL     1     -12.436  12.603  71.088  1.00  0.00    -0.326 A  
HETATM    6  C   UNL     1     -12.817  11.507  71.873  1.00  0.00    -0.372 A  
HETATM    7  C   UNL     1     -10.620   8.698  70.463  1.00  0.00    -0.217 C  
HETATM    8  C   UNL     1     -12.247  10.243  71.659  1.00  0.00    -0.384 A  
HETATM    9  C   UNL     1     -10.953  11.118  69.819  1.00  0.00    -0.216 A  
HETATM   10  F   UNL     1     -10.859   8.160  69.238  1.00  0.00    -0.224 F  
HETATM   11  C   UNL     1     -11.296  10.041  70.646  1.00  0.00    -0.425 A  
HETATM   12  F   UNL     1     -11.008   7.765  71.372  1.00  0.00    -0.233 F  
HETATM   13  F   UNL     1      -9.267   8.795  70.576  1.00  0.00    -0.150 F  
ENDROOT
BRANCH   5  14
HETATM   14  C   UNL     1     -13.024  13.947  71.348  1.00  0.00    -0.355 C  
HETATM   15  O   UNL     1     -14.225  14.091  71.137  1.00  0.00    -0.075 OA 
BRANCH  14  16
HETATM   16  C   UNL     1     -12.151  15.069  71.874  1.00  0.00    -0.443 C  
HETATM   17  C   UNL     1      -9.383  14.954  70.756  1.00  0.00     1.819 C  
HETATM   18  C   UNL     1      -9.824  13.975  71.835  1.00  0.00     7.276 C  
HETATM   19  C   UNL     1     -10.956  14.564  72.647  1.00  0.00     2.028 C  
HETATM   20  O   UNL     1     -10.947  14.543  73.876  1.00  0.00     1.458 OA 
HETATM   21  C   UNL     1     -10.545  15.433  69.892  1.00  0.00    -0.315 C  
HETATM   22  C   UNL     1     -11.655  15.977  70.769  1.00  0.00    -0.400 C  
HETATM   23  O   UNL     1     -12.140  17.093  70.583  1.00  0.00     1.791 OA 
ENDBRANCH  14  16
ENDBRANCH   5  14
TORSDOF 2
ENDMDL
MODEL      283
REMARK 921   NORMALIZED FREE ENERGY PREDICTED BY IDOCK:   33.45 KCAL/MOL
REMARK 922        TOTAL FREE ENERGY PREDICTED BY IDOCK:   36.99 KCAL/MOL
REMARK 923 INTER-LIGAND FREE ENERGY PREDICTED BY IDOCK:   23.27 KCAL/MOL
REMARK 924 INTRA-LIGAND FREE ENERGY PREDICTED BY IDOCK:   13.73 KCAL/MOL
REMARK 927      BINDING AFFINITY PREDICTED BY RF-SCORE:    0.00 PKD
ROOT
HETATM    1  O   UNL     1      -9.014  14.523  67.994  1.00  0.00    -0.168 OA 
HETATM    2  N   UNL     1      -9.345  13.431  67.514  1.00  0.00    -0.209 N  
HETATM    3  C   UNL     1      -8.770  12.249  68.140  1.00  0.00    -0.186 A  
HETATM    4  O   UNL     1     -10.023  13.248  66.494  1.00  0.00    -0.266 OA 
HETATM    5  C   UNL     1      -9.009  11.955  69.490  1.00  0.00     1.244 A  
HETATM    6  C   UNL     1      -8.373  10.836  70.041  1.00  0.00     0.747 A  
HETATM    7  C   UNL     1      -6.175   9.639  67.136  1.00  0.00    -0.064 C  
HETATM    8  C   UNL     1      -7.474  10.076  69.278  1.00  0.00    -0.103 A  
HETATM    9  C   UNL     1      -7.879  11.490  67.364  1.00  0.00    -0.143 A  
HETATM   10  F   UNL     1      -6.713   9.044  66.041  1.00  0.00    -0.070 F  
HETATM   11  C   UNL     1      -7.203  10.408  67.941  1.00  0.00    -0.085 A  
HETATM   12  F   UNL     1      -5.557   8.655  67.842  1.00  0.00    -0.033 F  
HETATM   13  F   UNL     1      -5.184  10.451  66.677  1.00  0.00    -0.037 F  
ENDROOT
BRANCH   5  14
HETATM   14  C   UNL     1      -9.935  12.773  70.323  1.00  0.00     3.670 C  
HETATM   15  O   UNL     1     -10.951  12.226  70.743  1.00  0.00     1.673 OA 
BRANCH  14  16
HETATM   16  C   UNL     1      -9.598  14.217  70.639  1.00  0.00     3.018 C  
HETATM   17  C   UNL     1      -6.708  14.820  70.182  1.00  0.00    -0.114 C  
HETATM   18  C   UNL     1      -7.149  14.021  71.402  1.00  0.00     2.525 C  
HETATM   19  C   UNL     1      -8.584  14.348  71.751  1.00  0.00     6.446 C  
HETATM   20  O   UNL     1      -8.924  14.611  72.903  1.00  0.00     5.793 OA 
HETATM   21  C   UNL     1      -7.658  14.655  69.001  1.00  0.00    -0.136 C  
HETATM   22  C   UNL     1      -9.078  14.964  69.429  1.00  0.00    -0.040 C  
HETATM   23  O   UNL     1      -9.780  15.768  68.817  1.00  0.00    -0.196 OA 
ENDBRANCH  14  16
ENDBRANCH   5  14
TORSDOF 2
ENDMDL
MODEL      284
REMARK 921   NORMALIZED FREE ENERGY PREDICTED BY IDOCK:   45.65 KCAL/MOL
REMARK 922        TOTAL FREE ENERGY PREDICTED BY IDOCK:   50.62 KCAL/MOL
REMARK 923 INTER-LIGAND FREE ENERGY PREDICTED BY IDOCK:   38.91 KCAL/MOL
REMARK 924 INTRA-LIGAND FREE ENERGY PREDICTED BY IDOCK:   11.71 KCAL/MOL
REMARK 927      BINDING AFFINITY PREDICTED BY RF-SCORE:    0.00 PKD
ROOT
HETATM    1  O   UNL     1      -9.444  15.012  69.179  1.00  0.00    -0.208 OA 
HETATM    2  N   UNL     1      -9.629  15.058  70.403  1.00  0.00     0.456 N  
HETATM    3  C   UNL     1     -10.202  13.867  71.014  1.00  0.00     3.886 A  
HETATM    4  O   UNL     1      -9.478  16.044  71.135  1.00  0.00     2.250 OA 
HETATM    5  C   UNL     1      -9.540  12.632  70.957  1.00  0.00     9.969 A  
HETATM    6  C   UNL     1     -10.181  11.518  71.512  1.00  0.00     8.108 A  
HETATM    7  C   UNL     1     -13.571  12.969  72.562  1.00  0.00    -0.434 C  
HETATM    8  C   UNL     1     -11.472  11.629  72.049  1.00  0.00     4.242 A  
HETATM    9  C   UNL     1     -11.492  13.992  71.556  1.00  0.00     0.923 A  
HETATM   10  F   UNL     1     -13.682  13.812  73.622  1.00  0.00     0.655 F  
HETATM   11  C   UNL     1     -12.147  12.859  72.057  1.00  0.00     1.205 A  
HETATM   12  F   UNL     1     -14.099  11.781  72.962  1.00  0.00     0.476 F  
HETATM   13  F   UNL     1     -14.410  13.451  71.605  1.00  0.00    -0.217 F  
ENDROOT
BRANCH   5  14
HETATM   14  C   UNL     1      -8.183  12.493  70.360  1.00  0.00     4.991 C  
HETATM   15  O   UNL     1      -7.318  11.948  71.040  1.00  0.00     3.013 OA 
BRANCH  14  16
HETATM   16  C   UNL     1      -7.915  12.996  68.955  1.00  0.00     0.295 C  
HETATM   17  C   UNL     1      -5.230  14.285  68.718  1.00  0.00    -0.088 C  
HETATM   18  C   UNL     1      -6.378  15.008  69.412  1.00  0.00    -0.124 C  
HETATM   19  C   UNL     1      -7.706  14.491  68.903  1.00  0.00    -0.132 C  
HETATM   20  O   UNL     1      -8.605  15.254  68.556  1.00  0.00    -0.153 OA 
HETATM   21  C   UNL     1      -5.352  12.768  68.814  1.00  0.00    -0.063 C  
HETATM   22  C   UNL     1      -6.715  12.324  68.322  1.00  0.00    -0.064 C  
HETATM   23  O   UNL     1      -6.842  11.450  67.465  1.00  0.00    -0.075 OA 
ENDBRANCH  14  16
ENDBRANCH   5  14
TORSDOF 2
ENDMDL
