MODEL        1
REMARK 921   NORMALIZED FREE ENERGY PREDICTED BY IDOCK:   -5.16 KCAL/MOL
REMARK 922        TOTAL FREE ENERGY PREDICTED BY IDOCK:   -7.18 KCAL/MOL
REMARK 923 INTER-LIGAND FREE ENERGY PREDICTED BY IDOCK:   -6.67 KCAL/MOL
REMARK 924 INTRA-LIGAND FREE ENERGY PREDICTED BY IDOCK:   -0.51 KCAL/MOL
REMARK 927      BINDING AFFINITY PREDICTED BY RF-SCORE:    0.00 PKD
ROOT
HETATM    1  O   UNL     1     -12.503  11.540  63.350  1.00  0.00    -0.358 OA 
HETATM    2  N   UNL     1     -12.565  12.687  63.786  1.00  0.00    -0.369 N  
HETATM    3  O   UNL     1     -12.802  12.730  65.182  1.00  0.00    -0.726 OA 
HETATM    4  O   UNL     1     -12.443  13.766  63.205  1.00  0.00    -0.786 OA 
ENDROOT
BRANCH   3   5
HETATM    5  C   UNL     1     -12.891  14.066  65.681  1.00  0.00    -0.406 C  
BRANCH   5   6
HETATM    6  C   UNL     1     -11.674  14.327  66.587  1.00  0.00    -0.400 C  
BRANCH   6   7
HETATM    7  O   UNL     1     -11.978  15.083  67.771  1.00  0.00    -0.289 OA 
HETATM    8  O   UNL     1     -11.869  13.148  68.932  1.00  0.00    -0.300 OA 
HETATM    9  N   UNL     1     -12.043  14.363  68.986  1.00  0.00    -0.297 N  
HETATM   10  O   UNL     1     -12.273  15.082  69.954  1.00  0.00    -0.313 OA 
ENDBRANCH   6   7
BRANCH   6  11
HETATM   11  C   UNL     1     -10.451  14.843  65.809  1.00  0.00    -0.330 C  
BRANCH  11  12
HETATM   12  O   UNL     1     -10.183  16.183  66.222  1.00  0.00    -0.289 OA 
HETATM   13  N   UNL     1     -10.585  17.140  65.255  1.00  0.00    -0.169 N  
HETATM   14  O   UNL     1     -11.072  16.708  64.210  1.00  0.00    -1.029 OA 
HETATM   15  O   UNL     1     -10.371  18.295  65.612  1.00  0.00    -0.607 OA 
ENDBRANCH  11  12
ENDBRANCH   6  11
ENDBRANCH   5   6
ENDBRANCH   3   5
TORSDOF 5
ENDMDL
MODEL        2
REMARK 921   NORMALIZED FREE ENERGY PREDICTED BY IDOCK:   -5.14 KCAL/MOL
REMARK 922        TOTAL FREE ENERGY PREDICTED BY IDOCK:   -7.16 KCAL/MOL
REMARK 923 INTER-LIGAND FREE ENERGY PREDICTED BY IDOCK:   -6.88 KCAL/MOL
REMARK 924 INTRA-LIGAND FREE ENERGY PREDICTED BY IDOCK:   -0.28 KCAL/MOL
REMARK 927      BINDING AFFINITY PREDICTED BY RF-SCORE:    0.00 PKD
ROOT
HETATM    1  O   UNL     1     -13.137  11.621  63.001  1.00  0.00    -0.436 OA 
HETATM    2  N   UNL     1     -12.863  12.648  63.618  1.00  0.00    -0.181 N  
HETATM    3  O   UNL     1     -12.992  12.495  65.021  1.00  0.00    -0.779 OA 
HETATM    4  O   UNL     1     -12.492  13.748  63.206  1.00  0.00    -0.819 OA 
ENDROOT
BRANCH   3   5
HETATM    5  C   UNL     1     -12.689  13.696  65.733  1.00  0.00    -0.416 C  
BRANCH   5   6
HETATM    6  C   UNL     1     -11.420  13.455  66.571  1.00  0.00    -0.341 C  
BRANCH   6   7
HETATM    7  O   UNL     1     -11.637  13.516  67.991  1.00  0.00    -0.296 OA 
HETATM    8  O   UNL     1     -11.927  11.276  67.957  1.00  0.00    -0.621 OA 
HETATM    9  N   UNL     1     -11.884  12.290  68.650  1.00  0.00    -0.319 N  
HETATM   10  O   UNL     1     -12.025  12.421  69.862  1.00  0.00    -0.322 OA 
ENDBRANCH   6   7
BRANCH   6  11
HETATM   11  C   UNL     1     -10.217  14.282  66.084  1.00  0.00    -0.307 C  
BRANCH  11  12
HETATM   12  O   UNL     1     -10.652  15.135  65.025  1.00  0.00    -0.393 OA 
HETATM   13  N   UNL     1     -10.800  16.483  65.441  1.00  0.00    -0.280 N  
HETATM   14  O   UNL     1     -10.569  16.732  66.624  1.00  0.00    -0.286 OA 
HETATM   15  O   UNL     1     -11.160  17.225  64.531  1.00  0.00    -1.082 OA 
ENDBRANCH  11  12
ENDBRANCH   6  11
ENDBRANCH   5   6
ENDBRANCH   3   5
TORSDOF 5
ENDMDL
MODEL        3
REMARK 921   NORMALIZED FREE ENERGY PREDICTED BY IDOCK:   -5.07 KCAL/MOL
REMARK 922        TOTAL FREE ENERGY PREDICTED BY IDOCK:   -7.06 KCAL/MOL
REMARK 923 INTER-LIGAND FREE ENERGY PREDICTED BY IDOCK:   -6.62 KCAL/MOL
REMARK 924 INTRA-LIGAND FREE ENERGY PREDICTED BY IDOCK:   -0.44 KCAL/MOL
REMARK 927      BINDING AFFINITY PREDICTED BY RF-SCORE:    0.00 PKD
ROOT
HETATM    1  O   UNL     1     -11.689  16.562  63.849  1.00  0.00    -1.148 OA 
HETATM    2  N   UNL     1     -11.133  15.937  64.748  1.00  0.00    -0.444 N  
HETATM    3  O   UNL     1     -11.995  15.012  65.388  1.00  0.00    -0.198 OA 
HETATM    4  O   UNL     1      -9.969  15.988  65.150  1.00  0.00    -0.443 OA 
ENDROOT
BRANCH   3   5
HETATM    5  C   UNL     1     -11.349  14.300  66.444  1.00  0.00    -0.343 C  
BRANCH   5   6
HETATM    6  C   UNL     1     -11.291  12.810  66.059  1.00  0.00    -0.321 C  
BRANCH   6   7
HETATM    7  O   UNL     1     -12.427  12.356  65.305  1.00  0.00    -0.611 OA 
HETATM    8  O   UNL     1     -11.124  12.427  63.461  1.00  0.00    -0.435 OA 
HETATM    9  N   UNL     1     -12.233  12.162  63.918  1.00  0.00    -0.475 N  
HETATM   10  O   UNL     1     -13.237  11.742  63.351  1.00  0.00    -0.569 OA 
ENDBRANCH   6   7
BRANCH   6  11
HETATM   11  C   UNL     1     -10.920  11.902  67.244  1.00  0.00    -0.268 C  
BRANCH  11  12
HETATM   12  O   UNL     1     -11.113  12.634  68.454  1.00  0.00    -0.235 OA 
HETATM   13  N   UNL     1     -11.933  11.942  69.383  1.00  0.00    -0.306 N  
HETATM   14  O   UNL     1     -12.378  10.850  69.030  1.00  0.00    -0.464 OA 
HETATM   15  O   UNL     1     -12.090  12.561  70.432  1.00  0.00    -0.362 OA 
ENDBRANCH  11  12
ENDBRANCH   6  11
ENDBRANCH   5   6
ENDBRANCH   3   5
TORSDOF 5
ENDMDL
MODEL        4
REMARK 921   NORMALIZED FREE ENERGY PREDICTED BY IDOCK:   -5.06 KCAL/MOL
REMARK 922        TOTAL FREE ENERGY PREDICTED BY IDOCK:   -7.05 KCAL/MOL
REMARK 923 INTER-LIGAND FREE ENERGY PREDICTED BY IDOCK:   -6.56 KCAL/MOL
REMARK 924 INTRA-LIGAND FREE ENERGY PREDICTED BY IDOCK:   -0.49 KCAL/MOL
REMARK 927      BINDING AFFINITY PREDICTED BY RF-SCORE:    0.00 PKD
ROOT
HETATM    1  O   UNL     1     -13.339  15.727  70.707  1.00  0.00    -0.539 OA 
HETATM    2  N   UNL     1     -12.416  15.190  70.098  1.00  0.00    -0.336 N  
HETATM    3  O   UNL     1     -12.023  15.916  68.947  1.00  0.00    -0.370 OA 
HETATM    4  O   UNL     1     -11.798  14.153  70.345  1.00  0.00    -0.297 OA 
ENDROOT
BRANCH   3   5
HETATM    5  C   UNL     1     -10.962  15.280  68.233  1.00  0.00    -0.276 C  
BRANCH   5   6
HETATM    6  C   UNL     1     -10.194  16.355  67.444  1.00  0.00    -0.281 C  
BRANCH   6   7
HETATM    7  O   UNL     1     -10.781  17.665  67.518  1.00  0.00    -0.358 OA 
HETATM    8  O   UNL     1      -8.987  18.308  68.731  1.00  0.00    -0.298 OA 
HETATM    9  N   UNL     1     -10.048  18.652  68.215  1.00  0.00    -0.373 N  
HETATM   10  O   UNL     1     -10.598  19.750  68.205  1.00  0.00    -0.413 OA 
ENDBRANCH   6   7
BRANCH   6  11
HETATM   11  C   UNL     1      -9.837  15.907  66.016  1.00  0.00    -0.337 C  
BRANCH  11  12
HETATM   12  O   UNL     1     -10.892  15.082  65.523  1.00  0.00    -0.313 OA 
HETATM   13  N   UNL     1     -11.644  15.716  64.500  1.00  0.00    -0.342 N  
HETATM   14  O   UNL     1     -11.319  16.865  64.198  1.00  0.00    -1.208 OA 
HETATM   15  O   UNL     1     -12.544  15.005  64.061  1.00  0.00    -0.817 OA 
ENDBRANCH  11  12
ENDBRANCH   6  11
ENDBRANCH   5   6
ENDBRANCH   3   5
TORSDOF 5
ENDMDL
MODEL        5
REMARK 921   NORMALIZED FREE ENERGY PREDICTED BY IDOCK:   -5.02 KCAL/MOL
REMARK 922        TOTAL FREE ENERGY PREDICTED BY IDOCK:   -7.00 KCAL/MOL
REMARK 923 INTER-LIGAND FREE ENERGY PREDICTED BY IDOCK:   -6.57 KCAL/MOL
REMARK 924 INTRA-LIGAND FREE ENERGY PREDICTED BY IDOCK:   -0.42 KCAL/MOL
REMARK 927      BINDING AFFINITY PREDICTED BY RF-SCORE:    0.00 PKD
ROOT
HETATM    1  O   UNL     1     -13.238  11.645  62.857  1.00  0.00    -0.299 OA 
HETATM    2  N   UNL     1     -12.322  12.101  63.536  1.00  0.00    -0.574 N  
HETATM    3  O   UNL     1     -12.667  12.231  64.904  1.00  0.00    -0.575 OA 
HETATM    4  O   UNL     1     -11.182  12.436  63.211  1.00  0.00    -0.441 OA 
ENDROOT
BRANCH   3   5
HETATM    5  C   UNL     1     -11.604  12.776  65.688  1.00  0.00    -0.370 C  
BRANCH   5   6
HETATM    6  C   UNL     1     -12.037  14.165  66.193  1.00  0.00    -0.435 C  
BRANCH   6   7
HETATM    7  O   UNL     1     -11.317  15.256  65.596  1.00  0.00    -0.301 OA 
HETATM    8  O   UNL     1     -12.905  15.314  63.991  1.00  0.00    -0.613 OA 
HETATM    9  N   UNL     1     -11.872  15.819  64.424  1.00  0.00    -0.271 N  
HETATM   10  O   UNL     1     -11.219  16.765  63.995  1.00  0.00    -1.089 OA 
ENDBRANCH   6   7
BRANCH   6  11
HETATM   11  C   UNL     1     -12.130  14.239  67.727  1.00  0.00    -0.281 C  
BRANCH  11  12
HETATM   12  O   UNL     1     -11.414  15.392  68.170  1.00  0.00    -0.335 OA 
HETATM   13  N   UNL     1     -11.538  15.605  69.567  1.00  0.00    -0.333 N  
HETATM   14  O   UNL     1     -12.244  14.813  70.193  1.00  0.00    -0.304 OA 
HETATM   15  O   UNL     1     -10.912  16.587  69.955  1.00  0.00    -0.350 OA 
ENDBRANCH  11  12
ENDBRANCH   6  11
ENDBRANCH   5   6
ENDBRANCH   3   5
TORSDOF 5
ENDMDL
MODEL        6
REMARK 921   NORMALIZED FREE ENERGY PREDICTED BY IDOCK:   -4.95 KCAL/MOL
REMARK 922        TOTAL FREE ENERGY PREDICTED BY IDOCK:   -6.90 KCAL/MOL
REMARK 923 INTER-LIGAND FREE ENERGY PREDICTED BY IDOCK:   -6.53 KCAL/MOL
REMARK 924 INTRA-LIGAND FREE ENERGY PREDICTED BY IDOCK:   -0.37 KCAL/MOL
REMARK 927      BINDING AFFINITY PREDICTED BY RF-SCORE:    0.00 PKD
ROOT
HETATM    1  O   UNL     1     -12.591  13.744  63.027  1.00  0.00    -0.721 OA 
HETATM    2  N   UNL     1     -12.639  13.429  64.213  1.00  0.00    -0.220 N  
HETATM    3  O   UNL     1     -12.083  14.416  65.065  1.00  0.00    -0.390 OA 
HETATM    4  O   UNL     1     -13.097  12.420  64.750  1.00  0.00    -0.806 OA 
ENDROOT
BRANCH   3   5
HETATM    5  C   UNL     1     -12.126  14.039  66.442  1.00  0.00    -0.455 C  
BRANCH   5   6
HETATM    6  C   UNL     1     -11.111  14.902  67.213  1.00  0.00    -0.336 C  
BRANCH   6   7
HETATM    7  O   UNL     1     -11.689  15.666  68.285  1.00  0.00    -0.349 OA 
HETATM    8  O   UNL     1     -11.424  13.854  69.606  1.00  0.00    -0.263 OA 
HETATM    9  N   UNL     1     -11.798  15.022  69.538  1.00  0.00    -0.314 N  
HETATM   10  O   UNL     1     -12.269  15.749  70.408  1.00  0.00    -0.392 OA 
ENDBRANCH   6   7
BRANCH   6  11
HETATM   11  C   UNL     1     -10.193  15.717  66.285  1.00  0.00    -0.299 C  
BRANCH  11  12
HETATM   12  O   UNL     1     -10.106  17.049  66.789  1.00  0.00    -0.280 OA 
HETATM   13  N   UNL     1     -10.598  18.011  65.869  1.00  0.00    -0.326 N  
HETATM   14  O   UNL     1     -10.997  17.591  64.782  1.00  0.00    -0.950 OA 
HETATM   15  O   UNL     1     -10.540  19.158  66.303  1.00  0.00    -0.432 OA 
ENDBRANCH  11  12
ENDBRANCH   6  11
ENDBRANCH   5   6
ENDBRANCH   3   5
TORSDOF 5
ENDMDL
MODEL        7
REMARK 921   NORMALIZED FREE ENERGY PREDICTED BY IDOCK:   -4.94 KCAL/MOL
REMARK 922        TOTAL FREE ENERGY PREDICTED BY IDOCK:   -6.89 KCAL/MOL
REMARK 923 INTER-LIGAND FREE ENERGY PREDICTED BY IDOCK:   -6.38 KCAL/MOL
REMARK 924 INTRA-LIGAND FREE ENERGY PREDICTED BY IDOCK:   -0.51 KCAL/MOL
REMARK 927      BINDING AFFINITY PREDICTED BY RF-SCORE:    0.00 PKD
ROOT
HETATM    1  O   UNL     1     -13.189  11.884  63.367  1.00  0.00    -0.649 OA 
HETATM    2  N   UNL     1     -12.209  12.588  63.599  1.00  0.00    -0.521 N  
HETATM    3  O   UNL     1     -12.519  13.710  64.407  1.00  0.00    -0.588 OA 
HETATM    4  O   UNL     1     -11.035  12.454  63.252  1.00  0.00    -0.438 OA 
ENDROOT
BRANCH   3   5
HETATM    5  C   UNL     1     -11.380  14.534  64.660  1.00  0.00    -0.370 C  
BRANCH   5   6
HETATM    6  C   UNL     1     -10.943  14.324  66.121  1.00  0.00    -0.313 C  
BRANCH   6   7
HETATM    7  O   UNL     1     -11.788  13.426  66.860  1.00  0.00    -0.368 OA 
HETATM    8  O   UNL     1     -10.231  11.824  66.527  1.00  0.00    -0.202 OA 
HETATM    9  N   UNL     1     -11.310  12.108  67.041  1.00  0.00    -0.316 N  
HETATM   10  O   UNL     1     -12.071  11.414  67.710  1.00  0.00    -0.637 OA 
ENDBRANCH   6   7
BRANCH   6  11
HETATM   11  C   UNL     1     -10.642  15.646  66.849  1.00  0.00    -0.311 C  
BRANCH  11  12
HETATM   12  O   UNL     1     -10.442  16.667  65.872  1.00  0.00    -0.342 OA 
HETATM   13  N   UNL     1     -10.517  17.971  66.426  1.00  0.00    -0.367 N  
HETATM   14  O   UNL     1     -10.762  18.054  67.630  1.00  0.00    -0.415 OA 
HETATM   15  O   UNL     1     -10.330  18.853  65.592  1.00  0.00    -0.545 OA 
ENDBRANCH  11  12
ENDBRANCH   6  11
ENDBRANCH   5   6
ENDBRANCH   3   5
TORSDOF 5
ENDMDL
MODEL        8
REMARK 921   NORMALIZED FREE ENERGY PREDICTED BY IDOCK:   -4.90 KCAL/MOL
REMARK 922        TOTAL FREE ENERGY PREDICTED BY IDOCK:   -6.84 KCAL/MOL
REMARK 923 INTER-LIGAND FREE ENERGY PREDICTED BY IDOCK:   -6.52 KCAL/MOL
REMARK 924 INTRA-LIGAND FREE ENERGY PREDICTED BY IDOCK:   -0.32 KCAL/MOL
REMARK 927      BINDING AFFINITY PREDICTED BY RF-SCORE:    0.00 PKD
ROOT
HETATM    1  O   UNL     1     -11.802  11.779  70.156  1.00  0.00    -0.329 OA 
HETATM    2  N   UNL     1     -11.771  12.890  69.634  1.00  0.00    -0.309 N  
HETATM    3  O   UNL     1     -11.754  12.830  68.219  1.00  0.00    -0.309 OA 
HETATM    4  O   UNL     1     -11.766  14.010  70.148  1.00  0.00    -0.279 OA 
ENDROOT
BRANCH   3   5
HETATM    5  C   UNL     1     -11.701  14.124  67.616  1.00  0.00    -0.387 C  
BRANCH   5   6
HETATM    6  C   UNL     1     -11.220  13.964  66.163  1.00  0.00    -0.303 C  
BRANCH   6   7
HETATM    7  O   UNL     1     -11.872  14.841  65.230  1.00  0.00    -0.340 OA 
HETATM    8  O   UNL     1      -9.953  16.029  65.136  1.00  0.00    -0.443 OA 
HETATM    9  N   UNL     1     -11.103  15.912  64.720  1.00  0.00    -0.444 N  
HETATM   10  O   UNL     1     -11.718  16.594  63.906  1.00  0.00    -1.153 OA 
ENDBRANCH   6   7
BRANCH   6  11
HETATM   11  C   UNL     1     -11.167  12.494  65.711  1.00  0.00    -0.320 C  
BRANCH  11  12
HETATM   12  O   UNL     1     -12.406  12.169  65.081  1.00  0.00    -0.488 OA 
HETATM   13  N   UNL     1     -12.298  12.112  63.667  1.00  0.00    -0.555 N  
HETATM   14  O   UNL     1     -11.196  12.367  63.180  1.00  0.00    -0.387 OA 
HETATM   15  O   UNL     1     -13.357  11.818  63.121  1.00  0.00    -0.475 OA 
ENDBRANCH  11  12
ENDBRANCH   6  11
ENDBRANCH   5   6
ENDBRANCH   3   5
TORSDOF 5
ENDMDL
MODEL        9
REMARK 921   NORMALIZED FREE ENERGY PREDICTED BY IDOCK:   -4.90 KCAL/MOL
REMARK 922        TOTAL FREE ENERGY PREDICTED BY IDOCK:   -6.84 KCAL/MOL
REMARK 923 INTER-LIGAND FREE ENERGY PREDICTED BY IDOCK:   -6.31 KCAL/MOL
REMARK 924 INTRA-LIGAND FREE ENERGY PREDICTED BY IDOCK:   -0.53 KCAL/MOL
REMARK 927      BINDING AFFINITY PREDICTED BY RF-SCORE:    0.00 PKD
ROOT
HETATM    1  O   UNL     1     -12.300  11.317  68.372  1.00  0.00    -0.545 OA 
HETATM    2  N   UNL     1     -11.537  11.731  67.503  1.00  0.00    -0.311 N  
HETATM    3  O   UNL     1     -10.966  12.986  67.829  1.00  0.00    -0.239 OA 
HETATM    4  O   UNL     1     -11.199  11.222  66.433  1.00  0.00    -0.253 OA 
ENDROOT
BRANCH   3   5
HETATM    5  C   UNL     1     -10.092  13.471  66.808  1.00  0.00    -0.268 C  
BRANCH   5   6
HETATM    6  C   UNL     1     -10.789  14.639  66.087  1.00  0.00    -0.321 C  
BRANCH   6   7
HETATM    7  O   UNL     1     -11.039  14.399  64.692  1.00  0.00    -0.381 OA 
HETATM    8  O   UNL     1     -13.186  13.961  65.240  1.00  0.00    -0.774 OA 
HETATM    9  N   UNL     1     -12.363  14.058  64.333  1.00  0.00    -0.401 N  
HETATM   10  O   UNL     1     -12.503  13.903  63.124  1.00  0.00    -0.766 OA 
ENDBRANCH   6   7
BRANCH   6  11
HETATM   11  C   UNL     1     -10.133  16.000  66.383  1.00  0.00    -0.300 C  
BRANCH  11  12
HETATM   12  O   UNL     1     -10.603  16.947  65.424  1.00  0.00    -0.579 OA 
HETATM   13  N   UNL     1     -10.566  18.278  65.913  1.00  0.00    -0.364 N  
HETATM   14  O   UNL     1     -10.172  18.438  67.069  1.00  0.00    -0.342 OA 
HETATM   15  O   UNL     1     -10.955  19.099  65.088  1.00  0.00    -0.464 OA 
ENDBRANCH  11  12
ENDBRANCH   6  11
ENDBRANCH   5   6
ENDBRANCH   3   5
TORSDOF 5
ENDMDL
MODEL       10
REMARK 921   NORMALIZED FREE ENERGY PREDICTED BY IDOCK:   -4.89 KCAL/MOL
REMARK 922        TOTAL FREE ENERGY PREDICTED BY IDOCK:   -6.84 KCAL/MOL
REMARK 923 INTER-LIGAND FREE ENERGY PREDICTED BY IDOCK:   -6.46 KCAL/MOL
REMARK 924 INTRA-LIGAND FREE ENERGY PREDICTED BY IDOCK:   -0.37 KCAL/MOL
REMARK 927      BINDING AFFINITY PREDICTED BY RF-SCORE:    0.00 PKD
ROOT
HETATM    1  O   UNL     1      -9.115  17.563  66.303  1.00  0.00    -0.371 OA 
HETATM    2  N   UNL     1     -10.085  17.204  65.641  1.00  0.00    -0.151 N  
HETATM    3  O   UNL     1     -10.267  15.799  65.654  1.00  0.00    -0.330 OA 
HETATM    4  O   UNL     1     -10.901  17.869  65.001  1.00  0.00    -0.767 OA 
ENDROOT
BRANCH   3   5
HETATM    5  C   UNL     1     -11.387  15.385  64.868  1.00  0.00    -0.363 C  
BRANCH   5   6
HETATM    6  C   UNL     1     -11.733  13.932  65.245  1.00  0.00    -0.340 C  
BRANCH   6   7
HETATM    7  O   UNL     1     -12.767  13.349  64.434  1.00  0.00    -0.643 OA 
HETATM    8  O   UNL     1     -11.275  11.767  63.821  1.00  0.00    -0.382 OA 
HETATM    9  N   UNL     1     -12.430  12.176  63.721  1.00  0.00    -0.526 N  
HETATM   10  O   UNL     1     -13.373  11.721  63.081  1.00  0.00    -0.475 OA 
ENDBRANCH   6   7
BRANCH   6  11
HETATM   11  C   UNL     1     -11.937  13.740  66.757  1.00  0.00    -0.426 C  
BRANCH  11  12
HETATM   12  O   UNL     1     -12.025  12.342  67.029  1.00  0.00    -0.576 OA 
HETATM   13  N   UNL     1     -11.947  12.052  68.416  1.00  0.00    -0.285 N  
HETATM   14  O   UNL     1     -11.792  13.006  69.178  1.00  0.00    -0.297 OA 
HETATM   15  O   UNL     1     -12.037  10.851  68.656  1.00  0.00    -0.527 OA 
ENDBRANCH  11  12
ENDBRANCH   6  11
ENDBRANCH   5   6
ENDBRANCH   3   5
TORSDOF 5
ENDMDL
MODEL       11
REMARK 921   NORMALIZED FREE ENERGY PREDICTED BY IDOCK:   -4.89 KCAL/MOL
REMARK 922        TOTAL FREE ENERGY PREDICTED BY IDOCK:   -6.83 KCAL/MOL
REMARK 923 INTER-LIGAND FREE ENERGY PREDICTED BY IDOCK:   -6.41 KCAL/MOL
REMARK 924 INTRA-LIGAND FREE ENERGY PREDICTED BY IDOCK:   -0.42 KCAL/MOL
REMARK 927      BINDING AFFINITY PREDICTED BY RF-SCORE:    0.00 PKD
ROOT
HETATM    1  O   UNL     1     -12.000  10.985  68.449  1.00  0.00    -0.565 OA 
HETATM    2  N   UNL     1     -11.966  12.210  68.372  1.00  0.00    -0.288 N  
HETATM    3  O   UNL     1     -12.005  12.676  67.034  1.00  0.00    -0.445 OA 
HETATM    4  O   UNL     1     -11.918  13.062  69.261  1.00  0.00    -0.307 OA 
ENDROOT
BRANCH   3   5
HETATM    5  C   UNL     1     -11.948  14.101  66.949  1.00  0.00    -0.449 C  
BRANCH   5   6
HETATM    6  C   UNL     1     -11.244  14.480  65.633  1.00  0.00    -0.335 C  
BRANCH   6   7
HETATM    7  O   UNL     1     -10.834  13.352  64.843  1.00  0.00    -0.314 OA 
HETATM    8  O   UNL     1     -12.505  13.858  63.409  1.00  0.00    -0.833 OA 
HETATM    9  N   UNL     1     -11.562  13.110  63.655  1.00  0.00    -0.428 N  
HETATM   10  O   UNL     1     -11.131  12.152  63.020  1.00  0.00    -0.261 OA 
ENDBRANCH   6   7
BRANCH   6  11
HETATM   11  C   UNL     1     -10.147  15.542  65.828  1.00  0.00    -0.360 C  
BRANCH  11  12
HETATM   12  O   UNL     1     -10.620  16.784  65.307  1.00  0.00    -0.621 OA 
HETATM   13  N   UNL     1     -10.263  17.887  66.124  1.00  0.00    -0.363 N  
HETATM   14  O   UNL     1      -9.636  17.639  67.155  1.00  0.00    -0.265 OA 
HETATM   15  O   UNL     1     -10.655  18.959  65.673  1.00  0.00    -0.575 OA 
ENDBRANCH  11  12
ENDBRANCH   6  11
ENDBRANCH   5   6
ENDBRANCH   3   5
TORSDOF 5
ENDMDL
MODEL       12
REMARK 921   NORMALIZED FREE ENERGY PREDICTED BY IDOCK:   -4.88 KCAL/MOL
REMARK 922        TOTAL FREE ENERGY PREDICTED BY IDOCK:   -6.82 KCAL/MOL
REMARK 923 INTER-LIGAND FREE ENERGY PREDICTED BY IDOCK:   -6.45 KCAL/MOL
REMARK 924 INTRA-LIGAND FREE ENERGY PREDICTED BY IDOCK:   -0.37 KCAL/MOL
REMARK 927      BINDING AFFINITY PREDICTED BY RF-SCORE:    0.00 PKD
ROOT
HETATM    1  O   UNL     1     -12.763  14.821  73.946  1.00  0.00    -0.475 OA 
HETATM    2  N   UNL     1     -13.082  14.308  72.877  1.00  0.00    -0.514 N  
HETATM    3  O   UNL     1     -12.163  14.591  71.837  1.00  0.00    -0.337 OA 
HETATM    4  O   UNL     1     -14.046  13.595  72.594  1.00  0.00    -0.746 OA 
ENDROOT
BRANCH   3   5
HETATM    5  C   UNL     1     -12.547  14.006  70.592  1.00  0.00    -0.344 C  
BRANCH   5   6
HETATM    6  C   UNL     1     -11.555  14.472  69.510  1.00  0.00    -0.307 C  
BRANCH   6   7
HETATM    7  O   UNL     1     -11.633  15.875  69.211  1.00  0.00    -0.353 OA 
HETATM    8  O   UNL     1      -9.394  15.973  69.494  1.00  0.00    -0.241 OA 
HETATM    9  N   UNL     1     -10.415  16.593  69.209  1.00  0.00    -0.320 N  
HETATM   10  O   UNL     1     -10.560  17.775  68.912  1.00  0.00    -0.278 OA 
ENDBRANCH   6   7
BRANCH   6  11
HETATM   11  C   UNL     1     -11.557  13.564  68.268  1.00  0.00    -0.346 C  
BRANCH  11  12
HETATM   12  O   UNL     1     -12.213  14.254  67.204  1.00  0.00    -0.410 OA 
HETATM   13  N   UNL     1     -12.533  13.398  66.118  1.00  0.00    -0.371 N  
HETATM   14  O   UNL     1     -12.194  12.219  66.217  1.00  0.00    -0.628 OA 
HETATM   15  O   UNL     1     -13.110  13.983  65.206  1.00  0.00    -0.782 OA 
ENDBRANCH  11  12
ENDBRANCH   6  11
ENDBRANCH   5   6
ENDBRANCH   3   5
TORSDOF 5
ENDMDL
MODEL       13
REMARK 921   NORMALIZED FREE ENERGY PREDICTED BY IDOCK:   -4.87 KCAL/MOL
REMARK 922        TOTAL FREE ENERGY PREDICTED BY IDOCK:   -6.81 KCAL/MOL
REMARK 923 INTER-LIGAND FREE ENERGY PREDICTED BY IDOCK:   -6.37 KCAL/MOL
REMARK 924 INTRA-LIGAND FREE ENERGY PREDICTED BY IDOCK:   -0.44 KCAL/MOL
REMARK 927      BINDING AFFINITY PREDICTED BY RF-SCORE:    0.00 PKD
ROOT
HETATM    1  O   UNL     1     -11.708  16.399  63.621  1.00  0.00    -0.933 OA 
HETATM    2  N   UNL     1     -11.322  15.805  64.625  1.00  0.00    -0.401 N  
HETATM    3  O   UNL     1     -10.606  16.643  65.515  1.00  0.00    -0.466 OA 
HETATM    4  O   UNL     1     -11.474  14.630  64.961  1.00  0.00    -0.356 OA 
ENDROOT
BRANCH   3   5
HETATM    5  C   UNL     1     -10.144  15.945  66.672  1.00  0.00    -0.279 C  
BRANCH   5   6
HETATM    6  C   UNL     1     -10.663  16.680  67.922  1.00  0.00    -0.344 C  
BRANCH   6   7
HETATM    7  O   UNL     1      -9.722  17.607  68.489  1.00  0.00    -0.298 OA 
HETATM    8  O   UNL     1     -10.878  19.265  67.480  1.00  0.00    -0.473 OA 
HETATM    9  N   UNL     1      -9.933  18.977  68.209  1.00  0.00    -0.372 N  
HETATM   10  O   UNL     1      -9.109  19.705  68.755  1.00  0.00    -0.345 OA 
ENDBRANCH   6   7
BRANCH   6  11
HETATM   11  C   UNL     1     -11.305  15.730  68.948  1.00  0.00    -0.356 C  
BRANCH  11  12
HETATM   12  O   UNL     1     -10.952  16.173  70.258  1.00  0.00    -0.344 OA 
HETATM   13  N   UNL     1     -12.011  16.015  71.189  1.00  0.00    -0.422 N  
HETATM   14  O   UNL     1     -13.070  15.557  70.758  1.00  0.00    -0.478 OA 
HETATM   15  O   UNL     1     -11.708  16.380  72.321  1.00  0.00    -0.508 OA 
ENDBRANCH  11  12
ENDBRANCH   6  11
ENDBRANCH   5   6
ENDBRANCH   3   5
TORSDOF 5
ENDMDL
MODEL       14
REMARK 921   NORMALIZED FREE ENERGY PREDICTED BY IDOCK:   -4.86 KCAL/MOL
REMARK 922        TOTAL FREE ENERGY PREDICTED BY IDOCK:   -6.79 KCAL/MOL
REMARK 923 INTER-LIGAND FREE ENERGY PREDICTED BY IDOCK:   -6.34 KCAL/MOL
REMARK 924 INTRA-LIGAND FREE ENERGY PREDICTED BY IDOCK:   -0.45 KCAL/MOL
REMARK 927      BINDING AFFINITY PREDICTED BY RF-SCORE:    0.00 PKD
ROOT
HETATM    1  O   UNL     1     -13.981  13.918  72.689  1.00  0.00    -0.684 OA 
HETATM    2  N   UNL     1     -13.548  14.465  71.677  1.00  0.00    -0.361 N  
HETATM    3  O   UNL     1     -12.634  13.652  70.963  1.00  0.00    -0.345 OA 
HETATM    4  O   UNL     1     -13.797  15.575  71.206  1.00  0.00    -0.528 OA 
ENDROOT
BRANCH   3   5
HETATM    5  C   UNL     1     -12.120  14.298  69.798  1.00  0.00    -0.347 C  
BRANCH   5   6
HETATM    6  C   UNL     1     -11.881  13.230  68.715  1.00  0.00    -0.334 C  
BRANCH   6   7
HETATM    7  O   UNL     1     -10.716  12.419  68.942  1.00  0.00    -0.222 OA 
HETATM    8  O   UNL     1     -12.107  10.690  69.366  1.00  0.00    -0.270 OA 
HETATM    9  N   UNL     1     -10.940  11.061  69.268  1.00  0.00    -0.237 N  
HETATM   10  O   UNL     1      -9.898  10.429  69.413  1.00  0.00    -0.220 OA 
ENDBRANCH   6   7
BRANCH   6  11
HETATM   11  C   UNL     1     -11.986  13.793  67.287  1.00  0.00    -0.401 C  
BRANCH  11  12
HETATM   12  O   UNL     1     -12.248  12.712  66.392  1.00  0.00    -0.550 OA 
HETATM   13  N   UNL     1     -12.897  13.136  65.204  1.00  0.00    -0.416 N  
HETATM   14  O   UNL     1     -13.165  14.334  65.111  1.00  0.00    -0.686 OA 
HETATM   15  O   UNL     1     -13.111  12.213  64.424  1.00  0.00    -0.740 OA 
ENDBRANCH  11  12
ENDBRANCH   6  11
ENDBRANCH   5   6
ENDBRANCH   3   5
TORSDOF 5
ENDMDL
MODEL       15
REMARK 921   NORMALIZED FREE ENERGY PREDICTED BY IDOCK:   -4.85 KCAL/MOL
REMARK 922        TOTAL FREE ENERGY PREDICTED BY IDOCK:   -6.78 KCAL/MOL
REMARK 923 INTER-LIGAND FREE ENERGY PREDICTED BY IDOCK:   -6.22 KCAL/MOL
REMARK 924 INTRA-LIGAND FREE ENERGY PREDICTED BY IDOCK:   -0.55 KCAL/MOL
REMARK 927      BINDING AFFINITY PREDICTED BY RF-SCORE:    0.00 PKD
ROOT
HETATM    1  O   UNL     1     -12.252  11.597  63.255  1.00  0.00    -0.430 OA 
HETATM    2  N   UNL     1     -12.416  12.698  63.773  1.00  0.00    -0.432 N  
HETATM    3  O   UNL     1     -12.521  12.630  65.184  1.00  0.00    -0.522 OA 
HETATM    4  O   UNL     1     -12.488  13.816  63.259  1.00  0.00    -0.819 OA 
ENDROOT
BRANCH   3   5
HETATM    5  C   UNL     1     -12.728  13.911  65.781  1.00  0.00    -0.461 C  
BRANCH   5   6
HETATM    6  C   UNL     1     -11.446  14.310  66.534  1.00  0.00    -0.360 C  
BRANCH   6   7
HETATM    7  O   UNL     1     -10.598  15.215  65.807  1.00  0.00    -0.312 OA 
HETATM    8  O   UNL     1     -10.903  16.706  67.476  1.00  0.00    -0.305 OA 
HETATM    9  N   UNL     1     -10.350  16.472  66.404  1.00  0.00    -0.311 N  
HETATM   10  O   UNL     1      -9.592  17.172  65.740  1.00  0.00    -0.525 OA 
ENDBRANCH   6   7
BRANCH   6  11
HETATM   11  C   UNL     1     -10.707  13.101  67.134  1.00  0.00    -0.255 C  
BRANCH  11  12
HETATM   12  O   UNL     1     -11.004  13.035  68.529  1.00  0.00    -0.243 OA 
HETATM   13  N   UNL     1     -11.734  11.868  68.873  1.00  0.00    -0.302 N  
HETATM   14  O   UNL     1     -12.029  11.102  67.955  1.00  0.00    -0.625 OA 
HETATM   15  O   UNL     1     -11.979  11.798  70.074  1.00  0.00    -0.321 OA 
ENDBRANCH  11  12
ENDBRANCH   6  11
ENDBRANCH   5   6
ENDBRANCH   3   5
TORSDOF 5
ENDMDL
MODEL       16
REMARK 921   NORMALIZED FREE ENERGY PREDICTED BY IDOCK:   -4.78 KCAL/MOL
REMARK 922        TOTAL FREE ENERGY PREDICTED BY IDOCK:   -6.69 KCAL/MOL
REMARK 923 INTER-LIGAND FREE ENERGY PREDICTED BY IDOCK:   -6.17 KCAL/MOL
REMARK 924 INTRA-LIGAND FREE ENERGY PREDICTED BY IDOCK:   -0.52 KCAL/MOL
REMARK 927      BINDING AFFINITY PREDICTED BY RF-SCORE:    0.00 PKD
ROOT
HETATM    1  O   UNL     1     -12.126  11.120  67.921  1.00  0.00    -0.627 OA 
HETATM    2  N   UNL     1     -11.343  11.750  67.215  1.00  0.00    -0.309 N  
HETATM    3  O   UNL     1     -11.089  13.054  67.709  1.00  0.00    -0.245 OA 
HETATM    4  O   UNL     1     -10.759  11.419  66.183  1.00  0.00    -0.262 OA 
ENDROOT
BRANCH   3   5
HETATM    5  C   UNL     1     -10.191  13.790  66.876  1.00  0.00    -0.261 C  
BRANCH   5   6
HETATM    6  C   UNL     1     -10.975  14.937  66.213  1.00  0.00    -0.338 C  
BRANCH   6   7
HETATM    7  O   UNL     1     -11.202  14.753  64.806  1.00  0.00    -0.381 OA 
HETATM    8  O   UNL     1     -13.252  13.961  65.327  1.00  0.00    -0.774 OA 
HETATM    9  N   UNL     1     -12.464  14.240  64.427  1.00  0.00    -0.368 N  
HETATM   10  O   UNL     1     -12.593  14.144  63.211  1.00  0.00    -0.766 OA 
ENDBRANCH   6   7
BRANCH   6  11
HETATM   11  C   UNL     1     -10.428  16.326  66.584  1.00  0.00    -0.290 C  
BRANCH  11  12
HETATM   12  O   UNL     1      -9.296  16.603  65.760  1.00  0.00    -0.501 OA 
HETATM   13  N   UNL     1      -8.408  17.537  66.352  1.00  0.00    -0.266 N  
HETATM   14  O   UNL     1      -8.728  17.994  67.450  1.00  0.00    -0.243 OA 
HETATM   15  O   UNL     1      -7.425  17.768  65.654  1.00  0.00    -0.533 OA 
ENDBRANCH  11  12
ENDBRANCH   6  11
ENDBRANCH   5   6
ENDBRANCH   3   5
TORSDOF 5
ENDMDL
MODEL       17
REMARK 921   NORMALIZED FREE ENERGY PREDICTED BY IDOCK:   -4.76 KCAL/MOL
REMARK 922        TOTAL FREE ENERGY PREDICTED BY IDOCK:   -6.66 KCAL/MOL
REMARK 923 INTER-LIGAND FREE ENERGY PREDICTED BY IDOCK:   -6.16 KCAL/MOL
REMARK 924 INTRA-LIGAND FREE ENERGY PREDICTED BY IDOCK:   -0.50 KCAL/MOL
REMARK 927      BINDING AFFINITY PREDICTED BY RF-SCORE:    0.00 PKD
ROOT
HETATM    1  O   UNL     1     -10.217  20.204  68.206  1.00  0.00    -0.420 OA 
HETATM    2  N   UNL     1     -10.054  18.988  68.248  1.00  0.00    -0.378 N  
HETATM    3  O   UNL     1     -11.031  18.278  67.508  1.00  0.00    -0.335 OA 
HETATM    4  O   UNL     1      -9.184  18.321  68.811  1.00  0.00    -0.299 OA 
ENDROOT
BRANCH   3   5
HETATM    5  C   UNL     1     -10.847  16.862  67.573  1.00  0.00    -0.207 C  
BRANCH   5   6
HETATM    6  C   UNL     1     -10.371  16.371  66.194  1.00  0.00    -0.344 C  
BRANCH   6   7
HETATM    7  O   UNL     1     -11.159  15.297  65.652  1.00  0.00    -0.334 OA 
HETATM    8  O   UNL     1     -11.602  16.630  63.883  1.00  0.00    -1.204 OA 
HETATM    9  N   UNL     1     -11.766  15.526  64.396  1.00  0.00    -0.332 N  
HETATM   10  O   UNL     1     -12.392  14.553  63.986  1.00  0.00    -0.697 OA 
ENDBRANCH   6   7
BRANCH   6  11
HETATM   11  C   UNL     1      -8.853  16.125  66.139  1.00  0.00    -0.332 C  
BRANCH  11  12
HETATM   12  O   UNL     1      -8.203  17.366  65.870  1.00  0.00    -0.537 OA 
HETATM   13  N   UNL     1      -6.826  17.344  66.214  1.00  0.00    -0.265 N  
HETATM   14  O   UNL     1      -6.390  16.304  66.708  1.00  0.00    -0.298 OA 
HETATM   15  O   UNL     1      -6.258  18.405  65.970  1.00  0.00    -0.179 OA 
ENDBRANCH  11  12
ENDBRANCH   6  11
ENDBRANCH   5   6
ENDBRANCH   3   5
TORSDOF 5
ENDMDL
MODEL       18
REMARK 921   NORMALIZED FREE ENERGY PREDICTED BY IDOCK:   -4.75 KCAL/MOL
REMARK 922        TOTAL FREE ENERGY PREDICTED BY IDOCK:   -6.65 KCAL/MOL
REMARK 923 INTER-LIGAND FREE ENERGY PREDICTED BY IDOCK:   -6.30 KCAL/MOL
REMARK 924 INTRA-LIGAND FREE ENERGY PREDICTED BY IDOCK:   -0.35 KCAL/MOL
REMARK 927      BINDING AFFINITY PREDICTED BY RF-SCORE:    0.00 PKD
ROOT
HETATM    1  O   UNL     1     -12.331  14.322  71.204  1.00  0.00    -0.329 OA 
HETATM    2  N   UNL     1     -12.161  13.378  70.437  1.00  0.00    -0.356 N  
HETATM    3  O   UNL     1     -11.909  13.792  69.106  1.00  0.00    -0.310 OA 
HETATM    4  O   UNL     1     -12.166  12.165  70.655  1.00  0.00    -0.372 OA 
ENDROOT
BRANCH   3   5
HETATM    5  C   UNL     1     -11.728  12.691  68.214  1.00  0.00    -0.342 C  
BRANCH   5   6
HETATM    6  C   UNL     1     -11.750  13.226  66.771  1.00  0.00    -0.385 C  
BRANCH   6   7
HETATM    7  O   UNL     1     -11.153  12.340  65.809  1.00  0.00    -0.298 OA 
HETATM    8  O   UNL     1     -13.098  12.412  64.663  1.00  0.00    -0.825 OA 
HETATM    9  N   UNL     1     -11.951  11.974  64.701  1.00  0.00    -0.291 N  
HETATM   10  O   UNL     1     -11.360  11.245  63.910  1.00  0.00    -0.317 OA 
ENDBRANCH   6   7
BRANCH   6  11
HETATM   11  C   UNL     1     -11.266  14.683  66.668  1.00  0.00    -0.349 C  
BRANCH  11  12
HETATM   12  O   UNL     1     -11.767  15.242  65.454  1.00  0.00    -0.181 OA 
HETATM   13  N   UNL     1     -11.029  16.379  65.034  1.00  0.00    -0.336 N  
HETATM   14  O   UNL     1     -10.100  16.740  65.757  1.00  0.00    -0.478 OA 
HETATM   15  O   UNL     1     -11.446  16.855  63.982  1.00  0.00    -1.130 OA 
ENDBRANCH  11  12
ENDBRANCH   6  11
ENDBRANCH   5   6
ENDBRANCH   3   5
TORSDOF 5
ENDMDL
MODEL       19
REMARK 921   NORMALIZED FREE ENERGY PREDICTED BY IDOCK:   -4.75 KCAL/MOL
REMARK 922        TOTAL FREE ENERGY PREDICTED BY IDOCK:   -6.65 KCAL/MOL
REMARK 923 INTER-LIGAND FREE ENERGY PREDICTED BY IDOCK:   -6.13 KCAL/MOL
REMARK 924 INTRA-LIGAND FREE ENERGY PREDICTED BY IDOCK:   -0.52 KCAL/MOL
REMARK 927      BINDING AFFINITY PREDICTED BY RF-SCORE:    0.00 PKD
ROOT
HETATM    1  O   UNL     1     -13.155  11.958  63.423  1.00  0.00    -0.710 OA 
HETATM    2  N   UNL     1     -12.237  12.708  63.746  1.00  0.00    -0.490 N  
HETATM    3  O   UNL     1     -12.668  13.779  64.567  1.00  0.00    -0.643 OA 
HETATM    4  O   UNL     1     -11.036  12.656  63.477  1.00  0.00    -0.448 OA 
ENDROOT
BRANCH   3   5
HETATM    5  C   UNL     1     -11.600  14.657  64.926  1.00  0.00    -0.405 C  
BRANCH   5   6
HETATM    6  C   UNL     1     -11.207  14.372  66.387  1.00  0.00    -0.345 C  
BRANCH   6   7
HETATM    7  O   UNL     1     -12.026  13.382  67.031  1.00  0.00    -0.382 OA 
HETATM    8  O   UNL     1     -10.267  11.971  66.910  1.00  0.00    -0.206 OA 
HETATM    9  N   UNL     1     -11.426  12.128  67.286  1.00  0.00    -0.332 N  
HETATM   10  O   UNL     1     -12.177  11.351  67.867  1.00  0.00    -0.592 OA 
ENDBRANCH   6   7
BRANCH   6  11
HETATM   11  C   UNL     1     -11.007  15.655  67.212  1.00  0.00    -0.275 C  
BRANCH  11  12
HETATM   12  O   UNL     1     -11.820  15.573  68.382  1.00  0.00    -0.351 OA 
HETATM   13  N   UNL     1     -11.182  16.117  69.527  1.00  0.00    -0.334 N  
HETATM   14  O   UNL     1     -10.039  16.551  69.376  1.00  0.00    -0.264 OA 
HETATM   15  O   UNL     1     -11.883  16.063  70.533  1.00  0.00    -0.359 OA 
ENDBRANCH  11  12
ENDBRANCH   6  11
ENDBRANCH   5   6
ENDBRANCH   3   5
TORSDOF 5
ENDMDL
MODEL       20
REMARK 921   NORMALIZED FREE ENERGY PREDICTED BY IDOCK:   -4.75 KCAL/MOL
REMARK 922        TOTAL FREE ENERGY PREDICTED BY IDOCK:   -6.65 KCAL/MOL
REMARK 923 INTER-LIGAND FREE ENERGY PREDICTED BY IDOCK:   -6.14 KCAL/MOL
REMARK 924 INTRA-LIGAND FREE ENERGY PREDICTED BY IDOCK:   -0.51 KCAL/MOL
REMARK 927      BINDING AFFINITY PREDICTED BY RF-SCORE:    0.00 PKD
ROOT
HETATM    1  O   UNL     1     -12.051  11.885  70.433  1.00  0.00    -0.348 OA 
HETATM    2  N   UNL     1     -11.838  11.829  69.224  1.00  0.00    -0.318 N  
HETATM    3  O   UNL     1     -11.105  12.943  68.745  1.00  0.00    -0.243 OA 
HETATM    4  O   UNL     1     -12.150  10.967  68.401  1.00  0.00    -0.559 OA 
ENDROOT
BRANCH   3   5
HETATM    5  C   UNL     1     -10.875  12.882  67.336  1.00  0.00    -0.251 C  
BRANCH   5   6
HETATM    6  C   UNL     1     -11.452  14.158  66.695  1.00  0.00    -0.366 C  
BRANCH   6   7
HETATM    7  O   UNL     1     -11.519  15.282  67.588  1.00  0.00    -0.331 OA 
HETATM    8  O   UNL     1      -9.878  16.241  66.367  1.00  0.00    -0.257 OA 
HETATM    9  N   UNL     1     -10.646  16.361  67.319  1.00  0.00    -0.313 N  
HETATM   10  O   UNL     1     -10.787  17.294  68.103  1.00  0.00    -0.375 OA 
ENDBRANCH   6   7
BRANCH   6  11
HETATM   11  C   UNL     1     -12.751  13.898  65.914  1.00  0.00    -0.421 C  
BRANCH  11  12
HETATM   12  O   UNL     1     -12.631  12.647  65.237  1.00  0.00    -0.630 OA 
HETATM   13  N   UNL     1     -12.571  12.796  63.827  1.00  0.00    -0.332 N  
HETATM   14  O   UNL     1     -12.655  13.941  63.382  1.00  0.00    -0.853 OA 
HETATM   15  O   UNL     1     -12.453  11.724  63.241  1.00  0.00    -0.543 OA 
ENDBRANCH  11  12
ENDBRANCH   6  11
ENDBRANCH   5   6
ENDBRANCH   3   5
TORSDOF 5
ENDMDL
MODEL       21
REMARK 921   NORMALIZED FREE ENERGY PREDICTED BY IDOCK:   -4.75 KCAL/MOL
REMARK 922        TOTAL FREE ENERGY PREDICTED BY IDOCK:   -6.65 KCAL/MOL
REMARK 923 INTER-LIGAND FREE ENERGY PREDICTED BY IDOCK:   -6.18 KCAL/MOL
REMARK 924 INTRA-LIGAND FREE ENERGY PREDICTED BY IDOCK:   -0.47 KCAL/MOL
REMARK 927      BINDING AFFINITY PREDICTED BY RF-SCORE:    0.00 PKD
ROOT
HETATM    1  O   UNL     1     -11.820  11.982  63.407  1.00  0.00    -0.462 OA 
HETATM    2  N   UNL     1     -11.915  13.173  63.692  1.00  0.00    -0.511 N  
HETATM    3  O   UNL     1     -10.855  13.625  64.516  1.00  0.00    -0.390 OA 
HETATM    4  O   UNL     1     -12.763  14.004  63.365  1.00  0.00    -0.796 OA 
ENDROOT
BRANCH   3   5
HETATM    5  C   UNL     1     -10.978  15.006  64.858  1.00  0.00    -0.413 C  
BRANCH   5   6
HETATM    6  C   UNL     1     -10.472  15.195  66.300  1.00  0.00    -0.307 C  
BRANCH   6   7
HETATM    7  O   UNL     1     -11.503  15.106  67.298  1.00  0.00    -0.345 OA 
HETATM    8  O   UNL     1     -10.376  13.361  68.184  1.00  0.00    -0.234 OA 
HETATM    9  N   UNL     1     -11.353  14.100  68.279  1.00  0.00    -0.276 N  
HETATM   10  O   UNL     1     -12.254  14.110  69.113  1.00  0.00    -0.335 OA 
ENDBRANCH   6   7
BRANCH   6  11
HETATM   11  C   UNL     1      -9.553  16.419  66.454  1.00  0.00    -0.288 C  
BRANCH  11  12
HETATM   12  O   UNL     1     -10.047  17.466  65.620  1.00  0.00    -0.566 OA 
HETATM   13  N   UNL     1     -10.492  18.590  66.363  1.00  0.00    -0.416 N  
HETATM   14  O   UNL     1     -10.421  18.511  67.590  1.00  0.00    -0.385 OA 
HETATM   15  O   UNL     1     -10.905  19.499  65.649  1.00  0.00    -0.458 OA 
ENDBRANCH  11  12
ENDBRANCH   6  11
ENDBRANCH   5   6
ENDBRANCH   3   5
TORSDOF 5
ENDMDL
MODEL       22
REMARK 921   NORMALIZED FREE ENERGY PREDICTED BY IDOCK:   -4.74 KCAL/MOL
REMARK 922        TOTAL FREE ENERGY PREDICTED BY IDOCK:   -6.64 KCAL/MOL
REMARK 923 INTER-LIGAND FREE ENERGY PREDICTED BY IDOCK:   -6.24 KCAL/MOL
REMARK 924 INTRA-LIGAND FREE ENERGY PREDICTED BY IDOCK:   -0.39 KCAL/MOL
REMARK 927      BINDING AFFINITY PREDICTED BY RF-SCORE:    0.00 PKD
ROOT
HETATM    1  O   UNL     1     -14.127  13.162  72.652  1.00  0.00    -0.701 OA 
HETATM    2  N   UNL     1     -13.745  14.248  72.225  1.00  0.00    -0.450 N  
HETATM    3  O   UNL     1     -12.983  14.133  71.037  1.00  0.00    -0.333 OA 
HETATM    4  O   UNL     1     -13.933  15.385  72.662  1.00  0.00    -0.518 OA 
ENDROOT
BRANCH   3   5
HETATM    5  C   UNL     1     -12.526  15.397  70.554  1.00  0.00    -0.422 C  
BRANCH   5   6
HETATM    6  C   UNL     1     -11.570  15.149  69.372  1.00  0.00    -0.323 C  
BRANCH   6   7
HETATM    7  O   UNL     1     -11.628  16.159  68.351  1.00  0.00    -0.355 OA 
HETATM    8  O   UNL     1      -9.624  16.896  69.086  1.00  0.00    -0.241 OA 
HETATM    9  N   UNL     1     -10.526  17.040  68.265  1.00  0.00    -0.344 N  
HETATM   10  O   UNL     1     -10.635  17.850  67.349  1.00  0.00    -0.386 OA 
ENDBRANCH   6   7
BRANCH   6  11
HETATM   11  C   UNL     1     -11.646  13.709  68.836  1.00  0.00    -0.322 C  
BRANCH  11  12
HETATM   12  O   UNL     1     -11.933  13.760  67.439  1.00  0.00    -0.379 OA 
HETATM   13  N   UNL     1     -12.114  12.471  66.874  1.00  0.00    -0.226 N  
HETATM   14  O   UNL     1     -11.979  11.507  67.627  1.00  0.00    -0.630 OA 
HETATM   15  O   UNL     1     -12.376  12.510  65.675  1.00  0.00    -0.615 OA 
ENDBRANCH  11  12
ENDBRANCH   6  11
ENDBRANCH   5   6
ENDBRANCH   3   5
TORSDOF 5
ENDMDL
MODEL       23
REMARK 921   NORMALIZED FREE ENERGY PREDICTED BY IDOCK:   -4.73 KCAL/MOL
REMARK 922        TOTAL FREE ENERGY PREDICTED BY IDOCK:   -6.62 KCAL/MOL
REMARK 923 INTER-LIGAND FREE ENERGY PREDICTED BY IDOCK:   -6.17 KCAL/MOL
REMARK 924 INTRA-LIGAND FREE ENERGY PREDICTED BY IDOCK:   -0.45 KCAL/MOL
REMARK 927      BINDING AFFINITY PREDICTED BY RF-SCORE:    0.00 PKD
ROOT
HETATM    1  O   UNL     1     -12.561  15.640  70.529  1.00  0.00    -0.432 OA 
HETATM    2  N   UNL     1     -12.228  14.720  69.787  1.00  0.00    -0.310 N  
HETATM    3  O   UNL     1     -11.877  15.164  68.488  1.00  0.00    -0.329 OA 
HETATM    4  O   UNL     1     -12.145  13.511  70.007  1.00  0.00    -0.321 OA 
ENDROOT
BRANCH   3   5
HETATM    5  C   UNL     1     -11.507  14.090  67.623  1.00  0.00    -0.334 C  
BRANCH   5   6
HETATM    6  C   UNL     1     -11.317  14.653  66.202  1.00  0.00    -0.350 C  
BRANCH   6   7
HETATM    7  O   UNL     1     -11.447  13.670  65.161  1.00  0.00    -0.306 OA 
HETATM    8  O   UNL     1     -12.925  15.052  64.158  1.00  0.00    -0.511 OA 
HETATM    9  N   UNL     1     -12.322  13.984  64.096  1.00  0.00    -0.392 N  
HETATM   10  O   UNL     1     -12.352  13.112  63.233  1.00  0.00    -0.712 OA 
ENDBRANCH   6   7
BRANCH   6  11
HETATM   11  C   UNL     1     -10.068  15.542  66.075  1.00  0.00    -0.332 C  
BRANCH  11  12
HETATM   12  O   UNL     1     -10.434  16.745  65.400  1.00  0.00    -0.592 OA 
HETATM   13  N   UNL     1     -10.354  17.885  66.241  1.00  0.00    -0.379 N  
HETATM   14  O   UNL     1     -10.016  17.695  67.410  1.00  0.00    -0.299 OA 
HETATM   15  O   UNL     1     -10.654  18.925  65.661  1.00  0.00    -0.575 OA 
ENDBRANCH  11  12
ENDBRANCH   6  11
ENDBRANCH   5   6
ENDBRANCH   3   5
TORSDOF 5
ENDMDL
MODEL       24
REMARK 921   NORMALIZED FREE ENERGY PREDICTED BY IDOCK:   -4.72 KCAL/MOL
REMARK 922        TOTAL FREE ENERGY PREDICTED BY IDOCK:   -6.62 KCAL/MOL
REMARK 923 INTER-LIGAND FREE ENERGY PREDICTED BY IDOCK:   -6.05 KCAL/MOL
REMARK 924 INTRA-LIGAND FREE ENERGY PREDICTED BY IDOCK:   -0.57 KCAL/MOL
REMARK 927      BINDING AFFINITY PREDICTED BY RF-SCORE:    0.00 PKD
ROOT
HETATM    1  O   UNL     1     -12.284  12.276  66.095  1.00  0.00    -0.647 OA 
HETATM    2  N   UNL     1     -12.236  13.400  65.602  1.00  0.00    -0.435 N  
HETATM    3  O   UNL     1     -10.937  13.963  65.648  1.00  0.00    -0.285 OA 
HETATM    4  O   UNL     1     -13.122  14.078  65.081  1.00  0.00    -0.776 OA 
ENDROOT
BRANCH   3   5
HETATM    5  C   UNL     1     -10.889  15.277  65.089  1.00  0.00    -0.426 C  
BRANCH   5   6
HETATM    6  C   UNL     1     -10.498  16.265  66.203  1.00  0.00    -0.322 C  
BRANCH   6   7
HETATM    7  O   UNL     1      -9.469  17.195  65.826  1.00  0.00    -0.525 OA 
HETATM    8  O   UNL     1     -10.771  18.842  66.659  1.00  0.00    -0.398 OA 
HETATM    9  N   UNL     1      -9.700  18.556  66.130  1.00  0.00    -0.285 N  
HETATM   10  O   UNL     1      -8.763  19.281  65.808  1.00  0.00    -0.399 OA 
ENDBRANCH   6   7
BRANCH   6  11
HETATM   11  C   UNL     1     -10.254  15.573  67.556  1.00  0.00    -0.254 C  
BRANCH  11  12
HETATM   12  O   UNL     1     -11.171  16.106  68.510  1.00  0.00    -0.337 OA 
HETATM   13  N   UNL     1     -11.827  15.094  69.257  1.00  0.00    -0.319 N  
HETATM   14  O   UNL     1     -11.552  13.926  68.979  1.00  0.00    -0.265 OA 
HETATM   15  O   UNL     1     -12.606  15.548  70.091  1.00  0.00    -0.380 OA 
ENDBRANCH  11  12
ENDBRANCH   6  11
ENDBRANCH   5   6
ENDBRANCH   3   5
TORSDOF 5
ENDMDL
MODEL       25
REMARK 921   NORMALIZED FREE ENERGY PREDICTED BY IDOCK:   -4.72 KCAL/MOL
REMARK 922        TOTAL FREE ENERGY PREDICTED BY IDOCK:   -6.61 KCAL/MOL
REMARK 923 INTER-LIGAND FREE ENERGY PREDICTED BY IDOCK:   -6.22 KCAL/MOL
REMARK 924 INTRA-LIGAND FREE ENERGY PREDICTED BY IDOCK:   -0.40 KCAL/MOL
REMARK 927      BINDING AFFINITY PREDICTED BY RF-SCORE:    0.00 PKD
ROOT
HETATM    1  O   UNL     1     -12.549  13.820  63.173  1.00  0.00    -0.793 OA 
HETATM    2  N   UNL     1     -12.598  13.500  64.358  1.00  0.00    -0.235 N  
HETATM    3  O   UNL     1     -12.045  14.484  65.214  1.00  0.00    -0.372 OA 
HETATM    4  O   UNL     1     -13.056  12.488  64.890  1.00  0.00    -0.833 OA 
ENDROOT
BRANCH   3   5
HETATM    5  C   UNL     1     -12.089  14.101  66.589  1.00  0.00    -0.451 C  
BRANCH   5   6
HETATM    6  C   UNL     1     -11.156  15.033  67.384  1.00  0.00    -0.324 C  
BRANCH   6   7
HETATM    7  O   UNL     1      -9.894  15.282  66.742  1.00  0.00    -0.226 OA 
HETATM    8  O   UNL     1     -10.471  17.464  66.645  1.00  0.00    -0.310 OA 
HETATM    9  N   UNL     1      -9.609  16.624  66.400  1.00  0.00    -0.269 N  
HETATM   10  O   UNL     1      -8.501  16.759  65.888  1.00  0.00    -0.484 OA 
ENDBRANCH   6   7
BRANCH   6  11
HETATM   11  C   UNL     1     -11.040  14.640  68.866  1.00  0.00    -0.254 C  
BRANCH  11  12
HETATM   12  O   UNL     1     -12.341  14.688  69.451  1.00  0.00    -0.263 OA 
HETATM   13  N   UNL     1     -12.434  15.648  70.492  1.00  0.00    -0.419 N  
HETATM   14  O   UNL     1     -11.410  16.276  70.765  1.00  0.00    -0.395 OA 
HETATM   15  O   UNL     1     -13.555  15.704  70.988  1.00  0.00    -0.588 OA 
ENDBRANCH  11  12
ENDBRANCH   6  11
ENDBRANCH   5   6
ENDBRANCH   3   5
TORSDOF 5
ENDMDL
MODEL       26
REMARK 921   NORMALIZED FREE ENERGY PREDICTED BY IDOCK:   -4.72 KCAL/MOL
REMARK 922        TOTAL FREE ENERGY PREDICTED BY IDOCK:   -6.61 KCAL/MOL
REMARK 923 INTER-LIGAND FREE ENERGY PREDICTED BY IDOCK:   -6.44 KCAL/MOL
REMARK 924 INTRA-LIGAND FREE ENERGY PREDICTED BY IDOCK:   -0.17 KCAL/MOL
REMARK 927      BINDING AFFINITY PREDICTED BY RF-SCORE:    0.00 PKD
ROOT
HETATM    1  O   UNL     1     -13.296  11.738  63.021  1.00  0.00    -0.405 OA 
HETATM    2  N   UNL     1     -12.269  12.183  63.527  1.00  0.00    -0.555 N  
HETATM    3  O   UNL     1     -12.478  13.412  64.200  1.00  0.00    -0.608 OA 
HETATM    4  O   UNL     1     -11.126  11.722  63.542  1.00  0.00    -0.407 OA 
ENDROOT
BRANCH   3   5
HETATM    5  C   UNL     1     -11.278  13.934  64.772  1.00  0.00    -0.369 C  
BRANCH   5   6
HETATM    6  C   UNL     1     -11.660  14.859  65.942  1.00  0.00    -0.228 C  
BRANCH   6   7
HETATM    7  O   UNL     1     -10.701  15.898  66.203  1.00  0.00    -0.314 OA 
HETATM    8  O   UNL     1     -11.413  16.912  64.314  1.00  0.00    -1.142 OA 
HETATM    9  N   UNL     1     -10.657  16.969  65.281  1.00  0.00    -0.193 N  
HETATM   10  O   UNL     1      -9.839  17.830  65.591  1.00  0.00    -0.528 OA 
ENDBRANCH   6   7
BRANCH   6  11
HETATM   11  C   UNL     1     -12.104  14.085  67.195  1.00  0.00    -0.401 C  
BRANCH  11  12
HETATM   12  O   UNL     1     -10.946  13.535  67.822  1.00  0.00    -0.256 OA 
HETATM   13  N   UNL     1     -10.958  12.116  67.837  1.00  0.00    -0.217 N  
HETATM   14  O   UNL     1     -11.943  11.561  67.350  1.00  0.00    -0.623 OA 
HETATM   15  O   UNL     1      -9.957  11.638  68.362  1.00  0.00    -0.191 OA 
ENDBRANCH  11  12
ENDBRANCH   6  11
ENDBRANCH   5   6
ENDBRANCH   3   5
TORSDOF 5
ENDMDL
MODEL       27
REMARK 921   NORMALIZED FREE ENERGY PREDICTED BY IDOCK:   -4.71 KCAL/MOL
REMARK 922        TOTAL FREE ENERGY PREDICTED BY IDOCK:   -6.60 KCAL/MOL
REMARK 923 INTER-LIGAND FREE ENERGY PREDICTED BY IDOCK:   -6.18 KCAL/MOL
REMARK 924 INTRA-LIGAND FREE ENERGY PREDICTED BY IDOCK:   -0.42 KCAL/MOL
REMARK 927      BINDING AFFINITY PREDICTED BY RF-SCORE:    0.00 PKD
ROOT
HETATM    1  O   UNL     1     -11.363  15.172  71.701  1.00  0.00    -0.381 OA 
HETATM    2  N   UNL     1     -11.924  15.288  70.614  1.00  0.00    -0.312 N  
HETATM    3  O   UNL     1     -11.155  14.767  69.543  1.00  0.00    -0.261 OA 
HETATM    4  O   UNL     1     -13.025  15.764  70.334  1.00  0.00    -0.409 OA 
ENDROOT
BRANCH   3   5
HETATM    5  C   UNL     1     -11.803  14.920  68.279  1.00  0.00    -0.278 C  
BRANCH   5   6
HETATM    6  C   UNL     1     -11.789  13.559  67.559  1.00  0.00    -0.368 C  
BRANCH   6   7
HETATM    7  O   UNL     1     -10.710  12.697  67.959  1.00  0.00    -0.213 OA 
HETATM    8  O   UNL     1     -12.265  11.191  68.604  1.00  0.00    -0.582 OA 
HETATM    9  N   UNL     1     -11.067  11.437  68.492  1.00  0.00    -0.214 N  
HETATM   10  O   UNL     1     -10.092  10.748  68.777  1.00  0.00    -0.175 OA 
ENDBRANCH   6   7
BRANCH   6  11
HETATM   11  C   UNL     1     -11.959  13.688  66.036  1.00  0.00    -0.413 C  
BRANCH  11  12
HETATM   12  O   UNL     1     -11.528  14.990  65.640  1.00  0.00    -0.331 OA 
HETATM   13  N   UNL     1     -11.946  15.325  64.326  1.00  0.00    -0.341 N  
HETATM   14  O   UNL     1     -12.582  14.471  63.708  1.00  0.00    -0.825 OA 
HETATM   15  O   UNL     1     -11.591  16.450  63.987  1.00  0.00    -1.071 OA 
ENDBRANCH  11  12
ENDBRANCH   6  11
ENDBRANCH   5   6
ENDBRANCH   3   5
TORSDOF 5
ENDMDL
MODEL       28
REMARK 921   NORMALIZED FREE ENERGY PREDICTED BY IDOCK:   -4.68 KCAL/MOL
REMARK 922        TOTAL FREE ENERGY PREDICTED BY IDOCK:   -6.56 KCAL/MOL
REMARK 923 INTER-LIGAND FREE ENERGY PREDICTED BY IDOCK:   -6.13 KCAL/MOL
REMARK 924 INTRA-LIGAND FREE ENERGY PREDICTED BY IDOCK:   -0.42 KCAL/MOL
REMARK 927      BINDING AFFINITY PREDICTED BY RF-SCORE:    0.00 PKD
ROOT
HETATM    1  O   UNL     1     -12.531  14.561  63.974  1.00  0.00    -0.778 OA 
HETATM    2  N   UNL     1     -12.568  13.695  64.844  1.00  0.00    -0.367 N  
HETATM    3  O   UNL     1     -11.852  14.060  66.011  1.00  0.00    -0.355 OA 
HETATM    4  O   UNL     1     -13.130  12.599  64.851  1.00  0.00    -0.850 OA 
ENDROOT
BRANCH   3   5
HETATM    5  C   UNL     1     -11.883  13.043  67.013  1.00  0.00    -0.377 C  
BRANCH   5   6
HETATM    6  C   UNL     1     -11.724  13.713  68.390  1.00  0.00    -0.358 C  
BRANCH   6   7
HETATM    7  O   UNL     1     -10.500  14.452  68.542  1.00  0.00    -0.239 OA 
HETATM    8  O   UNL     1     -11.757  16.283  68.955  1.00  0.00    -0.299 OA 
HETATM    9  N   UNL     1     -10.622  15.823  68.864  1.00  0.00    -0.222 N  
HETATM   10  O   UNL     1      -9.535  16.375  69.011  1.00  0.00    -0.248 OA 
ENDBRANCH   6   7
BRANCH   6  11
HETATM   11  C   UNL     1     -12.031  12.759  69.557  1.00  0.00    -0.276 C  
BRANCH  11  12
HETATM   12  O   UNL     1     -12.585  13.520  70.631  1.00  0.00    -0.320 OA 
HETATM   13  N   UNL     1     -13.092  12.700  71.672  1.00  0.00    -0.378 N  
HETATM   14  O   UNL     1     -13.017  11.481  71.511  1.00  0.00    -0.431 OA 
HETATM   15  O   UNL     1     -13.557  13.349  72.604  1.00  0.00    -0.635 OA 
ENDBRANCH  11  12
ENDBRANCH   6  11
ENDBRANCH   5   6
ENDBRANCH   3   5
TORSDOF 5
ENDMDL
MODEL       29
REMARK 921   NORMALIZED FREE ENERGY PREDICTED BY IDOCK:   -4.64 KCAL/MOL
REMARK 922        TOTAL FREE ENERGY PREDICTED BY IDOCK:   -6.50 KCAL/MOL
REMARK 923 INTER-LIGAND FREE ENERGY PREDICTED BY IDOCK:   -6.08 KCAL/MOL
REMARK 924 INTRA-LIGAND FREE ENERGY PREDICTED BY IDOCK:   -0.42 KCAL/MOL
REMARK 927      BINDING AFFINITY PREDICTED BY RF-SCORE:    0.00 PKD
ROOT
HETATM    1  O   UNL     1     -13.051  11.649  62.956  1.00  0.00    -0.436 OA 
HETATM    2  N   UNL     1     -12.786  12.709  63.517  1.00  0.00    -0.279 N  
HETATM    3  O   UNL     1     -12.978  12.650  64.920  1.00  0.00    -0.830 OA 
HETATM    4  O   UNL     1     -12.379  13.775  63.052  1.00  0.00    -0.661 OA 
ENDROOT
BRANCH   3   5
HETATM    5  C   UNL     1     -12.685  13.890  65.565  1.00  0.00    -0.499 C  
BRANCH   5   6
HETATM    6  C   UNL     1     -11.714  13.615  66.728  1.00  0.00    -0.392 C  
BRANCH   6   7
HETATM    7  O   UNL     1     -12.244  12.741  67.738  1.00  0.00    -0.289 OA 
HETATM    8  O   UNL     1     -10.639  11.255  67.175  1.00  0.00    -0.212 OA 
HETATM    9  N   UNL     1     -11.587  11.502  67.916  1.00  0.00    -0.295 N  
HETATM   10  O   UNL     1     -12.077  10.829  68.818  1.00  0.00    -0.451 OA 
ENDBRANCH   6   7
BRANCH   6  11
HETATM   11  C   UNL     1     -11.067  14.897  67.282  1.00  0.00    -0.336 C  
BRANCH  11  12
HETATM   12  O   UNL     1     -10.721  15.741  66.184  1.00  0.00    -0.316 OA 
HETATM   13  N   UNL     1     -10.082  16.937  66.600  1.00  0.00    -0.293 N  
HETATM   14  O   UNL     1      -9.936  17.101  67.811  1.00  0.00    -0.272 OA 
HETATM   15  O   UNL     1      -9.769  17.661  65.659  1.00  0.00    -0.525 OA 
ENDBRANCH  11  12
ENDBRANCH   6  11
ENDBRANCH   5   6
ENDBRANCH   3   5
TORSDOF 5
ENDMDL
MODEL       30
REMARK 921   NORMALIZED FREE ENERGY PREDICTED BY IDOCK:   -4.62 KCAL/MOL
REMARK 922        TOTAL FREE ENERGY PREDICTED BY IDOCK:   -6.48 KCAL/MOL
REMARK 923 INTER-LIGAND FREE ENERGY PREDICTED BY IDOCK:   -5.94 KCAL/MOL
REMARK 924 INTRA-LIGAND FREE ENERGY PREDICTED BY IDOCK:   -0.54 KCAL/MOL
REMARK 927      BINDING AFFINITY PREDICTED BY RF-SCORE:    0.00 PKD
ROOT
HETATM    1  O   UNL     1     -12.247  16.385  72.405  1.00  0.00    -0.479 OA 
HETATM    2  N   UNL     1     -12.712  15.725  71.480  1.00  0.00    -0.455 N  
HETATM    3  O   UNL     1     -11.732  14.946  70.816  1.00  0.00    -0.280 OA 
HETATM    4  O   UNL     1     -13.870  15.636  71.070  1.00  0.00    -0.567 OA 
ENDROOT
BRANCH   3   5
HETATM    5  C   UNL     1     -12.275  14.193  69.730  1.00  0.00    -0.344 C  
BRANCH   5   6
HETATM    6  C   UNL     1     -11.525  14.586  68.444  1.00  0.00    -0.302 C  
BRANCH   6   7
HETATM    7  O   UNL     1     -11.710  15.957  68.055  1.00  0.00    -0.245 OA 
HETATM    8  O   UNL     1      -9.460  16.159  68.009  1.00  0.00    -0.209 OA 
HETATM    9  N   UNL     1     -10.539  16.717  67.826  1.00  0.00    -0.336 N  
HETATM   10  O   UNL     1     -10.780  17.865  67.465  1.00  0.00    -0.389 OA 
ENDBRANCH   6   7
BRANCH   6  11
HETATM   11  C   UNL     1     -11.729  13.576  67.302  1.00  0.00    -0.383 C  
BRANCH  11  12
HETATM   12  O   UNL     1     -12.559  14.177  66.308  1.00  0.00    -0.449 OA 
HETATM   13  N   UNL     1     -11.911  14.281  65.050  1.00  0.00    -0.377 N  
HETATM   14  O   UNL     1     -10.749  13.878  64.985  1.00  0.00    -0.338 OA 
HETATM   15  O   UNL     1     -12.625  14.784  64.187  1.00  0.00    -0.784 OA 
ENDBRANCH  11  12
ENDBRANCH   6  11
ENDBRANCH   5   6
ENDBRANCH   3   5
TORSDOF 5
ENDMDL
MODEL       31
REMARK 921   NORMALIZED FREE ENERGY PREDICTED BY IDOCK:   -4.61 KCAL/MOL
REMARK 922        TOTAL FREE ENERGY PREDICTED BY IDOCK:   -6.47 KCAL/MOL
REMARK 923 INTER-LIGAND FREE ENERGY PREDICTED BY IDOCK:   -6.07 KCAL/MOL
REMARK 924 INTRA-LIGAND FREE ENERGY PREDICTED BY IDOCK:   -0.39 KCAL/MOL
REMARK 927      BINDING AFFINITY PREDICTED BY RF-SCORE:    0.00 PKD
ROOT
HETATM    1  O   UNL     1     -13.601  15.620  70.803  1.00  0.00    -0.524 OA 
HETATM    2  N   UNL     1     -12.604  15.039  70.384  1.00  0.00    -0.355 N  
HETATM    3  O   UNL     1     -12.026  15.683  69.262  1.00  0.00    -0.365 OA 
HETATM    4  O   UNL     1     -12.046  14.019  70.793  1.00  0.00    -0.331 OA 
ENDROOT
BRANCH   3   5
HETATM    5  C   UNL     1     -10.876  14.994  68.767  1.00  0.00    -0.249 C  
BRANCH   5   6
HETATM    6  C   UNL     1     -10.836  15.155  67.236  1.00  0.00    -0.316 C  
BRANCH   6   7
HETATM    7  O   UNL     1     -11.112  16.490  66.781  1.00  0.00    -0.037 OA 
HETATM    8  O   UNL     1      -9.064  16.498  65.829  1.00  0.00    -0.487 OA 
HETATM    9  N   UNL     1     -10.105  17.122  66.016  1.00  0.00    -0.312 N  
HETATM   10  O   UNL     1     -10.429  18.244  65.637  1.00  0.00    -0.627 OA 
ENDBRANCH   6   7
BRANCH   6  11
HETATM   11  C   UNL     1     -11.633  14.063  66.500  1.00  0.00    -0.374 C  
BRANCH  11  12
HETATM   12  O   UNL     1     -11.425  14.219  65.097  1.00  0.00    -0.325 OA 
HETATM   13  N   UNL     1     -12.408  13.547  64.325  1.00  0.00    -0.367 N  
HETATM   14  O   UNL     1     -13.268  12.917  64.941  1.00  0.00    -0.782 OA 
HETATM   15  O   UNL     1     -12.243  13.690  63.116  1.00  0.00    -0.622 OA 
ENDBRANCH  11  12
ENDBRANCH   6  11
ENDBRANCH   5   6
ENDBRANCH   3   5
TORSDOF 5
ENDMDL
MODEL       32
REMARK 921   NORMALIZED FREE ENERGY PREDICTED BY IDOCK:   -4.61 KCAL/MOL
REMARK 922        TOTAL FREE ENERGY PREDICTED BY IDOCK:   -6.46 KCAL/MOL
REMARK 923 INTER-LIGAND FREE ENERGY PREDICTED BY IDOCK:   -6.11 KCAL/MOL
REMARK 924 INTRA-LIGAND FREE ENERGY PREDICTED BY IDOCK:   -0.35 KCAL/MOL
REMARK 927      BINDING AFFINITY PREDICTED BY RF-SCORE:    0.00 PKD
ROOT
HETATM    1  O   UNL     1     -12.736  14.213  70.063  1.00  0.00    -0.292 OA 
HETATM    2  N   UNL     1     -12.005  15.129  69.696  1.00  0.00    -0.323 N  
HETATM    3  O   UNL     1     -11.876  15.196  68.287  1.00  0.00    -0.331 OA 
HETATM    4  O   UNL     1     -11.400  15.976  70.355  1.00  0.00    -0.346 OA 
ENDROOT
BRANCH   3   5
HETATM    5  C   UNL     1     -11.012  16.252  67.865  1.00  0.00    -0.310 C  
BRANCH   5   6
HETATM    6  C   UNL     1     -10.649  16.022  66.387  1.00  0.00    -0.284 C  
BRANCH   6   7
HETATM    7  O   UNL     1     -11.490  15.065  65.720  1.00  0.00    -0.327 OA 
HETATM    8  O   UNL     1     -11.564  16.483  63.963  1.00  0.00    -1.154 OA 
HETATM    9  N   UNL     1     -11.916  15.395  64.413  1.00  0.00    -0.334 N  
HETATM   10  O   UNL     1     -12.601  14.516  63.900  1.00  0.00    -0.827 OA 
ENDBRANCH   6   7
BRANCH   6  11
HETATM   11  C   UNL     1      -9.143  15.791  66.171  1.00  0.00    -0.342 C  
BRANCH  11  12
HETATM   12  O   UNL     1      -8.602  16.929  65.501  1.00  0.00    -0.296 OA 
HETATM   13  N   UNL     1      -7.315  17.282  65.983  1.00  0.00    -0.267 N  
HETATM   14  O   UNL     1      -6.857  16.604  66.903  1.00  0.00    -0.185 OA 
HETATM   15  O   UNL     1      -6.838  18.252  65.400  1.00  0.00    -0.496 OA 
ENDBRANCH  11  12
ENDBRANCH   6  11
ENDBRANCH   5   6
ENDBRANCH   3   5
TORSDOF 5
ENDMDL
MODEL       33
REMARK 921   NORMALIZED FREE ENERGY PREDICTED BY IDOCK:   -4.60 KCAL/MOL
REMARK 922        TOTAL FREE ENERGY PREDICTED BY IDOCK:   -6.46 KCAL/MOL
REMARK 923 INTER-LIGAND FREE ENERGY PREDICTED BY IDOCK:   -6.14 KCAL/MOL
REMARK 924 INTRA-LIGAND FREE ENERGY PREDICTED BY IDOCK:   -0.32 KCAL/MOL
REMARK 927      BINDING AFFINITY PREDICTED BY RF-SCORE:    0.00 PKD
ROOT
HETATM    1  O   UNL     1     -12.803  13.574  64.565  1.00  0.00    -0.645 OA 
HETATM    2  N   UNL     1     -12.392  13.243  65.674  1.00  0.00    -0.459 N  
HETATM    3  O   UNL     1     -12.302  14.334  66.574  1.00  0.00    -0.445 OA 
HETATM    4  O   UNL     1     -12.071  12.134  66.104  1.00  0.00    -0.621 OA 
ENDROOT
BRANCH   3   5
HETATM    5  C   UNL     1     -11.808  13.947  67.857  1.00  0.00    -0.378 C  
BRANCH   5   6
HETATM    6  C   UNL     1     -11.499  15.221  68.663  1.00  0.00    -0.337 C  
BRANCH   6   7
HETATM    7  O   UNL     1     -12.601  15.692  69.457  1.00  0.00    -0.139 OA 
HETATM    8  O   UNL     1     -11.773  14.476  71.171  1.00  0.00    -0.314 OA 
HETATM    9  N   UNL     1     -12.651  15.250  70.799  1.00  0.00    -0.386 N  
HETATM   10  O   UNL     1     -13.600  15.721  71.420  1.00  0.00    -0.526 OA 
ENDBRANCH   6   7
BRANCH   6  11
HETATM   11  C   UNL     1     -10.824  16.314  67.816  1.00  0.00    -0.315 C  
BRANCH  11  12
HETATM   12  O   UNL     1     -10.519  17.421  68.664  1.00  0.00    -0.352 OA 
HETATM   13  N   UNL     1     -10.443  18.646  67.951  1.00  0.00    -0.396 N  
HETATM   14  O   UNL     1     -10.617  18.596  66.733  1.00  0.00    -0.395 OA 
HETATM   15  O   UNL     1     -10.196  19.604  68.678  1.00  0.00    -0.433 OA 
ENDBRANCH  11  12
ENDBRANCH   6  11
ENDBRANCH   5   6
ENDBRANCH   3   5
TORSDOF 5
ENDMDL
MODEL       34
REMARK 921   NORMALIZED FREE ENERGY PREDICTED BY IDOCK:   -4.59 KCAL/MOL
REMARK 922        TOTAL FREE ENERGY PREDICTED BY IDOCK:   -6.44 KCAL/MOL
REMARK 923 INTER-LIGAND FREE ENERGY PREDICTED BY IDOCK:   -6.13 KCAL/MOL
REMARK 924 INTRA-LIGAND FREE ENERGY PREDICTED BY IDOCK:   -0.31 KCAL/MOL
REMARK 927      BINDING AFFINITY PREDICTED BY RF-SCORE:    0.00 PKD
ROOT
HETATM    1  O   UNL     1     -13.502  13.634  71.709  1.00  0.00    -0.374 OA 
HETATM    2  N   UNL     1     -13.128  14.647  71.125  1.00  0.00    -0.351 N  
HETATM    3  O   UNL     1     -12.346  14.362  69.978  1.00  0.00    -0.326 OA 
HETATM    4  O   UNL     1     -13.338  15.834  71.378  1.00  0.00    -0.484 OA 
ENDROOT
BRANCH   3   5
HETATM    5  C   UNL     1     -11.899  15.544  69.312  1.00  0.00    -0.353 C  
BRANCH   5   6
HETATM    6  C   UNL     1     -11.659  15.204  67.829  1.00  0.00    -0.289 C  
BRANCH   6   7
HETATM    7  O   UNL     1     -11.486  13.801  67.571  1.00  0.00    -0.297 OA 
HETATM    8  O   UNL     1     -12.831  14.053  65.774  1.00  0.00    -0.516 OA 
HETATM    9  N   UNL     1     -12.141  13.278  66.433  1.00  0.00    -0.407 N  
HETATM   10  O   UNL     1     -11.918  12.084  66.262  1.00  0.00    -0.596 OA 
ENDBRANCH   6   7
BRANCH   6  11
HETATM   11  C   UNL     1     -10.591  16.099  67.177  1.00  0.00    -0.294 C  
BRANCH  11  12
HETATM   12  O   UNL     1     -10.706  17.414  67.722  1.00  0.00    -0.373 OA 
HETATM   13  N   UNL     1     -10.615  18.423  66.728  1.00  0.00    -0.368 N  
HETATM   14  O   UNL     1     -10.429  18.051  65.569  1.00  0.00    -0.636 OA 
HETATM   15  O   UNL     1     -10.729  19.555  67.189  1.00  0.00    -0.468 OA 
ENDBRANCH  11  12
ENDBRANCH   6  11
ENDBRANCH   5   6
ENDBRANCH   3   5
TORSDOF 5
ENDMDL
MODEL       35
REMARK 921   NORMALIZED FREE ENERGY PREDICTED BY IDOCK:   -4.57 KCAL/MOL
REMARK 922        TOTAL FREE ENERGY PREDICTED BY IDOCK:   -6.42 KCAL/MOL
REMARK 923 INTER-LIGAND FREE ENERGY PREDICTED BY IDOCK:   -5.90 KCAL/MOL
REMARK 924 INTRA-LIGAND FREE ENERGY PREDICTED BY IDOCK:   -0.52 KCAL/MOL
REMARK 927      BINDING AFFINITY PREDICTED BY RF-SCORE:    0.00 PKD
ROOT
HETATM    1  O   UNL     1     -12.046  16.129  63.881  1.00  0.00    -0.956 OA 
HETATM    2  N   UNL     1     -12.314  14.938  64.022  1.00  0.00    -0.270 N  
HETATM    3  O   UNL     1     -12.173  14.501  65.362  1.00  0.00    -0.357 OA 
HETATM    4  O   UNL     1     -12.688  14.104  63.197  1.00  0.00    -0.627 OA 
ENDROOT
BRANCH   3   5
HETATM    5  C   UNL     1     -12.470  13.112  65.519  1.00  0.00    -0.458 C  
BRANCH   5   6
HETATM    6  C   UNL     1     -11.404  12.489  66.439  1.00  0.00    -0.329 C  
BRANCH   6   7
HETATM    7  O   UNL     1     -11.411  13.009  67.779  1.00  0.00    -0.277 OA 
HETATM    8  O   UNL     1     -12.241  11.020  68.456  1.00  0.00    -0.582 OA 
HETATM    9  N   UNL     1     -11.861  12.138  68.797  1.00  0.00    -0.314 N  
HETATM   10  O   UNL     1     -11.805  12.643  69.914  1.00  0.00    -0.318 OA 
ENDBRANCH   6   7
BRANCH   6  11
HETATM   11  C   UNL     1     -10.010  12.442  65.790  1.00  0.00    -0.254 C  
BRANCH  11  12
HETATM   12  O   UNL     1      -9.812  11.143  65.233  1.00  0.00    -0.222 OA 
HETATM   13  N   UNL     1      -9.785  11.159  63.815  1.00  0.00    -0.272 N  
HETATM   14  O   UNL     1      -9.956  12.248  63.265  1.00  0.00    -0.403 OA 
HETATM   15  O   UNL     1      -9.600  10.046  63.330  1.00  0.00    -0.262 OA 
ENDBRANCH  11  12
ENDBRANCH   6  11
ENDBRANCH   5   6
ENDBRANCH   3   5
TORSDOF 5
ENDMDL
MODEL       36
REMARK 921   NORMALIZED FREE ENERGY PREDICTED BY IDOCK:   -4.55 KCAL/MOL
REMARK 922        TOTAL FREE ENERGY PREDICTED BY IDOCK:   -6.39 KCAL/MOL
REMARK 923 INTER-LIGAND FREE ENERGY PREDICTED BY IDOCK:   -5.91 KCAL/MOL
REMARK 924 INTRA-LIGAND FREE ENERGY PREDICTED BY IDOCK:   -0.48 KCAL/MOL
REMARK 927      BINDING AFFINITY PREDICTED BY RF-SCORE:    0.00 PKD
ROOT
HETATM    1  O   UNL     1     -11.688  11.579  67.112  1.00  0.00    -0.567 OA 
HETATM    2  N   UNL     1     -11.828  11.882  68.294  1.00  0.00    -0.314 N  
HETATM    3  O   UNL     1     -11.998  13.276  68.485  1.00  0.00    -0.339 OA 
HETATM    4  O   UNL     1     -11.854  11.172  69.300  1.00  0.00    -0.301 OA 
ENDROOT
BRANCH   3   5
HETATM    5  C   UNL     1     -12.143  13.627  69.862  1.00  0.00    -0.341 C  
BRANCH   5   6
HETATM    6  C   UNL     1     -12.083  15.160  69.982  1.00  0.00    -0.345 C  
BRANCH   6   7
HETATM    7  O   UNL     1     -10.748  15.688  70.061  1.00  0.00    -0.289 OA 
HETATM    8  O   UNL     1     -11.086  16.616  68.030  1.00  0.00    -0.343 OA 
HETATM    9  N   UNL     1     -10.309  16.474  68.971  1.00  0.00    -0.276 N  
HETATM   10  O   UNL     1      -9.175  16.915  69.129  1.00  0.00    -0.219 OA 
ENDBRANCH   6   7
BRANCH   6  11
HETATM   11  C   UNL     1     -13.042  15.714  71.050  1.00  0.00    -0.427 C  
BRANCH  11  12
HETATM   12  O   UNL     1     -12.313  15.897  72.263  1.00  0.00    -0.407 OA 
HETATM   13  N   UNL     1     -12.693  14.972  73.269  1.00  0.00    -0.482 N  
HETATM   14  O   UNL     1     -13.589  14.176  72.987  1.00  0.00    -0.651 OA 
HETATM   15  O   UNL     1     -12.058  15.114  74.311  1.00  0.00    -0.610 OA 
ENDBRANCH  11  12
ENDBRANCH   6  11
ENDBRANCH   5   6
ENDBRANCH   3   5
TORSDOF 5
ENDMDL
MODEL       37
REMARK 921   NORMALIZED FREE ENERGY PREDICTED BY IDOCK:   -4.54 KCAL/MOL
REMARK 922        TOTAL FREE ENERGY PREDICTED BY IDOCK:   -6.38 KCAL/MOL
REMARK 923 INTER-LIGAND FREE ENERGY PREDICTED BY IDOCK:   -5.95 KCAL/MOL
REMARK 924 INTRA-LIGAND FREE ENERGY PREDICTED BY IDOCK:   -0.43 KCAL/MOL
REMARK 927      BINDING AFFINITY PREDICTED BY RF-SCORE:    0.00 PKD
ROOT
HETATM    1  O   UNL     1     -12.161   9.961  70.037  1.00  0.00    -0.106 OA 
HETATM    2  N   UNL     1     -12.155  11.187  69.964  1.00  0.00    -0.338 N  
HETATM    3  O   UNL     1     -12.041  11.655  68.631  1.00  0.00    -0.449 OA 
HETATM    4  O   UNL     1     -12.244  12.037  70.851  1.00  0.00    -0.352 OA 
ENDROOT
BRANCH   3   5
HETATM    5  C   UNL     1     -12.017  13.082  68.552  1.00  0.00    -0.261 C  
BRANCH   5   6
HETATM    6  C   UNL     1     -11.734  13.482  67.093  1.00  0.00    -0.379 C  
BRANCH   6   7
HETATM    7  O   UNL     1     -12.187  12.521  66.124  1.00  0.00    -0.609 OA 
HETATM    8  O   UNL     1     -13.266  14.209  65.081  1.00  0.00    -0.743 OA 
HETATM    9  N   UNL     1     -12.991  13.012  65.070  1.00  0.00    -0.302 N  
HETATM   10  O   UNL     1     -13.309  12.139  64.268  1.00  0.00    -0.761 OA 
ENDBRANCH   6   7
BRANCH   6  11
HETATM   11  C   UNL     1     -10.288  13.959  66.874  1.00  0.00    -0.266 C  
BRANCH  11  12
HETATM   12  O   UNL     1     -10.268  15.386  66.928  1.00  0.00    -0.263 OA 
HETATM   13  N   UNL     1     -10.229  15.977  65.639  1.00  0.00    -0.374 N  
HETATM   14  O   UNL     1     -10.191  15.213  64.674  1.00  0.00    -0.187 OA 
HETATM   15  O   UNL     1     -10.227  17.204  65.679  1.00  0.00    -0.564 OA 
ENDBRANCH  11  12
ENDBRANCH   6  11
ENDBRANCH   5   6
ENDBRANCH   3   5
TORSDOF 5
ENDMDL
MODEL       38
REMARK 921   NORMALIZED FREE ENERGY PREDICTED BY IDOCK:   -4.53 KCAL/MOL
REMARK 922        TOTAL FREE ENERGY PREDICTED BY IDOCK:   -6.37 KCAL/MOL
REMARK 923 INTER-LIGAND FREE ENERGY PREDICTED BY IDOCK:   -6.05 KCAL/MOL
REMARK 924 INTRA-LIGAND FREE ENERGY PREDICTED BY IDOCK:   -0.31 KCAL/MOL
REMARK 927      BINDING AFFINITY PREDICTED BY RF-SCORE:    0.00 PKD
ROOT
HETATM    1  O   UNL     1      -9.952   9.287  65.800  1.00  0.00    -0.299 OA 
HETATM    2  N   UNL     1      -9.923  10.166  64.942  1.00  0.00    -0.329 N  
HETATM    3  O   UNL     1     -10.213  11.450  65.463  1.00  0.00    -0.242 OA 
HETATM    4  O   UNL     1      -9.673  10.093  63.738  1.00  0.00    -0.291 OA 
ENDROOT
BRANCH   3   5
HETATM    5  C   UNL     1     -10.195  12.466  64.459  1.00  0.00    -0.299 C  
BRANCH   5   6
HETATM    6  C   UNL     1     -11.284  13.501  64.796  1.00  0.00    -0.352 C  
BRANCH   6   7
HETATM    7  O   UNL     1     -10.827  14.864  64.759  1.00  0.00    -0.394 OA 
HETATM    8  O   UNL     1     -12.757  15.393  63.712  1.00  0.00    -0.628 OA 
HETATM    9  N   UNL     1     -11.698  15.811  64.173  1.00  0.00    -0.237 N  
HETATM   10  O   UNL     1     -11.252  16.954  64.210  1.00  0.00    -1.204 OA 
ENDBRANCH   6   7
BRANCH   6  11
HETATM   11  C   UNL     1     -12.080  13.140  66.062  1.00  0.00    -0.436 C  
BRANCH  11  12
HETATM   12  O   UNL     1     -12.232  14.318  66.854  1.00  0.00    -0.438 OA 
HETATM   13  N   UNL     1     -11.805  14.130  68.194  1.00  0.00    -0.349 N  
HETATM   14  O   UNL     1     -11.398  13.009  68.499  1.00  0.00    -0.248 OA 
HETATM   15  O   UNL     1     -11.919  15.145  68.876  1.00  0.00    -0.308 OA 
ENDBRANCH  11  12
ENDBRANCH   6  11
ENDBRANCH   5   6
ENDBRANCH   3   5
TORSDOF 5
ENDMDL
MODEL       39
REMARK 921   NORMALIZED FREE ENERGY PREDICTED BY IDOCK:   -4.52 KCAL/MOL
REMARK 922        TOTAL FREE ENERGY PREDICTED BY IDOCK:   -6.35 KCAL/MOL
REMARK 923 INTER-LIGAND FREE ENERGY PREDICTED BY IDOCK:   -5.86 KCAL/MOL
REMARK 924 INTRA-LIGAND FREE ENERGY PREDICTED BY IDOCK:   -0.49 KCAL/MOL
REMARK 927      BINDING AFFINITY PREDICTED BY RF-SCORE:    0.00 PKD
ROOT
HETATM    1  O   UNL     1     -10.590   8.837  67.877  1.00  0.00    -0.229 OA 
HETATM    2  N   UNL     1     -10.562  10.052  68.057  1.00  0.00    -0.219 N  
HETATM    3  O   UNL     1     -11.612  10.729  67.389  1.00  0.00    -0.485 OA 
HETATM    4  O   UNL     1      -9.785  10.739  68.722  1.00  0.00    -0.177 OA 
ENDROOT
BRANCH   3   5
HETATM    5  C   UNL     1     -11.565  12.143  67.587  1.00  0.00    -0.343 C  
BRANCH   5   6
HETATM    6  C   UNL     1     -11.487  12.824  66.209  1.00  0.00    -0.354 C  
BRANCH   6   7
HETATM    7  O   UNL     1     -10.665  12.126  65.258  1.00  0.00    -0.270 OA 
HETATM    8  O   UNL     1     -12.483  11.970  63.928  1.00  0.00    -0.457 OA 
HETATM    9  N   UNL     1     -11.286  11.724  64.054  1.00  0.00    -0.380 N  
HETATM   10  O   UNL     1     -10.512  11.167  63.282  1.00  0.00    -0.353 OA 
ENDBRANCH   6   7
BRANCH   6  11
HETATM   11  C   UNL     1     -11.196  14.332  66.303  1.00  0.00    -0.337 C  
BRANCH  11  12
HETATM   12  O   UNL     1     -11.868  14.991  65.230  1.00  0.00    -0.272 OA 
HETATM   13  N   UNL     1     -11.151  16.118  64.751  1.00  0.00    -0.422 N  
HETATM   14  O   UNL     1     -10.092  16.389  65.319  1.00  0.00    -0.545 OA 
HETATM   15  O   UNL     1     -11.717  16.680  63.818  1.00  0.00    -1.015 OA 
ENDBRANCH  11  12
ENDBRANCH   6  11
ENDBRANCH   5   6
ENDBRANCH   3   5
TORSDOF 5
ENDMDL
MODEL       40
REMARK 921   NORMALIZED FREE ENERGY PREDICTED BY IDOCK:   -4.52 KCAL/MOL
REMARK 922        TOTAL FREE ENERGY PREDICTED BY IDOCK:   -6.35 KCAL/MOL
REMARK 923 INTER-LIGAND FREE ENERGY PREDICTED BY IDOCK:   -5.90 KCAL/MOL
REMARK 924 INTRA-LIGAND FREE ENERGY PREDICTED BY IDOCK:   -0.45 KCAL/MOL
REMARK 927      BINDING AFFINITY PREDICTED BY RF-SCORE:    0.00 PKD
ROOT
HETATM    1  O   UNL     1     -11.606  16.683  64.029  1.00  0.00    -1.197 OA 
HETATM    2  N   UNL     1     -11.731  15.489  64.290  1.00  0.00    -0.303 N  
HETATM    3  O   UNL     1     -10.608  14.956  64.971  1.00  0.00    -0.386 OA 
HETATM    4  O   UNL     1     -12.666  14.719  64.063  1.00  0.00    -0.786 OA 
ENDROOT
BRANCH   3   5
HETATM    5  C   UNL     1     -10.751  13.564  65.256  1.00  0.00    -0.323 C  
BRANCH   5   6
HETATM    6  C   UNL     1     -10.653  13.369  66.780  1.00  0.00    -0.277 C  
BRANCH   6   7
HETATM    7  O   UNL     1     -11.804  12.735  67.364  1.00  0.00    -0.361 OA 
HETATM    8  O   UNL     1     -10.416  11.138  68.157  1.00  0.00    -0.176 OA 
HETATM    9  N   UNL     1     -11.572  11.550  68.100  1.00  0.00    -0.308 N  
HETATM   10  O   UNL     1     -12.597  11.089  68.594  1.00  0.00    -0.304 OA 
ENDBRANCH   6   7
BRANCH   6  11
HETATM   11  C   UNL     1     -10.196  14.640  67.517  1.00  0.00    -0.225 C  
BRANCH  11  12
HETATM   12  O   UNL     1     -10.829  14.676  68.796  1.00  0.00    -0.238 OA 
HETATM   13  N   UNL     1     -11.205  15.989  69.179  1.00  0.00    -0.321 N  
HETATM   14  O   UNL     1     -10.923  16.901  68.401  1.00  0.00    -0.356 OA 
HETATM   15  O   UNL     1     -11.763  16.023  70.272  1.00  0.00    -0.338 OA 
ENDBRANCH  11  12
ENDBRANCH   6  11
ENDBRANCH   5   6
ENDBRANCH   3   5
TORSDOF 5
ENDMDL
MODEL       41
REMARK 921   NORMALIZED FREE ENERGY PREDICTED BY IDOCK:   -4.52 KCAL/MOL
REMARK 922        TOTAL FREE ENERGY PREDICTED BY IDOCK:   -6.35 KCAL/MOL
REMARK 923 INTER-LIGAND FREE ENERGY PREDICTED BY IDOCK:   -5.86 KCAL/MOL
REMARK 924 INTRA-LIGAND FREE ENERGY PREDICTED BY IDOCK:   -0.48 KCAL/MOL
REMARK 927      BINDING AFFINITY PREDICTED BY RF-SCORE:    0.00 PKD
ROOT
HETATM    1  O   UNL     1     -11.061  19.492  65.494  1.00  0.00    -0.382 OA 
HETATM    2  N   UNL     1     -10.319  18.804  66.191  1.00  0.00    -0.440 N  
HETATM    3  O   UNL     1     -10.919  18.419  67.415  1.00  0.00    -0.351 OA 
HETATM    4  O   UNL     1      -9.173  18.406  65.979  1.00  0.00    -0.505 OA 
ENDROOT
BRANCH   3   5
HETATM    5  C   UNL     1     -10.047  17.634  68.229  1.00  0.00    -0.362 C  
BRANCH   5   6
HETATM    6  C   UNL     1     -10.751  16.304  68.554  1.00  0.00    -0.307 C  
BRANCH   6   7
HETATM    7  O   UNL     1     -10.515  15.828  69.890  1.00  0.00    -0.287 OA 
HETATM    8  O   UNL     1     -12.743  15.961  70.239  1.00  0.00    -0.343 OA 
HETATM    9  N   UNL     1     -11.651  15.658  70.714  1.00  0.00    -0.345 N  
HETATM   10  O   UNL     1     -11.371  15.217  71.825  1.00  0.00    -0.408 OA 
ENDBRANCH   6   7
BRANCH   6  11
HETATM   11  C   UNL     1     -10.548  15.239  67.462  1.00  0.00    -0.273 C  
BRANCH  11  12
HETATM   12  O   UNL     1     -11.819  14.681  67.131  1.00  0.00    -0.391 OA 
HETATM   13  N   UNL     1     -11.992  14.517  65.732  1.00  0.00    -0.341 N  
HETATM   14  O   UNL     1     -11.067  14.887  65.007  1.00  0.00    -0.368 OA 
HETATM   15  O   UNL     1     -13.078  14.023  65.442  1.00  0.00    -0.763 OA 
ENDBRANCH  11  12
ENDBRANCH   6  11
ENDBRANCH   5   6
ENDBRANCH   3   5
TORSDOF 5
ENDMDL
MODEL       42
REMARK 921   NORMALIZED FREE ENERGY PREDICTED BY IDOCK:   -4.52 KCAL/MOL
REMARK 922        TOTAL FREE ENERGY PREDICTED BY IDOCK:   -6.35 KCAL/MOL
REMARK 923 INTER-LIGAND FREE ENERGY PREDICTED BY IDOCK:   -5.91 KCAL/MOL
REMARK 924 INTRA-LIGAND FREE ENERGY PREDICTED BY IDOCK:   -0.43 KCAL/MOL
REMARK 927      BINDING AFFINITY PREDICTED BY RF-SCORE:    0.00 PKD
ROOT
HETATM    1  O   UNL     1     -13.223  11.526  72.044  1.00  0.00    -0.509 OA 
HETATM    2  N   UNL     1     -12.654  11.059  71.062  1.00  0.00    -0.388 N  
HETATM    3  O   UNL     1     -12.345  12.042  70.089  1.00  0.00    -0.240 OA 
HETATM    4  O   UNL     1     -12.313   9.901  70.816  1.00  0.00    -0.295 OA 
ENDROOT
BRANCH   3   5
HETATM    5  C   UNL     1     -11.698  11.491  68.940  1.00  0.00    -0.339 C  
BRANCH   5   6
HETATM    6  C   UNL     1     -11.471  12.624  67.922  1.00  0.00    -0.309 C  
BRANCH   6   7
HETATM    7  O   UNL     1     -12.131  13.855  68.260  1.00  0.00    -0.366 OA 
HETATM    8  O   UNL     1     -10.101  14.702  68.777  1.00  0.00    -0.226 OA 
HETATM    9  N   UNL     1     -11.307  14.920  68.692  1.00  0.00    -0.277 N  
HETATM   10  O   UNL     1     -11.940  15.945  68.929  1.00  0.00    -0.370 OA 
ENDBRANCH   6   7
BRANCH   6  11
HETATM   11  C   UNL     1     -11.692  12.172  66.468  1.00  0.00    -0.321 C  
BRANCH  11  12
HETATM   12  O   UNL     1     -11.588  13.313  65.618  1.00  0.00    -0.317 OA 
HETATM   13  N   UNL     1     -12.510  13.273  64.540  1.00  0.00    -0.348 N  
HETATM   14  O   UNL     1     -13.236  12.282  64.462  1.00  0.00    -0.799 OA 
HETATM   15  O   UNL     1     -12.435  14.260  63.813  1.00  0.00    -0.810 OA 
ENDBRANCH  11  12
ENDBRANCH   6  11
ENDBRANCH   5   6
ENDBRANCH   3   5
TORSDOF 5
ENDMDL
MODEL       43
REMARK 921   NORMALIZED FREE ENERGY PREDICTED BY IDOCK:   -4.51 KCAL/MOL
REMARK 922        TOTAL FREE ENERGY PREDICTED BY IDOCK:   -6.35 KCAL/MOL
REMARK 923 INTER-LIGAND FREE ENERGY PREDICTED BY IDOCK:   -5.95 KCAL/MOL
REMARK 924 INTRA-LIGAND FREE ENERGY PREDICTED BY IDOCK:   -0.40 KCAL/MOL
REMARK 927      BINDING AFFINITY PREDICTED BY RF-SCORE:    0.00 PKD
ROOT
HETATM    1  O   UNL     1     -11.658  16.308  71.463  1.00  0.00    -0.457 OA 
HETATM    2  N   UNL     1     -11.747  15.166  71.017  1.00  0.00    -0.313 N  
HETATM    3  O   UNL     1     -11.424  15.090  69.639  1.00  0.00    -0.260 OA 
HETATM    4  O   UNL     1     -12.054  14.115  71.580  1.00  0.00    -0.314 OA 
ENDROOT
BRANCH   3   5
HETATM    5  C   UNL     1     -11.545  13.764  69.121  1.00  0.00    -0.317 C  
BRANCH   5   6
HETATM    6  C   UNL     1     -11.357  13.820  67.594  1.00  0.00    -0.304 C  
BRANCH   6   7
HETATM    7  O   UNL     1     -10.732  12.651  67.038  1.00  0.00    -0.241 OA 
HETATM    8  O   UNL     1     -12.504  12.469  65.649  1.00  0.00    -0.648 OA 
HETATM    9  N   UNL     1     -11.418  12.004  65.985  1.00  0.00    -0.357 N  
HETATM   10  O   UNL     1     -10.806  11.037  65.542  1.00  0.00    -0.197 OA 
ENDBRANCH   6   7
BRANCH   6  11
HETATM   11  C   UNL     1     -10.741  15.148  67.118  1.00  0.00    -0.310 C  
BRANCH  11  12
HETATM   12  O   UNL     1     -11.404  15.550  65.919  1.00  0.00    -0.195 OA 
HETATM   13  N   UNL     1     -10.676  16.533  65.200  1.00  0.00    -0.326 N  
HETATM   14  O   UNL     1      -9.617  16.919  65.696  1.00  0.00    -0.534 OA 
HETATM   15  O   UNL     1     -11.235  16.872  64.161  1.00  0.00    -1.176 OA 
ENDBRANCH  11  12
ENDBRANCH   6  11
ENDBRANCH   5   6
ENDBRANCH   3   5
TORSDOF 5
ENDMDL
MODEL       44
REMARK 921   NORMALIZED FREE ENERGY PREDICTED BY IDOCK:   -4.49 KCAL/MOL
REMARK 922        TOTAL FREE ENERGY PREDICTED BY IDOCK:   -6.31 KCAL/MOL
REMARK 923 INTER-LIGAND FREE ENERGY PREDICTED BY IDOCK:   -5.84 KCAL/MOL
REMARK 924 INTRA-LIGAND FREE ENERGY PREDICTED BY IDOCK:   -0.47 KCAL/MOL
REMARK 927      BINDING AFFINITY PREDICTED BY RF-SCORE:    0.00 PKD
ROOT
HETATM    1  O   UNL     1     -13.883  13.391  72.688  1.00  0.00    -0.726 OA 
HETATM    2  N   UNL     1     -13.323  12.571  71.964  1.00  0.00    -0.492 N  
HETATM    3  O   UNL     1     -12.533  13.179  70.957  1.00  0.00    -0.370 OA 
HETATM    4  O   UNL     1     -13.339  11.340  71.996  1.00  0.00    -0.462 OA 
ENDROOT
BRANCH   3   5
HETATM    5  C   UNL     1     -11.897  12.223  70.107  1.00  0.00    -0.272 C  
BRANCH   5   6
HETATM    6  C   UNL     1     -11.275  12.971  68.914  1.00  0.00    -0.278 C  
BRANCH   6   7
HETATM    7  O   UNL     1     -11.827  14.280  68.693  1.00  0.00    -0.323 OA 
HETATM    8  O   UNL     1      -9.713  15.039  68.459  1.00  0.00    -0.204 OA 
HETATM    9  N   UNL     1     -10.908  15.323  68.438  1.00  0.00    -0.248 N  
HETATM   10  O   UNL     1     -11.457  16.400  68.227  1.00  0.00    -0.312 OA 
ENDBRANCH   6   7
BRANCH   6  11
HETATM   11  C   UNL     1     -11.188  12.104  67.646  1.00  0.00    -0.286 C  
BRANCH  11  12
HETATM   12  O   UNL     1     -12.316  12.394  66.820  1.00  0.00    -0.457 OA 
HETATM   13  N   UNL     1     -11.958  13.090  65.637  1.00  0.00    -0.405 N  
HETATM   14  O   UNL     1     -10.768  13.370  65.491  1.00  0.00    -0.283 OA 
HETATM   15  O   UNL     1     -12.922  13.329  64.916  1.00  0.00    -0.727 OA 
ENDBRANCH  11  12
ENDBRANCH   6  11
ENDBRANCH   5   6
ENDBRANCH   3   5
TORSDOF 5
ENDMDL
MODEL       45
REMARK 921   NORMALIZED FREE ENERGY PREDICTED BY IDOCK:   -4.47 KCAL/MOL
REMARK 922        TOTAL FREE ENERGY PREDICTED BY IDOCK:   -6.29 KCAL/MOL
REMARK 923 INTER-LIGAND FREE ENERGY PREDICTED BY IDOCK:   -5.74 KCAL/MOL
REMARK 924 INTRA-LIGAND FREE ENERGY PREDICTED BY IDOCK:   -0.55 KCAL/MOL
REMARK 927      BINDING AFFINITY PREDICTED BY RF-SCORE:    0.00 PKD
ROOT
HETATM    1  O   UNL     1     -12.159  16.037  63.786  1.00  0.00    -0.882 OA 
HETATM    2  N   UNL     1     -12.294  14.840  64.025  1.00  0.00    -0.287 N  
HETATM    3  O   UNL     1     -11.973  14.510  65.365  1.00  0.00    -0.362 OA 
HETATM    4  O   UNL     1     -12.667  13.920  63.296  1.00  0.00    -0.775 OA 
ENDROOT
BRANCH   3   5
HETATM    5  C   UNL     1     -12.114  13.114  65.635  1.00  0.00    -0.449 C  
BRANCH   5   6
HETATM    6  C   UNL     1     -11.639  12.847  67.074  1.00  0.00    -0.362 C  
BRANCH   6   7
HETATM    7  O   UNL     1     -10.563  13.698  67.502  1.00  0.00    -0.239 OA 
HETATM    8  O   UNL     1     -11.793  14.191  69.331  1.00  0.00    -0.288 OA 
HETATM    9  N   UNL     1     -10.732  14.364  68.738  1.00  0.00    -0.246 N  
HETATM   10  O   UNL     1      -9.758  15.043  69.049  1.00  0.00    -0.218 OA 
ENDBRANCH   6   7
BRANCH   6  11
HETATM   11  C   UNL     1     -11.409  11.352  67.359  1.00  0.00    -0.288 C  
BRANCH  11  12
HETATM   12  O   UNL     1     -12.150  10.994  68.525  1.00  0.00    -0.573 OA 
HETATM   13  N   UNL     1     -11.312  10.688  69.628  1.00  0.00    -0.271 N  
HETATM   14  O   UNL     1     -10.097  10.742  69.439  1.00  0.00    -0.212 OA 
HETATM   15  O   UNL     1     -11.945  10.393  70.638  1.00  0.00    -0.294 OA 
ENDBRANCH  11  12
ENDBRANCH   6  11
ENDBRANCH   5   6
ENDBRANCH   3   5
TORSDOF 5
ENDMDL
MODEL       46
REMARK 921   NORMALIZED FREE ENERGY PREDICTED BY IDOCK:   -4.47 KCAL/MOL
REMARK 922        TOTAL FREE ENERGY PREDICTED BY IDOCK:   -6.28 KCAL/MOL
REMARK 923 INTER-LIGAND FREE ENERGY PREDICTED BY IDOCK:   -5.94 KCAL/MOL
REMARK 924 INTRA-LIGAND FREE ENERGY PREDICTED BY IDOCK:   -0.34 KCAL/MOL
REMARK 927      BINDING AFFINITY PREDICTED BY RF-SCORE:    0.00 PKD
ROOT
HETATM    1  O   UNL     1      -8.788   9.783  64.023  1.00  0.00    -0.200 OA 
HETATM    2  N   UNL     1      -9.544  10.740  63.875  1.00  0.00    -0.265 N  
HETATM    3  O   UNL     1     -10.560  10.793  64.861  1.00  0.00    -0.292 OA 
HETATM    4  O   UNL     1      -9.537  11.635  63.028  1.00  0.00    -0.392 OA 
ENDROOT
BRANCH   3   5
HETATM    5  C   UNL     1     -11.447  11.897  64.674  1.00  0.00    -0.279 C  
BRANCH   5   6
HETATM    6  C   UNL     1     -11.620  12.614  66.025  1.00  0.00    -0.393 C  
BRANCH   6   7
HETATM    7  O   UNL     1     -11.975  11.740  67.110  1.00  0.00    -0.617 OA 
HETATM    8  O   UNL     1     -10.632  12.982  68.436  1.00  0.00    -0.239 OA 
HETATM    9  N   UNL     1     -11.407  12.031  68.372  1.00  0.00    -0.254 N  
HETATM   10  O   UNL     1     -11.783  11.262  69.251  1.00  0.00    -0.275 OA 
ENDBRANCH   6   7
BRANCH   6  11
HETATM   11  C   UNL     1     -12.495  13.876  65.924  1.00  0.00    -0.481 C  
BRANCH  11  12
HETATM   12  O   UNL     1     -11.649  14.994  65.657  1.00  0.00    -0.302 OA 
HETATM   13  N   UNL     1     -11.888  15.564  64.381  1.00  0.00    -0.322 N  
HETATM   14  O   UNL     1     -12.745  15.026  63.680  1.00  0.00    -0.627 OA 
HETATM   15  O   UNL     1     -11.173  16.536  64.152  1.00  0.00    -1.004 OA 
ENDBRANCH  11  12
ENDBRANCH   6  11
ENDBRANCH   5   6
ENDBRANCH   3   5
TORSDOF 5
ENDMDL
MODEL       47
REMARK 921   NORMALIZED FREE ENERGY PREDICTED BY IDOCK:   -4.44 KCAL/MOL
REMARK 922        TOTAL FREE ENERGY PREDICTED BY IDOCK:   -6.25 KCAL/MOL
REMARK 923 INTER-LIGAND FREE ENERGY PREDICTED BY IDOCK:   -5.70 KCAL/MOL
REMARK 924 INTRA-LIGAND FREE ENERGY PREDICTED BY IDOCK:   -0.55 KCAL/MOL
REMARK 927      BINDING AFFINITY PREDICTED BY RF-SCORE:    0.00 PKD
ROOT
HETATM    1  O   UNL     1      -9.847  20.992  67.414  1.00  0.00    -0.393 OA 
HETATM    2  N   UNL     1     -10.264  19.863  67.169  1.00  0.00    -0.422 N  
HETATM    3  O   UNL     1      -9.961  18.933  68.194  1.00  0.00    -0.337 OA 
HETATM    4  O   UNL     1     -10.896  19.442  66.199  1.00  0.00    -0.403 OA 
ENDROOT
BRANCH   3   5
HETATM    5  C   UNL     1     -10.432  17.618  67.897  1.00  0.00    -0.392 C  
BRANCH   5   6
HETATM    6  C   UNL     1      -9.215  16.718  67.615  1.00  0.00    -0.223 C  
BRANCH   6   7
HETATM    7  O   UNL     1      -7.963  17.423  67.580  1.00  0.00    -0.191 OA 
HETATM    8  O   UNL     1      -7.405  16.356  69.491  1.00  0.00    -0.209 OA 
HETATM    9  N   UNL     1      -7.048  17.147  68.621  1.00  0.00    -0.206 N  
HETATM   10  O   UNL     1      -5.992  17.761  68.502  1.00  0.00    -0.171 OA 
ENDBRANCH   6   7
BRANCH   6  11
HETATM   11  C   UNL     1      -9.436  15.771  66.423  1.00  0.00    -0.297 C  
BRANCH  11  12
HETATM   12  O   UNL     1      -9.986  16.523  65.342  1.00  0.00    -0.552 OA 
HETATM   13  N   UNL     1     -11.085  15.868  64.728  1.00  0.00    -0.444 N  
HETATM   14  O   UNL     1     -11.396  14.763  65.172  1.00  0.00    -0.350 OA 
HETATM   15  O   UNL     1     -11.571  16.518  63.806  1.00  0.00    -1.109 OA 
ENDBRANCH  11  12
ENDBRANCH   6  11
ENDBRANCH   5   6
ENDBRANCH   3   5
TORSDOF 5
ENDMDL
MODEL       48
REMARK 921   NORMALIZED FREE ENERGY PREDICTED BY IDOCK:   -4.44 KCAL/MOL
REMARK 922        TOTAL FREE ENERGY PREDICTED BY IDOCK:   -6.25 KCAL/MOL
REMARK 923 INTER-LIGAND FREE ENERGY PREDICTED BY IDOCK:   -5.86 KCAL/MOL
REMARK 924 INTRA-LIGAND FREE ENERGY PREDICTED BY IDOCK:   -0.38 KCAL/MOL
REMARK 927      BINDING AFFINITY PREDICTED BY RF-SCORE:    0.00 PKD
ROOT
HETATM    1  O   UNL     1     -12.599  14.408  63.758  1.00  0.00    -0.829 OA 
HETATM    2  N   UNL     1     -11.754  14.189  64.623  1.00  0.00    -0.396 N  
HETATM    3  O   UNL     1     -12.279  14.277  65.936  1.00  0.00    -0.417 OA 
HETATM    4  O   UNL     1     -10.562  13.901  64.514  1.00  0.00    -0.424 OA 
ENDROOT
BRANCH   3   5
HETATM    5  C   UNL     1     -11.290  14.038  66.938  1.00  0.00    -0.329 C  
BRANCH   5   6
HETATM    6  C   UNL     1     -11.367  15.172  67.976  1.00  0.00    -0.337 C  
BRANCH   6   7
HETATM    7  O   UNL     1     -10.095  15.761  68.295  1.00  0.00    -0.219 OA 
HETATM    8  O   UNL     1     -10.907  17.725  67.530  1.00  0.00    -0.344 OA 
HETATM    9  N   UNL     1      -9.951  17.143  68.036  1.00  0.00    -0.282 N  
HETATM   10  O   UNL     1      -8.851  17.577  68.365  1.00  0.00    -0.262 OA 
ENDBRANCH   6   7
BRANCH   6  11
HETATM   11  C   UNL     1     -12.212  14.800  69.207  1.00  0.00    -0.199 C  
BRANCH  11  12
HETATM   12  O   UNL     1     -11.597  15.361  70.366  1.00  0.00    -0.270 OA 
HETATM   13  N   UNL     1     -12.546  15.793  71.329  1.00  0.00    -0.458 N  
HETATM   14  O   UNL     1     -13.735  15.658  71.041  1.00  0.00    -0.582 OA 
HETATM   15  O   UNL     1     -12.022  16.263  72.335  1.00  0.00    -0.516 OA 
ENDBRANCH  11  12
ENDBRANCH   6  11
ENDBRANCH   5   6
ENDBRANCH   3   5
TORSDOF 5
ENDMDL
MODEL       49
REMARK 921   NORMALIZED FREE ENERGY PREDICTED BY IDOCK:   -4.43 KCAL/MOL
REMARK 922        TOTAL FREE ENERGY PREDICTED BY IDOCK:   -6.24 KCAL/MOL
REMARK 923 INTER-LIGAND FREE ENERGY PREDICTED BY IDOCK:   -5.80 KCAL/MOL
REMARK 924 INTRA-LIGAND FREE ENERGY PREDICTED BY IDOCK:   -0.44 KCAL/MOL
REMARK 927      BINDING AFFINITY PREDICTED BY RF-SCORE:    0.00 PKD
ROOT
HETATM    1  O   UNL     1     -13.218  10.072  72.167  1.00  0.00    -0.442 OA 
HETATM    2  N   UNL     1     -12.925  11.113  71.584  1.00  0.00    -0.462 N  
HETATM    3  O   UNL     1     -12.113  10.894  70.445  1.00  0.00    -0.301 OA 
HETATM    4  O   UNL     1     -13.237  12.278  71.834  1.00  0.00    -0.473 OA 
ENDROOT
BRANCH   3   5
HETATM    5  C   UNL     1     -11.761  12.109  69.781  1.00  0.00    -0.310 C  
BRANCH   5   6
HETATM    6  C   UNL     1     -11.350  11.771  68.336  1.00  0.00    -0.270 C  
BRANCH   6   7
HETATM    7  O   UNL     1      -9.973  11.386  68.194  1.00  0.00    -0.177 OA 
HETATM    8  O   UNL     1     -10.695   9.305  67.695  1.00  0.00    -0.269 OA 
HETATM    9  N   UNL     1      -9.723  10.043  67.830  1.00  0.00    -0.148 N  
HETATM   10  O   UNL     1      -8.527   9.802  67.696  1.00  0.00    -0.121 OA 
ENDBRANCH   6   7
BRANCH   6  11
HETATM   11  C   UNL     1     -11.813  12.831  67.320  1.00  0.00    -0.350 C  
BRANCH  11  12
HETATM   12  O   UNL     1     -11.936  12.209  66.041  1.00  0.00    -0.578 OA 
HETATM   13  N   UNL     1     -12.711  12.980  65.136  1.00  0.00    -0.479 N  
HETATM   14  O   UNL     1     -13.183  14.035  65.561  1.00  0.00    -0.710 OA 
HETATM   15  O   UNL     1     -12.807  12.457  64.029  1.00  0.00    -0.717 OA 
ENDBRANCH  11  12
ENDBRANCH   6  11
ENDBRANCH   5   6
ENDBRANCH   3   5
TORSDOF 5
ENDMDL
MODEL       50
REMARK 921   NORMALIZED FREE ENERGY PREDICTED BY IDOCK:   -4.41 KCAL/MOL
REMARK 922        TOTAL FREE ENERGY PREDICTED BY IDOCK:   -6.21 KCAL/MOL
REMARK 923 INTER-LIGAND FREE ENERGY PREDICTED BY IDOCK:   -5.75 KCAL/MOL
REMARK 924 INTRA-LIGAND FREE ENERGY PREDICTED BY IDOCK:   -0.46 KCAL/MOL
REMARK 927      BINDING AFFINITY PREDICTED BY RF-SCORE:    0.00 PKD
ROOT
HETATM    1  O   UNL     1     -14.212  13.458  72.684  1.00  0.00    -0.747 OA 
HETATM    2  N   UNL     1     -13.270  13.425  71.895  1.00  0.00    -0.418 N  
HETATM    3  O   UNL     1     -13.082  12.144  71.320  1.00  0.00    -0.280 OA 
HETATM    4  O   UNL     1     -12.503  14.319  71.537  1.00  0.00    -0.334 OA 
ENDROOT
BRANCH   3   5
HETATM    5  C   UNL     1     -11.976  12.107  70.417  1.00  0.00    -0.272 C  
BRANCH   5   6
HETATM    6  C   UNL     1     -11.683  10.636  70.069  1.00  0.00    -0.324 C  
BRANCH   6   7
HETATM    7  O   UNL     1     -10.886   9.951  71.050  1.00  0.00    -0.321 OA 
HETATM    8  O   UNL     1     -12.747   8.815  71.643  1.00  0.00    -0.321 OA 
HETATM    9  N   UNL     1     -11.544   8.976  71.836  1.00  0.00    -0.365 N  
HETATM   10  O   UNL     1     -10.791   8.413  72.624  1.00  0.00    -0.342 OA 
ENDBRANCH   6   7
BRANCH   6  11
HETATM   11  C   UNL     1     -11.193  10.451  68.623  1.00  0.00    -0.248 C  
BRANCH  11  12
HETATM   12  O   UNL     1     -12.117  11.094  67.745  1.00  0.00    -0.606 OA 
HETATM   13  N   UNL     1     -11.472  11.908  66.779  1.00  0.00    -0.335 N  
HETATM   14  O   UNL     1     -10.243  11.975  66.835  1.00  0.00    -0.206 OA 
HETATM   15  O   UNL     1     -12.261  12.453  66.012  1.00  0.00    -0.636 OA 
ENDBRANCH  11  12
ENDBRANCH   6  11
ENDBRANCH   5   6
ENDBRANCH   3   5
TORSDOF 5
ENDMDL
MODEL       51
REMARK 921   NORMALIZED FREE ENERGY PREDICTED BY IDOCK:   -4.41 KCAL/MOL
REMARK 922        TOTAL FREE ENERGY PREDICTED BY IDOCK:   -6.21 KCAL/MOL
REMARK 923 INTER-LIGAND FREE ENERGY PREDICTED BY IDOCK:   -5.83 KCAL/MOL
REMARK 924 INTRA-LIGAND FREE ENERGY PREDICTED BY IDOCK:   -0.38 KCAL/MOL
REMARK 927      BINDING AFFINITY PREDICTED BY RF-SCORE:    0.00 PKD
ROOT
HETATM    1  O   UNL     1     -11.219  17.311  64.334  1.00  0.00    -1.082 OA 
HETATM    2  N   UNL     1     -10.927  16.847  65.434  1.00  0.00    -0.143 N  
HETATM    3  O   UNL     1     -11.215  15.464  65.539  1.00  0.00    -0.310 OA 
HETATM    4  O   UNL     1     -10.426  17.392  66.419  1.00  0.00    -0.326 OA 
ENDROOT
BRANCH   3   5
HETATM    5  C   UNL     1     -10.890  14.933  66.825  1.00  0.00    -0.320 C  
BRANCH   5   6
HETATM    6  C   UNL     1     -11.374  13.473  66.883  1.00  0.00    -0.326 C  
BRANCH   6   7
HETATM    7  O   UNL     1     -12.479  13.187  66.009  1.00  0.00    -0.402 OA 
HETATM    8  O   UNL     1     -11.029  12.082  64.676  1.00  0.00    -0.295 OA 
HETATM    9  N   UNL     1     -12.197  12.418  64.858  1.00  0.00    -0.439 N  
HETATM   10  O   UNL     1     -13.196  12.189  64.182  1.00  0.00    -0.740 OA 
ENDBRANCH   6   7
BRANCH   6  11
HETATM   11  C   UNL     1     -11.565  12.964  68.323  1.00  0.00    -0.335 C  
BRANCH  11  12
HETATM   12  O   UNL     1     -11.150  13.990  69.225  1.00  0.00    -0.248 OA 
HETATM   13  N   UNL     1     -11.819  13.918  70.474  1.00  0.00    -0.283 N  
HETATM   14  O   UNL     1     -12.660  13.028  70.607  1.00  0.00    -0.280 OA 
HETATM   15  O   UNL     1     -11.455  14.789  71.259  1.00  0.00    -0.302 OA 
ENDBRANCH  11  12
ENDBRANCH   6  11
ENDBRANCH   5   6
ENDBRANCH   3   5
TORSDOF 5
ENDMDL
MODEL       52
REMARK 921   NORMALIZED FREE ENERGY PREDICTED BY IDOCK:   -4.40 KCAL/MOL
REMARK 922        TOTAL FREE ENERGY PREDICTED BY IDOCK:   -6.20 KCAL/MOL
REMARK 923 INTER-LIGAND FREE ENERGY PREDICTED BY IDOCK:   -5.76 KCAL/MOL
REMARK 924 INTRA-LIGAND FREE ENERGY PREDICTED BY IDOCK:   -0.44 KCAL/MOL
REMARK 927      BINDING AFFINITY PREDICTED BY RF-SCORE:    0.00 PKD
ROOT
HETATM    1  O   UNL     1     -10.606  10.663  69.502  1.00  0.00    -0.227 OA 
HETATM    2  N   UNL     1     -11.042  11.416  68.634  1.00  0.00    -0.216 N  
HETATM    3  O   UNL     1     -10.170  12.499  68.360  1.00  0.00    -0.225 OA 
HETATM    4  O   UNL     1     -12.085  11.358  67.982  1.00  0.00    -0.629 OA 
ENDROOT
BRANCH   3   5
HETATM    5  C   UNL     1     -10.689  13.380  67.363  1.00  0.00    -0.262 C  
BRANCH   5   6
HETATM    6  C   UNL     1     -10.781  14.794  67.966  1.00  0.00    -0.248 C  
BRANCH   6   7
HETATM    7  O   UNL     1     -12.004  15.048  68.677  1.00  0.00    -0.313 OA 
HETATM    8  O   UNL     1     -10.760  15.336  70.541  1.00  0.00    -0.287 OA 
HETATM    9  N   UNL     1     -11.888  15.348  70.054  1.00  0.00    -0.318 N  
HETATM   10  O   UNL     1     -12.971  15.585  70.582  1.00  0.00    -0.462 OA 
ENDBRANCH   6   7
BRANCH   6  11
HETATM   11  C   UNL     1     -10.398  15.896  66.963  1.00  0.00    -0.297 C  
BRANCH  11  12
HETATM   12  O   UNL     1     -11.001  15.595  65.705  1.00  0.00    -0.323 OA 
HETATM   13  N   UNL     1     -11.149  16.743  64.884  1.00  0.00    -0.217 N  
HETATM   14  O   UNL     1     -10.777  17.818  65.355  1.00  0.00    -0.626 OA 
HETATM   15  O   UNL     1     -11.654  16.486  63.795  1.00  0.00    -1.109 OA 
ENDBRANCH  11  12
ENDBRANCH   6  11
ENDBRANCH   5   6
ENDBRANCH   3   5
TORSDOF 5
ENDMDL
MODEL       53
REMARK 921   NORMALIZED FREE ENERGY PREDICTED BY IDOCK:   -4.40 KCAL/MOL
REMARK 922        TOTAL FREE ENERGY PREDICTED BY IDOCK:   -6.20 KCAL/MOL
REMARK 923 INTER-LIGAND FREE ENERGY PREDICTED BY IDOCK:   -5.62 KCAL/MOL
REMARK 924 INTRA-LIGAND FREE ENERGY PREDICTED BY IDOCK:   -0.58 KCAL/MOL
REMARK 927      BINDING AFFINITY PREDICTED BY RF-SCORE:    0.00 PKD
ROOT
HETATM    1  O   UNL     1     -11.139  17.706  64.858  1.00  0.00    -0.854 OA 
HETATM    2  N   UNL     1     -11.224  16.507  64.609  1.00  0.00    -0.302 N  
HETATM    3  O   UNL     1     -10.290  15.728  65.337  1.00  0.00    -0.363 OA 
HETATM    4  O   UNL     1     -11.986  15.904  63.852  1.00  0.00    -0.730 OA 
ENDROOT
BRANCH   3   5
HETATM    5  C   UNL     1     -10.381  14.336  65.031  1.00  0.00    -0.421 C  
BRANCH   5   6
HETATM    6  C   UNL     1     -10.374  13.547  66.353  1.00  0.00    -0.289 C  
BRANCH   6   7
HETATM    7  O   UNL     1      -9.476  12.424  66.359  1.00  0.00    -0.237 OA 
HETATM    8  O   UNL     1      -8.437  13.374  68.125  1.00  0.00    -0.159 OA 
HETATM    9  N   UNL     1      -8.480  12.413  67.362  1.00  0.00    -0.170 N  
HETATM   10  O   UNL     1      -7.776  11.408  67.322  1.00  0.00    -0.130 OA 
ENDBRANCH   6   7
BRANCH   6  11
HETATM   11  C   UNL     1     -11.789  13.222  66.861  1.00  0.00    -0.392 C  
BRANCH  11  12
HETATM   12  O   UNL     1     -11.811  13.388  68.279  1.00  0.00    -0.333 OA 
HETATM   13  N   UNL     1     -11.908  12.152  68.969  1.00  0.00    -0.314 N  
HETATM   14  O   UNL     1     -11.985  11.133  68.281  1.00  0.00    -0.592 OA 
HETATM   15  O   UNL     1     -11.912  12.287  70.189  1.00  0.00    -0.334 OA 
ENDBRANCH  11  12
ENDBRANCH   6  11
ENDBRANCH   5   6
ENDBRANCH   3   5
TORSDOF 5
ENDMDL
MODEL       54
REMARK 921   NORMALIZED FREE ENERGY PREDICTED BY IDOCK:   -4.39 KCAL/MOL
REMARK 922        TOTAL FREE ENERGY PREDICTED BY IDOCK:   -6.19 KCAL/MOL
REMARK 923 INTER-LIGAND FREE ENERGY PREDICTED BY IDOCK:   -5.74 KCAL/MOL
REMARK 924 INTRA-LIGAND FREE ENERGY PREDICTED BY IDOCK:   -0.45 KCAL/MOL
REMARK 927      BINDING AFFINITY PREDICTED BY RF-SCORE:    0.00 PKD
ROOT
HETATM    1  O   UNL     1     -12.938  12.580  64.827  1.00  0.00    -0.827 OA 
HETATM    2  N   UNL     1     -12.377  13.596  64.425  1.00  0.00    -0.368 N  
HETATM    3  O   UNL     1     -11.475  14.136  65.375  1.00  0.00    -0.311 OA 
HETATM    4  O   UNL     1     -12.474  14.184  63.347  1.00  0.00    -0.797 OA 
ENDROOT
BRANCH   3   5
HETATM    5  C   UNL     1     -10.838  15.327  64.910  1.00  0.00    -0.425 C  
BRANCH   5   6
HETATM    6  C   UNL     1     -10.297  16.096  66.129  1.00  0.00    -0.339 C  
BRANCH   6   7
HETATM    7  O   UNL     1      -9.511  17.250  65.791  1.00  0.00    -0.527 OA 
HETATM    8  O   UNL     1     -10.842  18.454  67.162  1.00  0.00    -0.373 OA 
HETATM    9  N   UNL     1      -9.870  18.469  66.411  1.00  0.00    -0.351 N  
HETATM   10  O   UNL     1      -9.132  19.398  66.098  1.00  0.00    -0.352 OA 
ENDBRANCH   6   7
BRANCH   6  11
HETATM   11  C   UNL     1      -9.643  15.175  67.174  1.00  0.00    -0.218 C  
BRANCH  11  12
HETATM   12  O   UNL     1      -8.304  14.901  66.762  1.00  0.00    -0.219 OA 
HETATM   13  N   UNL     1      -7.343  15.382  67.688  1.00  0.00    -0.161 N  
HETATM   14  O   UNL     1      -7.768  15.976  68.678  1.00  0.00    -0.156 OA 
HETATM   15  O   UNL     1      -6.189  15.136  67.346  1.00  0.00    -0.312 OA 
ENDBRANCH  11  12
ENDBRANCH   6  11
ENDBRANCH   5   6
ENDBRANCH   3   5
TORSDOF 5
ENDMDL
MODEL       55
REMARK 921   NORMALIZED FREE ENERGY PREDICTED BY IDOCK:   -4.39 KCAL/MOL
REMARK 922        TOTAL FREE ENERGY PREDICTED BY IDOCK:   -6.18 KCAL/MOL
REMARK 923 INTER-LIGAND FREE ENERGY PREDICTED BY IDOCK:   -5.76 KCAL/MOL
REMARK 924 INTRA-LIGAND FREE ENERGY PREDICTED BY IDOCK:   -0.42 KCAL/MOL
REMARK 927      BINDING AFFINITY PREDICTED BY RF-SCORE:    0.00 PKD
ROOT
HETATM    1  O   UNL     1     -12.978  15.067  72.324  1.00  0.00    -0.311 OA 
HETATM    2  N   UNL     1     -13.221  13.891  72.064  1.00  0.00    -0.383 N  
HETATM    3  O   UNL     1     -12.355  13.357  71.077  1.00  0.00    -0.363 OA 
HETATM    4  O   UNL     1     -14.071  13.133  72.532  1.00  0.00    -0.672 OA 
ENDROOT
BRANCH   3   5
HETATM    5  C   UNL     1     -12.652  11.995  70.766  1.00  0.00    -0.222 C  
BRANCH   5   6
HETATM    6  C   UNL     1     -11.653  11.512  69.699  1.00  0.00    -0.333 C  
BRANCH   6   7
HETATM    7  O   UNL     1     -12.200  11.452  68.371  1.00  0.00    -0.571 OA 
HETATM    8  O   UNL     1     -11.004  13.307  67.888  1.00  0.00    -0.238 OA 
HETATM    9  N   UNL     1     -11.776  12.450  67.464  1.00  0.00    -0.368 N  
HETATM   10  O   UNL     1     -12.259  12.312  66.344  1.00  0.00    -0.613 OA 
ENDBRANCH   6   7
BRANCH   6  11
HETATM   11  C   UNL     1     -10.895  10.242  70.124  1.00  0.00    -0.302 C  
BRANCH  11  12
HETATM   12  O   UNL     1     -11.744   9.468  70.970  1.00  0.00    -0.295 OA 
HETATM   13  N   UNL     1     -11.021   8.761  71.965  1.00  0.00    -0.362 N  
HETATM   14  O   UNL     1      -9.795   8.879  71.955  1.00  0.00    -0.325 OA 
HETATM   15  O   UNL     1     -11.748   8.105  72.705  1.00  0.00    -0.403 OA 
ENDBRANCH  11  12
ENDBRANCH   6  11
ENDBRANCH   5   6
ENDBRANCH   3   5
TORSDOF 5
ENDMDL
MODEL       56
REMARK 921   NORMALIZED FREE ENERGY PREDICTED BY IDOCK:   -4.38 KCAL/MOL
REMARK 922        TOTAL FREE ENERGY PREDICTED BY IDOCK:   -6.18 KCAL/MOL
REMARK 923 INTER-LIGAND FREE ENERGY PREDICTED BY IDOCK:   -5.58 KCAL/MOL
REMARK 924 INTRA-LIGAND FREE ENERGY PREDICTED BY IDOCK:   -0.60 KCAL/MOL
REMARK 927      BINDING AFFINITY PREDICTED BY RF-SCORE:    0.00 PKD
ROOT
HETATM    1  O   UNL     1     -10.801  19.132  66.503  1.00  0.00    -0.382 OA 
HETATM    2  N   UNL     1     -10.039  18.181  66.655  1.00  0.00    -0.352 N  
HETATM    3  O   UNL     1     -10.246  17.156  65.698  1.00  0.00    -0.564 OA 
HETATM    4  O   UNL     1      -9.145  18.003  67.483  1.00  0.00    -0.251 OA 
ENDROOT
BRANCH   3   5
HETATM    5  C   UNL     1      -9.369  16.044  65.889  1.00  0.00    -0.300 C  
BRANCH   5   6
HETATM    6  C   UNL     1     -10.202  14.751  65.817  1.00  0.00    -0.338 C  
BRANCH   6   7
HETATM    7  O   UNL     1     -11.374  14.857  64.992  1.00  0.00    -0.366 OA 
HETATM    8  O   UNL     1     -10.689  12.986  63.927  1.00  0.00    -0.392 OA 
HETATM    9  N   UNL     1     -11.558  13.850  64.017  1.00  0.00    -0.293 N  
HETATM   10  O   UNL     1     -12.597  13.991  63.377  1.00  0.00    -0.845 OA 
ENDBRANCH   6   7
BRANCH   6  11
HETATM   11  C   UNL     1     -10.461  14.130  67.200  1.00  0.00    -0.270 C  
BRANCH  11  12
HETATM   12  O   UNL     1     -10.027  12.771  67.175  1.00  0.00    -0.214 OA 
HETATM   13  N   UNL     1     -11.110  11.855  67.176  1.00  0.00    -0.275 N  
HETATM   14  O   UNL     1     -12.245  12.331  67.223  1.00  0.00    -0.485 OA 
HETATM   15  O   UNL     1     -10.743  10.684  67.139  1.00  0.00    -0.252 OA 
ENDBRANCH  11  12
ENDBRANCH   6  11
ENDBRANCH   5   6
ENDBRANCH   3   5
TORSDOF 5
ENDMDL
MODEL       57
REMARK 921   NORMALIZED FREE ENERGY PREDICTED BY IDOCK:   -4.34 KCAL/MOL
REMARK 922        TOTAL FREE ENERGY PREDICTED BY IDOCK:   -6.11 KCAL/MOL
REMARK 923 INTER-LIGAND FREE ENERGY PREDICTED BY IDOCK:   -5.70 KCAL/MOL
REMARK 924 INTRA-LIGAND FREE ENERGY PREDICTED BY IDOCK:   -0.42 KCAL/MOL
REMARK 927      BINDING AFFINITY PREDICTED BY RF-SCORE:    0.00 PKD
ROOT
HETATM    1  O   UNL     1     -13.087  12.085  63.544  1.00  0.00    -0.764 OA 
HETATM    2  N   UNL     1     -12.809  12.778  64.519  1.00  0.00    -0.310 N  
HETATM    3  O   UNL     1     -11.855  12.168  65.370  1.00  0.00    -0.375 OA 
HETATM    4  O   UNL     1     -13.216  13.894  64.844  1.00  0.00    -0.610 OA 
ENDROOT
BRANCH   3   5
HETATM    5  C   UNL     1     -11.547  12.969  66.512  1.00  0.00    -0.356 C  
BRANCH   5   6
HETATM    6  C   UNL     1     -10.025  13.197  66.548  1.00  0.00    -0.268 C  
BRANCH   6   7
HETATM    7  O   UNL     1      -9.400  12.780  67.774  1.00  0.00    -0.185 OA 
HETATM    8  O   UNL     1      -8.017  11.497  66.533  1.00  0.00    -0.158 OA 
HETATM    9  N   UNL     1      -8.317  11.879  67.661  1.00  0.00    -0.144 N  
HETATM   10  O   UNL     1      -7.817  11.598  68.746  1.00  0.00    -0.136 OA 
ENDBRANCH   6   7
BRANCH   6  11
HETATM   11  C   UNL     1      -9.621  14.608  66.086  1.00  0.00    -0.307 C  
BRANCH  11  12
HETATM   12  O   UNL     1     -10.289  14.891  64.857  1.00  0.00    -0.400 OA 
HETATM   13  N   UNL     1     -10.849  16.195  64.831  1.00  0.00    -0.413 N  
HETATM   14  O   UNL     1     -10.716  16.881  65.845  1.00  0.00    -0.268 OA 
HETATM   15  O   UNL     1     -11.413  16.449  63.770  1.00  0.00    -1.002 OA 
ENDBRANCH  11  12
ENDBRANCH   6  11
ENDBRANCH   5   6
ENDBRANCH   3   5
TORSDOF 5
ENDMDL
MODEL       58
REMARK 921   NORMALIZED FREE ENERGY PREDICTED BY IDOCK:   -4.33 KCAL/MOL
REMARK 922        TOTAL FREE ENERGY PREDICTED BY IDOCK:   -6.11 KCAL/MOL
REMARK 923 INTER-LIGAND FREE ENERGY PREDICTED BY IDOCK:   -5.69 KCAL/MOL
REMARK 924 INTRA-LIGAND FREE ENERGY PREDICTED BY IDOCK:   -0.42 KCAL/MOL
REMARK 927      BINDING AFFINITY PREDICTED BY RF-SCORE:    0.00 PKD
ROOT
HETATM    1  O   UNL     1     -10.529  10.974  64.202  1.00  0.00    -0.345 OA 
HETATM    2  N   UNL     1     -10.233  11.447  65.296  1.00  0.00    -0.257 N  
HETATM    3  O   UNL     1     -11.364  11.678  66.117  1.00  0.00    -0.303 OA 
HETATM    4  O   UNL     1      -9.131  11.726  65.769  1.00  0.00    -0.187 OA 
ENDROOT
BRANCH   3   5
HETATM    5  C   UNL     1     -11.017  12.244  67.382  1.00  0.00    -0.253 C  
BRANCH   5   6
HETATM    6  C   UNL     1     -11.598  13.668  67.452  1.00  0.00    -0.356 C  
BRANCH   6   7
HETATM    7  O   UNL     1     -12.264  13.967  68.690  1.00  0.00    -0.345 OA 
HETATM    8  O   UNL     1     -10.996  15.832  68.824  1.00  0.00    -0.257 OA 
HETATM    9  N   UNL     1     -11.885  15.162  69.344  1.00  0.00    -0.321 N  
HETATM   10  O   UNL     1     -12.521  15.363  70.374  1.00  0.00    -0.375 OA 
ENDBRANCH   6   7
BRANCH   6  11
HETATM   11  C   UNL     1     -12.404  14.047  66.198  1.00  0.00    -0.458 C  
BRANCH  11  12
HETATM   12  O   UNL     1     -11.934  15.306  65.719  1.00  0.00     0.048 OA 
HETATM   13  N   UNL     1     -12.124  15.462  64.322  1.00  0.00    -0.309 N  
HETATM   14  O   UNL     1     -12.628  14.514  63.718  1.00  0.00    -0.825 OA 
HETATM   15  O   UNL     1     -11.735  16.550  63.907  1.00  0.00    -1.148 OA 
ENDBRANCH  11  12
ENDBRANCH   6  11
ENDBRANCH   5   6
ENDBRANCH   3   5
TORSDOF 5
ENDMDL
MODEL       59
REMARK 921   NORMALIZED FREE ENERGY PREDICTED BY IDOCK:   -4.33 KCAL/MOL
REMARK 922        TOTAL FREE ENERGY PREDICTED BY IDOCK:   -6.10 KCAL/MOL
REMARK 923 INTER-LIGAND FREE ENERGY PREDICTED BY IDOCK:   -5.61 KCAL/MOL
REMARK 924 INTRA-LIGAND FREE ENERGY PREDICTED BY IDOCK:   -0.49 KCAL/MOL
REMARK 927      BINDING AFFINITY PREDICTED BY RF-SCORE:    0.00 PKD
ROOT
HETATM    1  O   UNL     1      -7.457  14.855  67.667  1.00  0.00    -0.150 OA 
HETATM    2  N   UNL     1      -8.361  14.955  66.840  1.00  0.00    -0.209 N  
HETATM    3  O   UNL     1      -9.188  13.806  66.792  1.00  0.00    -0.246 OA 
HETATM    4  O   UNL     1      -8.647  15.884  66.084  1.00  0.00    -0.330 OA 
ENDROOT
BRANCH   3   5
HETATM    5  C   UNL     1     -10.227  13.920  65.818  1.00  0.00    -0.318 C  
BRANCH   5   6
HETATM    6  C   UNL     1     -11.583  13.851  66.543  1.00  0.00    -0.369 C  
BRANCH   6   7
HETATM    7  O   UNL     1     -11.698  12.754  67.465  1.00  0.00    -0.337 OA 
HETATM    8  O   UNL     1     -11.699  14.271  69.139  1.00  0.00    -0.280 OA 
HETATM    9  N   UNL     1     -11.772  13.082  68.838  1.00  0.00    -0.309 N  
HETATM   10  O   UNL     1     -11.903  12.095  69.556  1.00  0.00    -0.306 OA 
ENDBRANCH   6   7
BRANCH   6  11
HETATM   11  C   UNL     1     -12.779  13.997  65.588  1.00  0.00    -0.481 C  
BRANCH  11  12
HETATM   12  O   UNL     1     -13.058  12.720  65.013  1.00  0.00    -0.811 OA 
HETATM   13  N   UNL     1     -12.831  12.694  63.613  1.00  0.00    -0.181 N  
HETATM   14  O   UNL     1     -12.461  13.744  63.086  1.00  0.00    -0.786 OA 
HETATM   15  O   UNL     1     -13.055  11.594  63.116  1.00  0.00    -0.497 OA 
ENDBRANCH  11  12
ENDBRANCH   6  11
ENDBRANCH   5   6
ENDBRANCH   3   5
TORSDOF 5
ENDMDL
MODEL       60
REMARK 921   NORMALIZED FREE ENERGY PREDICTED BY IDOCK:   -4.32 KCAL/MOL
REMARK 922        TOTAL FREE ENERGY PREDICTED BY IDOCK:   -6.10 KCAL/MOL
REMARK 923 INTER-LIGAND FREE ENERGY PREDICTED BY IDOCK:   -5.65 KCAL/MOL
REMARK 924 INTRA-LIGAND FREE ENERGY PREDICTED BY IDOCK:   -0.45 KCAL/MOL
REMARK 927      BINDING AFFINITY PREDICTED BY RF-SCORE:    0.00 PKD
ROOT
HETATM    1  O   UNL     1     -12.617  14.342  63.688  1.00  0.00    -0.831 OA 
HETATM    2  N   UNL     1     -11.676  14.120  64.445  1.00  0.00    -0.403 N  
HETATM    3  O   UNL     1     -11.656  14.989  65.564  1.00  0.00    -0.311 OA 
HETATM    4  O   UNL     1     -10.785  13.271  64.379  1.00  0.00    -0.382 OA 
ENDROOT
BRANCH   3   5
HETATM    5  C   UNL     1     -10.550  14.738  66.433  1.00  0.00    -0.300 C  
BRANCH   5   6
HETATM    6  C   UNL     1     -10.444  15.904  67.433  1.00  0.00    -0.306 C  
BRANCH   6   7
HETATM    7  O   UNL     1     -11.570  16.018  68.319  1.00  0.00    -0.338 OA 
HETATM    8  O   UNL     1     -10.180  15.487  70.018  1.00  0.00    -0.301 OA 
HETATM    9  N   UNL     1     -11.324  15.794  69.693  1.00  0.00    -0.307 N  
HETATM   10  O   UNL     1     -12.326  15.943  70.386  1.00  0.00    -0.366 OA 
ENDBRANCH   6   7
BRANCH   6  11
HETATM   11  C   UNL     1     -10.034  17.228  66.765  1.00  0.00    -0.301 C  
BRANCH  11  12
HETATM   12  O   UNL     1     -10.643  18.304  67.479  1.00  0.00    -0.405 OA 
HETATM   13  N   UNL     1      -9.727  18.982  68.324  1.00  0.00    -0.338 N  
HETATM   14  O   UNL     1      -8.572  18.555  68.353  1.00  0.00    -0.315 OA 
HETATM   15  O   UNL     1     -10.242  19.918  68.929  1.00  0.00    -0.444 OA 
ENDBRANCH  11  12
ENDBRANCH   6  11
ENDBRANCH   5   6
ENDBRANCH   3   5
TORSDOF 5
ENDMDL
MODEL       61
REMARK 921   NORMALIZED FREE ENERGY PREDICTED BY IDOCK:   -4.31 KCAL/MOL
REMARK 922        TOTAL FREE ENERGY PREDICTED BY IDOCK:   -6.08 KCAL/MOL
REMARK 923 INTER-LIGAND FREE ENERGY PREDICTED BY IDOCK:   -5.59 KCAL/MOL
REMARK 924 INTRA-LIGAND FREE ENERGY PREDICTED BY IDOCK:   -0.50 KCAL/MOL
REMARK 927      BINDING AFFINITY PREDICTED BY RF-SCORE:    0.00 PKD
ROOT
HETATM    1  O   UNL     1     -10.766   9.860  67.661  1.00  0.00    -0.254 OA 
HETATM    2  N   UNL     1     -10.855  10.727  66.795  1.00  0.00    -0.230 N  
HETATM    3  O   UNL     1     -11.816  11.719  67.111  1.00  0.00    -0.599 OA 
HETATM    4  O   UNL     1     -10.241  10.859  65.736  1.00  0.00    -0.244 OA 
ENDROOT
BRANCH   3   5
HETATM    5  C   UNL     1     -11.930  12.716  66.094  1.00  0.00    -0.395 C  
BRANCH   5   6
HETATM    6  C   UNL     1     -11.236  13.997  66.591  1.00  0.00    -0.323 C  
BRANCH   6   7
HETATM    7  O   UNL     1     -11.996  14.733  67.565  1.00  0.00    -0.352 OA 
HETATM    8  O   UNL     1     -10.437  14.152  69.094  1.00  0.00    -0.217 OA 
HETATM    9  N   UNL     1     -11.475  14.773  68.879  1.00  0.00    -0.282 N  
HETATM   10  O   UNL     1     -12.161  15.447  69.641  1.00  0.00    -0.331 OA 
ENDBRANCH   6   7
BRANCH   6  11
HETATM   11  C   UNL     1     -10.683  14.860  65.443  1.00  0.00    -0.377 C  
BRANCH  11  12
HETATM   12  O   UNL     1      -9.933  15.936  66.006  1.00  0.00    -0.288 OA 
HETATM   13  N   UNL     1     -10.358  17.203  65.529  1.00  0.00    -0.195 N  
HETATM   14  O   UNL     1     -11.269  17.211  64.701  1.00  0.00    -1.003 OA 
HETATM   15  O   UNL     1      -9.725  18.133  66.021  1.00  0.00    -0.497 OA 
ENDBRANCH  11  12
ENDBRANCH   6  11
ENDBRANCH   5   6
ENDBRANCH   3   5
TORSDOF 5
ENDMDL
MODEL       62
REMARK 921   NORMALIZED FREE ENERGY PREDICTED BY IDOCK:   -4.29 KCAL/MOL
REMARK 922        TOTAL FREE ENERGY PREDICTED BY IDOCK:   -6.05 KCAL/MOL
REMARK 923 INTER-LIGAND FREE ENERGY PREDICTED BY IDOCK:   -5.45 KCAL/MOL
REMARK 924 INTRA-LIGAND FREE ENERGY PREDICTED BY IDOCK:   -0.60 KCAL/MOL
REMARK 927      BINDING AFFINITY PREDICTED BY RF-SCORE:    0.00 PKD
ROOT
HETATM    1  O   UNL     1     -12.438  11.735  63.285  1.00  0.00    -0.543 OA 
HETATM    2  N   UNL     1     -12.546  12.814  63.862  1.00  0.00    -0.324 N  
HETATM    3  O   UNL     1     -12.643  12.675  65.269  1.00  0.00    -0.630 OA 
HETATM    4  O   UNL     1     -12.568  13.959  63.409  1.00  0.00    -0.853 OA 
ENDROOT
BRANCH   3   5
HETATM    5  C   UNL     1     -12.785  13.931  65.935  1.00  0.00    -0.421 C  
BRANCH   5   6
HETATM    6  C   UNL     1     -11.701  14.029  67.023  1.00  0.00    -0.398 C  
BRANCH   6   7
HETATM    7  O   UNL     1     -11.963  15.029  68.022  1.00  0.00    -0.296 OA 
HETATM    8  O   UNL     1     -11.845  13.390  69.572  1.00  0.00    -0.298 OA 
HETATM    9  N   UNL     1     -12.003  14.591  69.365  1.00  0.00    -0.318 N  
HETATM   10  O   UNL     1     -12.198  15.507  70.159  1.00  0.00    -0.357 OA 
ENDBRANCH   6   7
BRANCH   6  11
HETATM   11  C   UNL     1     -10.276  14.078  66.444  1.00  0.00    -0.291 C  
BRANCH  11  12
HETATM   12  O   UNL     1      -9.585  12.893  66.838  1.00  0.00    -0.226 OA 
HETATM   13  N   UNL     1      -8.738  13.105  67.957  1.00  0.00    -0.182 N  
HETATM   14  O   UNL     1      -8.689  14.248  68.412  1.00  0.00    -0.172 OA 
HETATM   15  O   UNL     1      -8.153  12.085  68.309  1.00  0.00    -0.142 OA 
ENDBRANCH  11  12
ENDBRANCH   6  11
ENDBRANCH   5   6
ENDBRANCH   3   5
TORSDOF 5
ENDMDL
MODEL       63
REMARK 921   NORMALIZED FREE ENERGY PREDICTED BY IDOCK:   -4.28 KCAL/MOL
REMARK 922        TOTAL FREE ENERGY PREDICTED BY IDOCK:   -6.04 KCAL/MOL
REMARK 923 INTER-LIGAND FREE ENERGY PREDICTED BY IDOCK:   -6.09 KCAL/MOL
REMARK 924 INTRA-LIGAND FREE ENERGY PREDICTED BY IDOCK:    0.05 KCAL/MOL
REMARK 927      BINDING AFFINITY PREDICTED BY RF-SCORE:    0.00 PKD
ROOT
HETATM    1  O   UNL     1     -11.852  10.960  68.024  1.00  0.00    -0.585 OA 
HETATM    2  N   UNL     1     -11.548  11.788  67.169  1.00  0.00    -0.303 N  
HETATM    3  O   UNL     1     -10.501  12.647  67.587  1.00  0.00    -0.214 OA 
HETATM    4  O   UNL     1     -11.998  11.964  66.036  1.00  0.00    -0.511 OA 
ENDROOT
BRANCH   3   5
HETATM    5  C   UNL     1     -10.162  13.619  66.596  1.00  0.00    -0.276 C  
BRANCH   5   6
HETATM    6  C   UNL     1     -11.138  14.803  66.724  1.00  0.00    -0.338 C  
BRANCH   6   7
HETATM    7  O   UNL     1     -10.983  15.802  65.702  1.00  0.00    -0.313 OA 
HETATM    8  O   UNL     1     -12.457  14.632  64.453  1.00  0.00    -0.624 OA 
HETATM    9  N   UNL     1     -11.747  15.632  64.525  1.00  0.00    -0.305 N  
HETATM   10  O   UNL     1     -11.585  16.542  63.717  1.00  0.00    -1.109 OA 
ENDBRANCH   6   7
BRANCH   6  11
HETATM   11  C   UNL     1     -11.204  15.371  68.152  1.00  0.00    -0.325 C  
BRANCH  11  12
HETATM   12  O   UNL     1     -12.259  14.713  68.854  1.00  0.00    -0.246 OA 
HETATM   13  N   UNL     1     -12.121  14.816  70.262  1.00  0.00    -0.301 N  
HETATM   14  O   UNL     1     -11.131  15.414  70.685  1.00  0.00    -0.302 OA 
HETATM   15  O   UNL     1     -13.034  14.264  70.870  1.00  0.00    -0.340 OA 
ENDBRANCH  11  12
ENDBRANCH   6  11
ENDBRANCH   5   6
ENDBRANCH   3   5
TORSDOF 5
ENDMDL
MODEL       64
REMARK 921   NORMALIZED FREE ENERGY PREDICTED BY IDOCK:   -4.28 KCAL/MOL
REMARK 922        TOTAL FREE ENERGY PREDICTED BY IDOCK:   -6.04 KCAL/MOL
REMARK 923 INTER-LIGAND FREE ENERGY PREDICTED BY IDOCK:   -5.62 KCAL/MOL
REMARK 924 INTRA-LIGAND FREE ENERGY PREDICTED BY IDOCK:   -0.42 KCAL/MOL
REMARK 927      BINDING AFFINITY PREDICTED BY RF-SCORE:    0.00 PKD
ROOT
HETATM    1  O   UNL     1     -10.250  10.319  69.387  1.00  0.00    -0.210 OA 
HETATM    2  N   UNL     1     -11.151  11.012  68.922  1.00  0.00    -0.218 N  
HETATM    3  O   UNL     1     -10.665  12.108  68.167  1.00  0.00    -0.196 OA 
HETATM    4  O   UNL     1     -12.374  10.887  69.006  1.00  0.00    -0.464 OA 
ENDROOT
BRANCH   3   5
HETATM    5  C   UNL     1     -11.717  12.921  67.643  1.00  0.00    -0.370 C  
BRANCH   5   6
HETATM    6  C   UNL     1     -11.259  14.390  67.680  1.00  0.00    -0.313 C  
BRANCH   6   7
HETATM    7  O   UNL     1     -11.813  15.148  68.769  1.00  0.00    -0.330 OA 
HETATM    8  O   UNL     1      -9.726  15.286  69.622  1.00  0.00    -0.249 OA 
HETATM    9  N   UNL     1     -10.906  15.602  69.754  1.00  0.00    -0.280 N  
HETATM   10  O   UNL     1     -11.450  16.268  70.630  1.00  0.00    -0.377 OA 
ENDBRANCH   6   7
BRANCH   6  11
HETATM   11  C   UNL     1     -11.369  15.085  66.311  1.00  0.00    -0.273 C  
BRANCH  11  12
HETATM   12  O   UNL     1     -11.891  14.149  65.369  1.00  0.00    -0.338 OA 
HETATM   13  N   UNL     1     -12.251  14.759  64.140  1.00  0.00    -0.415 N  
HETATM   14  O   UNL     1     -12.098  15.978  64.055  1.00  0.00    -0.810 OA 
HETATM   15  O   UNL     1     -12.687  13.956  63.320  1.00  0.00    -0.775 OA 
ENDBRANCH  11  12
ENDBRANCH   6  11
ENDBRANCH   5   6
ENDBRANCH   3   5
TORSDOF 5
ENDMDL
MODEL       65
REMARK 921   NORMALIZED FREE ENERGY PREDICTED BY IDOCK:   -4.27 KCAL/MOL
REMARK 922        TOTAL FREE ENERGY PREDICTED BY IDOCK:   -6.04 KCAL/MOL
REMARK 923 INTER-LIGAND FREE ENERGY PREDICTED BY IDOCK:   -5.63 KCAL/MOL
REMARK 924 INTRA-LIGAND FREE ENERGY PREDICTED BY IDOCK:   -0.41 KCAL/MOL
REMARK 927      BINDING AFFINITY PREDICTED BY RF-SCORE:    0.00 PKD
ROOT
HETATM    1  O   UNL     1     -13.125  10.958  72.068  1.00  0.00    -0.491 OA 
HETATM    2  N   UNL     1     -13.078  12.166  71.848  1.00  0.00    -0.430 N  
HETATM    3  O   UNL     1     -12.331  12.482  70.686  1.00  0.00    -0.355 OA 
HETATM    4  O   UNL     1     -13.580  13.106  72.464  1.00  0.00    -0.579 OA 
ENDROOT
BRANCH   3   5
HETATM    5  C   UNL     1     -12.265  13.888  70.443  1.00  0.00    -0.368 C  
BRANCH   5   6
HETATM    6  C   UNL     1     -11.785  14.109  68.997  1.00  0.00    -0.324 C  
BRANCH   6   7
HETATM    7  O   UNL     1     -10.721  13.231  68.593  1.00  0.00    -0.254 OA 
HETATM    8  O   UNL     1     -12.161  12.303  67.121  1.00  0.00    -0.560 OA 
HETATM    9  N   UNL     1     -11.015  12.307  67.565  1.00  0.00    -0.242 N  
HETATM   10  O   UNL     1     -10.048  11.618  67.254  1.00  0.00    -0.196 OA 
ENDBRANCH   6   7
BRANCH   6  11
HETATM   11  C   UNL     1     -11.533  15.592  68.672  1.00  0.00    -0.375 C  
BRANCH  11  12
HETATM   12  O   UNL     1     -11.024  15.684  67.342  1.00  0.00    -0.314 OA 
HETATM   13  N   UNL     1     -10.407  16.935  67.082  1.00  0.00    -0.304 N  
HETATM   14  O   UNL     1     -10.413  17.762  67.995  1.00  0.00    -0.373 OA 
HETATM   15  O   UNL     1      -9.954  17.015  65.944  1.00  0.00    -0.462 OA 
ENDBRANCH  11  12
ENDBRANCH   6  11
ENDBRANCH   5   6
ENDBRANCH   3   5
TORSDOF 5
ENDMDL
MODEL       66
REMARK 921   NORMALIZED FREE ENERGY PREDICTED BY IDOCK:   -4.27 KCAL/MOL
REMARK 922        TOTAL FREE ENERGY PREDICTED BY IDOCK:   -6.03 KCAL/MOL
REMARK 923 INTER-LIGAND FREE ENERGY PREDICTED BY IDOCK:   -5.59 KCAL/MOL
REMARK 924 INTRA-LIGAND FREE ENERGY PREDICTED BY IDOCK:   -0.43 KCAL/MOL
REMARK 927      BINDING AFFINITY PREDICTED BY RF-SCORE:    0.00 PKD
ROOT
HETATM    1  O   UNL     1     -12.439  13.644  63.121  1.00  0.00    -0.786 OA 
HETATM    2  N   UNL     1     -12.340  13.821  64.332  1.00  0.00    -0.376 N  
HETATM    3  O   UNL     1     -10.995  13.850  64.774  1.00  0.00    -0.361 OA 
HETATM    4  O   UNL     1     -13.214  13.985  65.185  1.00  0.00    -0.768 OA 
ENDROOT
BRANCH   3   5
HETATM    5  C   UNL     1     -10.886  14.039  66.186  1.00  0.00    -0.291 C  
BRANCH   5   6
HETATM    6  C   UNL     1      -9.986  15.262  66.444  1.00  0.00    -0.275 C  
BRANCH   6   7
HETATM    7  O   UNL     1      -9.603  15.426  67.819  1.00  0.00    -0.209 OA 
HETATM    8  O   UNL     1      -7.451  15.280  67.148  1.00  0.00    -0.204 OA 
HETATM    9  N   UNL     1      -8.216  15.442  68.095  1.00  0.00    -0.141 N  
HETATM   10  O   UNL     1      -7.970  15.620  69.285  1.00  0.00    -0.210 OA 
ENDBRANCH   6   7
BRANCH   6  11
HETATM   11  C   UNL     1     -10.519  16.545  65.783  1.00  0.00    -0.329 C  
BRANCH  11  12
HETATM   12  O   UNL     1     -10.496  17.596  66.748  1.00  0.00    -0.334 OA 
HETATM   13  N   UNL     1     -10.765  18.866  66.176  1.00  0.00    -0.363 N  
HETATM   14  O   UNL     1     -10.952  18.902  64.959  1.00  0.00    -0.479 OA 
HETATM   15  O   UNL     1     -10.761  19.771  67.005  1.00  0.00    -0.467 OA 
ENDBRANCH  11  12
ENDBRANCH   6  11
ENDBRANCH   5   6
ENDBRANCH   3   5
TORSDOF 5
ENDMDL
MODEL       67
REMARK 921   NORMALIZED FREE ENERGY PREDICTED BY IDOCK:   -4.25 KCAL/MOL
REMARK 922        TOTAL FREE ENERGY PREDICTED BY IDOCK:   -6.00 KCAL/MOL
REMARK 923 INTER-LIGAND FREE ENERGY PREDICTED BY IDOCK:   -5.61 KCAL/MOL
REMARK 924 INTRA-LIGAND FREE ENERGY PREDICTED BY IDOCK:   -0.40 KCAL/MOL
REMARK 927      BINDING AFFINITY PREDICTED BY RF-SCORE:    0.00 PKD
ROOT
HETATM    1  O   UNL     1     -13.066  13.510  71.364  1.00  0.00    -0.341 OA 
HETATM    2  N   UNL     1     -12.741  14.486  70.693  1.00  0.00    -0.350 N  
HETATM    3  O   UNL     1     -12.163  14.129  69.450  1.00  0.00    -0.331 OA 
HETATM    4  O   UNL     1     -12.855  15.689  70.934  1.00  0.00    -0.472 OA 
ENDROOT
BRANCH   3   5
HETATM    5  C   UNL     1     -11.772  15.268  68.681  1.00  0.00    -0.346 C  
BRANCH   5   6
HETATM    6  C   UNL     1     -10.672  14.832  67.695  1.00  0.00    -0.270 C  
BRANCH   6   7
HETATM    7  O   UNL     1      -9.340  14.921  68.229  1.00  0.00    -0.184 OA 
HETATM    8  O   UNL     1      -9.254  12.664  68.158  1.00  0.00    -0.201 OA 
HETATM    9  N   UNL     1      -8.652  13.701  68.425  1.00  0.00    -0.169 N  
HETATM   10  O   UNL     1      -7.512  13.862  68.850  1.00  0.00    -0.120 OA 
ENDBRANCH   6   7
BRANCH   6  11
HETATM   11  C   UNL     1     -10.834  15.467  66.303  1.00  0.00    -0.301 C  
BRANCH  11  12
HETATM   12  O   UNL     1     -11.624  14.593  65.496  1.00  0.00    -0.345 OA 
HETATM   13  N   UNL     1     -12.015  15.192  64.270  1.00  0.00    -0.365 N  
HETATM   14  O   UNL     1     -11.658  16.354  64.077  1.00  0.00    -1.071 OA 
HETATM   15  O   UNL     1     -12.682  14.440  63.566  1.00  0.00    -0.742 OA 
ENDBRANCH  11  12
ENDBRANCH   6  11
ENDBRANCH   5   6
ENDBRANCH   3   5
TORSDOF 5
ENDMDL
MODEL       68
REMARK 921   NORMALIZED FREE ENERGY PREDICTED BY IDOCK:   -4.23 KCAL/MOL
REMARK 922        TOTAL FREE ENERGY PREDICTED BY IDOCK:   -5.98 KCAL/MOL
REMARK 923 INTER-LIGAND FREE ENERGY PREDICTED BY IDOCK:   -5.43 KCAL/MOL
REMARK 924 INTRA-LIGAND FREE ENERGY PREDICTED BY IDOCK:   -0.56 KCAL/MOL
REMARK 927      BINDING AFFINITY PREDICTED BY RF-SCORE:    0.00 PKD
ROOT
HETATM    1  O   UNL     1      -9.198  20.500  67.231  1.00  0.00    -0.387 OA 
HETATM    2  N   UNL     1     -10.023  19.657  66.888  1.00  0.00    -0.369 N  
HETATM    3  O   UNL     1     -10.259  18.682  67.888  1.00  0.00    -0.354 OA 
HETATM    4  O   UNL     1     -10.661  19.550  65.839  1.00  0.00    -0.504 OA 
ENDROOT
BRANCH   3   5
HETATM    5  C   UNL     1     -11.207  17.695  67.478  1.00  0.00     0.279 C  
BRANCH   5   6
HETATM    6  C   UNL     1     -10.475  16.347  67.341  1.00  0.00    -0.309 C  
BRANCH   6   7
HETATM    7  O   UNL     1      -9.364  16.191  68.239  1.00  0.00    -0.199 OA 
HETATM    8  O   UNL     1     -10.385  14.346  69.048  1.00  0.00    -0.232 OA 
HETATM    9  N   UNL     1      -9.398  15.075  69.105  1.00  0.00    -0.205 N  
HETATM   10  O   UNL     1      -8.400  14.993  69.815  1.00  0.00    -0.112 OA 
ENDBRANCH   6   7
BRANCH   6  11
HETATM   11  C   UNL     1     -10.157  15.987  65.879  1.00  0.00    -0.353 C  
BRANCH  11  12
HETATM   12  O   UNL     1     -11.111  15.024  65.432  1.00  0.00    -0.344 OA 
HETATM   13  N   UNL     1     -11.839  15.468  64.298  1.00  0.00    -0.299 N  
HETATM   14  O   UNL     1     -11.583  16.596  63.875  1.00  0.00    -1.204 OA 
HETATM   15  O   UNL     1     -12.651  14.637  63.899  1.00  0.00    -0.834 OA 
ENDBRANCH  11  12
ENDBRANCH   6  11
ENDBRANCH   5   6
ENDBRANCH   3   5
TORSDOF 5
ENDMDL
MODEL       69
REMARK 921   NORMALIZED FREE ENERGY PREDICTED BY IDOCK:   -4.23 KCAL/MOL
REMARK 922        TOTAL FREE ENERGY PREDICTED BY IDOCK:   -5.98 KCAL/MOL
REMARK 923 INTER-LIGAND FREE ENERGY PREDICTED BY IDOCK:   -5.53 KCAL/MOL
REMARK 924 INTRA-LIGAND FREE ENERGY PREDICTED BY IDOCK:   -0.45 KCAL/MOL
REMARK 927      BINDING AFFINITY PREDICTED BY RF-SCORE:    0.00 PKD
ROOT
HETATM    1  O   UNL     1      -8.695  11.401  62.595  1.00  0.00    -0.231 OA 
HETATM    2  N   UNL     1      -9.665  11.169  63.311  1.00  0.00    -0.333 N  
HETATM    3  O   UNL     1     -10.472  12.313  63.528  1.00  0.00    -0.426 OA 
HETATM    4  O   UNL     1     -10.031  10.118  63.839  1.00  0.00    -0.213 OA 
ENDROOT
BRANCH   3   5
HETATM    5  C   UNL     1     -11.590  12.043  64.375  1.00  0.00    -0.336 C  
BRANCH   5   6
HETATM    6  C   UNL     1     -11.692  13.170  65.419  1.00  0.00    -0.350 C  
BRANCH   6   7
HETATM    7  O   UNL     1     -11.091  14.408  65.003  1.00  0.00    -0.340 OA 
HETATM    8  O   UNL     1     -13.080  14.967  64.090  1.00  0.00    -0.341 OA 
HETATM    9  N   UNL     1     -11.924  15.317  64.311  1.00  0.00    -0.341 N  
HETATM   10  O   UNL     1     -11.349  16.362  64.020  1.00  0.00    -0.964 OA 
ENDBRANCH   6   7
BRANCH   6  11
HETATM   11  C   UNL     1     -11.280  12.716  66.830  1.00  0.00    -0.300 C  
BRANCH  11  12
HETATM   12  O   UNL     1     -10.629  11.450  66.727  1.00  0.00    -0.233 OA 
HETATM   13  N   UNL     1     -11.123  10.506  67.664  1.00  0.00    -0.316 N  
HETATM   14  O   UNL     1     -12.001  10.893  68.436  1.00  0.00    -0.543 OA 
HETATM   15  O   UNL     1     -10.577   9.411  67.569  1.00  0.00    -0.262 OA 
ENDBRANCH  11  12
ENDBRANCH   6  11
ENDBRANCH   5   6
ENDBRANCH   3   5
TORSDOF 5
ENDMDL
MODEL       70
REMARK 921   NORMALIZED FREE ENERGY PREDICTED BY IDOCK:   -4.23 KCAL/MOL
REMARK 922        TOTAL FREE ENERGY PREDICTED BY IDOCK:   -5.98 KCAL/MOL
REMARK 923 INTER-LIGAND FREE ENERGY PREDICTED BY IDOCK:   -5.59 KCAL/MOL
REMARK 924 INTRA-LIGAND FREE ENERGY PREDICTED BY IDOCK:   -0.38 KCAL/MOL
REMARK 927      BINDING AFFINITY PREDICTED BY RF-SCORE:    0.00 PKD
ROOT
HETATM    1  O   UNL     1     -11.811  16.820  73.732  1.00  0.00    -0.306 OA 
HETATM    2  N   UNL     1     -12.502  16.312  72.852  1.00  0.00    -0.450 N  
HETATM    3  O   UNL     1     -11.805  16.162  71.627  1.00  0.00    -0.466 OA 
HETATM    4  O   UNL     1     -13.668  15.918  72.885  1.00  0.00    -0.591 OA 
ENDROOT
BRANCH   3   5
HETATM    5  C   UNL     1     -12.616  15.586  70.602  1.00  0.00    -0.443 C  
BRANCH   5   6
HETATM    6  C   UNL     1     -11.746  15.390  69.347  1.00  0.00    -0.351 C  
BRANCH   6   7
HETATM    7  O   UNL     1     -10.915  14.218  69.390  1.00  0.00    -0.248 OA 
HETATM    8  O   UNL     1     -11.969  13.506  67.523  1.00  0.00    -0.361 OA 
HETATM    9  N   UNL     1     -11.097  13.272  68.355  1.00  0.00    -0.257 N  
HETATM   10  O   UNL     1     -10.329  12.318  68.443  1.00  0.00    -0.215 OA 
ENDBRANCH   6   7
BRANCH   6  11
HETATM   11  C   UNL     1     -11.004  16.671  68.929  1.00  0.00    -0.294 C  
BRANCH  11  12
HETATM   12  O   UNL     1     -10.847  16.660  67.510  1.00  0.00    -0.305 OA 
HETATM   13  N   UNL     1     -10.454  17.924  66.998  1.00  0.00    -0.358 N  
HETATM   14  O   UNL     1     -10.330  18.842  67.809  1.00  0.00    -0.371 OA 
HETATM   15  O   UNL     1     -10.302  17.917  65.780  1.00  0.00    -0.577 OA 
ENDBRANCH  11  12
ENDBRANCH   6  11
ENDBRANCH   5   6
ENDBRANCH   3   5
TORSDOF 5
ENDMDL
MODEL       71
REMARK 921   NORMALIZED FREE ENERGY PREDICTED BY IDOCK:   -4.22 KCAL/MOL
REMARK 922        TOTAL FREE ENERGY PREDICTED BY IDOCK:   -5.97 KCAL/MOL
REMARK 923 INTER-LIGAND FREE ENERGY PREDICTED BY IDOCK:   -5.54 KCAL/MOL
REMARK 924 INTRA-LIGAND FREE ENERGY PREDICTED BY IDOCK:   -0.43 KCAL/MOL
REMARK 927      BINDING AFFINITY PREDICTED BY RF-SCORE:    0.00 PKD
ROOT
HETATM    1  O   UNL     1     -12.283  14.534  71.681  1.00  0.00    -0.335 OA 
HETATM    2  N   UNL     1     -11.928  15.101  70.651  1.00  0.00    -0.297 N  
HETATM    3  O   UNL     1     -12.338  14.418  69.480  1.00  0.00    -0.305 OA 
HETATM    4  O   UNL     1     -11.299  16.149  70.498  1.00  0.00    -0.371 OA 
ENDROOT
BRANCH   3   5
HETATM    5  C   UNL     1     -11.908  15.072  68.285  1.00  0.00    -0.268 C  
BRANCH   5   6
HETATM    6  C   UNL     1     -11.632  13.999  67.216  1.00  0.00    -0.369 C  
BRANCH   6   7
HETATM    7  O   UNL     1     -12.450  14.121  66.041  1.00  0.00    -0.467 OA 
HETATM    8  O   UNL     1     -10.583  14.693  64.905  1.00  0.00    -0.416 OA 
HETATM    9  N   UNL     1     -11.792  14.480  64.842  1.00  0.00    -0.398 N  
HETATM   10  O   UNL     1     -12.551  14.530  63.879  1.00  0.00    -0.827 OA 
ENDBRANCH   6   7
BRANCH   6  11
HETATM   11  C   UNL     1     -11.578  12.576  67.799  1.00  0.00    -0.343 C  
BRANCH  11  12
HETATM   12  O   UNL     1     -11.659  11.642  66.723  1.00  0.00    -0.503 OA 
HETATM   13  N   UNL     1     -10.389  11.132  66.350  1.00  0.00    -0.244 N  
HETATM   14  O   UNL     1      -9.411  11.564  66.962  1.00  0.00    -0.179 OA 
HETATM   15  O   UNL     1     -10.454  10.316  65.435  1.00  0.00    -0.217 OA 
ENDBRANCH  11  12
ENDBRANCH   6  11
ENDBRANCH   5   6
ENDBRANCH   3   5
TORSDOF 5
ENDMDL
MODEL       72
REMARK 921   NORMALIZED FREE ENERGY PREDICTED BY IDOCK:   -4.21 KCAL/MOL
REMARK 922        TOTAL FREE ENERGY PREDICTED BY IDOCK:   -5.95 KCAL/MOL
REMARK 923 INTER-LIGAND FREE ENERGY PREDICTED BY IDOCK:   -5.32 KCAL/MOL
REMARK 924 INTRA-LIGAND FREE ENERGY PREDICTED BY IDOCK:   -0.63 KCAL/MOL
REMARK 927      BINDING AFFINITY PREDICTED BY RF-SCORE:    0.00 PKD
ROOT
HETATM    1  O   UNL     1      -7.955   8.230  63.503  1.00  0.00    -0.150 OA 
HETATM    2  N   UNL     1      -8.081   9.439  63.326  1.00  0.00    -0.141 N  
HETATM    3  O   UNL     1      -9.436   9.843  63.251  1.00  0.00    -0.268 OA 
HETATM    4  O   UNL     1      -7.227  10.320  63.220  1.00  0.00    -0.139 OA 
ENDROOT
BRANCH   3   5
HETATM    5  C   UNL     1      -9.578  11.247  63.027  1.00  0.00    -0.377 C  
BRANCH   5   6
HETATM    6  C   UNL     1     -10.477  11.826  64.134  1.00  0.00    -0.346 C  
BRANCH   6   7
HETATM    7  O   UNL     1     -10.957  13.154  63.863  1.00  0.00    -0.381 OA 
HETATM    8  O   UNL     1     -13.053  12.365  64.154  1.00  0.00    -0.762 OA 
HETATM    9  N   UNL     1     -12.356  13.348  63.915  1.00  0.00    -0.381 N  
HETATM   10  O   UNL     1     -12.683  14.512  63.706  1.00  0.00    -0.780 OA 
ENDBRANCH   6   7
BRANCH   6  11
HETATM   11  C   UNL     1      -9.881  11.650  65.541  1.00  0.00    -0.234 C  
BRANCH  11  12
HETATM   12  O   UNL     1     -10.903  11.160  66.409  1.00  0.00    -0.270 OA 
HETATM   13  N   UNL     1     -11.376  12.154  67.305  1.00  0.00    -0.311 N  
HETATM   14  O   UNL     1     -10.845  13.263  67.241  1.00  0.00    -0.260 OA 
HETATM   15  O   UNL     1     -12.266  11.742  68.044  1.00  0.00    -0.518 OA 
ENDBRANCH  11  12
ENDBRANCH   6  11
ENDBRANCH   5   6
ENDBRANCH   3   5
TORSDOF 5
ENDMDL
MODEL       73
REMARK 921   NORMALIZED FREE ENERGY PREDICTED BY IDOCK:   -4.20 KCAL/MOL
REMARK 922        TOTAL FREE ENERGY PREDICTED BY IDOCK:   -5.95 KCAL/MOL
REMARK 923 INTER-LIGAND FREE ENERGY PREDICTED BY IDOCK:   -5.43 KCAL/MOL
REMARK 924 INTRA-LIGAND FREE ENERGY PREDICTED BY IDOCK:   -0.51 KCAL/MOL
REMARK 927      BINDING AFFINITY PREDICTED BY RF-SCORE:    0.00 PKD
ROOT
HETATM    1  O   UNL     1     -12.258  16.081  63.971  1.00  0.00    -0.792 OA 
HETATM    2  N   UNL     1     -12.305  14.883  64.239  1.00  0.00    -0.428 N  
HETATM    3  O   UNL     1     -12.245  14.630  65.631  1.00  0.00    -0.295 OA 
HETATM    4  O   UNL     1     -12.406  13.906  63.495  1.00  0.00    -0.739 OA 
ENDROOT
BRANCH   3   5
HETATM    5  C   UNL     1     -12.282  13.235  65.937  1.00  0.00    -0.441 C  
BRANCH   5   6
HETATM    6  C   UNL     1     -11.152  12.927  66.936  1.00  0.00    -0.278 C  
BRANCH   6   7
HETATM    7  O   UNL     1     -11.417  13.376  68.276  1.00  0.00    -0.274 OA 
HETATM    8  O   UNL     1     -12.313  11.344  68.689  1.00  0.00    -0.491 OA 
HETATM    9  N   UNL     1     -12.027  12.447  69.149  1.00  0.00    -0.274 N  
HETATM   10  O   UNL     1     -12.190  12.894  70.281  1.00  0.00    -0.339 OA 
ENDBRANCH   6   7
BRANCH   6  11
HETATM   11  C   UNL     1      -9.762  13.319  66.406  1.00  0.00    -0.276 C  
BRANCH  11  12
HETATM   12  O   UNL     1      -9.026  13.925  67.468  1.00  0.00    -0.178 OA 
HETATM   13  N   UNL     1      -8.736  15.291  67.218  1.00  0.00    -0.185 N  
HETATM   14  O   UNL     1      -9.118  15.756  66.144  1.00  0.00    -0.307 OA 
HETATM   15  O   UNL     1      -8.115  15.821  68.135  1.00  0.00    -0.137 OA 
ENDBRANCH  11  12
ENDBRANCH   6  11
ENDBRANCH   5   6
ENDBRANCH   3   5
TORSDOF 5
ENDMDL
MODEL       74
REMARK 921   NORMALIZED FREE ENERGY PREDICTED BY IDOCK:   -4.20 KCAL/MOL
REMARK 922        TOTAL FREE ENERGY PREDICTED BY IDOCK:   -5.94 KCAL/MOL
REMARK 923 INTER-LIGAND FREE ENERGY PREDICTED BY IDOCK:   -5.68 KCAL/MOL
REMARK 924 INTRA-LIGAND FREE ENERGY PREDICTED BY IDOCK:   -0.26 KCAL/MOL
REMARK 927      BINDING AFFINITY PREDICTED BY RF-SCORE:    0.00 PKD
ROOT
HETATM    1  O   UNL     1     -12.801  10.221  70.736  1.00  0.00    -0.353 OA 
HETATM    2  N   UNL     1     -11.940  10.602  69.948  1.00  0.00    -0.305 N  
HETATM    3  O   UNL     1     -12.485  11.072  68.727  1.00  0.00    -0.468 OA 
HETATM    4  O   UNL     1     -10.715  10.644  70.068  1.00  0.00    -0.251 OA 
ENDROOT
BRANCH   3   5
HETATM    5  C   UNL     1     -11.479  11.499  67.807  1.00  0.00    -0.286 C  
BRANCH   5   6
HETATM    6  C   UNL     1     -11.908  12.852  67.211  1.00  0.00    -0.356 C  
BRANCH   6   7
HETATM    7  O   UNL     1     -11.661  12.974  65.800  1.00  0.00    -0.343 OA 
HETATM    8  O   UNL     1     -13.598  14.127  65.647  1.00  0.00    -0.470 OA 
HETATM    9  N   UNL     1     -12.618  13.693  65.047  1.00  0.00    -0.411 N  
HETATM   10  O   UNL     1     -12.319  13.782  63.860  1.00  0.00    -0.652 OA 
ENDBRANCH   6   7
BRANCH   6  11
HETATM   11  C   UNL     1     -11.419  14.051  68.040  1.00  0.00    -0.311 C  
BRANCH  11  12
HETATM   12  O   UNL     1     -12.257  14.181  69.188  1.00  0.00    -0.335 OA 
HETATM   13  N   UNL     1     -12.219  15.486  69.744  1.00  0.00    -0.345 N  
HETATM   14  O   UNL     1     -11.475  16.303  69.201  1.00  0.00    -0.320 OA 
HETATM   15  O   UNL     1     -12.950  15.607  70.723  1.00  0.00    -0.478 OA 
ENDBRANCH  11  12
ENDBRANCH   6  11
ENDBRANCH   5   6
ENDBRANCH   3   5
TORSDOF 5
ENDMDL
MODEL       75
REMARK 921   NORMALIZED FREE ENERGY PREDICTED BY IDOCK:   -4.20 KCAL/MOL
REMARK 922        TOTAL FREE ENERGY PREDICTED BY IDOCK:   -5.93 KCAL/MOL
REMARK 923 INTER-LIGAND FREE ENERGY PREDICTED BY IDOCK:   -5.42 KCAL/MOL
REMARK 924 INTRA-LIGAND FREE ENERGY PREDICTED BY IDOCK:   -0.52 KCAL/MOL
REMARK 927      BINDING AFFINITY PREDICTED BY RF-SCORE:    0.00 PKD
ROOT
HETATM    1  O   UNL     1     -10.713  17.286  67.749  1.00  0.00    -0.368 OA 
HETATM    2  N   UNL     1     -11.273  16.250  68.096  1.00  0.00    -0.333 N  
HETATM    3  O   UNL     1     -11.262  15.256  67.086  1.00  0.00    -0.334 OA 
HETATM    4  O   UNL     1     -11.813  15.957  69.164  1.00  0.00    -0.389 OA 
ENDROOT
BRANCH   3   5
HETATM    5  C   UNL     1     -11.930  14.059  67.488  1.00  0.00    -0.395 C  
BRANCH   5   6
HETATM    6  C   UNL     1     -11.474  12.916  66.563  1.00  0.00    -0.341 C  
BRANCH   6   7
HETATM    7  O   UNL     1     -12.467  12.504  65.609  1.00  0.00    -0.648 OA 
HETATM    8  O   UNL     1     -10.894  12.730  64.003  1.00  0.00    -0.376 OA 
HETATM    9  N   UNL     1     -12.054  12.417  64.259  1.00  0.00    -0.411 N  
HETATM   10  O   UNL     1     -12.947  12.027  63.513  1.00  0.00    -0.774 OA 
ENDBRANCH   6   7
BRANCH   6  11
HETATM   11  C   UNL     1     -10.819  11.753  67.330  1.00  0.00    -0.253 C  
BRANCH  11  12
HETATM   12  O   UNL     1      -9.433  11.712  66.994  1.00  0.00    -0.178 OA 
HETATM   13  N   UNL     1      -9.127  10.674  66.077  1.00  0.00    -0.173 N  
HETATM   14  O   UNL     1     -10.057   9.950  65.721  1.00  0.00    -0.284 OA 
HETATM   15  O   UNL     1      -7.937  10.643  65.773  1.00  0.00    -0.159 OA 
ENDBRANCH  11  12
ENDBRANCH   6  11
ENDBRANCH   5   6
ENDBRANCH   3   5
TORSDOF 5
ENDMDL
MODEL       76
REMARK 921   NORMALIZED FREE ENERGY PREDICTED BY IDOCK:   -4.18 KCAL/MOL
REMARK 922        TOTAL FREE ENERGY PREDICTED BY IDOCK:   -5.91 KCAL/MOL
REMARK 923 INTER-LIGAND FREE ENERGY PREDICTED BY IDOCK:   -5.45 KCAL/MOL
REMARK 924 INTRA-LIGAND FREE ENERGY PREDICTED BY IDOCK:   -0.47 KCAL/MOL
REMARK 927      BINDING AFFINITY PREDICTED BY RF-SCORE:    0.00 PKD
ROOT
HETATM    1  O   UNL     1     -13.893  15.085  71.298  1.00  0.00    -0.432 OA 
HETATM    2  N   UNL     1     -12.804  15.653  71.280  1.00  0.00    -0.478 N  
HETATM    3  O   UNL     1     -12.139  15.521  70.036  1.00  0.00    -0.339 OA 
HETATM    4  O   UNL     1     -12.235  16.309  72.153  1.00  0.00    -0.476 OA 
ENDROOT
BRANCH   3   5
HETATM    5  C   UNL     1     -10.866  16.169  70.024  1.00  0.00    -0.349 C  
BRANCH   5   6
HETATM    6  C   UNL     1     -10.597  16.687  68.599  1.00  0.00    -0.337 C  
BRANCH   6   7
HETATM    7  O   UNL     1      -9.680  15.875  67.846  1.00  0.00    -0.215 OA 
HETATM    8  O   UNL     1     -11.462  15.052  66.727  1.00  0.00    -0.330 OA 
HETATM    9  N   UNL     1     -10.239  15.043  66.849  1.00  0.00    -0.255 N  
HETATM   10  O   UNL     1      -9.391  14.409  66.228  1.00  0.00    -0.283 OA 
ENDBRANCH   6   7
BRANCH   6  11
HETATM   11  C   UNL     1     -10.282  18.192  68.560  1.00  0.00    -0.384 C  
BRANCH  11  12
HETATM   12  O   UNL     1     -10.951  18.767  67.438  1.00  0.00    -0.422 OA 
HETATM   13  N   UNL     1     -10.053  19.371  66.522  1.00  0.00    -0.385 N  
HETATM   14  O   UNL     1      -8.856  19.348  66.813  1.00  0.00    -0.298 OA 
HETATM   15  O   UNL     1     -10.622  19.854  65.547  1.00  0.00    -0.464 OA 
ENDBRANCH  11  12
ENDBRANCH   6  11
ENDBRANCH   5   6
ENDBRANCH   3   5
TORSDOF 5
ENDMDL
MODEL       77
REMARK 921   NORMALIZED FREE ENERGY PREDICTED BY IDOCK:   -4.17 KCAL/MOL
REMARK 922        TOTAL FREE ENERGY PREDICTED BY IDOCK:   -5.91 KCAL/MOL
REMARK 923 INTER-LIGAND FREE ENERGY PREDICTED BY IDOCK:   -5.50 KCAL/MOL
REMARK 924 INTRA-LIGAND FREE ENERGY PREDICTED BY IDOCK:   -0.41 KCAL/MOL
REMARK 927      BINDING AFFINITY PREDICTED BY RF-SCORE:    0.00 PKD
ROOT
HETATM    1  O   UNL     1     -11.608  12.727  63.644  1.00  0.00    -0.443 OA 
HETATM    2  N   UNL     1     -11.669  13.901  64.000  1.00  0.00    -0.337 N  
HETATM    3  O   UNL     1     -10.560  14.291  64.792  1.00  0.00    -0.418 OA 
HETATM    4  O   UNL     1     -12.519  14.760  63.765  1.00  0.00    -0.782 OA 
ENDROOT
BRANCH   3   5
HETATM    5  C   UNL     1     -10.643  15.652  65.218  1.00  0.00    -0.426 C  
BRANCH   5   6
HETATM    6  C   UNL     1     -10.944  15.670  66.727  1.00  0.00    -0.230 C  
BRANCH   6   7
HETATM    7  O   UNL     1      -9.794  15.930  67.550  1.00  0.00    -0.227 OA 
HETATM    8  O   UNL     1     -10.564  18.036  67.815  1.00  0.00    -0.401 OA 
HETATM    9  N   UNL     1      -9.688  17.226  68.104  1.00  0.00    -0.273 N  
HETATM   10  O   UNL     1      -8.699  17.358  68.819  1.00  0.00    -0.278 OA 
ENDBRANCH   6   7
BRANCH   6  11
HETATM   11  C   UNL     1     -11.783  14.464  67.184  1.00  0.00    -0.400 C  
BRANCH  11  12
HETATM   12  O   UNL     1     -10.963  13.623  67.995  1.00  0.00    -0.240 OA 
HETATM   13  N   UNL     1     -11.152  12.245  67.712  1.00  0.00    -0.240 N  
HETATM   14  O   UNL     1     -11.988  11.960  66.854  1.00  0.00    -0.614 OA 
HETATM   15  O   UNL     1     -10.439  11.517  68.396  1.00  0.00    -0.191 OA 
ENDBRANCH  11  12
ENDBRANCH   6  11
ENDBRANCH   5   6
ENDBRANCH   3   5
TORSDOF 5
ENDMDL
MODEL       78
REMARK 921   NORMALIZED FREE ENERGY PREDICTED BY IDOCK:   -4.15 KCAL/MOL
REMARK 922        TOTAL FREE ENERGY PREDICTED BY IDOCK:   -5.87 KCAL/MOL
REMARK 923 INTER-LIGAND FREE ENERGY PREDICTED BY IDOCK:   -5.40 KCAL/MOL
REMARK 924 INTRA-LIGAND FREE ENERGY PREDICTED BY IDOCK:   -0.48 KCAL/MOL
REMARK 927      BINDING AFFINITY PREDICTED BY RF-SCORE:    0.00 PKD
ROOT
HETATM    1  O   UNL     1     -12.655  14.933  63.888  1.00  0.00    -0.831 OA 
HETATM    2  N   UNL     1     -11.626  14.673  64.507  1.00  0.00    -0.391 N  
HETATM    3  O   UNL     1     -11.243  15.710  65.392  1.00  0.00    -0.281 OA 
HETATM    4  O   UNL     1     -10.913  13.669  64.478  1.00  0.00    -0.375 OA 
ENDROOT
BRANCH   3   5
HETATM    5  C   UNL     1     -10.037  15.411  66.098  1.00  0.00    -0.305 C  
BRANCH   5   6
HETATM    6  C   UNL     1      -9.285  16.729  66.356  1.00  0.00    -0.279 C  
BRANCH   6   7
HETATM    7  O   UNL     1      -9.776  17.842  65.591  1.00  0.00    -0.487 OA 
HETATM    8  O   UNL     1     -10.741  18.609  67.484  1.00  0.00    -0.432 OA 
HETATM    9  N   UNL     1     -10.533  18.810  66.290  1.00  0.00    -0.438 N  
HETATM   10  O   UNL     1     -10.887  19.744  65.576  1.00  0.00    -0.445 OA 
ENDBRANCH   6   7
BRANCH   6  11
HETATM   11  C   UNL     1      -7.756  16.563  66.312  1.00  0.00    -0.180 C  
BRANCH  11  12
HETATM   12  O   UNL     1      -7.166  17.584  67.116  1.00  0.00    -0.163 OA 
HETATM   13  N   UNL     1      -6.503  18.570  66.340  1.00  0.00    -0.186 N  
HETATM   14  O   UNL     1      -6.498  18.410  65.119  1.00  0.00    -0.426 OA 
HETATM   15  O   UNL     1      -6.006  19.459  67.025  1.00  0.00    -0.178 OA 
ENDBRANCH  11  12
ENDBRANCH   6  11
ENDBRANCH   5   6
ENDBRANCH   3   5
TORSDOF 5
ENDMDL
MODEL       79
REMARK 921   NORMALIZED FREE ENERGY PREDICTED BY IDOCK:   -4.15 KCAL/MOL
REMARK 922        TOTAL FREE ENERGY PREDICTED BY IDOCK:   -5.87 KCAL/MOL
REMARK 923 INTER-LIGAND FREE ENERGY PREDICTED BY IDOCK:   -5.49 KCAL/MOL
REMARK 924 INTRA-LIGAND FREE ENERGY PREDICTED BY IDOCK:   -0.38 KCAL/MOL
REMARK 927      BINDING AFFINITY PREDICTED BY RF-SCORE:    0.00 PKD
ROOT
HETATM    1  O   UNL     1     -12.630  11.658  63.239  1.00  0.00    -0.491 OA 
HETATM    2  N   UNL     1     -12.648  12.694  63.898  1.00  0.00    -0.365 N  
HETATM    3  O   UNL     1     -12.552  12.458  65.292  1.00  0.00    -0.636 OA 
HETATM    4  O   UNL     1     -12.723  13.868  63.532  1.00  0.00    -0.797 OA 
ENDROOT
BRANCH   3   5
HETATM    5  C   UNL     1     -12.591  13.665  66.056  1.00  0.00    -0.386 C  
BRANCH   5   6
HETATM    6  C   UNL     1     -11.507  13.584  67.147  1.00  0.00    -0.338 C  
BRANCH   6   7
HETATM    7  O   UNL     1     -10.467  12.631  66.868  1.00  0.00    -0.231 OA 
HETATM    8  O   UNL     1      -8.980  14.317  67.095  1.00  0.00    -0.204 OA 
HETATM    9  N   UNL     1      -9.140  13.117  66.881  1.00  0.00    -0.233 N  
HETATM   10  O   UNL     1      -8.310  12.239  66.669  1.00  0.00    -0.129 OA 
ENDBRANCH   6   7
BRANCH   6  11
HETATM   11  C   UNL     1     -12.095  13.475  68.564  1.00  0.00    -0.268 C  
BRANCH  11  12
HETATM   12  O   UNL     1     -12.108  14.777  69.150  1.00  0.00    -0.298 OA 
HETATM   13  N   UNL     1     -12.475  14.752  70.521  1.00  0.00    -0.333 N  
HETATM   14  O   UNL     1     -12.751  13.654  71.005  1.00  0.00    -0.338 OA 
HETATM   15  O   UNL     1     -12.473  15.867  71.034  1.00  0.00    -0.440 OA 
ENDBRANCH  11  12
ENDBRANCH   6  11
ENDBRANCH   5   6
ENDBRANCH   3   5
TORSDOF 5
ENDMDL
MODEL       80
REMARK 921   NORMALIZED FREE ENERGY PREDICTED BY IDOCK:   -4.09 KCAL/MOL
REMARK 922        TOTAL FREE ENERGY PREDICTED BY IDOCK:   -5.80 KCAL/MOL
REMARK 923 INTER-LIGAND FREE ENERGY PREDICTED BY IDOCK:   -5.51 KCAL/MOL
REMARK 924 INTRA-LIGAND FREE ENERGY PREDICTED BY IDOCK:   -0.29 KCAL/MOL
REMARK 927      BINDING AFFINITY PREDICTED BY RF-SCORE:    0.00 PKD
ROOT
HETATM    1  O   UNL     1     -12.670  14.117  63.461  1.00  0.00    -0.794 OA 
HETATM    2  N   UNL     1     -11.606  13.867  64.021  1.00  0.00    -0.293 N  
HETATM    3  O   UNL     1     -11.173  14.917  64.869  1.00  0.00    -0.378 OA 
HETATM    4  O   UNL     1     -10.893  12.864  63.963  1.00  0.00    -0.387 OA 
ENDROOT
BRANCH   3   5
HETATM    5  C   UNL     1      -9.926  14.628  65.504  1.00  0.00    -0.352 C  
BRANCH   5   6
HETATM    6  C   UNL     1      -9.300  15.956  65.969  1.00  0.00    -0.349 C  
BRANCH   6   7
HETATM    7  O   UNL     1      -7.964  15.824  66.483  1.00  0.00    -0.248 OA 
HETATM    8  O   UNL     1      -7.493  17.819  65.532  1.00  0.00    -0.491 OA 
HETATM    9  N   UNL     1      -7.071  16.886  66.211  1.00  0.00    -0.210 N  
HETATM   10  O   UNL     1      -5.963  16.715  66.711  1.00  0.00    -0.266 OA 
ENDBRANCH   6   7
BRANCH   6  11
HETATM   11  C   UNL     1     -10.240  16.776  66.869  1.00  0.00    -0.290 C  
BRANCH  11  12
HETATM   12  O   UNL     1     -10.513  18.021  66.225  1.00  0.00    -0.375 OA 
HETATM   13  N   UNL     1     -10.029  19.132  66.963  1.00  0.00    -0.327 N  
HETATM   14  O   UNL     1      -9.479  18.891  68.039  1.00  0.00    -0.298 OA 
HETATM   15  O   UNL     1     -10.247  20.204  66.407  1.00  0.00    -0.450 OA 
ENDBRANCH  11  12
ENDBRANCH   6  11
ENDBRANCH   5   6
ENDBRANCH   3   5
TORSDOF 5
ENDMDL
MODEL       81
REMARK 921   NORMALIZED FREE ENERGY PREDICTED BY IDOCK:   -4.05 KCAL/MOL
REMARK 922        TOTAL FREE ENERGY PREDICTED BY IDOCK:   -5.75 KCAL/MOL
REMARK 923 INTER-LIGAND FREE ENERGY PREDICTED BY IDOCK:   -5.36 KCAL/MOL
REMARK 924 INTRA-LIGAND FREE ENERGY PREDICTED BY IDOCK:   -0.39 KCAL/MOL
REMARK 927      BINDING AFFINITY PREDICTED BY RF-SCORE:    0.00 PKD
ROOT
HETATM    1  O   UNL     1      -8.701  17.789  68.624  1.00  0.00    -0.291 OA 
HETATM    2  N   UNL     1      -9.834  17.407  68.343  1.00  0.00    -0.298 N  
HETATM    3  O   UNL     1     -10.226  16.264  69.083  1.00  0.00    -0.234 OA 
HETATM    4  O   UNL     1     -10.654  17.867  67.548  1.00  0.00    -0.388 OA 
ENDROOT
BRANCH   3   5
HETATM    5  C   UNL     1     -11.538  15.814  68.742  1.00  0.00    -0.395 C  
BRANCH   5   6
HETATM    6  C   UNL     1     -11.424  14.406  68.129  1.00  0.00    -0.310 C  
BRANCH   6   7
HETATM    7  O   UNL     1     -12.475  14.084  67.203  1.00  0.00    -0.293 OA 
HETATM    8  O   UNL     1     -10.958  14.292  65.541  1.00  0.00    -0.299 OA 
HETATM    9  N   UNL     1     -12.122  14.029  65.835  1.00  0.00    -0.405 N  
HETATM   10  O   UNL     1     -13.064  13.716  65.113  1.00  0.00    -0.750 OA 
ENDBRANCH   6   7
BRANCH   6  11
HETATM   11  C   UNL     1     -11.160  13.316  69.182  1.00  0.00    -0.209 C  
BRANCH  11  12
HETATM   12  O   UNL     1     -12.090  13.485  70.252  1.00  0.00    -0.335 OA 
HETATM   13  N   UNL     1     -12.388  12.263  70.910  1.00  0.00    -0.347 N  
HETATM   14  O   UNL     1     -11.847  11.247  70.474  1.00  0.00    -0.338 OA 
HETATM   15  O   UNL     1     -13.176  12.405  71.840  1.00  0.00    -0.464 OA 
ENDBRANCH  11  12
ENDBRANCH   6  11
ENDBRANCH   5   6
ENDBRANCH   3   5
TORSDOF 5
ENDMDL
MODEL       82
REMARK 921   NORMALIZED FREE ENERGY PREDICTED BY IDOCK:   -4.04 KCAL/MOL
REMARK 922        TOTAL FREE ENERGY PREDICTED BY IDOCK:   -5.73 KCAL/MOL
REMARK 923 INTER-LIGAND FREE ENERGY PREDICTED BY IDOCK:   -5.29 KCAL/MOL
REMARK 924 INTRA-LIGAND FREE ENERGY PREDICTED BY IDOCK:   -0.45 KCAL/MOL
REMARK 927      BINDING AFFINITY PREDICTED BY RF-SCORE:    0.00 PKD
ROOT
HETATM    1  O   UNL     1     -12.918  11.248  70.965  1.00  0.00    -0.318 OA 
HETATM    2  N   UNL     1     -12.045  10.823  70.213  1.00  0.00    -0.319 N  
HETATM    3  O   UNL     1     -12.344  11.042  68.846  1.00  0.00    -0.516 OA 
HETATM    4  O   UNL     1     -10.978  10.264  70.471  1.00  0.00    -0.307 OA 
ENDROOT
BRANCH   3   5
HETATM    5  C   UNL     1     -11.334  10.531  67.975  1.00  0.00    -0.246 C  
BRANCH   5   6
HETATM    6  C   UNL     1     -10.974  11.625  66.954  1.00  0.00    -0.292 C  
BRANCH   6   7
HETATM    7  O   UNL     1     -12.020  11.911  66.010  1.00  0.00    -0.511 OA 
HETATM    8  O   UNL     1     -11.837  14.085  66.595  1.00  0.00    -0.377 OA 
HETATM    9  N   UNL     1     -12.402  13.265  65.875  1.00  0.00    -0.433 N  
HETATM   10  O   UNL     1     -13.274  13.431  65.028  1.00  0.00    -0.715 OA 
ENDBRANCH   6   7
BRANCH   6  11
HETATM   11  C   UNL     1      -9.591  11.412  66.314  1.00  0.00    -0.213 C  
BRANCH  11  12
HETATM   12  O   UNL     1      -9.674  11.758  64.931  1.00  0.00    -0.238 OA 
HETATM   13  N   UNL     1      -9.511  10.634  64.080  1.00  0.00    -0.255 N  
HETATM   14  O   UNL     1      -9.301   9.548  64.622  1.00  0.00    -0.240 OA 
HETATM   15  O   UNL     1      -9.596  10.923  62.890  1.00  0.00    -0.307 OA 
ENDBRANCH  11  12
ENDBRANCH   6  11
ENDBRANCH   5   6
ENDBRANCH   3   5
TORSDOF 5
ENDMDL
MODEL       83
REMARK 921   NORMALIZED FREE ENERGY PREDICTED BY IDOCK:   -4.04 KCAL/MOL
REMARK 922        TOTAL FREE ENERGY PREDICTED BY IDOCK:   -5.73 KCAL/MOL
REMARK 923 INTER-LIGAND FREE ENERGY PREDICTED BY IDOCK:   -5.35 KCAL/MOL
REMARK 924 INTRA-LIGAND FREE ENERGY PREDICTED BY IDOCK:   -0.38 KCAL/MOL
REMARK 927      BINDING AFFINITY PREDICTED BY RF-SCORE:    0.00 PKD
ROOT
HETATM    1  O   UNL     1      -8.770  10.756  66.071  1.00  0.00    -0.170 OA 
HETATM    2  N   UNL     1      -9.126  11.731  66.728  1.00  0.00    -0.188 N  
HETATM    3  O   UNL     1      -9.515  12.825  65.916  1.00  0.00    -0.189 OA 
HETATM    4  O   UNL     1      -9.203  11.882  67.948  1.00  0.00    -0.174 OA 
ENDROOT
BRANCH   3   5
HETATM    5  C   UNL     1      -9.913  13.962  66.684  1.00  0.00    -0.279 C  
BRANCH   5   6
HETATM    6  C   UNL     1     -10.734  14.897  65.778  1.00  0.00    -0.331 C  
BRANCH   6   7
HETATM    7  O   UNL     1     -11.040  14.340  64.488  1.00  0.00    -0.371 OA 
HETATM    8  O   UNL     1     -13.163  14.061  65.207  1.00  0.00    -0.782 OA 
HETATM    9  N   UNL     1     -12.378  13.937  64.271  1.00  0.00    -0.388 N  
HETATM   10  O   UNL     1     -12.566  13.505  63.138  1.00  0.00    -0.762 OA 
ENDBRANCH   6   7
BRANCH   6  11
HETATM   11  C   UNL     1     -10.170  16.327  65.727  1.00  0.00    -0.367 C  
BRANCH  11  12
HETATM   12  O   UNL     1      -9.986  16.790  67.064  1.00  0.00    -0.255 OA 
HETATM   13  N   UNL     1     -10.090  18.201  67.169  1.00  0.00    -0.335 N  
HETATM   14  O   UNL     1     -10.290  18.826  66.127  1.00  0.00    -0.419 OA 
HETATM   15  O   UNL     1      -9.948  18.604  68.321  1.00  0.00    -0.344 OA 
ENDBRANCH  11  12
ENDBRANCH   6  11
ENDBRANCH   5   6
ENDBRANCH   3   5
TORSDOF 5
ENDMDL
MODEL       84
REMARK 921   NORMALIZED FREE ENERGY PREDICTED BY IDOCK:   -4.03 KCAL/MOL
REMARK 922        TOTAL FREE ENERGY PREDICTED BY IDOCK:   -5.72 KCAL/MOL
REMARK 923 INTER-LIGAND FREE ENERGY PREDICTED BY IDOCK:   -5.31 KCAL/MOL
REMARK 924 INTRA-LIGAND FREE ENERGY PREDICTED BY IDOCK:   -0.40 KCAL/MOL
REMARK 927      BINDING AFFINITY PREDICTED BY RF-SCORE:    0.00 PKD
ROOT
HETATM    1  O   UNL     1      -7.021  13.580  67.795  1.00  0.00    -0.127 OA 
HETATM    2  N   UNL     1      -7.937  14.378  67.617  1.00  0.00    -0.164 N  
HETATM    3  O   UNL     1      -8.998  14.209  68.542  1.00  0.00    -0.189 OA 
HETATM    4  O   UNL     1      -8.056  15.280  66.787  1.00  0.00    -0.222 OA 
ENDROOT
BRANCH   3   5
HETATM    5  C   UNL     1     -10.069  15.128  68.321  1.00  0.00    -0.223 C  
BRANCH   5   6
HETATM    6  C   UNL     1     -11.370  14.323  68.148  1.00  0.00    -0.288 C  
BRANCH   6   7
HETATM    7  O   UNL     1     -12.099  14.640  66.950  1.00  0.00    -0.361 OA 
HETATM    8  O   UNL     1     -11.928  12.463  66.372  1.00  0.00    -0.559 OA 
HETATM    9  N   UNL     1     -12.366  13.570  66.066  1.00  0.00    -0.441 N  
HETATM   10  O   UNL     1     -13.019  13.914  65.086  1.00  0.00    -0.744 OA 
ENDBRANCH   6   7
BRANCH   6  11
HETATM   11  C   UNL     1     -12.234  14.304  69.421  1.00  0.00    -0.278 C  
BRANCH  11  12
HETATM   12  O   UNL     1     -11.583  15.087  70.422  1.00  0.00    -0.255 OA 
HETATM   13  N   UNL     1     -12.501  15.702  71.312  1.00  0.00    -0.416 N  
HETATM   14  O   UNL     1     -13.699  15.511  71.100  1.00  0.00    -0.539 OA 
HETATM   15  O   UNL     1     -11.947  16.365  72.184  1.00  0.00    -0.509 OA 
ENDBRANCH  11  12
ENDBRANCH   6  11
ENDBRANCH   5   6
ENDBRANCH   3   5
TORSDOF 5
ENDMDL
MODEL       85
REMARK 921   NORMALIZED FREE ENERGY PREDICTED BY IDOCK:   -4.03 KCAL/MOL
REMARK 922        TOTAL FREE ENERGY PREDICTED BY IDOCK:   -5.72 KCAL/MOL
REMARK 923 INTER-LIGAND FREE ENERGY PREDICTED BY IDOCK:   -5.33 KCAL/MOL
REMARK 924 INTRA-LIGAND FREE ENERGY PREDICTED BY IDOCK:   -0.39 KCAL/MOL
REMARK 927      BINDING AFFINITY PREDICTED BY RF-SCORE:    0.00 PKD
ROOT
HETATM    1  O   UNL     1     -13.663   9.679  72.526  1.00  0.00    -0.392 OA 
HETATM    2  N   UNL     1     -12.913   9.872  71.572  1.00  0.00    -0.390 N  
HETATM    3  O   UNL     1     -12.898  11.225  71.153  1.00  0.00    -0.376 OA 
HETATM    4  O   UNL     1     -12.190   9.087  70.958  1.00  0.00    -0.289 OA 
ENDROOT
BRANCH   3   5
HETATM    5  C   UNL     1     -12.039  11.442  70.032  1.00  0.00    -0.340 C  
BRANCH   5   6
HETATM    6  C   UNL     1     -11.863  12.959  69.841  1.00  0.00    -0.303 C  
BRANCH   6   7
HETATM    7  O   UNL     1     -13.022  13.732  70.199  1.00  0.00    -0.078 OA 
HETATM    8  O   UNL     1     -11.731  14.814  71.703  1.00  0.00    -0.348 OA 
HETATM    9  N   UNL     1     -12.846  14.717  71.197  1.00  0.00    -0.323 N  
HETATM   10  O   UNL     1     -13.871  15.355  71.421  1.00  0.00    -0.496 OA 
ENDBRANCH   6   7
BRANCH   6  11
HETATM   11  C   UNL     1     -11.264  13.323  68.472  1.00  0.00    -0.271 C  
BRANCH  11  12
HETATM   12  O   UNL     1     -12.274  13.160  67.477  1.00  0.00    -0.282 OA 
HETATM   13  N   UNL     1     -12.092  14.029  66.370  1.00  0.00    -0.438 N  
HETATM   14  O   UNL     1     -11.136  14.803  66.419  1.00  0.00    -0.330 OA 
HETATM   15  O   UNL     1     -12.950  13.882  65.504  1.00  0.00    -0.673 OA 
ENDBRANCH  11  12
ENDBRANCH   6  11
ENDBRANCH   5   6
ENDBRANCH   3   5
TORSDOF 5
ENDMDL
MODEL       86
REMARK 921   NORMALIZED FREE ENERGY PREDICTED BY IDOCK:   -4.02 KCAL/MOL
REMARK 922        TOTAL FREE ENERGY PREDICTED BY IDOCK:   -5.70 KCAL/MOL
REMARK 923 INTER-LIGAND FREE ENERGY PREDICTED BY IDOCK:   -5.27 KCAL/MOL
REMARK 924 INTRA-LIGAND FREE ENERGY PREDICTED BY IDOCK:   -0.43 KCAL/MOL
REMARK 927      BINDING AFFINITY PREDICTED BY RF-SCORE:    0.00 PKD
ROOT
HETATM    1  O   UNL     1     -13.034  10.995  71.312  1.00  0.00    -0.386 OA 
HETATM    2  N   UNL     1     -12.130  10.751  70.517  1.00  0.00    -0.334 N  
HETATM    3  O   UNL     1     -12.440  11.153  69.194  1.00  0.00    -0.418 OA 
HETATM    4  O   UNL     1     -11.025  10.238  70.702  1.00  0.00    -0.308 OA 
ENDROOT
BRANCH   3   5
HETATM    5  C   UNL     1     -11.392  10.853  68.271  1.00  0.00    -0.308 C  
BRANCH   5   6
HETATM    6  C   UNL     1     -11.163  12.087  67.379  1.00  0.00    -0.307 C  
BRANCH   6   7
HETATM    7  O   UNL     1     -11.820  12.017  66.103  1.00  0.00    -0.546 OA 
HETATM    8  O   UNL     1     -12.413  14.178  66.385  1.00  0.00    -0.461 OA 
HETATM    9  N   UNL     1     -12.448  13.198  65.646  1.00  0.00    -0.456 N  
HETATM   10  O   UNL     1     -12.957  13.067  64.536  1.00  0.00    -0.707 OA 
ENDBRANCH   6   7
BRANCH   6  11
HETATM   11  C   UNL     1      -9.683  12.500  67.301  1.00  0.00    -0.202 C  
BRANCH  11  12
HETATM   12  O   UNL     1      -9.430  13.475  68.312  1.00  0.00    -0.209 OA 
HETATM   13  N   UNL     1      -9.176  14.762  67.774  1.00  0.00    -0.191 N  
HETATM   14  O   UNL     1      -9.179  14.866  66.547  1.00  0.00    -0.258 OA 
HETATM   15  O   UNL     1      -8.972  15.608  68.640  1.00  0.00    -0.182 OA 
ENDBRANCH  11  12
ENDBRANCH   6  11
ENDBRANCH   5   6
ENDBRANCH   3   5
TORSDOF 5
ENDMDL
MODEL       87
REMARK 921   NORMALIZED FREE ENERGY PREDICTED BY IDOCK:   -4.02 KCAL/MOL
REMARK 922        TOTAL FREE ENERGY PREDICTED BY IDOCK:   -5.70 KCAL/MOL
REMARK 923 INTER-LIGAND FREE ENERGY PREDICTED BY IDOCK:   -5.28 KCAL/MOL
REMARK 924 INTRA-LIGAND FREE ENERGY PREDICTED BY IDOCK:   -0.42 KCAL/MOL
REMARK 927      BINDING AFFINITY PREDICTED BY RF-SCORE:    0.00 PKD
ROOT
HETATM    1  O   UNL     1      -9.815  11.343  67.769  1.00  0.00    -0.170 OA 
HETATM    2  N   UNL     1     -10.920  11.755  68.113  1.00  0.00    -0.213 N  
HETATM    3  O   UNL     1     -10.849  12.691  69.174  1.00  0.00    -0.186 OA 
HETATM    4  O   UNL     1     -12.039  11.488  67.674  1.00  0.00    -0.623 OA 
ENDROOT
BRANCH   3   5
HETATM    5  C   UNL     1     -12.138  13.154  69.582  1.00  0.00    -0.255 C  
BRANCH   5   6
HETATM    6  C   UNL     1     -12.004  14.616  70.046  1.00  0.00    -0.320 C  
BRANCH   6   7
HETATM    7  O   UNL     1     -13.083  15.065  70.883  1.00  0.00    -0.380 OA 
HETATM    8  O   UNL     1     -11.549  15.490  72.486  1.00  0.00    -0.447 OA 
HETATM    9  N   UNL     1     -12.736  15.534  72.171  1.00  0.00    -0.372 N  
HETATM   10  O   UNL     1     -13.706  15.930  72.810  1.00  0.00    -0.568 OA 
ENDBRANCH   6   7
BRANCH   6  11
HETATM   11  C   UNL     1     -11.659  15.578  68.896  1.00  0.00    -0.373 C  
BRANCH  11  12
HETATM   12  O   UNL     1     -10.935  16.685  69.432  1.00  0.00    -0.301 OA 
HETATM   13  N   UNL     1     -10.413  17.533  68.422  1.00  0.00    -0.375 N  
HETATM   14  O   UNL     1     -10.621  17.205  67.254  1.00  0.00    -0.325 OA 
HETATM   15  O   UNL     1      -9.802  18.496  68.878  1.00  0.00    -0.377 OA 
ENDBRANCH  11  12
ENDBRANCH   6  11
ENDBRANCH   5   6
ENDBRANCH   3   5
TORSDOF 5
ENDMDL
MODEL       88
REMARK 921   NORMALIZED FREE ENERGY PREDICTED BY IDOCK:   -4.00 KCAL/MOL
REMARK 922        TOTAL FREE ENERGY PREDICTED BY IDOCK:   -5.68 KCAL/MOL
REMARK 923 INTER-LIGAND FREE ENERGY PREDICTED BY IDOCK:   -5.33 KCAL/MOL
REMARK 924 INTRA-LIGAND FREE ENERGY PREDICTED BY IDOCK:   -0.35 KCAL/MOL
REMARK 927      BINDING AFFINITY PREDICTED BY RF-SCORE:    0.00 PKD
ROOT
HETATM    1  O   UNL     1     -11.140  12.557  66.954  1.00  0.00    -0.255 OA 
HETATM    2  N   UNL     1     -11.127  13.638  67.537  1.00  0.00    -0.271 N  
HETATM    3  O   UNL     1      -9.815  14.085  67.833  1.00  0.00    -0.222 OA 
HETATM    4  O   UNL     1     -12.058  14.370  67.876  1.00  0.00    -0.334 OA 
ENDROOT
BRANCH   3   5
HETATM    5  C   UNL     1      -9.806  15.334  68.526  1.00  0.00    -0.210 C  
BRANCH   5   6
HETATM    6  C   UNL     1      -9.504  16.450  67.510  1.00  0.00    -0.224 C  
BRANCH   6   7
HETATM    7  O   UNL     1     -10.387  17.581  67.604  1.00  0.00    -0.331 OA 
HETATM    8  O   UNL     1      -8.607  18.809  68.256  1.00  0.00    -0.306 OA 
HETATM    9  N   UNL     1      -9.807  18.809  67.995  1.00  0.00    -0.326 N  
HETATM   10  O   UNL     1     -10.618  19.731  68.019  1.00  0.00    -0.418 OA 
ENDBRANCH   6   7
BRANCH   6  11
HETATM   11  C   UNL     1      -9.314  15.919  66.079  1.00  0.00    -0.349 C  
BRANCH  11  12
HETATM   12  O   UNL     1     -10.204  16.623  65.212  1.00  0.00    -0.600 OA 
HETATM   13  N   UNL     1     -10.979  15.751  64.405  1.00  0.00    -0.192 N  
HETATM   14  O   UNL     1     -10.775  14.544  64.531  1.00  0.00    -0.356 OA 
HETATM   15  O   UNL     1     -11.757  16.352  63.668  1.00  0.00    -0.933 OA 
ENDBRANCH  11  12
ENDBRANCH   6  11
ENDBRANCH   5   6
ENDBRANCH   3   5
TORSDOF 5
ENDMDL
MODEL       89
REMARK 921   NORMALIZED FREE ENERGY PREDICTED BY IDOCK:   -4.00 KCAL/MOL
REMARK 922        TOTAL FREE ENERGY PREDICTED BY IDOCK:   -5.68 KCAL/MOL
REMARK 923 INTER-LIGAND FREE ENERGY PREDICTED BY IDOCK:   -5.26 KCAL/MOL
REMARK 924 INTRA-LIGAND FREE ENERGY PREDICTED BY IDOCK:   -0.42 KCAL/MOL
REMARK 927      BINDING AFFINITY PREDICTED BY RF-SCORE:    0.00 PKD
ROOT
HETATM    1  O   UNL     1      -6.391  16.859  66.920  1.00  0.00    -0.171 OA 
HETATM    2  N   UNL     1      -7.493  16.953  66.385  1.00  0.00    -0.286 N  
HETATM    3  O   UNL     1      -8.281  15.786  66.546  1.00  0.00    -0.273 OA 
HETATM    4  O   UNL     1      -7.997  17.888  65.761  1.00  0.00    -0.540 OA 
ENDROOT
BRANCH   3   5
HETATM    5  C   UNL     1      -9.555  15.894  65.908  1.00  0.00    -0.343 C  
BRANCH   5   6
HETATM    6  C   UNL     1     -10.613  15.259  66.828  1.00  0.00    -0.304 C  
BRANCH   6   7
HETATM    7  O   UNL     1     -11.898  15.085  66.208  1.00  0.00    -0.195 OA 
HETATM    8  O   UNL     1     -11.409  12.889  66.007  1.00  0.00    -0.295 OA 
HETATM    9  N   UNL     1     -12.243  13.771  65.818  1.00  0.00    -0.431 N  
HETATM   10  O   UNL     1     -13.367  13.700  65.328  1.00  0.00    -0.669 OA 
ENDBRANCH   6   7
BRANCH   6  11
HETATM   11  C   UNL     1     -10.670  15.920  68.216  1.00  0.00    -0.291 C  
BRANCH  11  12
HETATM   12  O   UNL     1     -12.001  15.804  68.720  1.00  0.00    -0.374 OA 
HETATM   13  N   UNL     1     -12.037  15.668  70.131  1.00  0.00    -0.381 N  
HETATM   14  O   UNL     1     -10.955  15.643  70.719  1.00  0.00    -0.324 OA 
HETATM   15  O   UNL     1     -13.180  15.582  70.571  1.00  0.00    -0.381 OA 
ENDBRANCH  11  12
ENDBRANCH   6  11
ENDBRANCH   5   6
ENDBRANCH   3   5
TORSDOF 5
ENDMDL
MODEL       90
REMARK 921   NORMALIZED FREE ENERGY PREDICTED BY IDOCK:   -3.98 KCAL/MOL
REMARK 922        TOTAL FREE ENERGY PREDICTED BY IDOCK:   -5.66 KCAL/MOL
REMARK 923 INTER-LIGAND FREE ENERGY PREDICTED BY IDOCK:   -5.24 KCAL/MOL
REMARK 924 INTRA-LIGAND FREE ENERGY PREDICTED BY IDOCK:   -0.42 KCAL/MOL
REMARK 927      BINDING AFFINITY PREDICTED BY RF-SCORE:    0.00 PKD
ROOT
HETATM    1  O   UNL     1     -13.715  15.144  71.414  1.00  0.00    -0.430 OA 
HETATM    2  N   UNL     1     -13.466  13.966  71.657  1.00  0.00    -0.357 N  
HETATM    3  O   UNL     1     -12.780  13.321  70.599  1.00  0.00    -0.252 OA 
HETATM    4  O   UNL     1     -13.709  13.294  72.660  1.00  0.00    -0.674 OA 
ENDROOT
BRANCH   3   5
HETATM    5  C   UNL     1     -12.509  11.947  70.880  1.00  0.00    -0.300 C  
BRANCH   5   6
HETATM    6  C   UNL     1     -11.651  11.378  69.734  1.00  0.00    -0.332 C  
BRANCH   6   7
HETATM    7  O   UNL     1     -12.278  11.450  68.443  1.00  0.00    -0.571 OA 
HETATM    8  O   UNL     1     -10.722  12.983  67.868  1.00  0.00    -0.226 OA 
HETATM    9  N   UNL     1     -11.695  12.328  67.501  1.00  0.00    -0.352 N  
HETATM   10  O   UNL     1     -12.266  12.308  66.415  1.00  0.00    -0.613 OA 
ENDBRANCH   6   7
BRANCH   6  11
HETATM   11  C   UNL     1     -11.052  10.000  70.065  1.00  0.00    -0.295 C  
BRANCH  11  12
HETATM   12  O   UNL     1     -10.743   9.334  68.841  1.00  0.00    -0.215 OA 
HETATM   13  N   UNL     1     -10.639   7.928  68.999  1.00  0.00    -0.200 N  
HETATM   14  O   UNL     1     -10.796   7.480  70.135  1.00  0.00    -0.243 OA 
HETATM   15  O   UNL     1     -10.388   7.348  67.946  1.00  0.00    -0.184 OA 
ENDBRANCH  11  12
ENDBRANCH   6  11
ENDBRANCH   5   6
ENDBRANCH   3   5
TORSDOF 5
ENDMDL
MODEL       91
REMARK 921   NORMALIZED FREE ENERGY PREDICTED BY IDOCK:   -3.97 KCAL/MOL
REMARK 922        TOTAL FREE ENERGY PREDICTED BY IDOCK:   -5.64 KCAL/MOL
REMARK 923 INTER-LIGAND FREE ENERGY PREDICTED BY IDOCK:   -5.27 KCAL/MOL
REMARK 924 INTRA-LIGAND FREE ENERGY PREDICTED BY IDOCK:   -0.38 KCAL/MOL
REMARK 927      BINDING AFFINITY PREDICTED BY RF-SCORE:    0.00 PKD
ROOT
HETATM    1  O   UNL     1     -12.051  12.549  70.415  1.00  0.00    -0.362 OA 
HETATM    2  N   UNL     1     -12.168  13.694  69.987  1.00  0.00    -0.338 N  
HETATM    3  O   UNL     1     -11.437  13.910  68.793  1.00  0.00    -0.252 OA 
HETATM    4  O   UNL     1     -12.819  14.644  70.426  1.00  0.00    -0.342 OA 
ENDROOT
BRANCH   3   5
HETATM    5  C   UNL     1     -11.564  15.248  68.308  1.00  0.00    -0.341 C  
BRANCH   5   6
HETATM    6  C   UNL     1     -10.846  15.341  66.949  1.00  0.00    -0.317 C  
BRANCH   6   7
HETATM    7  O   UNL     1     -10.431  14.071  66.418  1.00  0.00    -0.277 OA 
HETATM    8  O   UNL     1     -11.705  14.509  64.606  1.00  0.00    -0.400 OA 
HETATM    9  N   UNL     1     -10.932  13.721  65.144  1.00  0.00    -0.320 N  
HETATM   10  O   UNL     1     -10.506  12.641  64.746  1.00  0.00    -0.296 OA 
ENDBRANCH   6   7
BRANCH   6  11
HETATM   11  C   UNL     1      -9.748  16.420  66.927  1.00  0.00    -0.251 C  
BRANCH  11  12
HETATM   12  O   UNL     1     -10.222  17.563  67.638  1.00  0.00    -0.314 OA 
HETATM   13  N   UNL     1     -10.608  18.619  66.772  1.00  0.00    -0.397 N  
HETATM   14  O   UNL     1     -10.466  18.431  65.564  1.00  0.00    -0.610 OA 
HETATM   15  O   UNL     1     -11.031  19.600  67.378  1.00  0.00    -0.448 OA 
ENDBRANCH  11  12
ENDBRANCH   6  11
ENDBRANCH   5   6
ENDBRANCH   3   5
TORSDOF 5
ENDMDL
MODEL       92
REMARK 921   NORMALIZED FREE ENERGY PREDICTED BY IDOCK:   -3.97 KCAL/MOL
REMARK 922        TOTAL FREE ENERGY PREDICTED BY IDOCK:   -5.64 KCAL/MOL
REMARK 923 INTER-LIGAND FREE ENERGY PREDICTED BY IDOCK:   -5.31 KCAL/MOL
REMARK 924 INTRA-LIGAND FREE ENERGY PREDICTED BY IDOCK:   -0.33 KCAL/MOL
REMARK 927      BINDING AFFINITY PREDICTED BY RF-SCORE:    0.00 PKD
ROOT
HETATM    1  O   UNL     1     -10.657  17.643  65.285  1.00  0.00    -0.663 OA 
HETATM    2  N   UNL     1     -11.136  16.617  64.809  1.00  0.00    -0.272 N  
HETATM    3  O   UNL     1     -11.042  15.509  65.687  1.00  0.00    -0.308 OA 
HETATM    4  O   UNL     1     -11.680  16.425  63.720  1.00  0.00    -1.049 OA 
ENDROOT
BRANCH   3   5
HETATM    5  C   UNL     1     -11.585  14.315  65.122  1.00  0.00    -0.355 C  
BRANCH   5   6
HETATM    6  C   UNL     1     -11.244  13.139  66.055  1.00  0.00    -0.292 C  
BRANCH   6   7
HETATM    7  O   UNL     1     -11.468  13.413  67.448  1.00  0.00    -0.300 OA 
HETATM    8  O   UNL     1     -12.049  11.244  67.695  1.00  0.00    -0.600 OA 
HETATM    9  N   UNL     1     -11.881  12.326  68.252  1.00  0.00    -0.341 N  
HETATM   10  O   UNL     1     -12.018  12.632  69.433  1.00  0.00    -0.301 OA 
ENDBRANCH   6   7
BRANCH   6  11
HETATM   11  C   UNL     1      -9.871  12.514  65.751  1.00  0.00    -0.234 C  
BRANCH  11  12
HETATM   12  O   UNL     1      -8.957  12.907  66.774  1.00  0.00    -0.218 OA 
HETATM   13  N   UNL     1      -8.214  11.813  67.288  1.00  0.00    -0.155 N  
HETATM   14  O   UNL     1      -8.461  10.701  66.820  1.00  0.00    -0.129 OA 
HETATM   15  O   UNL     1      -7.415  12.148  68.158  1.00  0.00    -0.097 OA 
ENDBRANCH  11  12
ENDBRANCH   6  11
ENDBRANCH   5   6
ENDBRANCH   3   5
TORSDOF 5
ENDMDL
MODEL       93
REMARK 921   NORMALIZED FREE ENERGY PREDICTED BY IDOCK:   -3.97 KCAL/MOL
REMARK 922        TOTAL FREE ENERGY PREDICTED BY IDOCK:   -5.64 KCAL/MOL
REMARK 923 INTER-LIGAND FREE ENERGY PREDICTED BY IDOCK:   -5.15 KCAL/MOL
REMARK 924 INTRA-LIGAND FREE ENERGY PREDICTED BY IDOCK:   -0.49 KCAL/MOL
REMARK 927      BINDING AFFINITY PREDICTED BY RF-SCORE:    0.00 PKD
ROOT
HETATM    1  O   UNL     1     -14.176  15.049  71.167  1.00  0.00    -0.410 OA 
HETATM    2  N   UNL     1     -13.077  15.576  71.318  1.00  0.00    -0.493 N  
HETATM    3  O   UNL     1     -12.334  15.646  70.113  1.00  0.00    -0.395 OA 
HETATM    4  O   UNL     1     -12.552  16.047  72.328  1.00  0.00    -0.446 OA 
ENDROOT
BRANCH   3   5
HETATM    5  C   UNL     1     -11.049  16.244  70.296  1.00  0.00    -0.332 C  
BRANCH   5   6
HETATM    6  C   UNL     1     -10.418  16.472  68.910  1.00  0.00    -0.304 C  
BRANCH   6   7
HETATM    7  O   UNL     1      -9.723  17.723  68.783  1.00  0.00    -0.319 OA 
HETATM    8  O   UNL     1      -7.816  16.540  68.527  1.00  0.00    -0.188 OA 
HETATM    9  N   UNL     1      -8.328  17.656  68.561  1.00  0.00    -0.289 N  
HETATM   10  O   UNL     1      -7.814  18.763  68.430  1.00  0.00    -0.299 OA 
ENDBRANCH   6   7
BRANCH   6  11
HETATM   11  C   UNL     1     -11.390  16.174  67.756  1.00  0.00    -0.126 C  
BRANCH  11  12
HETATM   12  O   UNL     1     -10.849  15.113  66.970  1.00  0.00    -0.303 OA 
HETATM   13  N   UNL     1     -10.454  15.542  65.676  1.00  0.00    -0.347 N  
HETATM   14  O   UNL     1     -10.646  16.726  65.397  1.00  0.00    -0.563 OA 
HETATM   15  O   UNL     1      -9.973  14.636  65.001  1.00  0.00    -0.339 OA 
ENDBRANCH  11  12
ENDBRANCH   6  11
ENDBRANCH   5   6
ENDBRANCH   3   5
TORSDOF 5
ENDMDL
MODEL       94
REMARK 921   NORMALIZED FREE ENERGY PREDICTED BY IDOCK:   -3.97 KCAL/MOL
REMARK 922        TOTAL FREE ENERGY PREDICTED BY IDOCK:   -5.64 KCAL/MOL
REMARK 923 INTER-LIGAND FREE ENERGY PREDICTED BY IDOCK:   -5.09 KCAL/MOL
REMARK 924 INTRA-LIGAND FREE ENERGY PREDICTED BY IDOCK:   -0.55 KCAL/MOL
REMARK 927      BINDING AFFINITY PREDICTED BY RF-SCORE:    0.00 PKD
ROOT
HETATM    1  O   UNL     1     -12.096  11.633  70.003  1.00  0.00    -0.316 OA 
HETATM    2  N   UNL     1     -12.156  12.807  69.646  1.00  0.00    -0.264 N  
HETATM    3  O   UNL     1     -12.084  12.955  68.238  1.00  0.00    -0.294 OA 
HETATM    4  O   UNL     1     -12.278  13.836  70.312  1.00  0.00    -0.326 OA 
ENDROOT
BRANCH   3   5
HETATM    5  C   UNL     1     -12.138  14.322  67.828  1.00  0.00    -0.281 C  
BRANCH   5   6
HETATM    6  C   UNL     1     -11.139  14.522  66.674  1.00  0.00    -0.333 C  
BRANCH   6   7
HETATM    7  O   UNL     1     -11.741  14.981  65.452  1.00  0.00    -0.287 OA 
HETATM    8  O   UNL     1     -10.154  16.587  65.373  1.00  0.00    -0.570 OA 
HETATM    9  N   UNL     1     -11.128  16.086  64.817  1.00  0.00    -0.441 N  
HETATM   10  O   UNL     1     -11.679  16.396  63.766  1.00  0.00    -1.049 OA 
ENDBRANCH   6   7
BRANCH   6  11
HETATM   11  C   UNL     1     -10.188  13.325  66.494  1.00  0.00    -0.283 C  
BRANCH  11  12
HETATM   12  O   UNL     1      -8.990  13.584  67.226  1.00  0.00    -0.202 OA 
HETATM   13  N   UNL     1      -8.549  12.454  67.961  1.00  0.00    -0.173 N  
HETATM   14  O   UNL     1      -9.244  11.439  67.898  1.00  0.00    -0.155 OA 
HETATM   15  O   UNL     1      -7.511  12.666  68.581  1.00  0.00    -0.116 OA 
ENDBRANCH  11  12
ENDBRANCH   6  11
ENDBRANCH   5   6
ENDBRANCH   3   5
TORSDOF 5
ENDMDL
MODEL       95
REMARK 921   NORMALIZED FREE ENERGY PREDICTED BY IDOCK:   -3.96 KCAL/MOL
REMARK 922        TOTAL FREE ENERGY PREDICTED BY IDOCK:   -5.63 KCAL/MOL
REMARK 923 INTER-LIGAND FREE ENERGY PREDICTED BY IDOCK:   -5.25 KCAL/MOL
REMARK 924 INTRA-LIGAND FREE ENERGY PREDICTED BY IDOCK:   -0.38 KCAL/MOL
REMARK 927      BINDING AFFINITY PREDICTED BY RF-SCORE:    0.00 PKD
ROOT
HETATM    1  O   UNL     1     -11.279   9.632  70.124  1.00  0.00    -0.245 OA 
HETATM    2  N   UNL     1     -11.941  10.301  70.913  1.00  0.00    -0.344 N  
HETATM    3  O   UNL     1     -11.962  11.678  70.580  1.00  0.00    -0.360 OA 
HETATM    4  O   UNL     1     -12.577   9.955  71.909  1.00  0.00    -0.388 OA 
ENDROOT
BRANCH   3   5
HETATM    5  C   UNL     1     -12.719  12.454  71.510  1.00  0.00    -0.228 C  
BRANCH   5   6
HETATM    6  C   UNL     1     -12.451  13.944  71.229  1.00  0.00    -0.359 C  
BRANCH   6   7
HETATM    7  O   UNL     1     -13.456  14.828  71.753  1.00  0.00    -0.330 OA 
HETATM    8  O   UNL     1     -12.012  15.351  73.410  1.00  0.00    -0.445 OA 
HETATM    9  N   UNL     1     -13.119  15.555  72.918  1.00  0.00    -0.456 N  
HETATM   10  O   UNL     1     -14.015  16.310  73.283  1.00  0.00    -0.511 OA 
ENDBRANCH   6   7
BRANCH   6  11
HETATM   11  C   UNL     1     -12.077  14.218  69.762  1.00  0.00    -0.347 C  
BRANCH  11  12
HETATM   12  O   UNL     1     -11.558  15.544  69.666  1.00  0.00    -0.300 OA 
HETATM   13  N   UNL     1     -11.023  15.826  68.383  1.00  0.00    -0.306 N  
HETATM   14  O   UNL     1     -11.050  14.916  67.554  1.00  0.00    -0.297 OA 
HETATM   15  O   UNL     1     -10.588  16.970  68.290  1.00  0.00    -0.339 OA 
ENDBRANCH  11  12
ENDBRANCH   6  11
ENDBRANCH   5   6
ENDBRANCH   3   5
TORSDOF 5
ENDMDL
MODEL       96
REMARK 921   NORMALIZED FREE ENERGY PREDICTED BY IDOCK:   -3.96 KCAL/MOL
REMARK 922        TOTAL FREE ENERGY PREDICTED BY IDOCK:   -5.63 KCAL/MOL
REMARK 923 INTER-LIGAND FREE ENERGY PREDICTED BY IDOCK:   -5.21 KCAL/MOL
REMARK 924 INTRA-LIGAND FREE ENERGY PREDICTED BY IDOCK:   -0.42 KCAL/MOL
REMARK 927      BINDING AFFINITY PREDICTED BY RF-SCORE:    0.00 PKD
ROOT
HETATM    1  O   UNL     1     -13.266  11.879  63.632  1.00  0.00    -0.675 OA 
HETATM    2  N   UNL     1     -12.886  12.976  64.033  1.00  0.00    -0.048 N  
HETATM    3  O   UNL     1     -12.752  13.029  65.442  1.00  0.00    -0.521 OA 
HETATM    4  O   UNL     1     -12.601  13.997  63.404  1.00  0.00    -0.845 OA 
ENDROOT
BRANCH   3   5
HETATM    5  C   UNL     1     -12.326  14.312  65.904  1.00  0.00    -0.403 C  
BRANCH   5   6
HETATM    6  C   UNL     1     -11.148  14.111  66.875  1.00  0.00    -0.307 C  
BRANCH   6   7
HETATM    7  O   UNL     1     -10.946  15.206  67.784  1.00  0.00    -0.286 OA 
HETATM    8  O   UNL     1     -12.165  14.060  69.302  1.00  0.00    -0.344 OA 
HETATM    9  N   UNL     1     -11.516  15.078  69.071  1.00  0.00    -0.286 N  
HETATM   10  O   UNL     1     -11.272  16.037  69.798  1.00  0.00    -0.301 OA 
ENDBRANCH   6   7
BRANCH   6  11
HETATM   11  C   UNL     1      -9.867  13.637  66.168  1.00  0.00    -0.293 C  
BRANCH  11  12
HETATM   12  O   UNL     1      -9.886  12.211  66.103  1.00  0.00    -0.228 OA 
HETATM   13  N   UNL     1      -9.803  11.728  64.771  1.00  0.00    -0.236 N  
HETATM   14  O   UNL     1      -9.754  12.569  63.873  1.00  0.00    -0.163 OA 
HETATM   15  O   UNL     1      -9.805  10.502  64.710  1.00  0.00    -0.272 OA 
ENDBRANCH  11  12
ENDBRANCH   6  11
ENDBRANCH   5   6
ENDBRANCH   3   5
TORSDOF 5
ENDMDL
MODEL       97
REMARK 921   NORMALIZED FREE ENERGY PREDICTED BY IDOCK:   -3.94 KCAL/MOL
REMARK 922        TOTAL FREE ENERGY PREDICTED BY IDOCK:   -5.61 KCAL/MOL
REMARK 923 INTER-LIGAND FREE ENERGY PREDICTED BY IDOCK:   -5.20 KCAL/MOL
REMARK 924 INTRA-LIGAND FREE ENERGY PREDICTED BY IDOCK:   -0.41 KCAL/MOL
REMARK 927      BINDING AFFINITY PREDICTED BY RF-SCORE:    0.00 PKD
ROOT
HETATM    1  O   UNL     1     -10.393   8.606  71.420  1.00  0.00    -0.218 OA 
HETATM    2  N   UNL     1     -11.338   9.391  71.432  1.00  0.00    -0.355 N  
HETATM    3  O   UNL     1     -11.180  10.453  70.508  1.00  0.00    -0.312 OA 
HETATM    4  O   UNL     1     -12.373   9.379  72.101  1.00  0.00    -0.354 OA 
ENDROOT
BRANCH   3   5
HETATM    5  C   UNL     1     -12.273  11.372  70.538  1.00  0.00    -0.386 C  
BRANCH   5   6
HETATM    6  C   UNL     1     -11.953  12.537  69.583  1.00  0.00    -0.272 C  
BRANCH   6   7
HETATM    7  O   UNL     1     -10.777  12.332  68.784  1.00  0.00    -0.228 OA 
HETATM    8  O   UNL     1     -12.137  12.082  66.998  1.00  0.00    -0.603 OA 
HETATM    9  N   UNL     1     -10.978  12.113  67.401  1.00  0.00    -0.248 N  
HETATM   10  O   UNL     1      -9.926  11.981  66.783  1.00  0.00    -0.198 OA 
ENDBRANCH   6   7
BRANCH   6  11
HETATM   11  C   UNL     1     -12.009  13.910  70.277  1.00  0.00    -0.331 C  
BRANCH  11  12
HETATM   12  O   UNL     1     -12.819  13.793  71.447  1.00  0.00    -0.340 OA 
HETATM   13  N   UNL     1     -12.473  14.742  72.443  1.00  0.00    -0.335 N  
HETATM   14  O   UNL     1     -11.535  15.499  72.192  1.00  0.00    -0.432 OA 
HETATM   15  O   UNL     1     -13.177  14.657  73.446  1.00  0.00    -0.585 OA 
ENDBRANCH  11  12
ENDBRANCH   6  11
ENDBRANCH   5   6
ENDBRANCH   3   5
TORSDOF 5
ENDMDL
MODEL       98
REMARK 921   NORMALIZED FREE ENERGY PREDICTED BY IDOCK:   -3.92 KCAL/MOL
REMARK 922        TOTAL FREE ENERGY PREDICTED BY IDOCK:   -5.58 KCAL/MOL
REMARK 923 INTER-LIGAND FREE ENERGY PREDICTED BY IDOCK:   -5.06 KCAL/MOL
REMARK 924 INTRA-LIGAND FREE ENERGY PREDICTED BY IDOCK:   -0.52 KCAL/MOL
REMARK 927      BINDING AFFINITY PREDICTED BY RF-SCORE:    0.00 PKD
ROOT
HETATM    1  O   UNL     1     -12.601  12.972  63.389  1.00  0.00    -0.722 OA 
HETATM    2  N   UNL     1     -12.607  13.192  64.597  1.00  0.00    -0.357 N  
HETATM    3  O   UNL     1     -11.671  12.397  65.304  1.00  0.00    -0.362 OA 
HETATM    4  O   UNL     1     -13.279  13.986  65.257  1.00  0.00    -0.782 OA 
ENDROOT
BRANCH   3   5
HETATM    5  C   UNL     1     -11.694  12.644  66.711  1.00  0.00    -0.392 C  
BRANCH   5   6
HETATM    6  C   UNL     1     -10.405  13.393  67.093  1.00  0.00    -0.246 C  
BRANCH   6   7
HETATM    7  O   UNL     1      -9.920  14.282  66.072  1.00  0.00    -0.294 OA 
HETATM    8  O   UNL     1     -10.908  15.974  67.195  1.00  0.00    -0.310 OA 
HETATM    9  N   UNL     1     -10.227  15.653  66.225  1.00  0.00    -0.283 N  
HETATM   10  O   UNL     1      -9.750  16.349  65.333  1.00  0.00    -0.486 OA 
ENDBRANCH   6   7
BRANCH   6  11
HETATM   11  C   UNL     1      -9.328  12.466  67.682  1.00  0.00    -0.188 C  
BRANCH  11  12
HETATM   12  O   UNL     1      -9.772  11.116  67.553  1.00  0.00    -0.174 OA 
HETATM   13  N   UNL     1      -8.981  10.367  66.645  1.00  0.00    -0.140 N  
HETATM   14  O   UNL     1      -8.061  10.963  66.083  1.00  0.00    -0.161 OA 
HETATM   15  O   UNL     1      -9.350   9.201  66.542  1.00  0.00    -0.163 OA 
ENDBRANCH  11  12
ENDBRANCH   6  11
ENDBRANCH   5   6
ENDBRANCH   3   5
TORSDOF 5
ENDMDL
MODEL       99
REMARK 921   NORMALIZED FREE ENERGY PREDICTED BY IDOCK:   -3.91 KCAL/MOL
REMARK 922        TOTAL FREE ENERGY PREDICTED BY IDOCK:   -5.57 KCAL/MOL
REMARK 923 INTER-LIGAND FREE ENERGY PREDICTED BY IDOCK:   -5.13 KCAL/MOL
REMARK 924 INTRA-LIGAND FREE ENERGY PREDICTED BY IDOCK:   -0.44 KCAL/MOL
REMARK 927      BINDING AFFINITY PREDICTED BY RF-SCORE:    0.00 PKD
ROOT
HETATM    1  O   UNL     1     -12.510  15.787  63.850  1.00  0.00    -0.744 OA 
HETATM    2  N   UNL     1     -11.469  15.463  64.416  1.00  0.00    -0.320 N  
HETATM    3  O   UNL     1     -10.805  16.564  65.012  1.00  0.00    -0.622 OA 
HETATM    4  O   UNL     1     -10.947  14.356  64.547  1.00  0.00    -0.363 OA 
ENDROOT
BRANCH   3   5
HETATM    5  C   UNL     1      -9.586  16.185  65.655  1.00  0.00    -0.150 C  
BRANCH   5   6
HETATM    6  C   UNL     1      -9.185  17.305  66.632  1.00  0.00    -0.257 C  
BRANCH   6   7
HETATM    7  O   UNL     1      -8.060  18.087  66.195  1.00  0.00    -0.420 OA 
HETATM    8  O   UNL     1      -9.434  19.880  66.150  1.00  0.00    -0.394 OA 
HETATM    9  N   UNL     1      -8.290  19.465  65.980  1.00  0.00    -0.293 N  
HETATM   10  O   UNL     1      -7.276  20.069  65.642  1.00  0.00    -0.309 OA 
ENDBRANCH   6   7
BRANCH   6  11
HETATM   11  C   UNL     1      -9.083  16.819  68.088  1.00  0.00    -0.227 C  
BRANCH  11  12
HETATM   12  O   UNL     1      -9.715  15.542  68.185  1.00  0.00    -0.206 OA 
HETATM   13  N   UNL     1     -10.686  15.494  69.219  1.00  0.00    -0.229 N  
HETATM   14  O   UNL     1     -10.835  16.513  69.894  1.00  0.00    -0.344 OA 
HETATM   15  O   UNL     1     -11.243  14.403  69.297  1.00  0.00    -0.255 OA 
ENDBRANCH  11  12
ENDBRANCH   6  11
ENDBRANCH   5   6
ENDBRANCH   3   5
TORSDOF 5
ENDMDL
MODEL      100
REMARK 921   NORMALIZED FREE ENERGY PREDICTED BY IDOCK:   -3.90 KCAL/MOL
REMARK 922        TOTAL FREE ENERGY PREDICTED BY IDOCK:   -5.55 KCAL/MOL
REMARK 923 INTER-LIGAND FREE ENERGY PREDICTED BY IDOCK:   -5.47 KCAL/MOL
REMARK 924 INTRA-LIGAND FREE ENERGY PREDICTED BY IDOCK:   -0.09 KCAL/MOL
REMARK 927      BINDING AFFINITY PREDICTED BY RF-SCORE:    0.00 PKD
ROOT
HETATM    1  O   UNL     1      -7.031  13.761  68.841  1.00  0.00    -0.104 OA 
HETATM    2  N   UNL     1      -8.151  13.558  68.379  1.00  0.00    -0.150 N  
HETATM    3  O   UNL     1      -8.747  14.730  67.852  1.00  0.00    -0.158 OA 
HETATM    4  O   UNL     1      -8.801  12.514  68.299  1.00  0.00    -0.186 OA 
ENDROOT
BRANCH   3   5
HETATM    5  C   UNL     1     -10.056  14.492  67.331  1.00  0.00    -0.235 C  
BRANCH   5   6
HETATM    6  C   UNL     1      -9.971  14.479  65.794  1.00  0.00    -0.334 C  
BRANCH   6   7
HETATM    7  O   UNL     1     -10.911  15.355  65.149  1.00  0.00    -0.378 OA 
HETATM    8  O   UNL     1      -9.533  17.070  65.661  1.00  0.00    -0.526 OA 
HETATM    9  N   UNL     1     -10.577  16.728  65.112  1.00  0.00    -0.216 N  
HETATM   10  O   UNL     1     -11.411  17.405  64.516  1.00  0.00    -0.947 OA 
ENDBRANCH   6   7
BRANCH   6  11
HETATM   11  C   UNL     1      -9.938  13.055  65.210  1.00  0.00    -0.170 C  
BRANCH  11  12
HETATM   12  O   UNL     1     -10.904  12.972  64.163  1.00  0.00    -0.378 OA 
HETATM   13  N   UNL     1     -12.135  12.422  64.603  1.00  0.00    -0.414 N  
HETATM   14  O   UNL     1     -12.203  12.075  65.782  1.00  0.00    -0.520 OA 
HETATM   15  O   UNL     1     -12.975  12.362  63.709  1.00  0.00    -0.751 OA 
ENDBRANCH  11  12
ENDBRANCH   6  11
ENDBRANCH   5   6
ENDBRANCH   3   5
TORSDOF 5
ENDMDL
MODEL      101
REMARK 921   NORMALIZED FREE ENERGY PREDICTED BY IDOCK:   -3.89 KCAL/MOL
REMARK 922        TOTAL FREE ENERGY PREDICTED BY IDOCK:   -5.53 KCAL/MOL
REMARK 923 INTER-LIGAND FREE ENERGY PREDICTED BY IDOCK:   -5.01 KCAL/MOL
REMARK 924 INTRA-LIGAND FREE ENERGY PREDICTED BY IDOCK:   -0.52 KCAL/MOL
REMARK 927      BINDING AFFINITY PREDICTED BY RF-SCORE:    0.00 PKD
ROOT
HETATM    1  O   UNL     1      -8.856  18.934  68.065  1.00  0.00    -0.290 OA 
HETATM    2  N   UNL     1      -9.677  18.120  67.651  1.00  0.00    -0.285 N  
HETATM    3  O   UNL     1      -9.521  16.839  68.234  1.00  0.00    -0.227 OA 
HETATM    4  O   UNL     1     -10.592  18.258  66.838  1.00  0.00    -0.379 OA 
ENDROOT
BRANCH   3   5
HETATM    5  C   UNL     1     -10.467  15.891  67.736  1.00  0.00    -0.287 C  
BRANCH   5   6
HETATM    6  C   UNL     1      -9.693  14.718  67.106  1.00  0.00    -0.233 C  
BRANCH   6   7
HETATM    7  O   UNL     1      -8.297  14.985  66.895  1.00  0.00    -0.223 OA 
HETATM    8  O   UNL     1      -7.845  13.243  68.260  1.00  0.00    -0.128 OA 
HETATM    9  N   UNL     1      -7.380  14.126  67.544  1.00  0.00    -0.180 N  
HETATM   10  O   UNL     1      -6.211  14.397  67.288  1.00  0.00    -0.301 OA 
ENDBRANCH   6   7
BRANCH   6  11
HETATM   11  C   UNL     1     -10.410  14.119  65.883  1.00  0.00    -0.316 C  
BRANCH  11  12
HETATM   12  O   UNL     1     -10.732  15.179  64.982  1.00  0.00    -0.386 OA 
HETATM   13  N   UNL     1     -12.036  15.051  64.439  1.00  0.00    -0.417 N  
HETATM   14  O   UNL     1     -12.690  14.065  64.780  1.00  0.00    -0.651 OA 
HETATM   15  O   UNL     1     -12.324  15.968  63.675  1.00  0.00    -0.705 OA 
ENDBRANCH  11  12
ENDBRANCH   6  11
ENDBRANCH   5   6
ENDBRANCH   3   5
TORSDOF 5
ENDMDL
MODEL      102
REMARK 921   NORMALIZED FREE ENERGY PREDICTED BY IDOCK:   -3.88 KCAL/MOL
REMARK 922        TOTAL FREE ENERGY PREDICTED BY IDOCK:   -5.53 KCAL/MOL
REMARK 923 INTER-LIGAND FREE ENERGY PREDICTED BY IDOCK:   -4.90 KCAL/MOL
REMARK 924 INTRA-LIGAND FREE ENERGY PREDICTED BY IDOCK:   -0.63 KCAL/MOL
REMARK 927      BINDING AFFINITY PREDICTED BY RF-SCORE:    0.00 PKD
ROOT
HETATM    1  O   UNL     1      -8.794   8.653  67.472  1.00  0.00    -0.133 OA 
HETATM    2  N   UNL     1      -8.677   9.438  66.535  1.00  0.00    -0.133 N  
HETATM    3  O   UNL     1      -9.924   9.908  66.054  1.00  0.00    -0.247 OA 
HETATM    4  O   UNL     1      -7.664   9.869  65.981  1.00  0.00    -0.102 OA 
ENDROOT
BRANCH   3   5
HETATM    5  C   UNL     1      -9.783  10.807  64.953  1.00  0.00    -0.276 C  
BRANCH   5   6
HETATM    6  C   UNL     1     -10.565  12.094  65.273  1.00  0.00    -0.281 C  
BRANCH   6   7
HETATM    7  O   UNL     1     -10.996  12.821  64.111  1.00  0.00    -0.348 OA 
HETATM    8  O   UNL     1     -13.100  12.710  64.925  1.00  0.00    -0.850 OA 
HETATM    9  N   UNL     1     -12.374  13.121  64.023  1.00  0.00    -0.374 N  
HETATM   10  O   UNL     1     -12.657  13.772  63.021  1.00  0.00    -0.721 OA 
ENDBRANCH   6   7
BRANCH   6  11
HETATM   11  C   UNL     1      -9.873  12.963  66.338  1.00  0.00    -0.268 C  
BRANCH  11  12
HETATM   12  O   UNL     1     -10.782  13.163  67.421  1.00  0.00    -0.249 OA 
HETATM   13  N   UNL     1     -11.288  14.488  67.467  1.00  0.00    -0.324 N  
HETATM   14  O   UNL     1     -10.874  15.275  66.615  1.00  0.00    -0.308 OA 
HETATM   15  O   UNL     1     -12.082  14.661  68.388  1.00  0.00    -0.284 OA 
ENDBRANCH  11  12
ENDBRANCH   6  11
ENDBRANCH   5   6
ENDBRANCH   3   5
TORSDOF 5
ENDMDL
MODEL      103
REMARK 921   NORMALIZED FREE ENERGY PREDICTED BY IDOCK:   -3.88 KCAL/MOL
REMARK 922        TOTAL FREE ENERGY PREDICTED BY IDOCK:   -5.52 KCAL/MOL
REMARK 923 INTER-LIGAND FREE ENERGY PREDICTED BY IDOCK:   -5.11 KCAL/MOL
REMARK 924 INTRA-LIGAND FREE ENERGY PREDICTED BY IDOCK:   -0.41 KCAL/MOL
REMARK 927      BINDING AFFINITY PREDICTED BY RF-SCORE:    0.00 PKD
ROOT
HETATM    1  O   UNL     1      -7.140   9.992  64.974  1.00  0.00    -0.125 OA 
HETATM    2  N   UNL     1      -8.305  10.036  65.358  1.00  0.00    -0.144 N  
HETATM    3  O   UNL     1      -8.790  11.360  65.488  1.00  0.00    -0.148 OA 
HETATM    4  O   UNL     1      -9.089   9.123  65.626  1.00  0.00    -0.191 OA 
ENDROOT
BRANCH   3   5
HETATM    5  C   UNL     1     -10.141  11.407  65.952  1.00  0.00    -0.243 C  
BRANCH   5   6
HETATM    6  C   UNL     1     -10.631  12.864  65.876  1.00  0.00    -0.269 C  
BRANCH   6   7
HETATM    7  O   UNL     1     -11.004  13.287  64.554  1.00  0.00    -0.343 OA 
HETATM    8  O   UNL     1     -13.160  13.002  65.164  1.00  0.00    -0.740 OA 
HETATM    9  N   UNL     1     -12.388  13.347  64.272  1.00  0.00    -0.363 N  
HETATM   10  O   UNL     1     -12.626  13.749  63.137  1.00  0.00    -0.793 OA 
ENDBRANCH   6   7
BRANCH   6  11
HETATM   11  C   UNL     1      -9.701  13.845  66.610  1.00  0.00    -0.289 C  
BRANCH  11  12
HETATM   12  O   UNL     1      -9.580  15.031  65.824  1.00  0.00    -0.328 OA 
HETATM   13  N   UNL     1     -10.165  16.160  66.452  1.00  0.00    -0.293 N  
HETATM   14  O   UNL     1     -10.706  15.976  67.543  1.00  0.00    -0.312 OA 
HETATM   15  O   UNL     1     -10.051  17.186  65.786  1.00  0.00    -0.529 OA 
ENDBRANCH  11  12
ENDBRANCH   6  11
ENDBRANCH   5   6
ENDBRANCH   3   5
TORSDOF 5
ENDMDL
MODEL      104
REMARK 921   NORMALIZED FREE ENERGY PREDICTED BY IDOCK:   -3.87 KCAL/MOL
REMARK 922        TOTAL FREE ENERGY PREDICTED BY IDOCK:   -5.51 KCAL/MOL
REMARK 923 INTER-LIGAND FREE ENERGY PREDICTED BY IDOCK:   -5.10 KCAL/MOL
REMARK 924 INTRA-LIGAND FREE ENERGY PREDICTED BY IDOCK:   -0.41 KCAL/MOL
REMARK 927      BINDING AFFINITY PREDICTED BY RF-SCORE:    0.00 PKD
ROOT
HETATM    1  O   UNL     1     -12.982  10.630  71.838  1.00  0.00    -0.458 OA 
HETATM    2  N   UNL     1     -12.099  10.190  71.106  1.00  0.00    -0.358 N  
HETATM    3  O   UNL     1     -11.541  11.182  70.263  1.00  0.00    -0.307 OA 
HETATM    4  O   UNL     1     -11.637   9.052  71.014  1.00  0.00    -0.277 OA 
ENDROOT
BRANCH   3   5
HETATM    5  C   UNL     1     -10.526  10.663  69.403  1.00  0.00    -0.225 C  
BRANCH   5   6
HETATM    6  C   UNL     1     -10.341  11.638  68.226  1.00  0.00    -0.200 C  
BRANCH   6   7
HETATM    7  O   UNL     1      -9.163  12.457  68.325  1.00  0.00    -0.200 OA 
HETATM    8  O   UNL     1      -8.539  11.654  66.308  1.00  0.00    -0.175 OA 
HETATM    9  N   UNL     1      -8.264  12.411  67.236  1.00  0.00    -0.177 N  
HETATM   10  O   UNL     1      -7.303  13.162  67.381  1.00  0.00    -0.151 OA 
ENDBRANCH   6   7
BRANCH   6  11
HETATM   11  C   UNL     1     -11.623  12.420  67.892  1.00  0.00    -0.356 C  
BRANCH  11  12
HETATM   12  O   UNL     1     -12.137  11.939  66.650  1.00  0.00    -0.587 OA 
HETATM   13  N   UNL     1     -12.630  12.982  65.825  1.00  0.00    -0.330 N  
HETATM   14  O   UNL     1     -12.579  14.125  66.280  1.00  0.00    -0.449 OA 
HETATM   15  O   UNL     1     -13.059  12.575  64.749  1.00  0.00    -0.853 OA 
ENDBRANCH  11  12
ENDBRANCH   6  11
ENDBRANCH   5   6
ENDBRANCH   3   5
TORSDOF 5
ENDMDL
MODEL      105
REMARK 921   NORMALIZED FREE ENERGY PREDICTED BY IDOCK:   -3.86 KCAL/MOL
REMARK 922        TOTAL FREE ENERGY PREDICTED BY IDOCK:   -5.50 KCAL/MOL
REMARK 923 INTER-LIGAND FREE ENERGY PREDICTED BY IDOCK:   -5.05 KCAL/MOL
REMARK 924 INTRA-LIGAND FREE ENERGY PREDICTED BY IDOCK:   -0.45 KCAL/MOL
REMARK 927      BINDING AFFINITY PREDICTED BY RF-SCORE:    0.00 PKD
ROOT
HETATM    1  O   UNL     1     -10.649  19.525  65.544  1.00  0.00    -0.474 OA 
HETATM    2  N   UNL     1     -10.009  18.634  66.097  1.00  0.00    -0.357 N  
HETATM    3  O   UNL     1     -10.783  17.906  67.035  1.00  0.00    -0.319 OA 
HETATM    4  O   UNL     1      -8.836  18.288  65.949  1.00  0.00    -0.501 OA 
ENDROOT
BRANCH   3   5
HETATM    5  C   UNL     1     -10.030  16.882  67.688  1.00  0.00    -0.271 C  
BRANCH   5   6
HETATM    6  C   UNL     1     -10.790  15.551  67.538  1.00  0.00    -0.306 C  
BRANCH   6   7
HETATM    7  O   UNL     1     -11.116  15.213  66.180  1.00  0.00    -0.339 OA 
HETATM    8  O   UNL     1      -9.803  13.389  66.408  1.00  0.00    -0.283 OA 
HETATM    9  N   UNL     1     -10.551  14.023  65.668  1.00  0.00    -0.295 N  
HETATM   10  O   UNL     1     -10.903  13.787  64.516  1.00  0.00    -0.393 OA 
ENDBRANCH   6   7
BRANCH   6  11
HETATM   11  C   UNL     1     -11.970  15.424  68.517  1.00  0.00    -0.181 C  
BRANCH  11  12
HETATM   12  O   UNL     1     -12.114  14.051  68.878  1.00  0.00    -0.351 OA 
HETATM   13  N   UNL     1     -12.201  13.864  70.282  1.00  0.00    -0.339 N  
HETATM   14  O   UNL     1     -12.118  14.871  70.986  1.00  0.00    -0.281 OA 
HETATM   15  O   UNL     1     -12.340  12.686  70.597  1.00  0.00    -0.359 OA 
ENDBRANCH  11  12
ENDBRANCH   6  11
ENDBRANCH   5   6
ENDBRANCH   3   5
TORSDOF 5
ENDMDL
MODEL      106
REMARK 921   NORMALIZED FREE ENERGY PREDICTED BY IDOCK:   -3.86 KCAL/MOL
REMARK 922        TOTAL FREE ENERGY PREDICTED BY IDOCK:   -5.50 KCAL/MOL
REMARK 923 INTER-LIGAND FREE ENERGY PREDICTED BY IDOCK:   -4.94 KCAL/MOL
REMARK 924 INTRA-LIGAND FREE ENERGY PREDICTED BY IDOCK:   -0.56 KCAL/MOL
REMARK 927      BINDING AFFINITY PREDICTED BY RF-SCORE:    0.00 PKD
ROOT
HETATM    1  O   UNL     1     -10.574  17.011  69.304  1.00  0.00    -0.331 OA 
HETATM    2  N   UNL     1     -11.083  15.916  69.083  1.00  0.00    -0.279 N  
HETATM    3  O   UNL     1     -11.374  15.713  67.711  1.00  0.00    -0.326 OA 
HETATM    4  O   UNL     1     -11.355  14.995  69.855  1.00  0.00    -0.250 OA 
ENDROOT
BRANCH   3   5
HETATM    5  C   UNL     1     -11.981  14.445  67.461  1.00  0.00    -0.354 C  
BRANCH   5   6
HETATM    6  C   UNL     1     -11.225  13.763  66.306  1.00  0.00    -0.306 C  
BRANCH   6   7
HETATM    7  O   UNL     1     -11.979  12.738  65.638  1.00  0.00    -0.406 OA 
HETATM    8  O   UNL     1     -12.237  14.172  63.912  1.00  0.00    -0.567 OA 
HETATM    9  N   UNL     1     -12.465  13.046  64.347  1.00  0.00    -0.361 N  
HETATM   10  O   UNL     1     -13.068  12.110  63.830  1.00  0.00    -0.774 OA 
ENDBRANCH   6   7
BRANCH   6  11
HETATM   11  C   UNL     1      -9.797  13.341  66.695  1.00  0.00    -0.276 C  
BRANCH  11  12
HETATM   12  O   UNL     1      -8.924  14.450  66.486  1.00  0.00    -0.239 OA 
HETATM   13  N   UNL     1      -8.059  14.675  67.588  1.00  0.00    -0.158 N  
HETATM   14  O   UNL     1      -8.186  13.930  68.559  1.00  0.00    -0.146 OA 
HETATM   15  O   UNL     1      -7.295  15.619  67.407  1.00  0.00    -0.166 OA 
ENDBRANCH  11  12
ENDBRANCH   6  11
ENDBRANCH   5   6
ENDBRANCH   3   5
TORSDOF 5
ENDMDL
MODEL      107
REMARK 921   NORMALIZED FREE ENERGY PREDICTED BY IDOCK:   -3.84 KCAL/MOL
REMARK 922        TOTAL FREE ENERGY PREDICTED BY IDOCK:   -5.48 KCAL/MOL
REMARK 923 INTER-LIGAND FREE ENERGY PREDICTED BY IDOCK:   -4.91 KCAL/MOL
REMARK 924 INTRA-LIGAND FREE ENERGY PREDICTED BY IDOCK:   -0.56 KCAL/MOL
REMARK 927      BINDING AFFINITY PREDICTED BY RF-SCORE:    0.00 PKD
ROOT
HETATM    1  O   UNL     1     -10.420   5.018  69.584  1.00  0.00    -0.255 OA 
HETATM    2  N   UNL     1     -10.899   5.617  70.543  1.00  0.00    -0.274 N  
HETATM    3  O   UNL     1     -11.855   6.590  70.159  1.00  0.00    -0.416 OA 
HETATM    4  O   UNL     1     -10.684   5.489  71.749  1.00  0.00    -0.231 OA 
ENDROOT
BRANCH   3   5
HETATM    5  C   UNL     1     -12.397   7.296  71.276  1.00  0.00    -0.366 C  
BRANCH   5   6
HETATM    6  C   UNL     1     -11.735   8.685  71.340  1.00  0.00    -0.297 C  
BRANCH   6   7
HETATM    7  O   UNL     1     -10.638   8.767  72.266  1.00  0.00    -0.337 OA 
HETATM    8  O   UNL     1      -9.245   8.703  70.489  1.00  0.00    -0.157 OA 
HETATM    9  N   UNL     1      -9.338   8.789  71.711  1.00  0.00    -0.276 N  
HETATM   10  O   UNL     1      -8.459   8.895  72.562  1.00  0.00    -0.395 OA 
ENDBRANCH   6   7
BRANCH   6  11
HETATM   11  C   UNL     1     -12.756   9.828  71.474  1.00  0.00    -0.406 C  
BRANCH  11  12
HETATM   12  O   UNL     1     -12.295  10.939  70.705  1.00  0.00    -0.326 OA 
HETATM   13  N   UNL     1     -12.721  12.182  71.240  1.00  0.00    -0.330 N  
HETATM   14  O   UNL     1     -13.430  12.145  72.246  1.00  0.00    -0.491 OA 
HETATM   15  O   UNL     1     -12.316  13.143  70.591  1.00  0.00    -0.358 OA 
ENDBRANCH  11  12
ENDBRANCH   6  11
ENDBRANCH   5   6
ENDBRANCH   3   5
TORSDOF 5
ENDMDL
MODEL      108
REMARK 921   NORMALIZED FREE ENERGY PREDICTED BY IDOCK:   -3.83 KCAL/MOL
REMARK 922        TOTAL FREE ENERGY PREDICTED BY IDOCK:   -5.46 KCAL/MOL
REMARK 923 INTER-LIGAND FREE ENERGY PREDICTED BY IDOCK:   -4.99 KCAL/MOL
REMARK 924 INTRA-LIGAND FREE ENERGY PREDICTED BY IDOCK:   -0.47 KCAL/MOL
REMARK 927      BINDING AFFINITY PREDICTED BY RF-SCORE:    0.00 PKD
ROOT
HETATM    1  O   UNL     1     -10.702   8.309  66.838  1.00  0.00    -0.299 OA 
HETATM    2  N   UNL     1     -10.730   9.242  67.637  1.00  0.00    -0.255 N  
HETATM    3  O   UNL     1     -10.584   8.817  68.981  1.00  0.00    -0.222 OA 
HETATM    4  O   UNL     1     -10.849  10.452  67.442  1.00  0.00    -0.273 OA 
ENDROOT
BRANCH   3   5
HETATM    5  C   UNL     1     -10.634   9.902  69.908  1.00  0.00    -0.273 C  
BRANCH   5   6
HETATM    6  C   UNL     1     -11.643   9.549  71.016  1.00  0.00    -0.344 C  
BRANCH   6   7
HETATM    7  O   UNL     1     -12.119   8.193  70.963  1.00  0.00    -0.286 OA 
HETATM    8  O   UNL     1     -11.145   7.863  72.974  1.00  0.00    -0.402 OA 
HETATM    9  N   UNL     1     -11.816   7.370  72.071  1.00  0.00    -0.291 N  
HETATM   10  O   UNL     1     -12.284   6.240  71.966  1.00  0.00    -0.338 OA 
ENDBRANCH   6   7
BRANCH   6  11
HETATM   11  C   UNL     1     -12.757  10.600  71.166  1.00  0.00    -0.422 C  
BRANCH  11  12
HETATM   12  O   UNL     1     -12.301  11.828  70.600  1.00  0.00    -0.358 OA 
HETATM   13  N   UNL     1     -12.744  12.960  71.332  1.00  0.00    -0.330 N  
HETATM   14  O   UNL     1     -13.461  12.748  72.310  1.00  0.00    -0.565 OA 
HETATM   15  O   UNL     1     -12.342  14.019  70.858  1.00  0.00    -0.331 OA 
ENDBRANCH  11  12
ENDBRANCH   6  11
ENDBRANCH   5   6
ENDBRANCH   3   5
TORSDOF 5
ENDMDL
MODEL      109
REMARK 921   NORMALIZED FREE ENERGY PREDICTED BY IDOCK:   -3.83 KCAL/MOL
REMARK 922        TOTAL FREE ENERGY PREDICTED BY IDOCK:   -5.46 KCAL/MOL
REMARK 923 INTER-LIGAND FREE ENERGY PREDICTED BY IDOCK:   -5.66 KCAL/MOL
REMARK 924 INTRA-LIGAND FREE ENERGY PREDICTED BY IDOCK:    0.20 KCAL/MOL
REMARK 927      BINDING AFFINITY PREDICTED BY RF-SCORE:    0.00 PKD
ROOT
HETATM    1  O   UNL     1     -10.136  15.242  70.436  1.00  0.00    -0.151 OA 
HETATM    2  N   UNL     1      -9.590  15.423  69.351  1.00  0.00    -0.262 N  
HETATM    3  O   UNL     1      -9.948  14.447  68.388  1.00  0.00    -0.228 OA 
HETATM    4  O   UNL     1      -8.813  16.308  68.990  1.00  0.00    -0.238 OA 
ENDROOT
BRANCH   3   5
HETATM    5  C   UNL     1      -9.297  14.652  67.133  1.00  0.00    -0.223 C  
BRANCH   5   6
HETATM    6  C   UNL     1     -10.261  15.411  66.204  1.00  0.00    -0.308 C  
BRANCH   6   7
HETATM    7  O   UNL     1     -10.362  16.816  66.487  1.00  0.00    -0.304 OA 
HETATM    8  O   UNL     1     -11.052  17.110  64.356  1.00  0.00    -1.100 OA 
HETATM    9  N   UNL     1     -10.813  17.646  65.435  1.00  0.00    -0.115 N  
HETATM   10  O   UNL     1     -10.904  18.825  65.765  1.00  0.00    -0.364 OA 
ENDBRANCH   6   7
BRANCH   6  11
HETATM   11  C   UNL     1     -11.619  14.704  66.046  1.00  0.00    -0.328 C  
BRANCH  11  12
HETATM   12  O   UNL     1     -11.432  13.536  65.247  1.00  0.00    -0.294 OA 
HETATM   13  N   UNL     1     -12.100  13.620  63.998  1.00  0.00    -0.450 N  
HETATM   14  O   UNL     1     -12.755  14.640  63.782  1.00  0.00    -0.778 OA 
HETATM   15  O   UNL     1     -11.931  12.624  63.300  1.00  0.00    -0.516 OA 
ENDBRANCH  11  12
ENDBRANCH   6  11
ENDBRANCH   5   6
ENDBRANCH   3   5
TORSDOF 5
ENDMDL
MODEL      110
REMARK 921   NORMALIZED FREE ENERGY PREDICTED BY IDOCK:   -3.81 KCAL/MOL
REMARK 922        TOTAL FREE ENERGY PREDICTED BY IDOCK:   -5.43 KCAL/MOL
REMARK 923 INTER-LIGAND FREE ENERGY PREDICTED BY IDOCK:   -5.02 KCAL/MOL
REMARK 924 INTRA-LIGAND FREE ENERGY PREDICTED BY IDOCK:   -0.41 KCAL/MOL
REMARK 927      BINDING AFFINITY PREDICTED BY RF-SCORE:    0.00 PKD
ROOT
HETATM    1  O   UNL     1      -7.144  10.392  63.223  1.00  0.00    -0.124 OA 
HETATM    2  N   UNL     1      -8.286  10.146  63.603  1.00  0.00    -0.161 N  
HETATM    3  O   UNL     1      -8.433  10.265  65.007  1.00  0.00    -0.160 OA 
HETATM    4  O   UNL     1      -9.288   9.833  62.960  1.00  0.00    -0.268 OA 
ENDROOT
BRANCH   3   5
HETATM    5  C   UNL     1      -9.757   9.961  65.447  1.00  0.00    -0.306 C  
BRANCH   5   6
HETATM    6  C   UNL     1     -10.356  11.224  66.094  1.00  0.00    -0.251 C  
BRANCH   6   7
HETATM    7  O   UNL     1     -11.516  10.972  66.904  1.00  0.00    -0.384 OA 
HETATM    8  O   UNL     1     -10.345  11.746  68.673  1.00  0.00    -0.215 OA 
HETATM    9  N   UNL     1     -11.419  11.303  68.275  1.00  0.00    -0.292 N  
HETATM   10  O   UNL     1     -12.460  11.090  68.890  1.00  0.00    -0.460 OA 
ENDBRANCH   6   7
BRANCH   6  11
HETATM   11  C   UNL     1     -10.526  12.382  65.096  1.00  0.00    -0.292 C  
BRANCH  11  12
HETATM   12  O   UNL     1     -11.458  13.316  65.639  1.00  0.00    -0.308 OA 
HETATM   13  N   UNL     1     -12.712  13.281  64.976  1.00  0.00    -0.417 N  
HETATM   14  O   UNL     1     -12.823  12.497  64.033  1.00  0.00    -0.707 OA 
HETATM   15  O   UNL     1     -13.523  14.072  65.449  1.00  0.00    -0.679 OA 
ENDBRANCH  11  12
ENDBRANCH   6  11
ENDBRANCH   5   6
ENDBRANCH   3   5
TORSDOF 5
ENDMDL
MODEL      111
REMARK 921   NORMALIZED FREE ENERGY PREDICTED BY IDOCK:   -3.76 KCAL/MOL
REMARK 922        TOTAL FREE ENERGY PREDICTED BY IDOCK:   -5.37 KCAL/MOL
REMARK 923 INTER-LIGAND FREE ENERGY PREDICTED BY IDOCK:   -5.70 KCAL/MOL
REMARK 924 INTRA-LIGAND FREE ENERGY PREDICTED BY IDOCK:    0.33 KCAL/MOL
REMARK 927      BINDING AFFINITY PREDICTED BY RF-SCORE:    0.00 PKD
ROOT
HETATM    1  O   UNL     1      -8.204  17.217  65.844  1.00  0.00    -0.526 OA 
HETATM    2  N   UNL     1      -9.347  16.788  65.714  1.00  0.00    -0.107 N  
HETATM    3  O   UNL     1      -9.392  15.377  65.593  1.00  0.00    -0.296 OA 
HETATM    4  O   UNL     1     -10.423  17.387  65.686  1.00  0.00    -0.577 OA 
ENDROOT
BRANCH   3   5
HETATM    5  C   UNL     1     -10.723  14.884  65.425  1.00  0.00    -0.377 C  
BRANCH   5   6
HETATM    6  C   UNL     1     -10.846  13.550  66.184  1.00  0.00    -0.281 C  
BRANCH   6   7
HETATM    7  O   UNL     1     -11.506  12.512  65.440  1.00  0.00    -0.316 OA 
HETATM    8  O   UNL     1     -13.274  13.904  65.232  1.00  0.00    -0.774 OA 
HETATM    9  N   UNL     1     -12.801  12.804  64.954  1.00  0.00    -0.413 N  
HETATM   10  O   UNL     1     -13.283  11.883  64.302  1.00  0.00    -0.618 OA 
ENDBRANCH   6   7
BRANCH   6  11
HETATM   11  C   UNL     1     -11.373  13.727  67.619  1.00  0.00    -0.304 C  
BRANCH  11  12
HETATM   12  O   UNL     1     -10.308  14.212  68.436  1.00  0.00    -0.236 OA 
HETATM   13  N   UNL     1     -10.564  15.512  68.944  1.00  0.00    -0.230 N  
HETATM   14  O   UNL     1     -11.620  16.047  68.607  1.00  0.00    -0.386 OA 
HETATM   15  O   UNL     1      -9.658  15.929  69.661  1.00  0.00    -0.259 OA 
ENDBRANCH  11  12
ENDBRANCH   6  11
ENDBRANCH   5   6
ENDBRANCH   3   5
TORSDOF 5
ENDMDL
MODEL      112
REMARK 921   NORMALIZED FREE ENERGY PREDICTED BY IDOCK:   -3.74 KCAL/MOL
REMARK 922        TOTAL FREE ENERGY PREDICTED BY IDOCK:   -5.35 KCAL/MOL
REMARK 923 INTER-LIGAND FREE ENERGY PREDICTED BY IDOCK:   -4.91 KCAL/MOL
REMARK 924 INTRA-LIGAND FREE ENERGY PREDICTED BY IDOCK:   -0.44 KCAL/MOL
REMARK 927      BINDING AFFINITY PREDICTED BY RF-SCORE:    0.00 PKD
ROOT
HETATM    1  O   UNL     1     -12.877   9.975  71.888  1.00  0.00    -0.403 OA 
HETATM    2  N   UNL     1     -12.066  10.383  71.061  1.00  0.00    -0.357 N  
HETATM    3  O   UNL     1     -12.505  11.554  70.394  1.00  0.00    -0.290 OA 
HETATM    4  O   UNL     1     -10.958   9.943  70.749  1.00  0.00    -0.307 OA 
ENDROOT
BRANCH   3   5
HETATM    5  C   UNL     1     -11.566  12.014  69.421  1.00  0.00    -0.330 C  
BRANCH   5   6
HETATM    6  C   UNL     1     -11.427  13.541  69.566  1.00  0.00    -0.255 C  
BRANCH   6   7
HETATM    7  O   UNL     1     -12.658  14.213  69.882  1.00  0.00    -0.311 OA 
HETATM    8  O   UNL     1     -11.600  15.136  71.652  1.00  0.00    -0.363 OA 
HETATM    9  N   UNL     1     -12.646  15.063  71.011  1.00  0.00    -0.321 N  
HETATM   10  O   UNL     1     -13.722  15.625  71.194  1.00  0.00    -0.591 OA 
ENDBRANCH   6   7
BRANCH   6  11
HETATM   11  C   UNL     1     -10.641  14.181  68.408  1.00  0.00    -0.259 C  
BRANCH  11  12
HETATM   12  O   UNL     1     -11.066  15.537  68.267  1.00  0.00    -0.292 OA 
HETATM   13  N   UNL     1     -10.177  16.451  68.889  1.00  0.00    -0.242 N  
HETATM   14  O   UNL     1      -9.203  15.975  69.472  1.00  0.00    -0.239 OA 
HETATM   15  O   UNL     1     -10.530  17.620  68.757  1.00  0.00    -0.351 OA 
ENDBRANCH  11  12
ENDBRANCH   6  11
ENDBRANCH   5   6
ENDBRANCH   3   5
TORSDOF 5
ENDMDL
MODEL      113
REMARK 921   NORMALIZED FREE ENERGY PREDICTED BY IDOCK:   -3.74 KCAL/MOL
REMARK 922        TOTAL FREE ENERGY PREDICTED BY IDOCK:   -5.35 KCAL/MOL
REMARK 923 INTER-LIGAND FREE ENERGY PREDICTED BY IDOCK:   -4.80 KCAL/MOL
REMARK 924 INTRA-LIGAND FREE ENERGY PREDICTED BY IDOCK:   -0.55 KCAL/MOL
REMARK 927      BINDING AFFINITY PREDICTED BY RF-SCORE:    0.00 PKD
ROOT
HETATM    1  O   UNL     1      -9.524   7.767  67.626  1.00  0.00    -0.140 OA 
HETATM    2  N   UNL     1      -9.438   8.445  66.605  1.00  0.00    -0.188 N  
HETATM    3  O   UNL     1     -10.270   9.592  66.639  1.00  0.00    -0.242 OA 
HETATM    4  O   UNL     1      -8.748   8.283  65.598  1.00  0.00    -0.160 OA 
ENDROOT
BRANCH   3   5
HETATM    5  C   UNL     1     -10.180  10.369  65.443  1.00  0.00    -0.259 C  
BRANCH   5   6
HETATM    6  C   UNL     1     -10.902  11.708  65.679  1.00  0.00    -0.276 C  
BRANCH   6   7
HETATM    7  O   UNL     1     -11.467  11.844  66.994  1.00  0.00    -0.350 OA 
HETATM    8  O   UNL     1     -10.216  13.708  67.245  1.00  0.00    -0.242 OA 
HETATM    9  N   UNL     1     -11.049  12.962  67.752  1.00  0.00    -0.248 N  
HETATM   10  O   UNL     1     -11.600  13.026  68.847  1.00  0.00    -0.269 OA 
ENDBRANCH   6   7
BRANCH   6  11
HETATM   11  C   UNL     1     -11.870  12.073  64.540  1.00  0.00    -0.285 C  
BRANCH  11  12
HETATM   12  O   UNL     1     -11.512  13.360  64.036  1.00  0.00    -0.382 OA 
HETATM   13  N   UNL     1     -12.370  14.386  64.509  1.00  0.00    -0.451 N  
HETATM   14  O   UNL     1     -13.296  14.045  65.246  1.00  0.00    -0.741 OA 
HETATM   15  O   UNL     1     -12.058  15.497  64.091  1.00  0.00    -0.564 OA 
ENDBRANCH  11  12
ENDBRANCH   6  11
ENDBRANCH   5   6
ENDBRANCH   3   5
TORSDOF 5
ENDMDL
MODEL      114
REMARK 921   NORMALIZED FREE ENERGY PREDICTED BY IDOCK:   -3.73 KCAL/MOL
REMARK 922        TOTAL FREE ENERGY PREDICTED BY IDOCK:   -5.34 KCAL/MOL
REMARK 923 INTER-LIGAND FREE ENERGY PREDICTED BY IDOCK:   -4.76 KCAL/MOL
REMARK 924 INTRA-LIGAND FREE ENERGY PREDICTED BY IDOCK:   -0.57 KCAL/MOL
REMARK 927      BINDING AFFINITY PREDICTED BY RF-SCORE:    0.00 PKD
ROOT
HETATM    1  O   UNL     1     -11.107   6.344  68.163  1.00  0.00    -0.311 OA 
HETATM    2  N   UNL     1     -11.070   6.047  69.354  1.00  0.00    -0.390 N  
HETATM    3  O   UNL     1     -11.850   6.913  70.159  1.00  0.00    -0.299 OA 
HETATM    4  O   UNL     1     -10.482   5.128  69.926  1.00  0.00    -0.295 OA 
ENDROOT
BRANCH   3   5
HETATM    5  C   UNL     1     -11.790   6.575  71.546  1.00  0.00    -0.333 C  
BRANCH   5   6
HETATM    6  C   UNL     1     -11.455   7.849  72.342  1.00  0.00    -0.376 C  
BRANCH   6   7
HETATM    7  O   UNL     1     -11.726   9.070  71.634  1.00  0.00    -0.311 OA 
HETATM    8  O   UNL     1     -13.668   9.204  72.779  1.00  0.00    -0.434 OA 
HETATM    9  N   UNL     1     -12.932   9.735  71.951  1.00  0.00    -0.417 N  
HETATM   10  O   UNL     1     -13.074  10.784  71.331  1.00  0.00    -0.382 OA 
ENDBRANCH   6   7
BRANCH   6  11
HETATM   11  C   UNL     1     -10.062   7.796  72.993  1.00  0.00    -0.320 C  
BRANCH  11  12
HETATM   12  O   UNL     1      -9.311   8.925  72.548  1.00  0.00    -0.308 OA 
HETATM   13  N   UNL     1      -8.290   8.570  71.629  1.00  0.00    -0.155 N  
HETATM   14  O   UNL     1      -8.170   7.374  71.362  1.00  0.00    -0.103 OA 
HETATM   15  O   UNL     1      -7.651   9.539  71.231  1.00  0.00    -0.327 OA 
ENDBRANCH  11  12
ENDBRANCH   6  11
ENDBRANCH   5   6
ENDBRANCH   3   5
TORSDOF 5
ENDMDL
MODEL      115
REMARK 921   NORMALIZED FREE ENERGY PREDICTED BY IDOCK:   -3.72 KCAL/MOL
REMARK 922        TOTAL FREE ENERGY PREDICTED BY IDOCK:   -5.32 KCAL/MOL
REMARK 923 INTER-LIGAND FREE ENERGY PREDICTED BY IDOCK:   -4.89 KCAL/MOL
REMARK 924 INTRA-LIGAND FREE ENERGY PREDICTED BY IDOCK:   -0.43 KCAL/MOL
REMARK 927      BINDING AFFINITY PREDICTED BY RF-SCORE:    0.00 PKD
ROOT
HETATM    1  O   UNL     1     -12.525  13.900  71.327  1.00  0.00    -0.344 OA 
HETATM    2  N   UNL     1     -12.250  12.916  70.644  1.00  0.00    -0.363 N  
HETATM    3  O   UNL     1     -11.705  13.261  69.382  1.00  0.00    -0.290 OA 
HETATM    4  O   UNL     1     -12.366  11.716  70.895  1.00  0.00    -0.374 OA 
ENDROOT
BRANCH   3   5
HETATM    5  C   UNL     1     -11.404  12.114  68.584  1.00  0.00    -0.280 C  
BRANCH   5   6
HETATM    6  C   UNL     1     -10.934  12.597  67.200  1.00  0.00    -0.261 C  
BRANCH   6   7
HETATM    7  O   UNL     1     -11.688  12.051  66.104  1.00  0.00    -0.483 OA 
HETATM    8  O   UNL     1     -12.672  14.073  65.886  1.00  0.00    -0.495 OA 
HETATM    9  N   UNL     1     -12.583  12.928  65.449  1.00  0.00    -0.465 N  
HETATM   10  O   UNL     1     -13.163  12.399  64.506  1.00  0.00    -0.834 OA 
ENDBRANCH   6   7
BRANCH   6  11
HETATM   11  C   UNL     1      -9.409  12.503  67.021  1.00  0.00    -0.210 C  
BRANCH  11  12
HETATM   12  O   UNL     1      -8.836  12.047  68.246  1.00  0.00    -0.179 OA 
HETATM   13  N   UNL     1      -8.017  10.902  68.069  1.00  0.00    -0.106 N  
HETATM   14  O   UNL     1      -7.929  10.448  66.928  1.00  0.00    -0.111 OA 
HETATM   15  O   UNL     1      -7.509  10.514  69.117  1.00  0.00    -0.092 OA 
ENDBRANCH  11  12
ENDBRANCH   6  11
ENDBRANCH   5   6
ENDBRANCH   3   5
TORSDOF 5
ENDMDL
MODEL      116
REMARK 921   NORMALIZED FREE ENERGY PREDICTED BY IDOCK:   -3.72 KCAL/MOL
REMARK 922        TOTAL FREE ENERGY PREDICTED BY IDOCK:   -5.32 KCAL/MOL
REMARK 923 INTER-LIGAND FREE ENERGY PREDICTED BY IDOCK:   -4.93 KCAL/MOL
REMARK 924 INTRA-LIGAND FREE ENERGY PREDICTED BY IDOCK:   -0.39 KCAL/MOL
REMARK 927      BINDING AFFINITY PREDICTED BY RF-SCORE:    0.00 PKD
ROOT
HETATM    1  O   UNL     1      -9.008   9.194  64.133  1.00  0.00    -0.158 OA 
HETATM    2  N   UNL     1      -8.870  10.082  64.971  1.00  0.00    -0.171 N  
HETATM    3  O   UNL     1      -9.933  11.018  64.956  1.00  0.00    -0.245 OA 
HETATM    4  O   UNL     1      -7.977  10.261  65.800  1.00  0.00    -0.132 OA 
ENDROOT
BRANCH   3   5
HETATM    5  C   UNL     1      -9.759  12.059  65.919  1.00  0.00    -0.239 C  
BRANCH   5   6
HETATM    6  C   UNL     1     -11.060  12.879  65.987  1.00  0.00    -0.281 C  
BRANCH   6   7
HETATM    7  O   UNL     1     -11.352  13.613  64.785  1.00  0.00    -0.329 OA 
HETATM    8  O   UNL     1     -13.177  12.305  64.532  1.00  0.00    -0.799 OA 
HETATM    9  N   UNL     1     -12.522  13.242  64.083  1.00  0.00    -0.303 N  
HETATM   10  O   UNL     1     -12.720  13.935  63.089  1.00  0.00    -0.718 OA 
ENDBRANCH   6   7
BRANCH   6  11
HETATM   11  C   UNL     1     -11.174  13.714  67.275  1.00  0.00    -0.309 C  
BRANCH  11  12
HETATM   12  O   UNL     1     -11.352  12.824  68.377  1.00  0.00    -0.253 OA 
HETATM   13  N   UNL     1     -11.924  13.466  69.505  1.00  0.00    -0.323 N  
HETATM   14  O   UNL     1     -12.160  14.670  69.404  1.00  0.00    -0.306 OA 
HETATM   15  O   UNL     1     -12.093  12.702  70.451  1.00  0.00    -0.364 OA 
ENDBRANCH  11  12
ENDBRANCH   6  11
ENDBRANCH   5   6
ENDBRANCH   3   5
TORSDOF 5
ENDMDL
MODEL      117
REMARK 921   NORMALIZED FREE ENERGY PREDICTED BY IDOCK:   -3.71 KCAL/MOL
REMARK 922        TOTAL FREE ENERGY PREDICTED BY IDOCK:   -5.30 KCAL/MOL
REMARK 923 INTER-LIGAND FREE ENERGY PREDICTED BY IDOCK:   -4.95 KCAL/MOL
REMARK 924 INTRA-LIGAND FREE ENERGY PREDICTED BY IDOCK:   -0.36 KCAL/MOL
REMARK 927      BINDING AFFINITY PREDICTED BY RF-SCORE:    0.00 PKD
ROOT
HETATM    1  O   UNL     1      -6.238  17.224  67.193  1.00  0.00    -0.134 OA 
HETATM    2  N   UNL     1      -7.292  17.185  66.564  1.00  0.00    -0.248 N  
HETATM    3  O   UNL     1      -8.104  16.080  66.923  1.00  0.00    -0.197 OA 
HETATM    4  O   UNL     1      -7.734  17.949  65.705  1.00  0.00    -0.541 OA 
ENDROOT
BRANCH   3   5
HETATM    5  C   UNL     1      -9.321  16.030  66.177  1.00  0.00    -0.342 C  
BRANCH   5   6
HETATM    6  C   UNL     1     -10.428  15.475  67.091  1.00  0.00    -0.286 C  
BRANCH   6   7
HETATM    7  O   UNL     1     -11.386  14.646  66.413  1.00  0.00    -0.340 OA 
HETATM    8  O   UNL     1     -10.470  12.871  67.466  1.00  0.00    -0.220 OA 
HETATM    9  N   UNL     1     -11.341  13.261  66.694  1.00  0.00    -0.310 N  
HETATM   10  O   UNL     1     -12.211  12.627  66.103  1.00  0.00    -0.568 OA 
ENDBRANCH   6   7
BRANCH   6  11
HETATM   11  C   UNL     1     -11.056  16.554  67.990  1.00  0.00    -0.275 C  
BRANCH  11  12
HETATM   12  O   UNL     1     -10.007  17.269  68.642  1.00  0.00    -0.291 OA 
HETATM   13  N   UNL     1     -10.016  18.653  68.329  1.00  0.00    -0.364 N  
HETATM   14  O   UNL     1     -10.880  19.042  67.543  1.00  0.00    -0.463 OA 
HETATM   15  O   UNL     1      -9.124  19.275  68.900  1.00  0.00    -0.368 OA 
ENDBRANCH  11  12
ENDBRANCH   6  11
ENDBRANCH   5   6
ENDBRANCH   3   5
TORSDOF 5
ENDMDL
MODEL      118
REMARK 921   NORMALIZED FREE ENERGY PREDICTED BY IDOCK:   -3.69 KCAL/MOL
REMARK 922        TOTAL FREE ENERGY PREDICTED BY IDOCK:   -5.28 KCAL/MOL
REMARK 923 INTER-LIGAND FREE ENERGY PREDICTED BY IDOCK:   -4.84 KCAL/MOL
REMARK 924 INTRA-LIGAND FREE ENERGY PREDICTED BY IDOCK:   -0.44 KCAL/MOL
REMARK 927      BINDING AFFINITY PREDICTED BY RF-SCORE:    0.00 PKD
ROOT
HETATM    1  O   UNL     1      -9.437   9.020  66.157  1.00  0.00    -0.213 OA 
HETATM    2  N   UNL     1     -10.226   9.893  66.509  1.00  0.00    -0.234 N  
HETATM    3  O   UNL     1     -10.277  10.982  65.604  1.00  0.00    -0.243 OA 
HETATM    4  O   UNL     1     -10.962   9.949  67.495  1.00  0.00    -0.282 OA 
ENDROOT
BRANCH   3   5
HETATM    5  C   UNL     1     -11.183  12.003  66.026  1.00  0.00    -0.335 C  
BRANCH   5   6
HETATM    6  C   UNL     1     -10.413  13.334  66.101  1.00  0.00    -0.293 C  
BRANCH   6   7
HETATM    7  O   UNL     1     -10.078  13.742  67.438  1.00  0.00    -0.240 OA 
HETATM    8  O   UNL     1      -8.022  12.870  67.098  1.00  0.00    -0.167 OA 
HETATM    9  N   UNL     1      -8.763  13.464  67.877  1.00  0.00    -0.176 N  
HETATM   10  O   UNL     1      -8.545  13.872  69.014  1.00  0.00     0.033 OA 
ENDBRANCH   6   7
BRANCH   6  11
HETATM   11  C   UNL     1     -11.054  14.443  65.249  1.00  0.00    -0.342 C  
BRANCH  11  12
HETATM   12  O   UNL     1     -10.597  15.707  65.730  1.00  0.00    -0.324 OA 
HETATM   13  N   UNL     1     -11.037  16.787  64.922  1.00  0.00    -0.217 N  
HETATM   14  O   UNL     1     -11.710  16.505  63.930  1.00  0.00    -1.148 OA 
HETATM   15  O   UNL     1     -10.659  17.878  65.340  1.00  0.00    -0.656 OA 
ENDBRANCH  11  12
ENDBRANCH   6  11
ENDBRANCH   5   6
ENDBRANCH   3   5
TORSDOF 5
ENDMDL
MODEL      119
REMARK 921   NORMALIZED FREE ENERGY PREDICTED BY IDOCK:   -3.68 KCAL/MOL
REMARK 922        TOTAL FREE ENERGY PREDICTED BY IDOCK:   -5.27 KCAL/MOL
REMARK 923 INTER-LIGAND FREE ENERGY PREDICTED BY IDOCK:   -5.03 KCAL/MOL
REMARK 924 INTRA-LIGAND FREE ENERGY PREDICTED BY IDOCK:   -0.23 KCAL/MOL
REMARK 927      BINDING AFFINITY PREDICTED BY RF-SCORE:    0.00 PKD
ROOT
HETATM    1  O   UNL     1      -9.162   8.978  65.683  1.00  0.00    -0.216 OA 
HETATM    2  N   UNL     1      -9.999   9.528  66.394  1.00  0.00    -0.256 N  
HETATM    3  O   UNL     1     -10.079  10.924  66.167  1.00  0.00    -0.224 OA 
HETATM    4  O   UNL     1     -10.762   9.053  67.237  1.00  0.00    -0.269 OA 
ENDROOT
BRANCH   3   5
HETATM    5  C   UNL     1     -11.041  11.562  67.008  1.00  0.00    -0.307 C  
BRANCH   5   6
HETATM    6  C   UNL     1     -10.943  13.083  66.791  1.00  0.00    -0.276 C  
BRANCH   6   7
HETATM    7  O   UNL     1     -10.765  13.836  68.003  1.00  0.00    -0.241 OA 
HETATM    8  O   UNL     1      -9.355  15.180  66.858  1.00  0.00    -0.212 OA 
HETATM    9  N   UNL     1      -9.906  14.957  67.934  1.00  0.00    -0.213 N  
HETATM   10  O   UNL     1      -9.832  15.566  68.997  1.00  0.00    -0.207 OA 
ENDBRANCH   6   7
BRANCH   6  11
HETATM   11  C   UNL     1     -12.050  13.627  65.871  1.00  0.00    -0.439 C  
BRANCH  11  12
HETATM   12  O   UNL     1     -12.621  12.533  65.153  1.00  0.00    -0.631 OA 
HETATM   13  N   UNL     1     -12.699  12.781  63.758  1.00  0.00    -0.244 N  
HETATM   14  O   UNL     1     -12.304  13.878  63.362  1.00  0.00    -0.760 OA 
HETATM   15  O   UNL     1     -13.176  11.837  63.134  1.00  0.00    -0.538 OA 
ENDBRANCH  11  12
ENDBRANCH   6  11
ENDBRANCH   5   6
ENDBRANCH   3   5
TORSDOF 5
ENDMDL
MODEL      120
REMARK 921   NORMALIZED FREE ENERGY PREDICTED BY IDOCK:   -3.67 KCAL/MOL
REMARK 922        TOTAL FREE ENERGY PREDICTED BY IDOCK:   -5.25 KCAL/MOL
REMARK 923 INTER-LIGAND FREE ENERGY PREDICTED BY IDOCK:   -4.82 KCAL/MOL
REMARK 924 INTRA-LIGAND FREE ENERGY PREDICTED BY IDOCK:   -0.43 KCAL/MOL
REMARK 927      BINDING AFFINITY PREDICTED BY RF-SCORE:    0.00 PKD
ROOT
HETATM    1  O   UNL     1     -12.829  14.549  70.370  1.00  0.00    -0.349 OA 
HETATM    2  N   UNL     1     -11.827  15.239  70.540  1.00  0.00    -0.295 N  
HETATM    3  O   UNL     1     -10.884  15.102  69.491  1.00  0.00    -0.241 OA 
HETATM    4  O   UNL     1     -11.541  16.014  71.453  1.00  0.00    -0.417 OA 
ENDROOT
BRANCH   3   5
HETATM    5  C   UNL     1      -9.713  15.894  69.701  1.00  0.00    -0.210 C  
BRANCH   5   6
HETATM    6  C   UNL     1      -9.573  16.876  68.524  1.00  0.00    -0.262 C  
BRANCH   6   7
HETATM    7  O   UNL     1      -8.922  18.110  68.866  1.00  0.00    -0.244 OA 
HETATM    8  O   UNL     1      -7.414  17.666  67.244  1.00  0.00    -0.184 OA 
HETATM    9  N   UNL     1      -7.779  18.458  68.109  1.00  0.00    -0.281 N  
HETATM   10  O   UNL     1      -7.301  19.539  68.439  1.00  0.00    -0.293 OA 
ENDBRANCH   6   7
BRANCH   6  11
HETATM   11  C   UNL     1     -10.884  17.055  67.737  1.00  0.00    -0.269 C  
BRANCH  11  12
HETATM   12  O   UNL     1     -10.998  18.424  67.352  1.00  0.00    -0.351 OA 
HETATM   13  N   UNL     1     -10.551  18.655  66.026  1.00  0.00    -0.436 N  
HETATM   14  O   UNL     1     -10.112  17.685  65.407  1.00  0.00    -0.482 OA 
HETATM   15  O   UNL     1     -10.661  19.829  65.684  1.00  0.00    -0.507 OA 
ENDBRANCH  11  12
ENDBRANCH   6  11
ENDBRANCH   5   6
ENDBRANCH   3   5
TORSDOF 5
ENDMDL
MODEL      121
REMARK 921   NORMALIZED FREE ENERGY PREDICTED BY IDOCK:   -3.65 KCAL/MOL
REMARK 922        TOTAL FREE ENERGY PREDICTED BY IDOCK:   -5.23 KCAL/MOL
REMARK 923 INTER-LIGAND FREE ENERGY PREDICTED BY IDOCK:   -4.92 KCAL/MOL
REMARK 924 INTRA-LIGAND FREE ENERGY PREDICTED BY IDOCK:   -0.31 KCAL/MOL
REMARK 927      BINDING AFFINITY PREDICTED BY RF-SCORE:    0.00 PKD
ROOT
HETATM    1  O   UNL     1     -12.799  12.392  65.268  1.00  0.00    -0.557 OA 
HETATM    2  N   UNL     1     -11.844  12.407  66.040  1.00  0.00    -0.417 N  
HETATM    3  O   UNL     1     -12.073  11.640  67.209  1.00  0.00    -0.595 OA 
HETATM    4  O   UNL     1     -10.750  12.965  65.941  1.00  0.00    -0.266 OA 
ENDROOT
BRANCH   3   5
HETATM    5  C   UNL     1     -10.966  11.676  68.113  1.00  0.00    -0.226 C  
BRANCH   5   6
HETATM    6  C   UNL     1     -11.299  10.783  69.322  1.00  0.00    -0.286 C  
BRANCH   6   7
HETATM    7  O   UNL     1     -11.729  11.511  70.485  1.00  0.00    -0.309 OA 
HETATM    8  O   UNL     1     -13.526  10.144  70.570  1.00  0.00    -0.185 OA 
HETATM    9  N   UNL     1     -12.929  11.080  71.096  1.00  0.00    -0.362 N  
HETATM   10  O   UNL     1     -13.211  11.728  72.100  1.00  0.00    -0.498 OA 
ENDBRANCH   6   7
BRANCH   6  11
HETATM   11  C   UNL     1     -10.211   9.732  69.606  1.00  0.00    -0.233 C  
BRANCH  11  12
HETATM   12  O   UNL     1     -10.021   9.647  71.018  1.00  0.00    -0.247 OA 
HETATM   13  N   UNL     1      -8.872   8.891  71.366  1.00  0.00    -0.226 N  
HETATM   14  O   UNL     1      -8.225   8.399  70.441  1.00  0.00    -0.106 OA 
HETATM   15  O   UNL     1      -8.694   8.827  72.579  1.00  0.00    -0.406 OA 
ENDBRANCH  11  12
ENDBRANCH   6  11
ENDBRANCH   5   6
ENDBRANCH   3   5
TORSDOF 5
ENDMDL
MODEL      122
REMARK 921   NORMALIZED FREE ENERGY PREDICTED BY IDOCK:   -3.63 KCAL/MOL
REMARK 922        TOTAL FREE ENERGY PREDICTED BY IDOCK:   -5.21 KCAL/MOL
REMARK 923 INTER-LIGAND FREE ENERGY PREDICTED BY IDOCK:   -4.63 KCAL/MOL
REMARK 924 INTRA-LIGAND FREE ENERGY PREDICTED BY IDOCK:   -0.57 KCAL/MOL
REMARK 927      BINDING AFFINITY PREDICTED BY RF-SCORE:    0.00 PKD
ROOT
HETATM    1  O   UNL     1     -14.033   8.895  72.480  1.00  0.00    -0.462 OA 
HETATM    2  N   UNL     1     -12.832   8.931  72.222  1.00  0.00    -0.401 N  
HETATM    3  O   UNL     1     -12.528   9.806  71.150  1.00  0.00    -0.314 OA 
HETATM    4  O   UNL     1     -11.887   8.346  72.753  1.00  0.00    -0.371 OA 
ENDROOT
BRANCH   3   5
HETATM    5  C   UNL     1     -11.133   9.832  70.843  1.00  0.00    -0.357 C  
BRANCH   5   6
HETATM    6  C   UNL     1     -10.890   8.938  69.614  1.00  0.00    -0.178 C  
BRANCH   6   7
HETATM    7  O   UNL     1     -10.098   7.770  69.888  1.00  0.00    -0.196 OA 
HETATM    8  O   UNL     1     -12.021   6.588  69.967  1.00  0.00    -0.358 OA 
HETATM    9  N   UNL     1     -10.795   6.550  70.045  1.00  0.00    -0.259 N  
HETATM   10  O   UNL     1     -10.048   5.597  70.242  1.00  0.00    -0.190 OA 
ENDBRANCH   6   7
BRANCH   6  11
HETATM   11  C   UNL     1     -10.431   9.732  68.379  1.00  0.00    -0.218 C  
BRANCH  11  12
HETATM   12  O   UNL     1     -11.548  10.456  67.864  1.00  0.00    -0.406 OA 
HETATM   13  N   UNL     1     -11.290  11.847  67.754  1.00  0.00    -0.269 N  
HETATM   14  O   UNL     1     -10.185  12.241  68.128  1.00  0.00    -0.200 OA 
HETATM   15  O   UNL     1     -12.242  12.472  67.298  1.00  0.00    -0.454 OA 
ENDBRANCH  11  12
ENDBRANCH   6  11
ENDBRANCH   5   6
ENDBRANCH   3   5
TORSDOF 5
ENDMDL
MODEL      123
REMARK 921   NORMALIZED FREE ENERGY PREDICTED BY IDOCK:   -3.62 KCAL/MOL
REMARK 922        TOTAL FREE ENERGY PREDICTED BY IDOCK:   -5.19 KCAL/MOL
REMARK 923 INTER-LIGAND FREE ENERGY PREDICTED BY IDOCK:   -4.79 KCAL/MOL
REMARK 924 INTRA-LIGAND FREE ENERGY PREDICTED BY IDOCK:   -0.40 KCAL/MOL
REMARK 927      BINDING AFFINITY PREDICTED BY RF-SCORE:    0.00 PKD
ROOT
HETATM    1  O   UNL     1     -12.383   9.232  72.002  1.00  0.00    -0.365 OA 
HETATM    2  N   UNL     1     -12.544  10.356  71.533  1.00  0.00    -0.414 N  
HETATM    3  O   UNL     1     -11.915  10.520  70.274  1.00  0.00    -0.277 OA 
HETATM    4  O   UNL     1     -13.163  11.323  71.981  1.00  0.00    -0.506 OA 
ENDROOT
BRANCH   3   5
HETATM    5  C   UNL     1     -12.091  11.834  69.741  1.00  0.00    -0.269 C  
BRANCH   5   6
HETATM    6  C   UNL     1     -11.293  11.935  68.428  1.00  0.00    -0.276 C  
BRANCH   6   7
HETATM    7  O   UNL     1     -12.098  11.812  67.244  1.00  0.00    -0.595 OA 
HETATM    8  O   UNL     1     -11.244  13.790  66.562  1.00  0.00    -0.303 OA 
HETATM    9  N   UNL     1     -11.989  12.851  66.291  1.00  0.00    -0.413 N  
HETATM   10  O   UNL     1     -12.680  12.657  65.295  1.00  0.00    -0.652 OA 
ENDBRANCH   6   7
BRANCH   6  11
HETATM   11  C   UNL     1     -10.033  11.052  68.426  1.00  0.00    -0.186 C  
BRANCH  11  12
HETATM   12  O   UNL     1      -8.905  11.873  68.125  1.00  0.00    -0.166 OA 
HETATM   13  N   UNL     1      -7.907  11.178  67.394  1.00  0.00    -0.117 N  
HETATM   14  O   UNL     1      -8.122   9.991  67.145  1.00  0.00    -0.116 OA 
HETATM   15  O   UNL     1      -6.940  11.883  67.120  1.00  0.00    -0.133 OA 
ENDBRANCH  11  12
ENDBRANCH   6  11
ENDBRANCH   5   6
ENDBRANCH   3   5
TORSDOF 5
ENDMDL
MODEL      124
REMARK 921   NORMALIZED FREE ENERGY PREDICTED BY IDOCK:   -3.61 KCAL/MOL
REMARK 922        TOTAL FREE ENERGY PREDICTED BY IDOCK:   -5.18 KCAL/MOL
REMARK 923 INTER-LIGAND FREE ENERGY PREDICTED BY IDOCK:   -4.64 KCAL/MOL
REMARK 924 INTRA-LIGAND FREE ENERGY PREDICTED BY IDOCK:   -0.54 KCAL/MOL
REMARK 927      BINDING AFFINITY PREDICTED BY RF-SCORE:    0.00 PKD
ROOT
HETATM    1  O   UNL     1      -6.531  17.560  67.673  1.00  0.00    -0.146 OA 
HETATM    2  N   UNL     1      -7.320  17.214  66.797  1.00  0.00    -0.201 N  
HETATM    3  O   UNL     1      -8.187  16.176  67.219  1.00  0.00    -0.157 OA 
HETATM    4  O   UNL     1      -7.467  17.635  65.649  1.00  0.00    -0.508 OA 
ENDROOT
BRANCH   3   5
HETATM    5  C   UNL     1      -9.090  15.766  66.191  1.00  0.00    -0.342 C  
BRANCH   5   6
HETATM    6  C   UNL     1     -10.511  16.203  66.591  1.00  0.00    -0.300 C  
BRANCH   6   7
HETATM    7  O   UNL     1     -10.546  17.299  67.521  1.00  0.00    -0.354 OA 
HETATM    8  O   UNL     1     -10.633  18.691  65.744  1.00  0.00    -0.567 OA 
HETATM    9  N   UNL     1     -10.630  18.598  66.969  1.00  0.00    -0.407 N  
HETATM   10  O   UNL     1     -10.689  19.476  67.825  1.00  0.00    -0.446 OA 
ENDBRANCH   6   7
BRANCH   6  11
HETATM   11  C   UNL     1     -11.412  15.019  66.983  1.00  0.00    -0.284 C  
BRANCH  11  12
HETATM   12  O   UNL     1     -10.725  13.806  66.678  1.00  0.00    -0.276 OA 
HETATM   13  N   UNL     1     -10.556  12.977  67.817  1.00  0.00    -0.223 N  
HETATM   14  O   UNL     1     -10.985  13.405  68.889  1.00  0.00    -0.251 OA 
HETATM   15  O   UNL     1      -9.978  11.925  67.558  1.00  0.00    -0.185 OA 
ENDBRANCH  11  12
ENDBRANCH   6  11
ENDBRANCH   5   6
ENDBRANCH   3   5
TORSDOF 5
ENDMDL
MODEL      125
REMARK 921   NORMALIZED FREE ENERGY PREDICTED BY IDOCK:   -3.61 KCAL/MOL
REMARK 922        TOTAL FREE ENERGY PREDICTED BY IDOCK:   -5.18 KCAL/MOL
REMARK 923 INTER-LIGAND FREE ENERGY PREDICTED BY IDOCK:   -4.59 KCAL/MOL
REMARK 924 INTRA-LIGAND FREE ENERGY PREDICTED BY IDOCK:   -0.59 KCAL/MOL
REMARK 927      BINDING AFFINITY PREDICTED BY RF-SCORE:    0.00 PKD
ROOT
HETATM    1  O   UNL     1     -11.627  16.234  71.293  1.00  0.00    -0.437 OA 
HETATM    2  N   UNL     1     -11.318  15.968  70.134  1.00  0.00    -0.352 N  
HETATM    3  O   UNL     1      -9.919  15.827  69.959  1.00  0.00    -0.264 OA 
HETATM    4  O   UNL     1     -12.026  15.800  69.141  1.00  0.00    -0.387 OA 
ENDROOT
BRANCH   3   5
HETATM    5  C   UNL     1      -9.563  15.535  68.607  1.00  0.00    -0.203 C  
BRANCH   5   6
HETATM    6  C   UNL     1      -9.055  16.831  67.948  1.00  0.00    -0.224 C  
BRANCH   6   7
HETATM    7  O   UNL     1     -10.090  17.619  67.336  1.00  0.00    -0.307 OA 
HETATM    8  O   UNL     1      -9.393  19.358  68.598  1.00  0.00    -0.364 OA 
HETATM    9  N   UNL     1     -10.180  18.972  67.737  1.00  0.00    -0.379 N  
HETATM   10  O   UNL     1     -11.063  19.585  67.145  1.00  0.00    -0.446 OA 
ENDBRANCH   6   7
BRANCH   6  11
HETATM   11  C   UNL     1      -7.826  16.603  67.051  1.00  0.00    -0.198 C  
BRANCH  11  12
HETATM   12  O   UNL     1      -6.808  17.527  67.435  1.00  0.00    -0.157 OA 
HETATM   13  N   UNL     1      -6.696  18.616  66.533  1.00  0.00    -0.193 N  
HETATM   14  O   UNL     1      -7.445  18.613  65.556  1.00  0.00    -0.505 OA 
HETATM   15  O   UNL     1      -5.831  19.422  66.866  1.00  0.00    -0.174 OA 
ENDBRANCH  11  12
ENDBRANCH   6  11
ENDBRANCH   5   6
ENDBRANCH   3   5
TORSDOF 5
ENDMDL
MODEL      126
REMARK 921   NORMALIZED FREE ENERGY PREDICTED BY IDOCK:   -3.60 KCAL/MOL
REMARK 922        TOTAL FREE ENERGY PREDICTED BY IDOCK:   -5.17 KCAL/MOL
REMARK 923 INTER-LIGAND FREE ENERGY PREDICTED BY IDOCK:   -4.60 KCAL/MOL
REMARK 924 INTRA-LIGAND FREE ENERGY PREDICTED BY IDOCK:   -0.57 KCAL/MOL
REMARK 927      BINDING AFFINITY PREDICTED BY RF-SCORE:    0.00 PKD
ROOT
HETATM    1  O   UNL     1     -11.382   9.879  69.188  1.00  0.00    -0.158 OA 
HETATM    2  N   UNL     1     -11.217  11.069  68.930  1.00  0.00    -0.240 N  
HETATM    3  O   UNL     1     -12.126  11.548  67.954  1.00  0.00    -0.630 OA 
HETATM    4  O   UNL     1     -10.411  11.878  69.390  1.00  0.00    -0.001 OA 
ENDROOT
BRANCH   3   5
HETATM    5  C   UNL     1     -11.919  12.927  67.644  1.00  0.00    -0.289 C  
BRANCH   5   6
HETATM    6  C   UNL     1     -11.378  13.025  66.206  1.00  0.00    -0.317 C  
BRANCH   6   7
HETATM    7  O   UNL     1     -12.055  12.173  65.267  1.00  0.00    -0.435 OA 
HETATM    8  O   UNL     1     -12.121  13.931  63.850  1.00  0.00    -0.481 OA 
HETATM    9  N   UNL     1     -12.397  12.746  64.021  1.00  0.00    -0.412 N  
HETATM   10  O   UNL     1     -12.940  11.947  63.263  1.00  0.00    -0.707 OA 
ENDBRANCH   6   7
BRANCH   6  11
HETATM   11  C   UNL     1      -9.843  12.940  66.139  1.00  0.00    -0.270 C  
BRANCH  11  12
HETATM   12  O   UNL     1      -9.483  11.671  65.593  1.00  0.00    -0.226 OA 
HETATM   13  N   UNL     1      -8.393  11.075  66.276  1.00  0.00    -0.164 N  
HETATM   14  O   UNL     1      -7.896  11.716  67.203  1.00  0.00    -0.148 OA 
HETATM   15  O   UNL     1      -8.088   9.977  65.820  1.00  0.00    -0.119 OA 
ENDBRANCH  11  12
ENDBRANCH   6  11
ENDBRANCH   5   6
ENDBRANCH   3   5
TORSDOF 5
ENDMDL
MODEL      127
REMARK 921   NORMALIZED FREE ENERGY PREDICTED BY IDOCK:   -3.59 KCAL/MOL
REMARK 922        TOTAL FREE ENERGY PREDICTED BY IDOCK:   -5.15 KCAL/MOL
REMARK 923 INTER-LIGAND FREE ENERGY PREDICTED BY IDOCK:   -4.80 KCAL/MOL
REMARK 924 INTRA-LIGAND FREE ENERGY PREDICTED BY IDOCK:   -0.36 KCAL/MOL
REMARK 927      BINDING AFFINITY PREDICTED BY RF-SCORE:    0.00 PKD
ROOT
HETATM    1  O   UNL     1     -10.276   9.005  71.731  1.00  0.00    -0.328 OA 
HETATM    2  N   UNL     1     -11.277   9.537  71.256  1.00  0.00    -0.358 N  
HETATM    3  O   UNL     1     -11.014  10.206  70.035  1.00  0.00    -0.263 OA 
HETATM    4  O   UNL     1     -12.437   9.559  71.670  1.00  0.00    -0.340 OA 
ENDROOT
BRANCH   3   5
HETATM    5  C   UNL     1     -12.177  10.837  69.496  1.00  0.00    -0.221 C  
BRANCH   5   6
HETATM    6  C   UNL     1     -11.723  11.936  68.518  1.00  0.00    -0.330 C  
BRANCH   6   7
HETATM    7  O   UNL     1     -10.862  11.464  67.468  1.00  0.00    -0.214 OA 
HETATM    8  O   UNL     1     -12.391  12.222  65.989  1.00  0.00    -0.609 OA 
HETATM    9  N   UNL     1     -11.299  11.681  66.141  1.00  0.00    -0.272 N  
HETATM   10  O   UNL     1     -10.495  11.281  65.304  1.00  0.00    -0.270 OA 
ENDBRANCH   6   7
BRANCH   6  11
HETATM   11  C   UNL     1     -11.208  13.197  69.233  1.00  0.00    -0.206 C  
BRANCH  11  12
HETATM   12  O   UNL     1     -12.318  13.860  69.838  1.00  0.00    -0.332 OA 
HETATM   13  N   UNL     1     -12.030  15.210  70.167  1.00  0.00    -0.311 N  
HETATM   14  O   UNL     1     -10.893  15.615  69.922  1.00  0.00    -0.265 OA 
HETATM   15  O   UNL     1     -12.987  15.790  70.674  1.00  0.00    -0.479 OA 
ENDBRANCH  11  12
ENDBRANCH   6  11
ENDBRANCH   5   6
ENDBRANCH   3   5
TORSDOF 5
ENDMDL
MODEL      128
REMARK 921   NORMALIZED FREE ENERGY PREDICTED BY IDOCK:   -3.54 KCAL/MOL
REMARK 922        TOTAL FREE ENERGY PREDICTED BY IDOCK:   -5.09 KCAL/MOL
REMARK 923 INTER-LIGAND FREE ENERGY PREDICTED BY IDOCK:   -4.68 KCAL/MOL
REMARK 924 INTRA-LIGAND FREE ENERGY PREDICTED BY IDOCK:   -0.40 KCAL/MOL
REMARK 927      BINDING AFFINITY PREDICTED BY RF-SCORE:    0.00 PKD
ROOT
HETATM    1  O   UNL     1     -12.343  14.519  69.339  1.00  0.00    -0.276 OA 
HETATM    2  N   UNL     1     -11.310  15.177  69.246  1.00  0.00    -0.281 N  
HETATM    3  O   UNL     1     -11.496  16.393  68.543  1.00  0.00    -0.351 OA 
HETATM    4  O   UNL     1     -10.178  14.944  69.673  1.00  0.00    -0.187 OA 
ENDROOT
BRANCH   3   5
HETATM    5  C   UNL     1     -10.289  17.147  68.423  1.00  0.00    -0.362 C  
BRANCH   5   6
HETATM    6  C   UNL     1      -9.790  17.035  66.970  1.00  0.00    -0.270 C  
BRANCH   6   7
HETATM    7  O   UNL     1      -9.775  15.692  66.459  1.00  0.00    -0.239 OA 
HETATM    8  O   UNL     1     -11.130  16.400  64.796  1.00  0.00    -0.592 OA 
HETATM    9  N   UNL     1     -10.510  15.454  65.275  1.00  0.00    -0.398 N  
HETATM   10  O   UNL     1     -10.420  14.294  64.885  1.00  0.00    -0.407 OA 
ENDBRANCH   6   7
BRANCH   6  11
HETATM   11  C   UNL     1      -8.487  17.815  66.725  1.00  0.00    -0.248 C  
BRANCH  11  12
HETATM   12  O   UNL     1      -7.675  17.722  67.896  1.00  0.00    -0.215 OA 
HETATM   13  N   UNL     1      -7.312  18.994  68.408  1.00  0.00    -0.282 N  
HETATM   14  O   UNL     1      -7.707  19.980  67.786  1.00  0.00    -0.284 OA 
HETATM   15  O   UNL     1      -6.626  18.919  69.424  1.00  0.00    -0.288 OA 
ENDBRANCH  11  12
ENDBRANCH   6  11
ENDBRANCH   5   6
ENDBRANCH   3   5
TORSDOF 5
ENDMDL
MODEL      129
REMARK 921   NORMALIZED FREE ENERGY PREDICTED BY IDOCK:   -3.53 KCAL/MOL
REMARK 922        TOTAL FREE ENERGY PREDICTED BY IDOCK:   -5.08 KCAL/MOL
REMARK 923 INTER-LIGAND FREE ENERGY PREDICTED BY IDOCK:   -5.58 KCAL/MOL
REMARK 924 INTRA-LIGAND FREE ENERGY PREDICTED BY IDOCK:    0.50 KCAL/MOL
REMARK 927      BINDING AFFINITY PREDICTED BY RF-SCORE:    0.00 PKD
ROOT
HETATM    1  O   UNL     1     -10.451  18.776  68.027  1.00  0.00    -0.380 OA 
HETATM    2  N   UNL     1     -10.348  18.249  66.922  1.00  0.00    -0.372 N  
HETATM    3  O   UNL     1     -10.548  16.847  66.962  1.00  0.00    -0.305 OA 
HETATM    4  O   UNL     1     -10.116  18.751  65.821  1.00  0.00    -0.519 OA 
ENDROOT
BRANCH   3   5
HETATM    5  C   UNL     1     -10.410  16.237  65.678  1.00  0.00    -0.363 C  
BRANCH   5   6
HETATM    6  C   UNL     1     -11.343  15.014  65.619  1.00  0.00    -0.297 C  
BRANCH   6   7
HETATM    7  O   UNL     1     -11.596  14.409  66.898  1.00  0.00    -0.357 OA 
HETATM    8  O   UNL     1      -9.547  13.469  66.763  1.00  0.00    -0.251 OA 
HETATM    9  N   UNL     1     -10.563  13.611  67.439  1.00  0.00    -0.258 N  
HETATM   10  O   UNL     1     -10.841  13.159  68.546  1.00  0.00    -0.246 OA 
ENDBRANCH   6   7
BRANCH   6  11
HETATM   11  C   UNL     1     -10.948  14.014  64.518  1.00  0.00    -0.350 C  
BRANCH  11  12
HETATM   12  O   UNL     1     -12.131  13.599  63.837  1.00  0.00    -0.488 OA 
HETATM   13  N   UNL     1     -12.226  12.187  63.726  1.00  0.00    -0.510 N  
HETATM   14  O   UNL     1     -11.298  11.526  64.191  1.00  0.00    -0.342 OA 
HETATM   15  O   UNL     1     -13.250  11.824  63.154  1.00  0.00    -0.538 OA 
ENDBRANCH  11  12
ENDBRANCH   6  11
ENDBRANCH   5   6
ENDBRANCH   3   5
TORSDOF 5
ENDMDL
MODEL      130
REMARK 921   NORMALIZED FREE ENERGY PREDICTED BY IDOCK:   -3.53 KCAL/MOL
REMARK 922        TOTAL FREE ENERGY PREDICTED BY IDOCK:   -5.07 KCAL/MOL
REMARK 923 INTER-LIGAND FREE ENERGY PREDICTED BY IDOCK:   -4.59 KCAL/MOL
REMARK 924 INTRA-LIGAND FREE ENERGY PREDICTED BY IDOCK:   -0.48 KCAL/MOL
REMARK 927      BINDING AFFINITY PREDICTED BY RF-SCORE:    0.00 PKD
ROOT
HETATM    1  O   UNL     1      -7.162   6.739  72.623  1.00  0.00    -0.078 OA 
HETATM    2  N   UNL     1      -8.092   7.430  73.031  1.00  0.00    -0.101 N  
HETATM    3  O   UNL     1      -9.337   6.753  72.988  1.00  0.00    -0.134 OA 
HETATM    4  O   UNL     1      -8.095   8.581  73.468  1.00  0.00    -0.378 OA 
ENDROOT
BRANCH   3   5
HETATM    5  C   UNL     1     -10.418   7.567  73.448  1.00  0.00    -0.348 C  
BRANCH   5   6
HETATM    6  C   UNL     1     -11.329   7.885  72.248  1.00  0.00    -0.337 C  
BRANCH   6   7
HETATM    7  O   UNL     1     -12.316   8.896  72.516  1.00  0.00    -0.349 OA 
HETATM    8  O   UNL     1     -11.396  10.115  70.851  1.00  0.00    -0.332 OA 
HETATM    9  N   UNL     1     -12.282  10.049  71.700  1.00  0.00    -0.392 N  
HETATM   10  O   UNL     1     -13.175  10.848  71.967  1.00  0.00    -0.492 OA 
ENDBRANCH   6   7
BRANCH   6  11
HETATM   11  C   UNL     1     -11.890   6.622  71.573  1.00  0.00    -0.337 C  
BRANCH  11  12
HETATM   12  O   UNL     1     -11.886   6.823  70.160  1.00  0.00    -0.349 OA 
HETATM   13  N   UNL     1     -11.063   5.888  69.481  1.00  0.00    -0.385 N  
HETATM   14  O   UNL     1     -10.459   5.068  70.173  1.00  0.00    -0.267 OA 
HETATM   15  O   UNL     1     -11.067   6.047  68.263  1.00  0.00    -0.309 OA 
ENDBRANCH  11  12
ENDBRANCH   6  11
ENDBRANCH   5   6
ENDBRANCH   3   5
TORSDOF 5
ENDMDL
MODEL      131
REMARK 921   NORMALIZED FREE ENERGY PREDICTED BY IDOCK:   -3.53 KCAL/MOL
REMARK 922        TOTAL FREE ENERGY PREDICTED BY IDOCK:   -5.07 KCAL/MOL
REMARK 923 INTER-LIGAND FREE ENERGY PREDICTED BY IDOCK:   -4.51 KCAL/MOL
REMARK 924 INTRA-LIGAND FREE ENERGY PREDICTED BY IDOCK:   -0.56 KCAL/MOL
REMARK 927      BINDING AFFINITY PREDICTED BY RF-SCORE:    0.00 PKD
ROOT
HETATM    1  O   UNL     1      -9.243   7.648  73.325  1.00  0.00    -0.180 OA 
HETATM    2  N   UNL     1     -10.293   8.035  72.817  1.00  0.00    -0.323 N  
HETATM    3  O   UNL     1     -10.093   9.068  71.868  1.00  0.00    -0.339 OA 
HETATM    4  O   UNL     1     -11.451   7.658  73.000  1.00  0.00    -0.342 OA 
ENDROOT
BRANCH   3   5
HETATM    5  C   UNL     1     -11.318   9.527  71.292  1.00  0.00    -0.376 C  
BRANCH   5   6
HETATM    6  C   UNL     1     -11.003  10.165  69.927  1.00  0.00    -0.293 C  
BRANCH   6   7
HETATM    7  O   UNL     1      -9.602  10.383  69.692  1.00  0.00    -0.200 OA 
HETATM    8  O   UNL     1      -9.839   9.255  67.750  1.00  0.00    -0.158 OA 
HETATM    9  N   UNL     1      -9.072   9.872  68.485  1.00  0.00    -0.123 N  
HETATM   10  O   UNL     1      -7.880  10.128  68.343  1.00  0.00    -0.090 OA 
ENDBRANCH   6   7
BRANCH   6  11
HETATM   11  C   UNL     1     -11.889  11.386  69.620  1.00  0.00    -0.362 C  
BRANCH  11  12
HETATM   12  O   UNL     1     -12.306  11.312  68.257  1.00  0.00    -0.542 OA 
HETATM   13  N   UNL     1     -11.655  12.271  67.438  1.00  0.00    -0.349 N  
HETATM   14  O   UNL     1     -10.863  13.034  67.992  1.00  0.00    -0.229 OA 
HETATM   15  O   UNL     1     -11.999  12.203  66.262  1.00  0.00    -0.605 OA 
ENDBRANCH  11  12
ENDBRANCH   6  11
ENDBRANCH   5   6
ENDBRANCH   3   5
TORSDOF 5
ENDMDL
MODEL      132
REMARK 921   NORMALIZED FREE ENERGY PREDICTED BY IDOCK:   -3.50 KCAL/MOL
REMARK 922        TOTAL FREE ENERGY PREDICTED BY IDOCK:   -5.04 KCAL/MOL
REMARK 923 INTER-LIGAND FREE ENERGY PREDICTED BY IDOCK:   -4.62 KCAL/MOL
REMARK 924 INTRA-LIGAND FREE ENERGY PREDICTED BY IDOCK:   -0.41 KCAL/MOL
REMARK 927      BINDING AFFINITY PREDICTED BY RF-SCORE:    0.00 PKD
ROOT
HETATM    1  O   UNL     1     -12.639  12.696  63.555  1.00  0.00    -0.696 OA 
HETATM    2  N   UNL     1     -12.586  13.080  64.721  1.00  0.00    -0.424 N  
HETATM    3  O   UNL     1     -11.711  12.300  65.515  1.00  0.00    -0.376 OA 
HETATM    4  O   UNL     1     -13.157  14.021  65.274  1.00  0.00    -0.782 OA 
ENDROOT
BRANCH   3   5
HETATM    5  C   UNL     1     -11.666  12.739  66.874  1.00  0.00    -0.380 C  
BRANCH   5   6
HETATM    6  C   UNL     1     -10.599  11.914  67.616  1.00  0.00    -0.211 C  
BRANCH   6   7
HETATM    7  O   UNL     1      -9.386  11.719  66.869  1.00  0.00    -0.183 OA 
HETATM    8  O   UNL     1      -8.314  12.908  68.462  1.00  0.00    -0.137 OA 
HETATM    9  N   UNL     1      -8.207  12.275  67.415  1.00  0.00    -0.169 N  
HETATM   10  O   UNL     1      -7.211  12.037  66.737  1.00  0.00    -0.086 OA 
ENDBRANCH   6   7
BRANCH   6  11
HETATM   11  C   UNL     1     -11.167  10.627  68.239  1.00  0.00    -0.301 C  
BRANCH  11  12
HETATM   12  O   UNL     1     -10.945   9.548  67.331  1.00  0.00    -0.232 OA 
HETATM   13  N   UNL     1     -10.635   8.334  67.996  1.00  0.00    -0.172 N  
HETATM   14  O   UNL     1     -10.572   8.370  69.225  1.00  0.00    -0.223 OA 
HETATM   15  O   UNL     1     -10.458   7.399  67.220  1.00  0.00    -0.253 OA 
ENDBRANCH  11  12
ENDBRANCH   6  11
ENDBRANCH   5   6
ENDBRANCH   3   5
TORSDOF 5
ENDMDL
MODEL      133
REMARK 921   NORMALIZED FREE ENERGY PREDICTED BY IDOCK:   -3.50 KCAL/MOL
REMARK 922        TOTAL FREE ENERGY PREDICTED BY IDOCK:   -5.03 KCAL/MOL
REMARK 923 INTER-LIGAND FREE ENERGY PREDICTED BY IDOCK:   -4.91 KCAL/MOL
REMARK 924 INTRA-LIGAND FREE ENERGY PREDICTED BY IDOCK:   -0.12 KCAL/MOL
REMARK 927      BINDING AFFINITY PREDICTED BY RF-SCORE:    0.00 PKD
ROOT
HETATM    1  O   UNL     1      -8.466   8.191  67.588  1.00  0.00    -0.129 OA 
HETATM    2  N   UNL     1      -9.648   8.521  67.536  1.00  0.00    -0.149 N  
HETATM    3  O   UNL     1      -9.851   9.885  67.859  1.00  0.00    -0.139 OA 
HETATM    4  O   UNL     1     -10.646   7.860  67.241  1.00  0.00    -0.297 OA 
ENDROOT
BRANCH   3   5
HETATM    5  C   UNL     1     -11.229  10.260  67.814  1.00  0.00    -0.190 C  
BRANCH   5   6
HETATM    6  C   UNL     1     -11.416  11.527  68.668  1.00  0.00    -0.293 C  
BRANCH   6   7
HETATM    7  O   UNL     1     -12.399  11.392  69.707  1.00  0.00    -0.259 OA 
HETATM    8  O   UNL     1     -10.880  10.192  70.871  1.00  0.00    -0.290 OA 
HETATM    9  N   UNL     1     -12.010  10.673  70.861  1.00  0.00    -0.356 N  
HETATM   10  O   UNL     1     -12.891  10.631  71.714  1.00  0.00    -0.437 OA 
ENDBRANCH   6   7
BRANCH   6  11
HETATM   11  C   UNL     1     -11.570  12.801  67.819  1.00  0.00    -0.353 C  
BRANCH  11  12
HETATM   12  O   UNL     1     -12.223  12.456  66.598  1.00  0.00    -0.562 OA 
HETATM   13  N   UNL     1     -12.285  13.544  65.689  1.00  0.00    -0.428 N  
HETATM   14  O   UNL     1     -11.808  14.615  66.065  1.00  0.00    -0.352 OA 
HETATM   15  O   UNL     1     -12.833  13.248  64.630  1.00  0.00    -0.679 OA 
ENDBRANCH  11  12
ENDBRANCH   6  11
ENDBRANCH   5   6
ENDBRANCH   3   5
TORSDOF 5
ENDMDL
MODEL      134
REMARK 921   NORMALIZED FREE ENERGY PREDICTED BY IDOCK:   -3.49 KCAL/MOL
REMARK 922        TOTAL FREE ENERGY PREDICTED BY IDOCK:   -5.03 KCAL/MOL
REMARK 923 INTER-LIGAND FREE ENERGY PREDICTED BY IDOCK:   -4.41 KCAL/MOL
REMARK 924 INTRA-LIGAND FREE ENERGY PREDICTED BY IDOCK:   -0.61 KCAL/MOL
REMARK 927      BINDING AFFINITY PREDICTED BY RF-SCORE:    0.00 PKD
ROOT
HETATM    1  O   UNL     1      -9.166  19.286  68.715  1.00  0.00    -0.365 OA 
HETATM    2  N   UNL     1     -10.024  18.540  68.249  1.00  0.00    -0.357 N  
HETATM    3  O   UNL     1     -10.139  17.322  68.965  1.00  0.00    -0.312 OA 
HETATM    4  O   UNL     1     -10.781  18.700  67.290  1.00  0.00    -0.424 OA 
ENDROOT
BRANCH   3   5
HETATM    5  C   UNL     1     -11.126  16.451  68.409  1.00  0.00    -0.351 C  
BRANCH   5   6
HETATM    6  C   UNL     1     -10.411  15.220  67.822  1.00  0.00    -0.253 C  
BRANCH   6   7
HETATM    7  O   UNL     1     -11.149  13.995  67.961  1.00  0.00    -0.250 OA 
HETATM    8  O   UNL     1     -10.883  13.683  65.739  1.00  0.00    -0.270 OA 
HETATM    9  N   UNL     1     -11.335  13.228  66.787  1.00  0.00    -0.314 N  
HETATM   10  O   UNL     1     -11.944  12.183  66.994  1.00  0.00    -0.593 OA 
ENDBRANCH   6   7
BRANCH   6  11
HETATM   11  C   UNL     1      -8.940  15.120  68.259  1.00  0.00    -0.175 C  
BRANCH  11  12
HETATM   12  O   UNL     1      -8.112  15.444  67.143  1.00  0.00    -0.182 OA 
HETATM   13  N   UNL     1      -7.046  16.313  67.491  1.00  0.00    -0.136 N  
HETATM   14  O   UNL     1      -6.988  16.685  68.663  1.00  0.00    -0.154 OA 
HETATM   15  O   UNL     1      -6.322  16.583  66.537  1.00  0.00    -0.278 OA 
ENDBRANCH  11  12
ENDBRANCH   6  11
ENDBRANCH   5   6
ENDBRANCH   3   5
TORSDOF 5
ENDMDL
MODEL      135
REMARK 921   NORMALIZED FREE ENERGY PREDICTED BY IDOCK:   -3.48 KCAL/MOL
REMARK 922        TOTAL FREE ENERGY PREDICTED BY IDOCK:   -5.01 KCAL/MOL
REMARK 923 INTER-LIGAND FREE ENERGY PREDICTED BY IDOCK:   -5.38 KCAL/MOL
REMARK 924 INTRA-LIGAND FREE ENERGY PREDICTED BY IDOCK:    0.36 KCAL/MOL
REMARK 927      BINDING AFFINITY PREDICTED BY RF-SCORE:    0.00 PKD
ROOT
HETATM    1  O   UNL     1     -10.388  17.671  66.909  1.00  0.00    -0.326 OA 
HETATM    2  N   UNL     1      -9.917  16.577  66.607  1.00  0.00    -0.263 N  
HETATM    3  O   UNL     1     -10.683  15.495  67.105  1.00  0.00    -0.306 OA 
HETATM    4  O   UNL     1      -8.917  16.298  65.944  1.00  0.00    -0.398 OA 
ENDROOT
BRANCH   3   5
HETATM    5  C   UNL     1     -10.123  14.225  66.766  1.00  0.00    -0.264 C  
BRANCH   5   6
HETATM    6  C   UNL     1     -11.102  13.126  67.218  1.00  0.00    -0.279 C  
BRANCH   6   7
HETATM    7  O   UNL     1     -10.608  11.790  67.031  1.00  0.00    -0.217 OA 
HETATM    8  O   UNL     1     -12.093  11.113  68.592  1.00  0.00    -0.556 OA 
HETATM    9  N   UNL     1     -11.216  10.773  67.801  1.00  0.00    -0.316 N  
HETATM   10  O   UNL     1     -10.764   9.658  67.560  1.00  0.00    -0.274 OA 
ENDBRANCH   6   7
BRANCH   6  11
HETATM   11  C   UNL     1     -12.531  13.347  66.692  1.00  0.00    -0.153 C  
BRANCH  11  12
HETATM   12  O   UNL     1     -12.468  14.208  65.556  1.00  0.00    -0.457 OA 
HETATM   13  N   UNL     1     -12.636  13.507  64.333  1.00  0.00    -0.235 N  
HETATM   14  O   UNL     1     -12.782  12.287  64.404  1.00  0.00    -0.557 OA 
HETATM   15  O   UNL     1     -12.598  14.246  63.353  1.00  0.00    -0.777 OA 
ENDBRANCH  11  12
ENDBRANCH   6  11
ENDBRANCH   5   6
ENDBRANCH   3   5
TORSDOF 5
ENDMDL
MODEL      136
REMARK 921   NORMALIZED FREE ENERGY PREDICTED BY IDOCK:   -3.48 KCAL/MOL
REMARK 922        TOTAL FREE ENERGY PREDICTED BY IDOCK:   -5.01 KCAL/MOL
REMARK 923 INTER-LIGAND FREE ENERGY PREDICTED BY IDOCK:   -4.63 KCAL/MOL
REMARK 924 INTRA-LIGAND FREE ENERGY PREDICTED BY IDOCK:   -0.39 KCAL/MOL
REMARK 927      BINDING AFFINITY PREDICTED BY RF-SCORE:    0.00 PKD
ROOT
HETATM    1  O   UNL     1     -11.926  13.024  63.349  1.00  0.00    -0.542 OA 
HETATM    2  N   UNL     1     -12.111  13.384  64.509  1.00  0.00    -0.394 N  
HETATM    3  O   UNL     1     -11.485  12.533  65.453  1.00  0.00    -0.316 OA 
HETATM    4  O   UNL     1     -12.731  14.352  64.952  1.00  0.00    -0.614 OA 
ENDROOT
BRANCH   3   5
HETATM    5  C   UNL     1     -11.717  12.946  66.801  1.00  0.00    -0.383 C  
BRANCH   5   6
HETATM    6  C   UNL     1     -10.958  11.989  67.739  1.00  0.00    -0.232 C  
BRANCH   6   7
HETATM    7  O   UNL     1     -11.412  10.627  67.676  1.00  0.00    -0.474 OA 
HETATM    8  O   UNL     1      -9.286  10.032  67.194  1.00  0.00    -0.146 OA 
HETATM    9  N   UNL     1     -10.435   9.644  67.395  1.00  0.00    -0.245 N  
HETATM   10  O   UNL     1     -10.893   8.505  67.392  1.00  0.00    -0.209 OA 
ENDBRANCH   6   7
BRANCH   6  11
HETATM   11  C   UNL     1     -10.821  12.540  69.169  1.00  0.00    -0.084 C  
BRANCH  11  12
HETATM   12  O   UNL     1     -11.225  13.909  69.168  1.00  0.00    -0.253 OA 
HETATM   13  N   UNL     1     -12.395  14.130  69.940  1.00  0.00    -0.346 N  
HETATM   14  O   UNL     1     -12.909  13.145  70.471  1.00  0.00    -0.112 OA 
HETATM   15  O   UNL     1     -12.739  15.309  69.956  1.00  0.00    -0.276 OA 
ENDBRANCH  11  12
ENDBRANCH   6  11
ENDBRANCH   5   6
ENDBRANCH   3   5
TORSDOF 5
ENDMDL
MODEL      137
REMARK 921   NORMALIZED FREE ENERGY PREDICTED BY IDOCK:   -3.48 KCAL/MOL
REMARK 922        TOTAL FREE ENERGY PREDICTED BY IDOCK:   -5.01 KCAL/MOL
REMARK 923 INTER-LIGAND FREE ENERGY PREDICTED BY IDOCK:   -4.55 KCAL/MOL
REMARK 924 INTRA-LIGAND FREE ENERGY PREDICTED BY IDOCK:   -0.46 KCAL/MOL
REMARK 927      BINDING AFFINITY PREDICTED BY RF-SCORE:    0.00 PKD
ROOT
HETATM    1  O   UNL     1     -10.541   8.713  66.793  1.00  0.00    -0.269 OA 
HETATM    2  N   UNL     1     -10.427   9.930  66.677  1.00  0.00    -0.200 N  
HETATM    3  O   UNL     1     -11.528  10.638  67.221  1.00  0.00    -0.412 OA 
HETATM    4  O   UNL     1      -9.519  10.601  66.184  1.00  0.00    -0.169 OA 
ENDROOT
BRANCH   3   5
HETATM    5  C   UNL     1     -11.399  12.052  67.069  1.00  0.00    -0.336 C  
BRANCH   5   6
HETATM    6  C   UNL     1     -11.424  12.695  68.467  1.00  0.00    -0.311 C  
BRANCH   6   7
HETATM    7  O   UNL     1     -10.311  13.565  68.731  1.00  0.00    -0.226 OA 
HETATM    8  O   UNL     1     -11.794  15.251  68.973  1.00  0.00    -0.325 OA 
HETATM    9  N   UNL     1     -10.613  14.918  69.010  1.00  0.00    -0.239 N  
HETATM   10  O   UNL     1      -9.614  15.587  69.258  1.00  0.00    -0.231 OA 
ENDBRANCH   6   7
BRANCH   6  11
HETATM   11  C   UNL     1     -11.705  11.678  69.587  1.00  0.00    -0.350 C  
BRANCH  11  12
HETATM   12  O   UNL     1     -12.264  12.374  70.701  1.00  0.00    -0.368 OA 
HETATM   13  N   UNL     1     -12.964  11.511  71.584  1.00  0.00    -0.437 N  
HETATM   14  O   UNL     1     -13.021  10.321  71.274  1.00  0.00    -0.364 OA 
HETATM   15  O   UNL     1     -13.434  12.102  72.552  1.00  0.00    -0.313 OA 
ENDBRANCH  11  12
ENDBRANCH   6  11
ENDBRANCH   5   6
ENDBRANCH   3   5
TORSDOF 5
ENDMDL
MODEL      138
REMARK 921   NORMALIZED FREE ENERGY PREDICTED BY IDOCK:   -3.47 KCAL/MOL
REMARK 922        TOTAL FREE ENERGY PREDICTED BY IDOCK:   -5.00 KCAL/MOL
REMARK 923 INTER-LIGAND FREE ENERGY PREDICTED BY IDOCK:   -5.30 KCAL/MOL
REMARK 924 INTRA-LIGAND FREE ENERGY PREDICTED BY IDOCK:    0.30 KCAL/MOL
REMARK 927      BINDING AFFINITY PREDICTED BY RF-SCORE:    0.00 PKD
ROOT
HETATM    1  O   UNL     1     -10.519  16.669  69.937  1.00  0.00    -0.230 OA 
HETATM    2  N   UNL     1     -10.993  15.692  70.512  1.00  0.00    -0.334 N  
HETATM    3  O   UNL     1     -11.429  14.686  69.615  1.00  0.00    -0.262 OA 
HETATM    4  O   UNL     1     -11.128  15.466  71.715  1.00  0.00    -0.366 OA 
ENDROOT
BRANCH   3   5
HETATM    5  C   UNL     1     -11.995  13.560  70.287  1.00  0.00    -0.316 C  
BRANCH   5   6
HETATM    6  C   UNL     1     -11.964  12.356  69.328  1.00  0.00    -0.253 C  
BRANCH   6   7
HETATM    7  O   UNL     1     -11.470  11.146  69.925  1.00  0.00    -0.274 OA 
HETATM    8  O   UNL     1     -13.083  11.360  71.491  1.00  0.00    -0.416 OA 
HETATM    9  N   UNL     1     -12.149  10.680  71.074  1.00  0.00    -0.362 N  
HETATM   10  O   UNL     1     -11.689   9.626  71.504  1.00  0.00    -0.371 OA 
ENDBRANCH   6   7
BRANCH   6  11
HETATM   11  C   UNL     1     -11.326  12.692  67.969  1.00  0.00    -0.290 C  
BRANCH  11  12
HETATM   12  O   UNL     1     -12.368  12.875  67.011  1.00  0.00    -0.360 OA 
HETATM   13  N   UNL     1     -11.968  12.517  65.698  1.00  0.00    -0.440 N  
HETATM   14  O   UNL     1     -10.807  12.134  65.552  1.00  0.00    -0.266 OA 
HETATM   15  O   UNL     1     -12.866  12.658  64.872  1.00  0.00    -0.763 OA 
ENDBRANCH  11  12
ENDBRANCH   6  11
ENDBRANCH   5   6
ENDBRANCH   3   5
TORSDOF 5
ENDMDL
MODEL      139
REMARK 921   NORMALIZED FREE ENERGY PREDICTED BY IDOCK:   -3.47 KCAL/MOL
REMARK 922        TOTAL FREE ENERGY PREDICTED BY IDOCK:   -4.99 KCAL/MOL
REMARK 923 INTER-LIGAND FREE ENERGY PREDICTED BY IDOCK:   -4.50 KCAL/MOL
REMARK 924 INTRA-LIGAND FREE ENERGY PREDICTED BY IDOCK:   -0.49 KCAL/MOL
REMARK 927      BINDING AFFINITY PREDICTED BY RF-SCORE:    0.00 PKD
ROOT
HETATM    1  O   UNL     1      -8.321  17.726  68.828  1.00  0.00    -0.286 OA 
HETATM    2  N   UNL     1      -9.327  17.452  68.178  1.00  0.00    -0.269 N  
HETATM    3  O   UNL     1     -10.039  16.349  68.710  1.00  0.00    -0.223 OA 
HETATM    4  O   UNL     1      -9.795  17.989  67.173  1.00  0.00    -0.295 OA 
ENDROOT
BRANCH   3   5
HETATM    5  C   UNL     1     -11.199  16.023  67.942  1.00  0.00    -0.276 C  
BRANCH   5   6
HETATM    6  C   UNL     1     -10.969  14.657  67.271  1.00  0.00    -0.317 C  
BRANCH   6   7
HETATM    7  O   UNL     1     -12.174  14.016  66.822  1.00  0.00    -0.439 OA 
HETATM    8  O   UNL     1     -11.237  13.879  64.772  1.00  0.00    -0.339 OA 
HETATM    9  N   UNL     1     -12.216  13.618  65.466  1.00  0.00    -0.413 N  
HETATM   10  O   UNL     1     -13.262  13.049  65.169  1.00  0.00    -0.703 OA 
ENDBRANCH   6   7
BRANCH   6  11
HETATM   11  C   UNL     1     -10.037  13.742  68.084  1.00  0.00    -0.245 C  
BRANCH  11  12
HETATM   12  O   UNL     1      -9.272  12.951  67.175  1.00  0.00    -0.208 OA 
HETATM   13  N   UNL     1      -9.382  11.561  67.440  1.00  0.00    -0.165 N  
HETATM   14  O   UNL     1     -10.076  11.228  68.402  1.00  0.00    -0.181 OA 
HETATM   15  O   UNL     1      -8.739  10.874  66.652  1.00  0.00    -0.146 OA 
ENDBRANCH  11  12
ENDBRANCH   6  11
ENDBRANCH   5   6
ENDBRANCH   3   5
TORSDOF 5
ENDMDL
MODEL      140
REMARK 921   NORMALIZED FREE ENERGY PREDICTED BY IDOCK:   -3.47 KCAL/MOL
REMARK 922        TOTAL FREE ENERGY PREDICTED BY IDOCK:   -4.99 KCAL/MOL
REMARK 923 INTER-LIGAND FREE ENERGY PREDICTED BY IDOCK:   -4.55 KCAL/MOL
REMARK 924 INTRA-LIGAND FREE ENERGY PREDICTED BY IDOCK:   -0.44 KCAL/MOL
REMARK 927      BINDING AFFINITY PREDICTED BY RF-SCORE:    0.00 PKD
ROOT
HETATM    1  O   UNL     1     -13.477  11.759  63.416  1.00  0.00    -0.430 OA 
HETATM    2  N   UNL     1     -12.653  12.473  63.982  1.00  0.00    -0.408 N  
HETATM    3  O   UNL     1     -12.485  12.138  65.348  1.00  0.00    -0.523 OA 
HETATM    4  O   UNL     1     -11.968  13.397  63.543  1.00  0.00    -0.483 OA 
ENDROOT
BRANCH   3   5
HETATM    5  C   UNL     1     -11.539  12.982  66.006  1.00  0.00    -0.365 C  
BRANCH   5   6
HETATM    6  C   UNL     1     -10.225  12.198  66.177  1.00  0.00    -0.227 C  
BRANCH   6   7
HETATM    7  O   UNL     1     -10.388  10.914  66.803  1.00  0.00    -0.222 OA 
HETATM    8  O   UNL     1      -9.711   9.978  64.862  1.00  0.00    -0.296 OA 
HETATM    9  N   UNL     1     -10.069   9.781  66.020  1.00  0.00    -0.273 N  
HETATM   10  O   UNL     1     -10.201   8.726  66.634  1.00  0.00    -0.277 OA 
ENDBRANCH   6   7
BRANCH   6  11
HETATM   11  C   UNL     1      -9.095  13.051  66.780  1.00  0.00    -0.210 C  
BRANCH  11  12
HETATM   12  O   UNL     1      -9.374  14.425  66.516  1.00  0.00    -0.273 OA 
HETATM   13  N   UNL     1      -9.072  15.263  67.620  1.00  0.00    -0.181 N  
HETATM   14  O   UNL     1      -8.648  14.714  68.638  1.00  0.00    -0.165 OA 
HETATM   15  O   UNL     1      -9.297  16.448  67.393  1.00  0.00    -0.218 OA 
ENDBRANCH  11  12
ENDBRANCH   6  11
ENDBRANCH   5   6
ENDBRANCH   3   5
TORSDOF 5
ENDMDL
MODEL      141
REMARK 921   NORMALIZED FREE ENERGY PREDICTED BY IDOCK:   -3.46 KCAL/MOL
REMARK 922        TOTAL FREE ENERGY PREDICTED BY IDOCK:   -4.98 KCAL/MOL
REMARK 923 INTER-LIGAND FREE ENERGY PREDICTED BY IDOCK:   -4.47 KCAL/MOL
REMARK 924 INTRA-LIGAND FREE ENERGY PREDICTED BY IDOCK:   -0.51 KCAL/MOL
REMARK 927      BINDING AFFINITY PREDICTED BY RF-SCORE:    0.00 PKD
ROOT
HETATM    1  O   UNL     1     -11.983  11.952  70.089  1.00  0.00    -0.330 OA 
HETATM    2  N   UNL     1     -12.002  12.718  69.129  1.00  0.00    -0.277 N  
HETATM    3  O   UNL     1     -12.013  12.039  67.886  1.00  0.00    -0.526 OA 
HETATM    4  O   UNL     1     -12.025  13.949  69.096  1.00  0.00    -0.329 OA 
ENDROOT
BRANCH   3   5
HETATM    5  C   UNL     1     -12.017  12.935  66.773  1.00  0.00    -0.350 C  
BRANCH   5   6
HETATM    6  C   UNL     1     -10.693  12.763  66.006  1.00  0.00    -0.272 C  
BRANCH   6   7
HETATM    7  O   UNL     1      -9.820  13.902  66.085  1.00  0.00    -0.294 OA 
HETATM    8  O   UNL     1      -8.638  12.779  67.649  1.00  0.00    -0.158 OA 
HETATM    9  N   UNL     1      -8.733  13.808  66.983  1.00  0.00    -0.221 N  
HETATM   10  O   UNL     1      -8.016  14.804  66.968  1.00  0.00    -0.200 OA 
ENDBRANCH   6   7
BRANCH   6  11
HETATM   11  C   UNL     1     -10.896  12.224  64.579  1.00  0.00    -0.315 C  
BRANCH  11  12
HETATM   12  O   UNL     1     -10.377  10.896  64.518  1.00  0.00    -0.325 OA 
HETATM   13  N   UNL     1      -9.472  10.716  63.440  1.00  0.00    -0.288 N  
HETATM   14  O   UNL     1      -9.277  11.685  62.706  1.00  0.00    -0.346 OA 
HETATM   15  O   UNL     1      -9.011   9.579  63.392  1.00  0.00    -0.235 OA 
ENDBRANCH  11  12
ENDBRANCH   6  11
ENDBRANCH   5   6
ENDBRANCH   3   5
TORSDOF 5
ENDMDL
MODEL      142
REMARK 921   NORMALIZED FREE ENERGY PREDICTED BY IDOCK:   -3.43 KCAL/MOL
REMARK 922        TOTAL FREE ENERGY PREDICTED BY IDOCK:   -4.94 KCAL/MOL
REMARK 923 INTER-LIGAND FREE ENERGY PREDICTED BY IDOCK:   -4.60 KCAL/MOL
REMARK 924 INTRA-LIGAND FREE ENERGY PREDICTED BY IDOCK:   -0.34 KCAL/MOL
REMARK 927      BINDING AFFINITY PREDICTED BY RF-SCORE:    0.00 PKD
ROOT
HETATM    1  O   UNL     1     -11.425  14.287  69.633  1.00  0.00    -0.263 OA 
HETATM    2  N   UNL     1     -11.796  14.241  68.463  1.00  0.00    -0.346 N  
HETATM    3  O   UNL     1     -11.506  12.999  67.845  1.00  0.00    -0.272 OA 
HETATM    4  O   UNL     1     -12.376  15.085  67.779  1.00  0.00     0.042 OA 
ENDROOT
BRANCH   3   5
HETATM    5  C   UNL     1     -11.925  12.956  66.479  1.00  0.00    -0.377 C  
BRANCH   5   6
HETATM    6  C   UNL     1     -10.702  12.615  65.608  1.00  0.00    -0.269 C  
BRANCH   6   7
HETATM    7  O   UNL     1      -9.703  11.833  66.283  1.00  0.00    -0.210 OA 
HETATM    8  O   UNL     1      -9.211  10.896  64.287  1.00  0.00    -0.207 OA 
HETATM    9  N   UNL     1      -8.940  10.951  65.484  1.00  0.00    -0.196 N  
HETATM   10  O   UNL     1      -8.087  10.345  66.126  1.00  0.00    -0.128 OA 
ENDBRANCH   6   7
BRANCH   6  11
HETATM   11  C   UNL     1     -10.143  13.838  64.859  1.00  0.00    -0.267 C  
BRANCH  11  12
HETATM   12  O   UNL     1     -11.238  14.585  64.330  1.00  0.00    -0.309 OA 
HETATM   13  N   UNL     1     -11.072  15.984  64.498  1.00  0.00    -0.386 N  
HETATM   14  O   UNL     1     -10.055  16.360  65.081  1.00  0.00    -0.529 OA 
HETATM   15  O   UNL     1     -12.004  16.633  64.031  1.00  0.00    -0.885 OA 
ENDBRANCH  11  12
ENDBRANCH   6  11
ENDBRANCH   5   6
ENDBRANCH   3   5
TORSDOF 5
ENDMDL
MODEL      143
REMARK 921   NORMALIZED FREE ENERGY PREDICTED BY IDOCK:   -3.42 KCAL/MOL
REMARK 922        TOTAL FREE ENERGY PREDICTED BY IDOCK:   -4.93 KCAL/MOL
REMARK 923 INTER-LIGAND FREE ENERGY PREDICTED BY IDOCK:   -4.60 KCAL/MOL
REMARK 924 INTRA-LIGAND FREE ENERGY PREDICTED BY IDOCK:   -0.33 KCAL/MOL
REMARK 927      BINDING AFFINITY PREDICTED BY RF-SCORE:    0.00 PKD
ROOT
HETATM    1  O   UNL     1     -10.318  18.350  66.942  1.00  0.00    -0.356 OA 
HETATM    2  N   UNL     1     -10.660  17.756  65.923  1.00  0.00    -0.300 N  
HETATM    3  O   UNL     1     -10.608  16.347  66.066  1.00  0.00    -0.319 OA 
HETATM    4  O   UNL     1     -11.041  18.195  64.837  1.00  0.00    -0.673 OA 
ENDROOT
BRANCH   3   5
HETATM    5  C   UNL     1     -10.990  15.661  64.873  1.00  0.00    -0.431 C  
BRANCH   5   6
HETATM    6  C   UNL     1     -10.994  14.149  65.162  1.00  0.00    -0.356 C  
BRANCH   6   7
HETATM    7  O   UNL     1     -11.220  13.819  66.543  1.00  0.00    -0.303 OA 
HETATM    8  O   UNL     1     -12.480  12.083  65.834  1.00  0.00    -0.337 OA 
HETATM    9  N   UNL     1     -12.016  12.680  66.803  1.00  0.00    -0.359 N  
HETATM   10  O   UNL     1     -12.134  12.445  68.002  1.00  0.00    -0.398 OA 
ENDBRANCH   6   7
BRANCH   6  11
HETATM   11  C   UNL     1      -9.798  13.416  64.529  1.00  0.00     0.143 C  
BRANCH  11  12
HETATM   12  O   UNL     1     -10.292  12.521  63.533  1.00  0.00    -0.407 OA 
HETATM   13  N   UNL     1      -9.823  11.194  63.717  1.00  0.00    -0.297 N  
HETATM   14  O   UNL     1      -9.058  10.997  64.661  1.00  0.00    -0.189 OA 
HETATM   15  O   UNL     1     -10.257  10.416  62.871  1.00  0.00    -0.016 OA 
ENDBRANCH  11  12
ENDBRANCH   6  11
ENDBRANCH   5   6
ENDBRANCH   3   5
TORSDOF 5
ENDMDL
MODEL      144
REMARK 921   NORMALIZED FREE ENERGY PREDICTED BY IDOCK:   -3.41 KCAL/MOL
REMARK 922        TOTAL FREE ENERGY PREDICTED BY IDOCK:   -4.92 KCAL/MOL
REMARK 923 INTER-LIGAND FREE ENERGY PREDICTED BY IDOCK:   -4.55 KCAL/MOL
REMARK 924 INTRA-LIGAND FREE ENERGY PREDICTED BY IDOCK:   -0.36 KCAL/MOL
REMARK 927      BINDING AFFINITY PREDICTED BY RF-SCORE:    0.00 PKD
ROOT
HETATM    1  O   UNL     1     -13.306  13.713  71.598  1.00  0.00    -0.355 OA 
HETATM    2  N   UNL     1     -12.692  14.731  71.291  1.00  0.00    -0.313 N  
HETATM    3  O   UNL     1     -11.880  14.555  70.143  1.00  0.00    -0.274 OA 
HETATM    4  O   UNL     1     -12.692  15.848  71.811  1.00  0.00    -0.447 OA 
ENDROOT
BRANCH   3   5
HETATM    5  C   UNL     1     -11.154  15.737  69.799  1.00  0.00    -0.322 C  
BRANCH   5   6
HETATM    6  C   UNL     1      -9.862  15.319  69.073  1.00  0.00    -0.230 C  
BRANCH   6   7
HETATM    7  O   UNL     1      -8.768  16.233  69.254  1.00  0.00    -0.236 OA 
HETATM    8  O   UNL     1      -7.421  14.438  69.509  1.00  0.00    -0.083 OA 
HETATM    9  N   UNL     1      -7.492  15.664  69.464  1.00  0.00    -0.213 N  
HETATM   10  O   UNL     1      -6.607  16.507  69.575  1.00  0.00    -0.216 OA 
ENDBRANCH   6   7
BRANCH   6  11
HETATM   11  C   UNL     1     -10.105  14.912  67.609  1.00  0.00    -0.227 C  
BRANCH  11  12
HETATM   12  O   UNL     1     -10.415  13.519  67.571  1.00  0.00    -0.235 OA 
HETATM   13  N   UNL     1     -11.651  13.255  66.927  1.00  0.00    -0.345 N  
HETATM   14  O   UNL     1     -12.289  14.227  66.522  1.00  0.00    -0.445 OA 
HETATM   15  O   UNL     1     -11.915  12.057  66.878  1.00  0.00    -0.612 OA 
ENDBRANCH  11  12
ENDBRANCH   6  11
ENDBRANCH   5   6
ENDBRANCH   3   5
TORSDOF 5
ENDMDL
MODEL      145
REMARK 921   NORMALIZED FREE ENERGY PREDICTED BY IDOCK:   -3.41 KCAL/MOL
REMARK 922        TOTAL FREE ENERGY PREDICTED BY IDOCK:   -4.91 KCAL/MOL
REMARK 923 INTER-LIGAND FREE ENERGY PREDICTED BY IDOCK:   -4.60 KCAL/MOL
REMARK 924 INTRA-LIGAND FREE ENERGY PREDICTED BY IDOCK:   -0.32 KCAL/MOL
REMARK 927      BINDING AFFINITY PREDICTED BY RF-SCORE:    0.00 PKD
ROOT
HETATM    1  O   UNL     1     -12.916  14.493  70.620  1.00  0.00    -0.354 OA 
HETATM    2  N   UNL     1     -12.385  14.518  69.513  1.00  0.00    -0.258 N  
HETATM    3  O   UNL     1     -11.915  15.806  69.158  1.00  0.00    -0.387 OA 
HETATM    4  O   UNL     1     -12.199  13.610  68.700  1.00  0.00    -0.339 OA 
ENDROOT
BRANCH   3   5
HETATM    5  C   UNL     1     -11.314  15.833  67.863  1.00  0.00    -0.277 C  
BRANCH   5   6
HETATM    6  C   UNL     1      -9.945  16.528  67.977  1.00  0.00    -0.245 C  
BRANCH   6   7
HETATM    7  O   UNL     1      -9.019  15.856  68.847  1.00  0.00    -0.198 OA 
HETATM    8  O   UNL     1      -7.666  15.585  67.058  1.00  0.00    -0.210 OA 
HETATM    9  N   UNL     1      -7.814  15.401  68.264  1.00  0.00    -0.120 N  
HETATM   10  O   UNL     1      -7.063  14.869  69.077  1.00  0.00    -0.111 OA 
ENDBRANCH   6   7
BRANCH   6  11
HETATM   11  C   UNL     1     -10.063  18.040  68.233  1.00  0.00    -0.385 C  
BRANCH  11  12
HETATM   12  O   UNL     1     -10.948  18.597  67.262  1.00  0.00    -0.387 OA 
HETATM   13  N   UNL     1     -10.270  19.031  66.094  1.00  0.00    -0.433 N  
HETATM   14  O   UNL     1      -9.046  18.901  66.078  1.00  0.00    -0.470 OA 
HETATM   15  O   UNL     1     -11.029  19.497  65.249  1.00  0.00    -0.426 OA 
ENDBRANCH  11  12
ENDBRANCH   6  11
ENDBRANCH   5   6
ENDBRANCH   3   5
TORSDOF 5
ENDMDL
MODEL      146
REMARK 921   NORMALIZED FREE ENERGY PREDICTED BY IDOCK:   -3.41 KCAL/MOL
REMARK 922        TOTAL FREE ENERGY PREDICTED BY IDOCK:   -4.91 KCAL/MOL
REMARK 923 INTER-LIGAND FREE ENERGY PREDICTED BY IDOCK:   -4.54 KCAL/MOL
REMARK 924 INTRA-LIGAND FREE ENERGY PREDICTED BY IDOCK:   -0.37 KCAL/MOL
REMARK 927      BINDING AFFINITY PREDICTED BY RF-SCORE:    0.00 PKD
ROOT
HETATM    1  O   UNL     1      -8.736   8.089  69.699  1.00  0.00    -0.131 OA 
HETATM    2  N   UNL     1      -9.768   8.328  69.079  1.00  0.00    -0.164 N  
HETATM    3  O   UNL     1      -9.814   9.654  68.581  1.00  0.00    -0.154 OA 
HETATM    4  O   UNL     1     -10.730   7.601  68.827  1.00  0.00    -0.177 OA 
ENDROOT
BRANCH   3   5
HETATM    5  C   UNL     1     -11.024   9.932  67.875  1.00  0.00    -0.223 C  
BRANCH   5   6
HETATM    6  C   UNL     1     -11.034  11.425  67.497  1.00  0.00    -0.260 C  
BRANCH   6   7
HETATM    7  O   UNL     1     -12.041  12.193  68.177  1.00  0.00    -0.447 OA 
HETATM    8  O   UNL     1     -10.393  13.565  68.888  1.00  0.00    -0.198 OA 
HETATM    9  N   UNL     1     -11.600  13.336  68.882  1.00  0.00    -0.292 N  
HETATM   10  O   UNL     1     -12.521  13.957  69.405  1.00  0.00    -0.273 OA 
ENDBRANCH   6   7
BRANCH   6  11
HETATM   11  C   UNL     1     -10.986  11.656  65.977  1.00  0.00    -0.286 C  
BRANCH  11  12
HETATM   12  O   UNL     1     -12.103  12.464  65.606  1.00  0.00    -0.529 OA 
HETATM   13  N   UNL     1     -11.822  13.303  64.497  1.00  0.00    -0.368 N  
HETATM   14  O   UNL     1     -10.685  13.248  64.029  1.00  0.00    -0.377 OA 
HETATM   15  O   UNL     1     -12.784  13.989  64.164  1.00  0.00    -0.662 OA 
ENDBRANCH  11  12
ENDBRANCH   6  11
ENDBRANCH   5   6
ENDBRANCH   3   5
TORSDOF 5
ENDMDL
MODEL      147
REMARK 921   NORMALIZED FREE ENERGY PREDICTED BY IDOCK:   -3.38 KCAL/MOL
REMARK 922        TOTAL FREE ENERGY PREDICTED BY IDOCK:   -4.87 KCAL/MOL
REMARK 923 INTER-LIGAND FREE ENERGY PREDICTED BY IDOCK:   -4.47 KCAL/MOL
REMARK 924 INTRA-LIGAND FREE ENERGY PREDICTED BY IDOCK:   -0.41 KCAL/MOL
REMARK 927      BINDING AFFINITY PREDICTED BY RF-SCORE:    0.00 PKD
ROOT
HETATM    1  O   UNL     1      -7.152   9.368  68.702  1.00  0.00    -0.068 OA 
HETATM    2  N   UNL     1      -7.558   9.825  67.637  1.00  0.00    -0.091 N  
HETATM    3  O   UNL     1      -8.750  10.578  67.784  1.00  0.00    -0.122 OA 
HETATM    4  O   UNL     1      -7.087   9.738  66.503  1.00  0.00    -0.087 OA 
ENDROOT
BRANCH   3   5
HETATM    5  C   UNL     1      -9.228  11.094  66.540  1.00  0.00    -0.179 C  
BRANCH   5   6
HETATM    6  C   UNL     1     -10.692  11.531  66.727  1.00  0.00    -0.270 C  
BRANCH   6   7
HETATM    7  O   UNL     1     -11.450  10.679  67.603  1.00  0.00    -0.474 OA 
HETATM    8  O   UNL     1     -11.761  12.473  68.939  1.00  0.00    -0.287 OA 
HETATM    9  N   UNL     1     -11.999  11.282  68.757  1.00  0.00    -0.327 N  
HETATM   10  O   UNL     1     -12.659  10.499  69.435  1.00  0.00    -0.212 OA 
ENDBRANCH   6   7
BRANCH   6  11
HETATM   11  C   UNL     1     -11.395  11.846  65.395  1.00  0.00    -0.277 C  
BRANCH  11  12
HETATM   12  O   UNL     1     -11.727  13.234  65.376  1.00  0.00    -0.320 OA 
HETATM   13  N   UNL     1     -12.414  13.612  64.193  1.00  0.00    -0.294 N  
HETATM   14  O   UNL     1     -12.605  12.732  63.353  1.00  0.00    -0.701 OA 
HETATM   15  O   UNL     1     -12.715  14.802  64.177  1.00  0.00    -0.758 OA 
ENDBRANCH  11  12
ENDBRANCH   6  11
ENDBRANCH   5   6
ENDBRANCH   3   5
TORSDOF 5
ENDMDL
MODEL      148
REMARK 921   NORMALIZED FREE ENERGY PREDICTED BY IDOCK:   -3.37 KCAL/MOL
REMARK 922        TOTAL FREE ENERGY PREDICTED BY IDOCK:   -4.87 KCAL/MOL
REMARK 923 INTER-LIGAND FREE ENERGY PREDICTED BY IDOCK:   -4.47 KCAL/MOL
REMARK 924 INTRA-LIGAND FREE ENERGY PREDICTED BY IDOCK:   -0.40 KCAL/MOL
REMARK 927      BINDING AFFINITY PREDICTED BY RF-SCORE:    0.00 PKD
ROOT
HETATM    1  O   UNL     1      -9.942   7.874  67.992  1.00  0.00    -0.163 OA 
HETATM    2  N   UNL     1     -10.633   7.192  68.744  1.00  0.00    -0.208 N  
HETATM    3  O   UNL     1     -10.772   7.766  70.032  1.00  0.00    -0.239 OA 
HETATM    4  O   UNL     1     -11.214   6.125  68.541  1.00  0.00    -0.341 OA 
ENDROOT
BRANCH   3   5
HETATM    5  C   UNL     1     -11.563   6.961  70.908  1.00  0.00    -0.337 C  
BRANCH   5   6
HETATM    6  C   UNL     1     -11.787   7.744  72.215  1.00  0.00    -0.329 C  
BRANCH   6   7
HETATM    7  O   UNL     1     -11.890   9.166  72.035  1.00  0.00    -0.365 OA 
HETATM    8  O   UNL     1     -14.125   8.949  72.275  1.00  0.00    -0.449 OA 
HETATM    9  N   UNL     1     -13.187   9.723  72.102  1.00  0.00    -0.448 N  
HETATM   10  O   UNL     1     -13.188  10.944  71.973  1.00  0.00    -0.492 OA 
ENDBRANCH   6   7
BRANCH   6  11
HETATM   11  C   UNL     1     -10.823   7.321  73.337  1.00  0.00    -0.324 C  
BRANCH  11  12
HETATM   12  O   UNL     1      -9.945   6.318  72.826  1.00  0.00    -0.170 OA 
HETATM   13  N   UNL     1     -10.085   5.078  73.501  1.00  0.00    -0.157 N  
HETATM   14  O   UNL     1     -10.898   5.034  74.425  1.00  0.00    -0.340 OA 
HETATM   15  O   UNL     1      -9.343   4.208  73.056  1.00  0.00    -0.110 OA 
ENDBRANCH  11  12
ENDBRANCH   6  11
ENDBRANCH   5   6
ENDBRANCH   3   5
TORSDOF 5
ENDMDL
MODEL      149
REMARK 921   NORMALIZED FREE ENERGY PREDICTED BY IDOCK:   -3.36 KCAL/MOL
REMARK 922        TOTAL FREE ENERGY PREDICTED BY IDOCK:   -4.86 KCAL/MOL
REMARK 923 INTER-LIGAND FREE ENERGY PREDICTED BY IDOCK:   -4.61 KCAL/MOL
REMARK 924 INTRA-LIGAND FREE ENERGY PREDICTED BY IDOCK:   -0.25 KCAL/MOL
REMARK 927      BINDING AFFINITY PREDICTED BY RF-SCORE:    0.00 PKD
ROOT
HETATM    1  O   UNL     1      -7.784   8.041  68.149  1.00  0.00    -0.112 OA 
HETATM    2  N   UNL     1      -8.870   8.329  67.652  1.00  0.00    -0.136 N  
HETATM    3  O   UNL     1      -9.592   9.274  68.421  1.00  0.00    -0.145 OA 
HETATM    4  O   UNL     1      -9.396   7.935  66.610  1.00  0.00    -0.170 OA 
ENDROOT
BRANCH   3   5
HETATM    5  C   UNL     1     -10.861   9.592  67.848  1.00  0.00    -0.215 C  
BRANCH   5   6
HETATM    6  C   UNL     1     -11.419  10.837  68.562  1.00  0.00    -0.292 C  
BRANCH   6   7
HETATM    7  O   UNL     1     -10.734  12.057  68.231  1.00  0.00    -0.207 OA 
HETATM    8  O   UNL     1     -12.147  12.275  66.482  1.00  0.00    -0.616 OA 
HETATM    9  N   UNL     1     -11.212  12.768  67.107  1.00  0.00    -0.278 N  
HETATM   10  O   UNL     1     -10.599  13.813  66.910  1.00  0.00    -0.273 OA 
ENDBRANCH   6   7
BRANCH   6  11
HETATM   11  C   UNL     1     -11.618  10.618  70.072  1.00  0.00    -0.325 C  
BRANCH  11  12
HETATM   12  O   UNL     1     -12.181  11.805  70.631  1.00  0.00    -0.371 OA 
HETATM   13  N   UNL     1     -13.042  11.534  71.726  1.00  0.00    -0.459 N  
HETATM   14  O   UNL     1     -13.208  10.351  72.027  1.00  0.00    -0.456 OA 
HETATM   15  O   UNL     1     -13.518  12.552  72.220  1.00  0.00    -0.556 OA 
ENDBRANCH  11  12
ENDBRANCH   6  11
ENDBRANCH   5   6
ENDBRANCH   3   5
TORSDOF 5
ENDMDL
MODEL      150
REMARK 921   NORMALIZED FREE ENERGY PREDICTED BY IDOCK:   -3.35 KCAL/MOL
REMARK 922        TOTAL FREE ENERGY PREDICTED BY IDOCK:   -4.84 KCAL/MOL
REMARK 923 INTER-LIGAND FREE ENERGY PREDICTED BY IDOCK:   -4.28 KCAL/MOL
REMARK 924 INTRA-LIGAND FREE ENERGY PREDICTED BY IDOCK:   -0.56 KCAL/MOL
REMARK 927      BINDING AFFINITY PREDICTED BY RF-SCORE:    0.00 PKD
ROOT
HETATM    1  O   UNL     1      -9.584   5.655  70.681  1.00  0.00    -0.160 OA 
HETATM    2  N   UNL     1     -10.360   6.356  70.038  1.00  0.00    -0.189 N  
HETATM    3  O   UNL     1      -9.712   7.429  69.378  1.00  0.00    -0.158 OA 
HETATM    4  O   UNL     1     -11.578   6.255  69.880  1.00  0.00    -0.435 OA 
ENDROOT
BRANCH   3   5
HETATM    5  C   UNL     1     -10.621   8.251  68.645  1.00  0.00    -0.108 C  
BRANCH   5   6
HETATM    6  C   UNL     1     -10.664   9.639  69.309  1.00  0.00    -0.226 C  
BRANCH   6   7
HETATM    7  O   UNL     1     -11.864   9.892  70.059  1.00  0.00    -0.183 OA 
HETATM    8  O   UNL     1     -10.763   9.180  71.898  1.00  0.00    -0.357 OA 
HETATM    9  N   UNL     1     -11.812   9.631  71.448  1.00  0.00    -0.379 N  
HETATM   10  O   UNL     1     -12.863   9.904  72.022  1.00  0.00    -0.402 OA 
ENDBRANCH   6   7
BRANCH   6  11
HETATM   11  C   UNL     1     -10.275  10.774  68.345  1.00  0.00    -0.175 C  
BRANCH  11  12
HETATM   12  O   UNL     1     -10.719  12.012  68.901  1.00  0.00    -0.219 OA 
HETATM   13  N   UNL     1     -11.684  12.658  68.085  1.00  0.00    -0.335 N  
HETATM   14  O   UNL     1     -11.985  12.102  67.028  1.00  0.00    -0.593 OA 
HETATM   15  O   UNL     1     -12.080  13.716  68.565  1.00  0.00    -0.364 OA 
ENDBRANCH  11  12
ENDBRANCH   6  11
ENDBRANCH   5   6
ENDBRANCH   3   5
TORSDOF 5
ENDMDL
MODEL      151
REMARK 921   NORMALIZED FREE ENERGY PREDICTED BY IDOCK:   -3.35 KCAL/MOL
REMARK 922        TOTAL FREE ENERGY PREDICTED BY IDOCK:   -4.84 KCAL/MOL
REMARK 923 INTER-LIGAND FREE ENERGY PREDICTED BY IDOCK:   -4.43 KCAL/MOL
REMARK 924 INTRA-LIGAND FREE ENERGY PREDICTED BY IDOCK:   -0.41 KCAL/MOL
REMARK 927      BINDING AFFINITY PREDICTED BY RF-SCORE:    0.00 PKD
ROOT
HETATM    1  O   UNL     1     -11.059  14.172  70.076  1.00  0.00    -0.126 OA 
HETATM    2  N   UNL     1     -11.477  13.291  69.330  1.00  0.00    -0.283 N  
HETATM    3  O   UNL     1     -11.611  13.726  67.988  1.00  0.00    -0.293 OA 
HETATM    4  O   UNL     1     -11.775  12.120  69.571  1.00  0.00    -0.300 OA 
ENDROOT
BRANCH   3   5
HETATM    5  C   UNL     1     -12.114  12.703  67.128  1.00  0.00    -0.122 C  
BRANCH   5   6
HETATM    6  C   UNL     1     -11.682  13.026  65.686  1.00  0.00    -0.375 C  
BRANCH   6   7
HETATM    7  O   UNL     1     -12.566  13.928  64.999  1.00  0.00    -0.563 OA 
HETATM    8  O   UNL     1     -10.809  15.325  64.751  1.00  0.00    -0.411 OA 
HETATM    9  N   UNL     1     -11.999  15.130  64.517  1.00  0.00    -0.384 N  
HETATM   10  O   UNL     1     -12.808  15.829  63.915  1.00  0.00    -0.589 OA 
ENDBRANCH   6   7
BRANCH   6  11
HETATM   11  C   UNL     1     -11.315  11.769  64.877  1.00  0.00    -0.236 C  
BRANCH  11  12
HETATM   12  O   UNL     1     -10.543  10.904  65.709  1.00  0.00    -0.232 OA 
HETATM   13  N   UNL     1      -9.336  10.488  65.090  1.00  0.00    -0.198 N  
HETATM   14  O   UNL     1      -9.128  10.891  63.945  1.00  0.00    -0.187 OA 
HETATM   15  O   UNL     1      -8.662   9.755  65.808  1.00  0.00    -0.133 OA 
ENDBRANCH  11  12
ENDBRANCH   6  11
ENDBRANCH   5   6
ENDBRANCH   3   5
TORSDOF 5
ENDMDL
MODEL      152
REMARK 921   NORMALIZED FREE ENERGY PREDICTED BY IDOCK:   -3.34 KCAL/MOL
REMARK 922        TOTAL FREE ENERGY PREDICTED BY IDOCK:   -4.83 KCAL/MOL
REMARK 923 INTER-LIGAND FREE ENERGY PREDICTED BY IDOCK:   -4.39 KCAL/MOL
REMARK 924 INTRA-LIGAND FREE ENERGY PREDICTED BY IDOCK:   -0.44 KCAL/MOL
REMARK 927      BINDING AFFINITY PREDICTED BY RF-SCORE:    0.00 PKD
ROOT
HETATM    1  O   UNL     1      -9.444   6.116  74.560  1.00  0.00    -0.166 OA 
HETATM    2  N   UNL     1     -10.411   6.238  73.813  1.00  0.00    -0.283 N  
HETATM    3  O   UNL     1     -10.549   7.554  73.305  1.00  0.00    -0.356 OA 
HETATM    4  O   UNL     1     -11.242   5.406  73.446  1.00  0.00    -0.294 OA 
ENDROOT
BRANCH   3   5
HETATM    5  C   UNL     1     -11.685   7.695  72.451  1.00  0.00    -0.317 C  
BRANCH   5   6
HETATM    6  C   UNL     1     -11.193   8.118  71.055  1.00  0.00    -0.258 C  
BRANCH   6   7
HETATM    7  O   UNL     1     -10.040   7.392  70.596  1.00  0.00    -0.190 OA 
HETATM    8  O   UNL     1     -11.441   6.109  69.373  1.00  0.00    -0.423 OA 
HETATM    9  N   UNL     1     -10.274   6.341  69.680  1.00  0.00    -0.176 N  
HETATM   10  O   UNL     1      -9.239   5.793  69.311  1.00  0.00    -0.117 OA 
ENDBRANCH   6   7
BRANCH   6  11
HETATM   11  C   UNL     1     -11.077   9.644  70.900  1.00  0.00    -0.352 C  
BRANCH  11  12
HETATM   12  O   UNL     1     -11.197   9.970  69.515  1.00  0.00    -0.234 OA 
HETATM   13  N   UNL     1     -11.859  11.206  69.303  1.00  0.00    -0.327 N  
HETATM   14  O   UNL     1     -12.255  11.806  70.303  1.00  0.00    -0.324 OA 
HETATM   15  O   UNL     1     -11.952  11.498  68.115  1.00  0.00    -0.571 OA 
ENDBRANCH  11  12
ENDBRANCH   6  11
ENDBRANCH   5   6
ENDBRANCH   3   5
TORSDOF 5
ENDMDL
MODEL      153
REMARK 921   NORMALIZED FREE ENERGY PREDICTED BY IDOCK:   -3.33 KCAL/MOL
REMARK 922        TOTAL FREE ENERGY PREDICTED BY IDOCK:   -4.82 KCAL/MOL
REMARK 923 INTER-LIGAND FREE ENERGY PREDICTED BY IDOCK:   -4.38 KCAL/MOL
REMARK 924 INTRA-LIGAND FREE ENERGY PREDICTED BY IDOCK:   -0.44 KCAL/MOL
REMARK 927      BINDING AFFINITY PREDICTED BY RF-SCORE:    0.00 PKD
ROOT
HETATM    1  O   UNL     1     -10.798   6.257  66.743  1.00  0.00    -0.326 OA 
HETATM    2  N   UNL     1     -10.298   7.378  66.786  1.00  0.00    -0.276 N  
HETATM    3  O   UNL     1     -10.948   8.233  67.711  1.00  0.00    -0.057 OA 
HETATM    4  O   UNL     1      -9.339   7.845  66.170  1.00  0.00    -0.183 OA 
ENDROOT
BRANCH   3   5
HETATM    5  C   UNL     1     -10.375   9.541  67.744  1.00  0.00    -0.239 C  
BRANCH   5   6
HETATM    6  C   UNL     1     -10.768  10.209  69.074  1.00  0.00    -0.221 C  
BRANCH   6   7
HETATM    7  O   UNL     1     -11.293   9.297  70.054  1.00  0.00    -0.214 OA 
HETATM    8  O   UNL     1      -9.320   9.463  71.141  1.00  0.00    -0.224 OA 
HETATM    9  N   UNL     1     -10.445   8.971  71.138  1.00  0.00    -0.265 N  
HETATM   10  O   UNL     1     -10.977   8.216  71.946  1.00  0.00    -0.244 OA 
ENDBRANCH   6   7
BRANCH   6  11
HETATM   11  C   UNL     1     -11.617  11.476  68.877  1.00  0.00    -0.320 C  
BRANCH  11  12
HETATM   12  O   UNL     1     -12.035  11.535  67.514  1.00  0.00    -0.629 OA 
HETATM   13  N   UNL     1     -12.135  12.866  67.033  1.00  0.00    -0.312 N  
HETATM   14  O   UNL     1     -11.884  13.769  67.831  1.00  0.00    -0.345 OA 
HETATM   15  O   UNL     1     -12.479  12.921  65.856  1.00  0.00    -0.527 OA 
ENDBRANCH  11  12
ENDBRANCH   6  11
ENDBRANCH   5   6
ENDBRANCH   3   5
TORSDOF 5
ENDMDL
MODEL      154
REMARK 921   NORMALIZED FREE ENERGY PREDICTED BY IDOCK:   -3.33 KCAL/MOL
REMARK 922        TOTAL FREE ENERGY PREDICTED BY IDOCK:   -4.81 KCAL/MOL
REMARK 923 INTER-LIGAND FREE ENERGY PREDICTED BY IDOCK:   -4.38 KCAL/MOL
REMARK 924 INTRA-LIGAND FREE ENERGY PREDICTED BY IDOCK:   -0.43 KCAL/MOL
REMARK 927      BINDING AFFINITY PREDICTED BY RF-SCORE:    0.00 PKD
ROOT
HETATM    1  O   UNL     1     -11.435   6.420  69.829  1.00  0.00    -0.412 OA 
HETATM    2  N   UNL     1     -11.048   7.563  70.059  1.00  0.00    -0.240 N  
HETATM    3  O   UNL     1     -10.773   8.297  68.879  1.00  0.00    -0.175 OA 
HETATM    4  O   UNL     1     -10.883   8.145  71.133  1.00  0.00    -0.225 OA 
ENDROOT
BRANCH   3   5
HETATM    5  C   UNL     1     -10.307   9.620  69.153  1.00  0.00    -0.207 C  
BRANCH   5   6
HETATM    6  C   UNL     1     -10.510  10.477  67.890  1.00  0.00    -0.210 C  
BRANCH   6   7
HETATM    7  O   UNL     1      -9.291  10.803  67.203  1.00  0.00    -0.154 OA 
HETATM    8  O   UNL     1      -9.919   9.361  65.582  1.00  0.00    -0.304 OA 
HETATM    9  N   UNL     1      -9.071  10.166  65.960  1.00  0.00    -0.149 N  
HETATM   10  O   UNL     1      -8.027  10.522  65.421  1.00  0.00    -0.152 OA 
ENDBRANCH   6   7
BRANCH   6  11
HETATM   11  C   UNL     1     -11.438  11.681  68.129  1.00  0.00    -0.313 C  
BRANCH  11  12
HETATM   12  O   UNL     1     -12.075  12.014  66.896  1.00  0.00    -0.608 OA 
HETATM   13  N   UNL     1     -12.156  13.415  66.688  1.00  0.00    -0.390 N  
HETATM   14  O   UNL     1     -11.708  14.139  67.577  1.00  0.00    -0.344 OA 
HETATM   15  O   UNL     1     -12.690  13.707  65.621  1.00  0.00    -0.495 OA 
ENDBRANCH  11  12
ENDBRANCH   6  11
ENDBRANCH   5   6
ENDBRANCH   3   5
TORSDOF 5
ENDMDL
MODEL      155
REMARK 921   NORMALIZED FREE ENERGY PREDICTED BY IDOCK:   -3.32 KCAL/MOL
REMARK 922        TOTAL FREE ENERGY PREDICTED BY IDOCK:   -4.80 KCAL/MOL
REMARK 923 INTER-LIGAND FREE ENERGY PREDICTED BY IDOCK:   -4.33 KCAL/MOL
REMARK 924 INTRA-LIGAND FREE ENERGY PREDICTED BY IDOCK:   -0.47 KCAL/MOL
REMARK 927      BINDING AFFINITY PREDICTED BY RF-SCORE:    0.00 PKD
ROOT
HETATM    1  O   UNL     1      -8.197  10.200  64.082  1.00  0.00    -0.156 OA 
HETATM    2  N   UNL     1      -9.320  10.280  64.573  1.00  0.00    -0.251 N  
HETATM    3  O   UNL     1      -9.340   9.951  65.951  1.00  0.00    -0.165 OA 
HETATM    4  O   UNL     1     -10.391  10.607  64.059  1.00  0.00    -0.339 OA 
ENDROOT
BRANCH   3   5
HETATM    5  C   UNL     1     -10.651  10.028  66.514  1.00  0.00    -0.095 C  
BRANCH   5   6
HETATM    6  C   UNL     1     -10.582  10.892  67.786  1.00  0.00    -0.217 C  
BRANCH   6   7
HETATM    7  O   UNL     1     -11.307  10.349  68.902  1.00  0.00    -0.249 OA 
HETATM    8  O   UNL     1      -9.334   9.613  69.717  1.00  0.00    -0.188 OA 
HETATM    9  N   UNL     1     -10.546   9.695  69.898  1.00  0.00    -0.231 N  
HETATM   10  O   UNL     1     -11.232   9.290  70.831  1.00  0.00    -0.260 OA 
ENDBRANCH   6   7
BRANCH   6  11
HETATM   11  C   UNL     1     -10.870  12.379  67.514  1.00  0.00    -0.236 C  
BRANCH  11  12
HETATM   12  O   UNL     1     -11.705  12.476  66.361  1.00  0.00    -0.374 OA 
HETATM   13  N   UNL     1     -12.261  13.771  66.200  1.00  0.00    -0.448 N  
HETATM   14  O   UNL     1     -11.985  14.609  67.059  1.00  0.00    -0.382 OA 
HETATM   15  O   UNL     1     -12.968  13.864  65.201  1.00  0.00    -0.744 OA 
ENDBRANCH  11  12
ENDBRANCH   6  11
ENDBRANCH   5   6
ENDBRANCH   3   5
TORSDOF 5
ENDMDL
MODEL      156
REMARK 921   NORMALIZED FREE ENERGY PREDICTED BY IDOCK:   -3.31 KCAL/MOL
REMARK 922        TOTAL FREE ENERGY PREDICTED BY IDOCK:   -4.79 KCAL/MOL
REMARK 923 INTER-LIGAND FREE ENERGY PREDICTED BY IDOCK:   -4.38 KCAL/MOL
REMARK 924 INTRA-LIGAND FREE ENERGY PREDICTED BY IDOCK:   -0.41 KCAL/MOL
REMARK 927      BINDING AFFINITY PREDICTED BY RF-SCORE:    0.00 PKD
ROOT
HETATM    1  O   UNL     1     -13.190  11.127  71.884  1.00  0.00    -0.470 OA 
HETATM    2  N   UNL     1     -12.209  10.676  71.298  1.00  0.00    -0.355 N  
HETATM    3  O   UNL     1     -11.867  11.426  70.145  1.00  0.00    -0.312 OA 
HETATM    4  O   UNL     1     -11.498   9.707  71.567  1.00  0.00    -0.377 OA 
ENDROOT
BRANCH   3   5
HETATM    5  C   UNL     1     -10.736  10.888  69.457  1.00  0.00    -0.206 C  
BRANCH   5   6
HETATM    6  C   UNL     1     -10.827  11.302  67.977  1.00  0.00    -0.218 C  
BRANCH   6   7
HETATM    7  O   UNL     1      -9.562  11.307  67.293  1.00  0.00    -0.172 OA 
HETATM    8  O   UNL     1     -10.275   9.500  66.141  1.00  0.00    -0.273 OA 
HETATM    9  N   UNL     1      -9.367  10.310  66.310  1.00  0.00    -0.162 N  
HETATM   10  O   UNL     1      -8.279  10.402  65.749  1.00  0.00    -0.145 OA 
ENDBRANCH   6   7
BRANCH   6  11
HETATM   11  C   UNL     1     -11.661  12.577  67.764  1.00  0.00    -0.359 C  
BRANCH  11  12
HETATM   12  O   UNL     1     -11.373  13.095  66.465  1.00  0.00    -0.295 OA 
HETATM   13  N   UNL     1     -11.445  14.512  66.418  1.00  0.00    -0.354 N  
HETATM   14  O   UNL     1     -11.760  15.090  67.458  1.00  0.00    -0.343 OA 
HETATM   15  O   UNL     1     -11.183  14.964  65.307  1.00  0.00    -0.340 OA 
ENDBRANCH  11  12
ENDBRANCH   6  11
ENDBRANCH   5   6
ENDBRANCH   3   5
TORSDOF 5
ENDMDL
MODEL      157
REMARK 921   NORMALIZED FREE ENERGY PREDICTED BY IDOCK:   -3.31 KCAL/MOL
REMARK 922        TOTAL FREE ENERGY PREDICTED BY IDOCK:   -4.78 KCAL/MOL
REMARK 923 INTER-LIGAND FREE ENERGY PREDICTED BY IDOCK:   -4.24 KCAL/MOL
REMARK 924 INTRA-LIGAND FREE ENERGY PREDICTED BY IDOCK:   -0.54 KCAL/MOL
REMARK 927      BINDING AFFINITY PREDICTED BY RF-SCORE:    0.00 PKD
ROOT
HETATM    1  O   UNL     1     -10.814   9.574  67.956  1.00  0.00    -0.233 OA 
HETATM    2  N   UNL     1     -11.097  10.715  67.598  1.00  0.00    -0.314 N  
HETATM    3  O   UNL     1     -11.877  11.412  68.553  1.00  0.00    -0.416 OA 
HETATM    4  O   UNL     1     -10.798  11.321  66.568  1.00  0.00    -0.271 OA 
ENDROOT
BRANCH   3   5
HETATM    5  C   UNL     1     -12.218  12.731  68.124  1.00  0.00     0.083 C  
BRANCH   5   6
HETATM    6  C   UNL     1     -11.567  13.739  69.090  1.00  0.00    -0.317 C  
BRANCH   6   7
HETATM    7  O   UNL     1     -12.486  14.698  69.640  1.00  0.00    -0.263 OA 
HETATM    8  O   UNL     1     -12.492  13.477  71.540  1.00  0.00    -0.299 OA 
HETATM    9  N   UNL     1     -12.911  14.481  70.970  1.00  0.00    -0.345 N  
HETATM   10  O   UNL     1     -13.665  15.360  71.378  1.00  0.00    -0.487 OA 
ENDBRANCH   6   7
BRANCH   6  11
HETATM   11  C   UNL     1     -10.276  14.357  68.527  1.00  0.00    -0.243 C  
BRANCH  11  12
HETATM   12  O   UNL     1     -10.628  15.441  67.669  1.00  0.00    -0.267 OA 
HETATM   13  N   UNL     1     -10.062  15.316  66.374  1.00  0.00    -0.262 N  
HETATM   14  O   UNL     1      -9.344  14.337  66.171  1.00  0.00    -0.252 OA 
HETATM   15  O   UNL     1     -10.375  16.239  65.627  1.00  0.00    -0.357 OA 
ENDBRANCH  11  12
ENDBRANCH   6  11
ENDBRANCH   5   6
ENDBRANCH   3   5
TORSDOF 5
ENDMDL
MODEL      158
REMARK 921   NORMALIZED FREE ENERGY PREDICTED BY IDOCK:   -3.31 KCAL/MOL
REMARK 922        TOTAL FREE ENERGY PREDICTED BY IDOCK:   -4.78 KCAL/MOL
REMARK 923 INTER-LIGAND FREE ENERGY PREDICTED BY IDOCK:   -4.21 KCAL/MOL
REMARK 924 INTRA-LIGAND FREE ENERGY PREDICTED BY IDOCK:   -0.57 KCAL/MOL
REMARK 927      BINDING AFFINITY PREDICTED BY RF-SCORE:    0.00 PKD
ROOT
HETATM    1  O   UNL     1     -10.093   6.296  68.392  1.00  0.00    -0.139 OA 
HETATM    2  N   UNL     1      -9.804   7.257  69.101  1.00  0.00    -0.164 N  
HETATM    3  O   UNL     1     -10.120   8.498  68.496  1.00  0.00    -0.183 OA 
HETATM    4  O   UNL     1      -9.310   7.293  70.229  1.00  0.00    -0.158 OA 
ENDROOT
BRANCH   3   5
HETATM    5  C   UNL     1      -9.767   9.613  69.317  1.00  0.00    -0.185 C  
BRANCH   5   6
HETATM    6  C   UNL     1     -10.889  10.663  69.217  1.00  0.00    -0.239 C  
BRANCH   6   7
HETATM    7  O   UNL     1     -10.444  11.952  68.760  1.00  0.00    -0.212 OA 
HETATM    8  O   UNL     1     -11.989  11.808  67.119  1.00  0.00    -0.617 OA 
HETATM    9  N   UNL     1     -11.110  12.492  67.636  1.00  0.00    -0.245 N  
HETATM   10  O   UNL     1     -10.697  13.606  67.329  1.00  0.00    -0.275 OA 
ENDBRANCH   6   7
BRANCH   6  11
HETATM   11  C   UNL     1     -11.773  10.714  70.475  1.00  0.00    -0.356 C  
BRANCH  11  12
HETATM   12  O   UNL     1     -11.227   9.824  71.449  1.00  0.00    -0.366 OA 
HETATM   13  N   UNL     1     -12.174   8.871  71.905  1.00  0.00    -0.348 N  
HETATM   14  O   UNL     1     -13.311   8.947  71.440  1.00  0.00    -0.325 OA 
HETATM   15  O   UNL     1     -11.705   8.094  72.732  1.00  0.00    -0.403 OA 
ENDBRANCH  11  12
ENDBRANCH   6  11
ENDBRANCH   5   6
ENDBRANCH   3   5
TORSDOF 5
ENDMDL
MODEL      159
REMARK 921   NORMALIZED FREE ENERGY PREDICTED BY IDOCK:   -3.30 KCAL/MOL
REMARK 922        TOTAL FREE ENERGY PREDICTED BY IDOCK:   -4.78 KCAL/MOL
REMARK 923 INTER-LIGAND FREE ENERGY PREDICTED BY IDOCK:   -4.35 KCAL/MOL
REMARK 924 INTRA-LIGAND FREE ENERGY PREDICTED BY IDOCK:   -0.44 KCAL/MOL
REMARK 927      BINDING AFFINITY PREDICTED BY RF-SCORE:    0.00 PKD
ROOT
HETATM    1  O   UNL     1     -11.044  19.920  65.198  1.00  0.00    -0.329 OA 
HETATM    2  N   UNL     1     -10.542  19.866  66.318  1.00  0.00    -0.463 N  
HETATM    3  O   UNL     1     -10.759  18.619  66.956  1.00  0.00    -0.408 OA 
HETATM    4  O   UNL     1      -9.889  20.706  66.938  1.00  0.00    -0.423 OA 
ENDROOT
BRANCH   3   5
HETATM    5  C   UNL     1     -10.188  18.566  68.264  1.00  0.00    -0.376 C  
BRANCH   5   6
HETATM    6  C   UNL     1      -9.521  17.191  68.448  1.00  0.00    -0.276 C  
BRANCH   6   7
HETATM    7  O   UNL     1     -10.235  16.307  69.328  1.00  0.00    -0.238 OA 
HETATM    8  O   UNL     1     -11.043  15.269  67.491  1.00  0.00    -0.312 OA 
HETATM    9  N   UNL     1     -11.011  15.295  68.719  1.00  0.00    -0.248 N  
HETATM   10  O   UNL     1     -11.562  14.562  69.535  1.00  0.00    -0.272 OA 
ENDBRANCH   6   7
BRANCH   6  11
HETATM   11  C   UNL     1      -8.015  17.294  68.747  1.00  0.00    -0.250 C  
BRANCH  11  12
HETATM   12  O   UNL     1      -7.462  15.978  68.745  1.00  0.00    -0.153 OA 
HETATM   13  N   UNL     1      -6.574  15.764  67.659  1.00  0.00    -0.156 N  
HETATM   14  O   UNL     1      -6.420  16.698  66.870  1.00  0.00    -0.179 OA 
HETATM   15  O   UNL     1      -6.083  14.639  67.660  1.00  0.00    -0.261 OA 
ENDBRANCH  11  12
ENDBRANCH   6  11
ENDBRANCH   5   6
ENDBRANCH   3   5
TORSDOF 5
ENDMDL
MODEL      160
REMARK 921   NORMALIZED FREE ENERGY PREDICTED BY IDOCK:   -3.30 KCAL/MOL
REMARK 922        TOTAL FREE ENERGY PREDICTED BY IDOCK:   -4.77 KCAL/MOL
REMARK 923 INTER-LIGAND FREE ENERGY PREDICTED BY IDOCK:   -4.30 KCAL/MOL
REMARK 924 INTRA-LIGAND FREE ENERGY PREDICTED BY IDOCK:   -0.47 KCAL/MOL
REMARK 927      BINDING AFFINITY PREDICTED BY RF-SCORE:    0.00 PKD
ROOT
HETATM    1  O   UNL     1      -8.493   9.452  68.609  1.00  0.00    -0.116 OA 
HETATM    2  N   UNL     1      -9.110   8.565  69.193  1.00  0.00    -0.146 N  
HETATM    3  O   UNL     1     -10.368   9.002  69.678  1.00  0.00    -0.199 OA 
HETATM    4  O   UNL     1      -8.808   7.389  69.399  1.00  0.00    -0.137 OA 
ENDROOT
BRANCH   3   5
HETATM    5  C   UNL     1     -11.075   7.972  70.371  1.00  0.00    -0.238 C  
BRANCH   5   6
HETATM    6  C   UNL     1     -11.480   8.509  71.756  1.00  0.00    -0.310 C  
BRANCH   6   7
HETATM    7  O   UNL     1     -11.782   9.915  71.773  1.00  0.00    -0.336 OA 
HETATM    8  O   UNL     1     -13.890   9.368  72.371  1.00  0.00    -0.451 OA 
HETATM    9  N   UNL     1     -13.100  10.278  72.134  1.00  0.00    -0.410 N  
HETATM   10  O   UNL     1     -13.268  11.493  72.158  1.00  0.00    -0.505 OA 
ENDBRANCH   6   7
BRANCH   6  11
HETATM   11  C   UNL     1     -10.523   8.059  72.874  1.00  0.00    -0.332 C  
BRANCH  11  12
HETATM   12  O   UNL     1      -9.271   8.721  72.693  1.00  0.00    -0.327 OA 
HETATM   13  N   UNL     1      -8.298   8.309  73.639  1.00  0.00    -0.226 N  
HETATM   14  O   UNL     1      -8.651   7.483  74.481  1.00  0.00    -0.205 OA 
HETATM   15  O   UNL     1      -7.214   8.865  73.479  1.00  0.00    -0.362 OA 
ENDBRANCH  11  12
ENDBRANCH   6  11
ENDBRANCH   5   6
ENDBRANCH   3   5
TORSDOF 5
ENDMDL
MODEL      161
REMARK 921   NORMALIZED FREE ENERGY PREDICTED BY IDOCK:   -3.30 KCAL/MOL
REMARK 922        TOTAL FREE ENERGY PREDICTED BY IDOCK:   -4.77 KCAL/MOL
REMARK 923 INTER-LIGAND FREE ENERGY PREDICTED BY IDOCK:   -4.20 KCAL/MOL
REMARK 924 INTRA-LIGAND FREE ENERGY PREDICTED BY IDOCK:   -0.57 KCAL/MOL
REMARK 927      BINDING AFFINITY PREDICTED BY RF-SCORE:    0.00 PKD
ROOT
HETATM    1  O   UNL     1      -7.851  16.267  67.014  1.00  0.00    -0.173 OA 
HETATM    2  N   UNL     1      -8.805  15.768  66.423  1.00  0.00    -0.311 N  
HETATM    3  O   UNL     1      -8.952  14.384  66.692  1.00  0.00    -0.252 OA 
HETATM    4  O   UNL     1      -9.630  16.283  65.667  1.00  0.00    -0.466 OA 
ENDROOT
BRANCH   3   5
HETATM    5  C   UNL     1     -10.053  13.804  65.990  1.00  0.00    -0.311 C  
BRANCH   5   6
HETATM    6  C   UNL     1     -10.900  13.001  66.993  1.00  0.00    -0.261 C  
BRANCH   6   7
HETATM    7  O   UNL     1     -11.195  11.660  66.568  1.00  0.00    -0.307 OA 
HETATM    8  O   UNL     1      -9.841  10.927  68.220  1.00  0.00    -0.159 OA 
HETATM    9  N   UNL     1     -10.593  10.612  67.301  1.00  0.00    -0.246 N  
HETATM   10  O   UNL     1     -10.920   9.500  66.899  1.00  0.00    -0.093 OA 
ENDBRANCH   6   7
BRANCH   6  11
HETATM   11  C   UNL     1     -12.124  13.782  67.502  1.00  0.00    -0.331 C  
BRANCH  11  12
HETATM   12  O   UNL     1     -12.125  13.744  68.929  1.00  0.00    -0.349 OA 
HETATM   13  N   UNL     1     -11.754  14.986  69.505  1.00  0.00    -0.303 N  
HETATM   14  O   UNL     1     -11.463  15.897  68.730  1.00  0.00    -0.357 OA 
HETATM   15  O   UNL     1     -11.768  14.964  70.733  1.00  0.00    -0.280 OA 
ENDBRANCH  11  12
ENDBRANCH   6  11
ENDBRANCH   5   6
ENDBRANCH   3   5
TORSDOF 5
ENDMDL
MODEL      162
REMARK 921   NORMALIZED FREE ENERGY PREDICTED BY IDOCK:   -3.29 KCAL/MOL
REMARK 922        TOTAL FREE ENERGY PREDICTED BY IDOCK:   -4.76 KCAL/MOL
REMARK 923 INTER-LIGAND FREE ENERGY PREDICTED BY IDOCK:   -4.25 KCAL/MOL
REMARK 924 INTRA-LIGAND FREE ENERGY PREDICTED BY IDOCK:   -0.51 KCAL/MOL
REMARK 927      BINDING AFFINITY PREDICTED BY RF-SCORE:    0.00 PKD
ROOT
HETATM    1  O   UNL     1     -11.877  16.234  72.352  1.00  0.00    -0.509 OA 
HETATM    2  N   UNL     1     -12.258  15.844  71.251  1.00  0.00    -0.428 N  
HETATM    3  O   UNL     1     -11.357  16.180  70.210  1.00  0.00    -0.352 OA 
HETATM    4  O   UNL     1     -13.269  15.215  70.937  1.00  0.00    -0.425 OA 
ENDROOT
BRANCH   3   5
HETATM    5  C   UNL     1     -11.813  15.739  68.929  1.00  0.00    -0.341 C  
BRANCH   5   6
HETATM    6  C   UNL     1     -10.592  15.605  68.000  1.00  0.00    -0.271 C  
BRANCH   6   7
HETATM    7  O   UNL     1     -10.390  14.277  67.487  1.00  0.00    -0.246 OA 
HETATM    8  O   UNL     1      -9.988  15.209  65.469  1.00  0.00    -0.335 OA 
HETATM    9  N   UNL     1     -10.051  14.169  66.119  1.00  0.00    -0.302 N  
HETATM   10  O   UNL     1      -9.862  13.008  65.767  1.00  0.00    -0.270 OA 
ENDBRANCH   6   7
BRANCH   6  11
HETATM   11  C   UNL     1      -9.324  16.253  68.583  1.00  0.00    -0.219 C  
BRANCH  11  12
HETATM   12  O   UNL     1      -8.386  15.221  68.884  1.00  0.00    -0.167 OA 
HETATM   13  N   UNL     1      -7.255  15.248  68.027  1.00  0.00    -0.117 N  
HETATM   14  O   UNL     1      -7.241  16.109  67.148  1.00  0.00    -0.179 OA 
HETATM   15  O   UNL     1      -6.437  14.371  68.291  1.00  0.00    -0.094 OA 
ENDBRANCH  11  12
ENDBRANCH   6  11
ENDBRANCH   5   6
ENDBRANCH   3   5
TORSDOF 5
ENDMDL
MODEL      163
REMARK 921   NORMALIZED FREE ENERGY PREDICTED BY IDOCK:   -3.27 KCAL/MOL
REMARK 922        TOTAL FREE ENERGY PREDICTED BY IDOCK:   -4.74 KCAL/MOL
REMARK 923 INTER-LIGAND FREE ENERGY PREDICTED BY IDOCK:   -4.23 KCAL/MOL
REMARK 924 INTRA-LIGAND FREE ENERGY PREDICTED BY IDOCK:   -0.51 KCAL/MOL
REMARK 927      BINDING AFFINITY PREDICTED BY RF-SCORE:    0.00 PKD
ROOT
HETATM    1  O   UNL     1      -8.935   9.061  66.108  1.00  0.00    -0.154 OA 
HETATM    2  N   UNL     1      -9.993   9.386  66.641  1.00  0.00    -0.238 N  
HETATM    3  O   UNL     1     -10.159  10.791  66.717  1.00  0.00    -0.206 OA 
HETATM    4  O   UNL     1     -10.903   8.689  67.092  1.00  0.00    -0.212 OA 
ENDROOT
BRANCH   3   5
HETATM    5  C   UNL     1     -11.383  11.164  67.353  1.00  0.00    -0.255 C  
BRANCH   5   6
HETATM    6  C   UNL     1     -11.053  11.721  68.750  1.00  0.00    -0.241 C  
BRANCH   6   7
HETATM    7  O   UNL     1     -11.690  11.014  69.826  1.00  0.00    -0.273 OA 
HETATM    8  O   UNL     1      -9.736   9.932  70.159  1.00  0.00    -0.247 OA 
HETATM    9  N   UNL     1     -10.895  10.086  70.537  1.00  0.00    -0.311 N  
HETATM   10  O   UNL     1     -11.500   9.549  71.460  1.00  0.00    -0.368 OA 
ENDBRANCH   6   7
BRANCH   6  11
HETATM   11  C   UNL     1     -11.197  13.251  68.831  1.00  0.00    -0.277 C  
BRANCH  11  12
HETATM   12  O   UNL     1     -12.081  13.566  69.907  1.00  0.00    -0.329 OA 
HETATM   13  N   UNL     1     -12.380  14.952  69.975  1.00  0.00    -0.325 N  
HETATM   14  O   UNL     1     -11.838  15.682  69.145  1.00  0.00    -0.363 OA 
HETATM   15  O   UNL     1     -13.152  15.227  70.890  1.00  0.00    -0.435 OA 
ENDBRANCH  11  12
ENDBRANCH   6  11
ENDBRANCH   5   6
ENDBRANCH   3   5
TORSDOF 5
ENDMDL
MODEL      164
REMARK 921   NORMALIZED FREE ENERGY PREDICTED BY IDOCK:   -3.26 KCAL/MOL
REMARK 922        TOTAL FREE ENERGY PREDICTED BY IDOCK:   -4.72 KCAL/MOL
REMARK 923 INTER-LIGAND FREE ENERGY PREDICTED BY IDOCK:   -4.37 KCAL/MOL
REMARK 924 INTRA-LIGAND FREE ENERGY PREDICTED BY IDOCK:   -0.35 KCAL/MOL
REMARK 927      BINDING AFFINITY PREDICTED BY RF-SCORE:    0.00 PKD
ROOT
HETATM    1  O   UNL     1     -12.101  13.118  68.725  1.00  0.00    -0.310 OA 
HETATM    2  N   UNL     1     -11.684  12.126  68.135  1.00  0.00    -0.337 N  
HETATM    3  O   UNL     1     -10.575  12.411  67.300  1.00  0.00    -0.220 OA 
HETATM    4  O   UNL     1     -12.069  10.957  68.174  1.00  0.00    -0.563 OA 
ENDROOT
BRANCH   3   5
HETATM    5  C   UNL     1     -10.104  11.257  66.602  1.00  0.00    -0.214 C  
BRANCH   5   6
HETATM    6  C   UNL     1     -10.053  11.586  65.098  1.00  0.00    -0.268 C  
BRANCH   6   7
HETATM    7  O   UNL     1     -11.303  11.391  64.415  1.00  0.00    -0.266 OA 
HETATM    8  O   UNL     1     -11.704  13.596  64.698  1.00  0.00    -0.356 OA 
HETATM    9  N   UNL     1     -12.112  12.535  64.232  1.00  0.00    -0.400 N  
HETATM   10  O   UNL     1     -13.144  12.293  63.611  1.00  0.00    -0.780 OA 
ENDBRANCH   6   7
BRANCH   6  11
HETATM   11  C   UNL     1      -8.844  10.953  64.389  1.00  0.00    -0.060 C  
BRANCH  11  12
HETATM   12  O   UNL     1      -9.104   9.561  64.205  1.00  0.00    -0.232 OA 
HETATM   13  N   UNL     1      -7.915   8.787  64.167  1.00  0.00    -0.146 N  
HETATM   14  O   UNL     1      -6.849   9.395  64.267  1.00  0.00    -0.089 OA 
HETATM   15  O   UNL     1      -8.134   7.588  64.023  1.00  0.00    -0.123 OA 
ENDBRANCH  11  12
ENDBRANCH   6  11
ENDBRANCH   5   6
ENDBRANCH   3   5
TORSDOF 5
ENDMDL
MODEL      165
REMARK 921   NORMALIZED FREE ENERGY PREDICTED BY IDOCK:   -3.23 KCAL/MOL
REMARK 922        TOTAL FREE ENERGY PREDICTED BY IDOCK:   -4.69 KCAL/MOL
REMARK 923 INTER-LIGAND FREE ENERGY PREDICTED BY IDOCK:   -4.14 KCAL/MOL
REMARK 924 INTRA-LIGAND FREE ENERGY PREDICTED BY IDOCK:   -0.55 KCAL/MOL
REMARK 927      BINDING AFFINITY PREDICTED BY RF-SCORE:    0.00 PKD
ROOT
HETATM    1  O   UNL     1     -13.220   9.455  72.163  1.00  0.00    -0.403 OA 
HETATM    2  N   UNL     1     -12.074   9.126  71.866  1.00  0.00    -0.370 N  
HETATM    3  O   UNL     1     -11.496   9.978  70.892  1.00  0.00    -0.320 OA 
HETATM    4  O   UNL     1     -11.377   8.203  72.288  1.00  0.00    -0.310 OA 
ENDROOT
BRANCH   3   5
HETATM    5  C   UNL     1     -10.170   9.582  70.537  1.00  0.00    -0.287 C  
BRANCH   5   6
HETATM    6  C   UNL     1     -10.063   9.568  69.001  1.00  0.00    -0.193 C  
BRANCH   6   7
HETATM    7  O   UNL     1     -11.200  10.137  68.330  1.00  0.00    -0.244 OA 
HETATM    8  O   UNL     1      -9.933  11.958  67.909  1.00  0.00    -0.181 OA 
HETATM    9  N   UNL     1     -11.026  11.418  67.759  1.00  0.00    -0.229 N  
HETATM   10  O   UNL     1     -12.029  11.820  67.177  1.00  0.00    -0.617 OA 
ENDBRANCH   6   7
BRANCH   6  11
HETATM   11  C   UNL     1      -9.626   8.201  68.446  1.00  0.00    -0.147 C  
BRANCH  11  12
HETATM   12  O   UNL     1      -9.971   7.194  69.396  1.00  0.00    -0.160 OA 
HETATM   13  N   UNL     1     -10.664   6.105  68.807  1.00  0.00    -0.275 N  
HETATM   14  O   UNL     1     -10.894   6.177  67.599  1.00  0.00    -0.282 OA 
HETATM   15  O   UNL     1     -10.950   5.229  69.617  1.00  0.00    -0.125 OA 
ENDBRANCH  11  12
ENDBRANCH   6  11
ENDBRANCH   5   6
ENDBRANCH   3   5
TORSDOF 5
ENDMDL
MODEL      166
REMARK 921   NORMALIZED FREE ENERGY PREDICTED BY IDOCK:   -3.23 KCAL/MOL
REMARK 922        TOTAL FREE ENERGY PREDICTED BY IDOCK:   -4.69 KCAL/MOL
REMARK 923 INTER-LIGAND FREE ENERGY PREDICTED BY IDOCK:   -4.10 KCAL/MOL
REMARK 924 INTRA-LIGAND FREE ENERGY PREDICTED BY IDOCK:   -0.59 KCAL/MOL
REMARK 927      BINDING AFFINITY PREDICTED BY RF-SCORE:    0.00 PKD
ROOT
HETATM    1  O   UNL     1     -12.159  12.106  67.191  1.00  0.00    -0.575 OA 
HETATM    2  N   UNL     1     -11.424  11.869  68.146  1.00  0.00    -0.295 N  
HETATM    3  O   UNL     1     -11.846  10.744  68.897  1.00  0.00    -0.304 OA 
HETATM    4  O   UNL     1     -10.400  12.441  68.522  1.00  0.00    -0.228 OA 
ENDROOT
BRANCH   3   5
HETATM    5  C   UNL     1     -10.997  10.482  70.015  1.00  0.00    -0.286 C  
BRANCH   5   6
HETATM    6  C   UNL     1     -10.351   9.098  69.821  1.00  0.00    -0.215 C  
BRANCH   6   7
HETATM    7  O   UNL     1     -10.652   8.485  68.556  1.00  0.00    -0.193 OA 
HETATM    8  O   UNL     1      -8.614   9.152  67.845  1.00  0.00    -0.121 OA 
HETATM    9  N   UNL     1      -9.647   8.551  67.563  1.00  0.00    -0.149 N  
HETATM   10  O   UNL     1      -9.966   7.977  66.526  1.00  0.00    -0.249 OA 
ENDBRANCH   6   7
BRANCH   6  11
HETATM   11  C   UNL     1     -10.552   8.171  71.032  1.00  0.00    -0.210 C  
BRANCH  11  12
HETATM   12  O   UNL     1     -11.684   7.338  70.782  1.00  0.00    -0.299 OA 
HETATM   13  N   UNL     1     -12.752   7.589  71.682  1.00  0.00    -0.344 N  
HETATM   14  O   UNL     1     -12.563   8.444  72.548  1.00  0.00    -0.345 OA 
HETATM   15  O   UNL     1     -13.734   6.886  71.462  1.00  0.00    -0.287 OA 
ENDBRANCH  11  12
ENDBRANCH   6  11
ENDBRANCH   5   6
ENDBRANCH   3   5
TORSDOF 5
ENDMDL
MODEL      167
REMARK 921   NORMALIZED FREE ENERGY PREDICTED BY IDOCK:   -3.23 KCAL/MOL
REMARK 922        TOTAL FREE ENERGY PREDICTED BY IDOCK:   -4.69 KCAL/MOL
REMARK 923 INTER-LIGAND FREE ENERGY PREDICTED BY IDOCK:   -4.23 KCAL/MOL
REMARK 924 INTRA-LIGAND FREE ENERGY PREDICTED BY IDOCK:   -0.46 KCAL/MOL
REMARK 927      BINDING AFFINITY PREDICTED BY RF-SCORE:    0.00 PKD
ROOT
HETATM    1  O   UNL     1     -13.241  11.327  72.053  1.00  0.00    -0.506 OA 
HETATM    2  N   UNL     1     -13.254  10.101  71.974  1.00  0.00    -0.458 N  
HETATM    3  O   UNL     1     -12.023   9.569  71.516  1.00  0.00    -0.348 OA 
HETATM    4  O   UNL     1     -14.148   9.297  72.239  1.00  0.00    -0.413 OA 
ENDROOT
BRANCH   3   5
HETATM    5  C   UNL     1     -12.049   8.144  71.409  1.00  0.00    -0.297 C  
BRANCH   5   6
HETATM    6  C   UNL     1     -10.767   7.689  70.688  1.00  0.00    -0.231 C  
BRANCH   6   7
HETATM    7  O   UNL     1     -10.989   7.206  69.352  1.00  0.00    -0.225 OA 
HETATM    8  O   UNL     1     -10.141   9.159  68.597  1.00  0.00    -0.181 OA 
HETATM    9  N   UNL     1     -10.603   8.061  68.295  1.00  0.00    -0.150 N  
HETATM   10  O   UNL     1     -10.792   7.565  67.188  1.00  0.00    -0.324 OA 
ENDBRANCH   6   7
BRANCH   6  11
HETATM   11  C   UNL     1      -9.892   6.765  71.552  1.00  0.00    -0.170 C  
BRANCH  11  12
HETATM   12  O   UNL     1      -8.937   7.566  72.248  1.00  0.00    -0.127 OA 
HETATM   13  N   UNL     1      -9.158   7.578  73.650  1.00  0.00    -0.231 N  
HETATM   14  O   UNL     1     -10.124   6.940  74.069  1.00  0.00    -0.313 OA 
HETATM   15  O   UNL     1      -8.330   8.253  74.255  1.00  0.00    -0.253 OA 
ENDBRANCH  11  12
ENDBRANCH   6  11
ENDBRANCH   5   6
ENDBRANCH   3   5
TORSDOF 5
ENDMDL
MODEL      168
REMARK 921   NORMALIZED FREE ENERGY PREDICTED BY IDOCK:   -3.22 KCAL/MOL
REMARK 922        TOTAL FREE ENERGY PREDICTED BY IDOCK:   -4.68 KCAL/MOL
REMARK 923 INTER-LIGAND FREE ENERGY PREDICTED BY IDOCK:   -4.13 KCAL/MOL
REMARK 924 INTRA-LIGAND FREE ENERGY PREDICTED BY IDOCK:   -0.54 KCAL/MOL
REMARK 927      BINDING AFFINITY PREDICTED BY RF-SCORE:    0.00 PKD
ROOT
HETATM    1  O   UNL     1     -12.168  12.240  64.544  1.00  0.00    -0.410 OA 
HETATM    2  N   UNL     1     -11.864  13.344  64.988  1.00  0.00    -0.337 N  
HETATM    3  O   UNL     1     -10.463  13.547  65.037  1.00  0.00    -0.335 OA 
HETATM    4  O   UNL     1     -12.578  14.271  65.372  1.00  0.00    -0.460 OA 
ENDROOT
BRANCH   3   5
HETATM    5  C   UNL     1     -10.113  14.826  65.570  1.00  0.00    -0.380 C  
BRANCH   5   6
HETATM    6  C   UNL     1      -9.477  14.616  66.956  1.00  0.00    -0.241 C  
BRANCH   6   7
HETATM    7  O   UNL     1     -10.385  14.815  68.053  1.00  0.00    -0.233 OA 
HETATM    8  O   UNL     1     -10.476  12.569  68.274  1.00  0.00    -0.221 OA 
HETATM    9  N   UNL     1     -10.853  13.654  68.709  1.00  0.00    -0.253 N  
HETATM   10  O   UNL     1     -11.595  13.908  69.653  1.00  0.00    -0.268 OA 
ENDBRANCH   6   7
BRANCH   6  11
HETATM   11  C   UNL     1      -8.133  15.348  67.113  1.00  0.00    -0.217 C  
BRANCH  11  12
HETATM   12  O   UNL     1      -8.321  16.457  67.993  1.00  0.00    -0.172 OA 
HETATM   13  N   UNL     1      -7.256  17.392  67.922  1.00  0.00    -0.184 N  
HETATM   14  O   UNL     1      -6.328  17.126  67.158  1.00  0.00    -0.142 OA 
HETATM   15  O   UNL     1      -7.420  18.356  68.665  1.00  0.00    -0.283 OA 
ENDBRANCH  11  12
ENDBRANCH   6  11
ENDBRANCH   5   6
ENDBRANCH   3   5
TORSDOF 5
ENDMDL
MODEL      169
REMARK 921   NORMALIZED FREE ENERGY PREDICTED BY IDOCK:   -3.21 KCAL/MOL
REMARK 922        TOTAL FREE ENERGY PREDICTED BY IDOCK:   -4.66 KCAL/MOL
REMARK 923 INTER-LIGAND FREE ENERGY PREDICTED BY IDOCK:   -4.21 KCAL/MOL
REMARK 924 INTRA-LIGAND FREE ENERGY PREDICTED BY IDOCK:   -0.45 KCAL/MOL
REMARK 927      BINDING AFFINITY PREDICTED BY RF-SCORE:    0.00 PKD
ROOT
HETATM    1  O   UNL     1      -6.242  17.169  69.028  1.00  0.00    -0.172 OA 
HETATM    2  N   UNL     1      -7.419  17.214  68.677  1.00  0.00    -0.234 N  
HETATM    3  O   UNL     1      -8.095  15.984  68.869  1.00  0.00    -0.189 OA 
HETATM    4  O   UNL     1      -8.074  18.147  68.210  1.00  0.00    -0.278 OA 
ENDROOT
BRANCH   3   5
HETATM    5  C   UNL     1      -9.458  16.036  68.443  1.00  0.00    -0.207 C  
BRANCH   5   6
HETATM    6  C   UNL     1      -9.684  14.927  67.400  1.00  0.00    -0.217 C  
BRANCH   6   7
HETATM    7  O   UNL     1      -9.116  13.657  67.764  1.00  0.00    -0.181 OA 
HETATM    8  O   UNL     1     -11.188  13.006  68.387  1.00  0.00    -0.237 OA 
HETATM    9  N   UNL     1     -10.008  12.683  68.268  1.00  0.00    -0.228 N  
HETATM   10  O   UNL     1      -9.455  11.618  68.524  1.00  0.00    -0.195 OA 
ENDBRANCH   6   7
BRANCH   6  11
HETATM   11  C   UNL     1      -9.348  15.377  65.968  1.00  0.00    -0.329 C  
BRANCH  11  12
HETATM   12  O   UNL     1      -9.534  16.790  65.881  1.00  0.00    -0.466 OA 
HETATM   13  N   UNL     1     -10.614  17.144  65.032  1.00  0.00    -0.013 N  
HETATM   14  O   UNL     1     -11.215  16.223  64.477  1.00  0.00    -0.626 OA 
HETATM   15  O   UNL     1     -10.789  18.357  64.966  1.00  0.00    -0.641 OA 
ENDBRANCH  11  12
ENDBRANCH   6  11
ENDBRANCH   5   6
ENDBRANCH   3   5
TORSDOF 5
ENDMDL
MODEL      170
REMARK 921   NORMALIZED FREE ENERGY PREDICTED BY IDOCK:   -3.20 KCAL/MOL
REMARK 922        TOTAL FREE ENERGY PREDICTED BY IDOCK:   -4.64 KCAL/MOL
REMARK 923 INTER-LIGAND FREE ENERGY PREDICTED BY IDOCK:   -4.27 KCAL/MOL
REMARK 924 INTRA-LIGAND FREE ENERGY PREDICTED BY IDOCK:   -0.37 KCAL/MOL
REMARK 927      BINDING AFFINITY PREDICTED BY RF-SCORE:    0.00 PKD
ROOT
HETATM    1  O   UNL     1     -13.266  11.253  71.855  1.00  0.00    -0.482 OA 
HETATM    2  N   UNL     1     -13.223  10.056  72.128  1.00  0.00    -0.436 N  
HETATM    3  O   UNL     1     -11.925   9.507  71.978  1.00  0.00    -0.348 OA 
HETATM    4  O   UNL     1     -14.112   9.296  72.512  1.00  0.00    -0.440 OA 
ENDROOT
BRANCH   3   5
HETATM    5  C   UNL     1     -11.884   8.111  72.280  1.00  0.00    -0.382 C  
BRANCH   5   6
HETATM    6  C   UNL     1     -10.593   7.523  71.681  1.00  0.00    -0.205 C  
BRANCH   6   7
HETATM    7  O   UNL     1      -9.827   8.462  70.907  1.00  0.00    -0.175 OA 
HETATM    8  O   UNL     1      -8.336   8.513  72.603  1.00  0.00    -0.316 OA 
HETATM    9  N   UNL     1      -8.620   8.922  71.480  1.00  0.00    -0.178 N  
HETATM   10  O   UNL     1      -8.008   9.692  70.745  1.00  0.00    -0.288 OA 
ENDBRANCH   6   7
BRANCH   6  11
HETATM   11  C   UNL     1     -10.822   6.172  70.982  1.00  0.00    -0.279 C  
BRANCH  11  12
HETATM   12  O   UNL     1     -10.566   5.127  71.920  1.00  0.00    -0.220 OA 
HETATM   13  N   UNL     1      -9.904   4.018  71.331  1.00  0.00    -0.188 N  
HETATM   14  O   UNL     1      -9.667   4.085  70.125  1.00  0.00    -0.196 OA 
HETATM   15  O   UNL     1      -9.668   3.123  72.137  1.00  0.00    -0.139 OA 
ENDBRANCH  11  12
ENDBRANCH   6  11
ENDBRANCH   5   6
ENDBRANCH   3   5
TORSDOF 5
ENDMDL
MODEL      171
REMARK 921   NORMALIZED FREE ENERGY PREDICTED BY IDOCK:   -3.16 KCAL/MOL
REMARK 922        TOTAL FREE ENERGY PREDICTED BY IDOCK:   -4.60 KCAL/MOL
REMARK 923 INTER-LIGAND FREE ENERGY PREDICTED BY IDOCK:   -4.19 KCAL/MOL
REMARK 924 INTRA-LIGAND FREE ENERGY PREDICTED BY IDOCK:   -0.41 KCAL/MOL
REMARK 927      BINDING AFFINITY PREDICTED BY RF-SCORE:    0.00 PKD
ROOT
HETATM    1  O   UNL     1     -14.253   9.019  73.180  1.00  0.00    -0.334 OA 
HETATM    2  N   UNL     1     -13.498   9.142  72.219  1.00  0.00    -0.456 N  
HETATM    3  O   UNL     1     -13.281  10.496  71.862  1.00  0.00    -0.446 OA 
HETATM    4  O   UNL     1     -12.913   8.287  71.553  1.00  0.00    -0.315 OA 
ENDROOT
BRANCH   3   5
HETATM    5  C   UNL     1     -12.416  10.634  70.734  1.00  0.00    -0.385 C  
BRANCH   5   6
HETATM    6  C   UNL     1     -12.352  12.123  70.351  1.00  0.00    -0.233 C  
BRANCH   6   7
HETATM    7  O   UNL     1     -13.521  12.873  70.720  1.00  0.00     0.338 OA 
HETATM    8  O   UNL     1     -12.281  13.850  72.335  1.00  0.00     0.051 OA 
HETATM    9  N   UNL     1     -13.378  13.790  71.787  1.00  0.00    -0.367 N  
HETATM   10  O   UNL     1     -14.409  14.414  72.018  1.00  0.00    -0.495 OA 
ENDBRANCH   6   7
BRANCH   6  11
HETATM   11  C   UNL     1     -11.895  12.347  68.899  1.00  0.00    -0.301 C  
BRANCH  11  12
HETATM   12  O   UNL     1     -11.936  11.096  68.213  1.00  0.00    -0.592 OA 
HETATM   13  N   UNL     1     -10.716  10.798  67.553  1.00  0.00    -0.244 N  
HETATM   14  O   UNL     1      -9.819  11.637  67.631  1.00  0.00    -0.181 OA 
HETATM   15  O   UNL     1     -10.741   9.715  66.974  1.00  0.00    -0.230 OA 
ENDBRANCH  11  12
ENDBRANCH   6  11
ENDBRANCH   5   6
ENDBRANCH   3   5
TORSDOF 5
ENDMDL
MODEL      172
REMARK 921   NORMALIZED FREE ENERGY PREDICTED BY IDOCK:   -3.16 KCAL/MOL
REMARK 922        TOTAL FREE ENERGY PREDICTED BY IDOCK:   -4.59 KCAL/MOL
REMARK 923 INTER-LIGAND FREE ENERGY PREDICTED BY IDOCK:   -4.21 KCAL/MOL
REMARK 924 INTRA-LIGAND FREE ENERGY PREDICTED BY IDOCK:   -0.38 KCAL/MOL
REMARK 927      BINDING AFFINITY PREDICTED BY RF-SCORE:    0.00 PKD
ROOT
HETATM    1  O   UNL     1     -10.754  15.396  70.609  1.00  0.00    -0.312 OA 
HETATM    2  N   UNL     1     -10.330  15.540  69.465  1.00  0.00    -0.252 N  
HETATM    3  O   UNL     1     -10.422  14.356  68.694  1.00  0.00    -0.234 OA 
HETATM    4  O   UNL     1      -9.864  16.536  68.910  1.00  0.00    -0.239 OA 
ENDROOT
BRANCH   3   5
HETATM    5  C   UNL     1      -9.912  14.523  67.370  1.00  0.00    -0.227 C  
BRANCH   5   6
HETATM    6  C   UNL     1     -10.029  13.178  66.631  1.00  0.00    -0.270 C  
BRANCH   6   7
HETATM    7  O   UNL     1     -11.382  12.778  66.354  1.00  0.00    -0.292 OA 
HETATM    8  O   UNL     1     -11.015  13.334  64.196  1.00  0.00    -0.385 OA 
HETATM    9  N   UNL     1     -11.814  12.881  65.012  1.00  0.00    -0.350 N  
HETATM   10  O   UNL     1     -12.967  12.491  64.852  1.00  0.00    -0.821 OA 
ENDBRANCH   6   7
BRANCH   6  11
HETATM   11  C   UNL     1      -9.165  12.073  67.262  1.00  0.00    -0.182 C  
BRANCH  11  12
HETATM   12  O   UNL     1      -7.805  12.508  67.268  1.00  0.00    -0.165 OA 
HETATM   13  N   UNL     1      -6.943  11.603  66.598  1.00  0.00    -0.079 N  
HETATM   14  O   UNL     1      -7.453  10.582  66.137  1.00  0.00    -0.125 OA 
HETATM   15  O   UNL     1      -5.774  11.980  66.586  1.00  0.00    -0.277 OA 
ENDBRANCH  11  12
ENDBRANCH   6  11
ENDBRANCH   5   6
ENDBRANCH   3   5
TORSDOF 5
ENDMDL
MODEL      173
REMARK 921   NORMALIZED FREE ENERGY PREDICTED BY IDOCK:   -3.16 KCAL/MOL
REMARK 922        TOTAL FREE ENERGY PREDICTED BY IDOCK:   -4.59 KCAL/MOL
REMARK 923 INTER-LIGAND FREE ENERGY PREDICTED BY IDOCK:   -4.25 KCAL/MOL
REMARK 924 INTRA-LIGAND FREE ENERGY PREDICTED BY IDOCK:   -0.34 KCAL/MOL
REMARK 927      BINDING AFFINITY PREDICTED BY RF-SCORE:    0.00 PKD
ROOT
HETATM    1  O   UNL     1      -8.636   8.475  63.891  1.00  0.00    -0.087 OA 
HETATM    2  N   UNL     1      -8.655   9.647  64.255  1.00  0.00    -0.177 N  
HETATM    3  O   UNL     1      -9.969  10.165  64.367  1.00  0.00    -0.314 OA 
HETATM    4  O   UNL     1      -7.728  10.407  64.539  1.00  0.00    -0.135 OA 
ENDROOT
BRANCH   3   5
HETATM    5  C   UNL     1      -9.986  11.534  64.774  1.00  0.00    -0.260 C  
BRANCH   5   6
HETATM    6  C   UNL     1     -10.980  11.682  65.940  1.00  0.00    -0.280 C  
BRANCH   6   7
HETATM    7  O   UNL     1     -11.623  12.965  66.001  1.00  0.00    -0.336 OA 
HETATM    8  O   UNL     1     -13.105  12.200  64.478  1.00  0.00    -0.720 OA 
HETATM    9  N   UNL     1     -12.769  13.141  65.192  1.00  0.00    -0.463 N  
HETATM   10  O   UNL     1     -13.280  14.250  65.326  1.00  0.00    -0.704 OA 
ENDBRANCH   6   7
BRANCH   6  11
HETATM   11  C   UNL     1     -10.399  11.206  67.283  1.00  0.00    -0.208 C  
BRANCH  11  12
HETATM   12  O   UNL     1     -10.213  12.343  68.125  1.00  0.00    -0.212 OA 
HETATM   13  N   UNL     1      -8.857  12.757  68.187  1.00  0.00    -0.192 N  
HETATM   14  O   UNL     1      -8.040  12.091  67.551  1.00  0.00    -0.141 OA 
HETATM   15  O   UNL     1      -8.694  13.745  68.898  1.00  0.00    -0.021 OA 
ENDBRANCH  11  12
ENDBRANCH   6  11
ENDBRANCH   5   6
ENDBRANCH   3   5
TORSDOF 5
ENDMDL
MODEL      174
REMARK 921   NORMALIZED FREE ENERGY PREDICTED BY IDOCK:   -3.15 KCAL/MOL
REMARK 922        TOTAL FREE ENERGY PREDICTED BY IDOCK:   -4.59 KCAL/MOL
REMARK 923 INTER-LIGAND FREE ENERGY PREDICTED BY IDOCK:   -4.18 KCAL/MOL
REMARK 924 INTRA-LIGAND FREE ENERGY PREDICTED BY IDOCK:   -0.41 KCAL/MOL
REMARK 927      BINDING AFFINITY PREDICTED BY RF-SCORE:    0.00 PKD
ROOT
HETATM    1  O   UNL     1     -10.166   2.215  72.040  1.00  0.00    -0.161 OA 
HETATM    2  N   UNL     1     -10.602   3.079  72.795  1.00  0.00    -0.126 N  
HETATM    3  O   UNL     1     -10.565   4.375  72.223  1.00  0.00    -0.165 OA 
HETATM    4  O   UNL     1     -11.063   2.982  73.933  1.00  0.00    -0.206 OA 
ENDROOT
BRANCH   3   5
HETATM    5  C   UNL     1     -11.058   5.380  73.112  1.00  0.00    -0.308 C  
BRANCH   5   6
HETATM    6  C   UNL     1     -10.904   6.751  72.427  1.00  0.00    -0.238 C  
BRANCH   6   7
HETATM    7  O   UNL     1     -10.155   7.707  73.196  1.00  0.00    -0.268 OA 
HETATM    8  O   UNL     1      -8.374   7.233  71.890  1.00  0.00    -0.106 OA 
HETATM    9  N   UNL     1      -8.808   7.911  72.819  1.00  0.00    -0.168 N  
HETATM   10  O   UNL     1      -8.248   8.765  73.499  1.00  0.00    -0.379 OA 
ENDBRANCH   6   7
BRANCH   6  11
HETATM   11  C   UNL     1     -12.233   7.293  71.872  1.00  0.00    -0.313 C  
BRANCH  11  12
HETATM   12  O   UNL     1     -12.113   8.706  71.709  1.00  0.00    -0.298 OA 
HETATM   13  N   UNL     1     -13.249   9.406  72.192  1.00  0.00    -0.435 N  
HETATM   14  O   UNL     1     -14.170   8.729  72.649  1.00  0.00    -0.527 OA 
HETATM   15  O   UNL     1     -13.145  10.623  72.068  1.00  0.00    -0.481 OA 
ENDBRANCH  11  12
ENDBRANCH   6  11
ENDBRANCH   5   6
ENDBRANCH   3   5
TORSDOF 5
ENDMDL
MODEL      175
REMARK 921   NORMALIZED FREE ENERGY PREDICTED BY IDOCK:   -3.15 KCAL/MOL
REMARK 922        TOTAL FREE ENERGY PREDICTED BY IDOCK:   -4.58 KCAL/MOL
REMARK 923 INTER-LIGAND FREE ENERGY PREDICTED BY IDOCK:   -4.19 KCAL/MOL
REMARK 924 INTRA-LIGAND FREE ENERGY PREDICTED BY IDOCK:   -0.39 KCAL/MOL
REMARK 927      BINDING AFFINITY PREDICTED BY RF-SCORE:    0.00 PKD
ROOT
HETATM    1  O   UNL     1      -8.425   6.766  72.588  1.00  0.00    -0.121 OA 
HETATM    2  N   UNL     1      -8.416   7.914  72.151  1.00  0.00    -0.121 N  
HETATM    3  O   UNL     1      -9.017   8.018  70.872  1.00  0.00    -0.136 OA 
HETATM    4  O   UNL     1      -7.986   8.953  72.654  1.00  0.00    -0.377 OA 
ENDROOT
BRANCH   3   5
HETATM    5  C   UNL     1      -8.990   9.351  70.360  1.00  0.00    -0.250 C  
BRANCH   5   6
HETATM    6  C   UNL     1     -10.333   9.631  69.662  1.00  0.00    -0.227 C  
BRANCH   6   7
HETATM    7  O   UNL     1     -10.202  10.161  68.332  1.00  0.00    -0.157 OA 
HETATM    8  O   UNL     1     -10.485   8.059  67.557  1.00  0.00    -0.244 OA 
HETATM    9  N   UNL     1     -10.316   9.240  67.266  1.00  0.00    -0.250 N  
HETATM   10  O   UNL     1     -10.227   9.775  66.164  1.00  0.00    -0.259 OA 
ENDBRANCH   6   7
BRANCH   6  11
HETATM   11  C   UNL     1     -11.319  10.406  70.553  1.00  0.00    -0.341 C  
BRANCH  11  12
HETATM   12  O   UNL     1     -12.129   9.466  71.257  1.00  0.00    -0.305 OA 
HETATM   13  N   UNL     1     -13.189  10.087  71.967  1.00  0.00    -0.454 N  
HETATM   14  O   UNL     1     -13.257  11.315  71.909  1.00  0.00    -0.482 OA 
HETATM   15  O   UNL     1     -13.898   9.281  72.563  1.00  0.00    -0.468 OA 
ENDBRANCH  11  12
ENDBRANCH   6  11
ENDBRANCH   5   6
ENDBRANCH   3   5
TORSDOF 5
ENDMDL
MODEL      176
REMARK 921   NORMALIZED FREE ENERGY PREDICTED BY IDOCK:   -3.12 KCAL/MOL
REMARK 922        TOTAL FREE ENERGY PREDICTED BY IDOCK:   -4.55 KCAL/MOL
REMARK 923 INTER-LIGAND FREE ENERGY PREDICTED BY IDOCK:   -3.98 KCAL/MOL
REMARK 924 INTRA-LIGAND FREE ENERGY PREDICTED BY IDOCK:   -0.56 KCAL/MOL
REMARK 927      BINDING AFFINITY PREDICTED BY RF-SCORE:    0.00 PKD
ROOT
HETATM    1  O   UNL     1     -11.504  14.593  69.651  1.00  0.00    -0.262 OA 
HETATM    2  N   UNL     1     -11.748  13.551  69.047  1.00  0.00    -0.305 N  
HETATM    3  O   UNL     1     -11.718  12.411  69.887  1.00  0.00    -0.309 OA 
HETATM    4  O   UNL     1     -12.018  13.366  67.860  1.00  0.00    -0.351 OA 
ENDROOT
BRANCH   3   5
HETATM    5  C   UNL     1     -11.986  11.200  69.176  1.00  0.00    -0.343 C  
BRANCH   5   6
HETATM    6  C   UNL     1     -10.668  10.418  69.037  1.00  0.00    -0.228 C  
BRANCH   6   7
HETATM    7  O   UNL     1     -10.269  10.182  67.676  1.00  0.00    -0.180 OA 
HETATM    8  O   UNL     1      -8.938  12.000  67.841  1.00  0.00    -0.167 OA 
HETATM    9  N   UNL     1      -9.320  11.075  67.128  1.00  0.00    -0.163 N  
HETATM   10  O   UNL     1      -9.006  10.788  65.977  1.00  0.00    -0.168 OA 
ENDBRANCH   6   7
BRANCH   6  11
HETATM   11  C   UNL     1     -10.619   9.167  69.932  1.00  0.00    -0.230 C  
BRANCH  11  12
HETATM   12  O   UNL     1     -11.885   9.019  70.574  1.00  0.00    -0.207 OA 
HETATM   13  N   UNL     1     -11.762   8.732  71.958  1.00  0.00    -0.359 N  
HETATM   14  O   UNL     1     -10.620   8.626  72.407  1.00  0.00    -0.331 OA 
HETATM   15  O   UNL     1     -12.848   8.619  72.518  1.00  0.00    -0.379 OA 
ENDBRANCH  11  12
ENDBRANCH   6  11
ENDBRANCH   5   6
ENDBRANCH   3   5
TORSDOF 5
ENDMDL
MODEL      177
REMARK 921   NORMALIZED FREE ENERGY PREDICTED BY IDOCK:   -3.11 KCAL/MOL
REMARK 922        TOTAL FREE ENERGY PREDICTED BY IDOCK:   -4.53 KCAL/MOL
REMARK 923 INTER-LIGAND FREE ENERGY PREDICTED BY IDOCK:   -4.14 KCAL/MOL
REMARK 924 INTRA-LIGAND FREE ENERGY PREDICTED BY IDOCK:   -0.39 KCAL/MOL
REMARK 927      BINDING AFFINITY PREDICTED BY RF-SCORE:    0.00 PKD
ROOT
HETATM    1  O   UNL     1      -8.493   7.791  65.117  1.00  0.00    -0.134 OA 
HETATM    2  N   UNL     1      -8.954   7.986  66.238  1.00  0.00    -0.163 N  
HETATM    3  O   UNL     1     -10.121   8.790  66.218  1.00  0.00    -0.291 OA 
HETATM    4  O   UNL     1      -8.569   7.586  67.338  1.00  0.00    -0.118 OA 
ENDROOT
BRANCH   3   5
HETATM    5  C   UNL     1     -10.644   9.029  67.525  1.00  0.00    -0.237 C  
BRANCH   5   6
HETATM    6  C   UNL     1     -11.114  10.494  67.600  1.00  0.00    -0.309 C  
BRANCH   6   7
HETATM    7  O   UNL     1     -10.353  11.394  66.777  1.00  0.00    -0.218 OA 
HETATM    8  O   UNL     1     -12.313  12.272  66.076  1.00  0.00    -0.609 OA 
HETATM    9  N   UNL     1     -11.087  12.326  66.008  1.00  0.00    -0.296 N  
HETATM   10  O   UNL     1     -10.368  13.080  65.360  1.00  0.00    -0.291 OA 
ENDBRANCH   6   7
BRANCH   6  11
HETATM   11  C   UNL     1     -11.315  10.983  69.045  1.00  0.00    -0.277 C  
BRANCH  11  12
HETATM   12  O   UNL     1     -11.184   9.866  69.924  1.00  0.00    -0.242 OA 
HETATM   13  N   UNL     1     -12.230   9.803  70.881  1.00  0.00    -0.304 N  
HETATM   14  O   UNL     1     -13.071  10.701  70.850  1.00  0.00    -0.357 OA 
HETATM   15  O   UNL     1     -12.130   8.835  71.631  1.00  0.00    -0.298 OA 
ENDBRANCH  11  12
ENDBRANCH   6  11
ENDBRANCH   5   6
ENDBRANCH   3   5
TORSDOF 5
ENDMDL
MODEL      178
REMARK 921   NORMALIZED FREE ENERGY PREDICTED BY IDOCK:   -3.11 KCAL/MOL
REMARK 922        TOTAL FREE ENERGY PREDICTED BY IDOCK:   -4.52 KCAL/MOL
REMARK 923 INTER-LIGAND FREE ENERGY PREDICTED BY IDOCK:   -4.09 KCAL/MOL
REMARK 924 INTRA-LIGAND FREE ENERGY PREDICTED BY IDOCK:   -0.43 KCAL/MOL
REMARK 927      BINDING AFFINITY PREDICTED BY RF-SCORE:    0.00 PKD
ROOT
HETATM    1  O   UNL     1      -7.600  10.771  68.463  1.00  0.00    -0.091 OA 
HETATM    2  N   UNL     1      -7.811  11.858  67.930  1.00  0.00    -0.128 N  
HETATM    3  O   UNL     1      -9.136  12.319  68.130  1.00  0.00    -0.187 OA 
HETATM    4  O   UNL     1      -7.057  12.585  67.282  1.00  0.00    -0.148 OA 
ENDROOT
BRANCH   3   5
HETATM    5  C   UNL     1      -9.380  13.575  67.495  1.00  0.00    -0.220 C  
BRANCH   5   6
HETATM    6  C   UNL     1     -10.662  13.450  66.652  1.00  0.00    -0.282 C  
BRANCH   6   7
HETATM    7  O   UNL     1     -10.429  13.416  65.234  1.00  0.00    -0.300 OA 
HETATM    8  O   UNL     1     -10.570  11.165  65.350  1.00  0.00    -0.265 OA 
HETATM    9  N   UNL     1     -10.415  12.142  64.622  1.00  0.00    -0.286 N  
HETATM   10  O   UNL     1     -10.244  12.199  63.408  1.00  0.00    -0.433 OA 
ENDBRANCH   6   7
BRANCH   6  11
HETATM   11  C   UNL     1     -11.759  14.439  67.084  1.00  0.00    -0.400 C  
BRANCH  11  12
HETATM   12  O   UNL     1     -11.809  14.467  68.510  1.00  0.00    -0.326 OA 
HETATM   13  N   UNL     1     -11.497  15.745  69.040  1.00  0.00    -0.367 N  
HETATM   14  O   UNL     1     -11.209  16.629  68.233  1.00  0.00    -0.349 OA 
HETATM   15  O   UNL     1     -11.553  15.778  70.266  1.00  0.00    -0.310 OA 
ENDBRANCH  11  12
ENDBRANCH   6  11
ENDBRANCH   5   6
ENDBRANCH   3   5
TORSDOF 5
ENDMDL
MODEL      179
REMARK 921   NORMALIZED FREE ENERGY PREDICTED BY IDOCK:   -3.10 KCAL/MOL
REMARK 922        TOTAL FREE ENERGY PREDICTED BY IDOCK:   -4.51 KCAL/MOL
REMARK 923 INTER-LIGAND FREE ENERGY PREDICTED BY IDOCK:   -3.99 KCAL/MOL
REMARK 924 INTRA-LIGAND FREE ENERGY PREDICTED BY IDOCK:   -0.52 KCAL/MOL
REMARK 927      BINDING AFFINITY PREDICTED BY RF-SCORE:    0.00 PKD
ROOT
HETATM    1  O   UNL     1      -9.105   9.329  62.501  1.00  0.00    -0.239 OA 
HETATM    2  N   UNL     1      -8.842  10.013  63.487  1.00  0.00    -0.214 N  
HETATM    3  O   UNL     1      -9.924  10.836  63.887  1.00  0.00    -0.296 OA 
HETATM    4  O   UNL     1      -7.813  10.075  64.160  1.00  0.00    -0.138 OA 
ENDROOT
BRANCH   3   5
HETATM    5  C   UNL     1      -9.608  11.643  65.023  1.00  0.00    -0.164 C  
BRANCH   5   6
HETATM    6  C   UNL     1     -10.515  11.214  66.190  1.00  0.00    -0.253 C  
BRANCH   6   7
HETATM    7  O   UNL     1     -10.987   9.859  66.097  1.00  0.00     0.174 OA 
HETATM    8  O   UNL     1      -9.257   9.256  67.420  1.00  0.00    -0.126 OA 
HETATM    9  N   UNL     1     -10.254   8.881  66.808  1.00  0.00    -0.278 N  
HETATM   10  O   UNL     1     -10.739   7.758  66.706  1.00  0.00    -0.311 OA 
ENDBRANCH   6   7
BRANCH   6  11
HETATM   11  C   UNL     1     -11.617  12.243  66.499  1.00  0.00    -0.377 C  
BRANCH  11  12
HETATM   12  O   UNL     1     -12.196  12.670  65.267  1.00  0.00    -0.449 OA 
HETATM   13  N   UNL     1     -12.341  14.080  65.195  1.00  0.00    -0.436 N  
HETATM   14  O   UNL     1     -11.987  14.729  66.180  1.00  0.00    -0.281 OA 
HETATM   15  O   UNL     1     -12.826  14.454  64.131  1.00  0.00    -0.606 OA 
ENDBRANCH  11  12
ENDBRANCH   6  11
ENDBRANCH   5   6
ENDBRANCH   3   5
TORSDOF 5
ENDMDL
MODEL      180
REMARK 921   NORMALIZED FREE ENERGY PREDICTED BY IDOCK:   -3.09 KCAL/MOL
REMARK 922        TOTAL FREE ENERGY PREDICTED BY IDOCK:   -4.51 KCAL/MOL
REMARK 923 INTER-LIGAND FREE ENERGY PREDICTED BY IDOCK:   -4.74 KCAL/MOL
REMARK 924 INTRA-LIGAND FREE ENERGY PREDICTED BY IDOCK:    0.23 KCAL/MOL
REMARK 927      BINDING AFFINITY PREDICTED BY RF-SCORE:    0.00 PKD
ROOT
HETATM    1  O   UNL     1     -10.610  12.547  65.151  1.00  0.00    -0.278 OA 
HETATM    2  N   UNL     1     -11.133  13.644  65.331  1.00  0.00    -0.294 N  
HETATM    3  O   UNL     1     -10.293  14.720  64.952  1.00  0.00    -0.406 OA 
HETATM    4  O   UNL     1     -12.248  13.931  65.767  1.00  0.00    -0.405 OA 
ENDROOT
BRANCH   3   5
HETATM    5  C   UNL     1     -10.898  15.994  65.179  1.00  0.00    -0.395 C  
BRANCH   5   6
HETATM    6  C   UNL     1      -9.984  16.805  66.117  1.00  0.00    -0.327 C  
BRANCH   6   7
HETATM    7  O   UNL     1      -9.437  16.041  67.204  1.00  0.00    -0.213 OA 
HETATM    8  O   UNL     1     -11.468  16.145  68.187  1.00  0.00    -0.326 OA 
HETATM    9  N   UNL     1     -10.318  15.720  68.263  1.00  0.00    -0.235 N  
HETATM   10  O   UNL     1      -9.785  15.040  69.134  1.00  0.00    -0.215 OA 
ENDBRANCH   6   7
BRANCH   6  11
HETATM   11  C   UNL     1     -10.606  18.147  66.542  1.00  0.00    -0.272 C  
BRANCH  11  12
HETATM   12  O   UNL     1      -9.638  19.177  66.345  1.00  0.00    -0.337 OA 
HETATM   13  N   UNL     1      -9.224  19.774  67.564  1.00  0.00    -0.323 N  
HETATM   14  O   UNL     1      -9.753  19.360  68.596  1.00  0.00    -0.383 OA 
HETATM   15  O   UNL     1      -8.380  20.651  67.402  1.00  0.00    -0.334 OA 
ENDBRANCH  11  12
ENDBRANCH   6  11
ENDBRANCH   5   6
ENDBRANCH   3   5
TORSDOF 5
ENDMDL
MODEL      181
REMARK 921   NORMALIZED FREE ENERGY PREDICTED BY IDOCK:   -3.08 KCAL/MOL
REMARK 922        TOTAL FREE ENERGY PREDICTED BY IDOCK:   -4.50 KCAL/MOL
REMARK 923 INTER-LIGAND FREE ENERGY PREDICTED BY IDOCK:   -4.07 KCAL/MOL
REMARK 924 INTRA-LIGAND FREE ENERGY PREDICTED BY IDOCK:   -0.43 KCAL/MOL
REMARK 927      BINDING AFFINITY PREDICTED BY RF-SCORE:    0.00 PKD
ROOT
HETATM    1  O   UNL     1     -12.477  11.978  71.067  1.00  0.00    -0.368 OA 
HETATM    2  N   UNL     1     -12.314  11.830  69.858  1.00  0.00    -0.183 N  
HETATM    3  O   UNL     1     -11.950  13.032  69.203  1.00  0.00    -0.303 OA 
HETATM    4  O   UNL     1     -12.406  10.818  69.162  1.00  0.00    -0.400 OA 
ENDROOT
BRANCH   3   5
HETATM    5  C   UNL     1     -11.778  12.858  67.796  1.00  0.00    -0.362 C  
BRANCH   5   6
HETATM    6  C   UNL     1     -10.620  13.761  67.333  1.00  0.00    -0.260 C  
BRANCH   6   7
HETATM    7  O   UNL     1     -10.712  14.172  65.959  1.00  0.00    -0.290 OA 
HETATM    8  O   UNL     1     -10.692  16.310  66.685  1.00  0.00    -0.291 OA 
HETATM    9  N   UNL     1     -10.725  15.563  65.710  1.00  0.00    -0.339 N  
HETATM   10  O   UNL     1     -10.771  15.832  64.513  1.00  0.00    -0.449 OA 
ENDBRANCH   6   7
BRANCH   6  11
HETATM   11  C   UNL     1      -9.239  13.213  67.734  1.00  0.00    -0.203 C  
BRANCH  11  12
HETATM   12  O   UNL     1      -8.236  13.993  67.085  1.00  0.00    -0.182 OA 
HETATM   13  N   UNL     1      -7.519  14.818  67.990  1.00  0.00    -0.116 N  
HETATM   14  O   UNL     1      -7.859  14.778  69.172  1.00  0.00    -0.151 OA 
HETATM   15  O   UNL     1      -6.644  15.480  67.438  1.00  0.00    -0.174 OA 
ENDBRANCH  11  12
ENDBRANCH   6  11
ENDBRANCH   5   6
ENDBRANCH   3   5
TORSDOF 5
ENDMDL
MODEL      182
REMARK 921   NORMALIZED FREE ENERGY PREDICTED BY IDOCK:   -3.08 KCAL/MOL
REMARK 922        TOTAL FREE ENERGY PREDICTED BY IDOCK:   -4.49 KCAL/MOL
REMARK 923 INTER-LIGAND FREE ENERGY PREDICTED BY IDOCK:   -4.01 KCAL/MOL
REMARK 924 INTRA-LIGAND FREE ENERGY PREDICTED BY IDOCK:   -0.48 KCAL/MOL
REMARK 927      BINDING AFFINITY PREDICTED BY RF-SCORE:    0.00 PKD
ROOT
HETATM    1  O   UNL     1     -13.941   9.526  72.166  1.00  0.00    -0.342 OA 
HETATM    2  N   UNL     1     -12.759   9.254  71.971  1.00  0.00    -0.385 N  
HETATM    3  O   UNL     1     -12.140  10.132  71.048  1.00  0.00    -0.317 OA 
HETATM    4  O   UNL     1     -12.057   8.366  72.457  1.00  0.00    -0.393 OA 
ENDROOT
BRANCH   3   5
HETATM    5  C   UNL     1     -10.771   9.802  70.811  1.00  0.00    -0.323 C  
BRANCH   5   6
HETATM    6  C   UNL     1     -10.364  10.373  69.440  1.00  0.00    -0.237 C  
BRANCH   6   7
HETATM    7  O   UNL     1     -11.412  11.096  68.773  1.00  0.00    -0.246 OA 
HETATM    8  O   UNL     1      -9.933  12.773  68.450  1.00  0.00    -0.226 OA 
HETATM    9  N   UNL     1     -11.078  12.370  68.259  1.00  0.00    -0.226 N  
HETATM   10  O   UNL     1     -12.014  12.907  67.675  1.00  0.00    -0.352 OA 
ENDBRANCH   6   7
BRANCH   6  11
HETATM   11  C   UNL     1      -9.649   9.340  68.551  1.00  0.00    -0.147 C  
BRANCH  11  12
HETATM   12  O   UNL     1     -10.241   9.372  67.253  1.00  0.00    -0.212 OA 
HETATM   13  N   UNL     1      -9.326   9.779  66.249  1.00  0.00    -0.169 N  
HETATM   14  O   UNL     1      -8.186  10.068  66.615  1.00  0.00    -0.120 OA 
HETATM   15  O   UNL     1      -9.826   9.794  65.127  1.00  0.00    -0.315 OA 
ENDBRANCH  11  12
ENDBRANCH   6  11
ENDBRANCH   5   6
ENDBRANCH   3   5
TORSDOF 5
ENDMDL
MODEL      183
REMARK 921   NORMALIZED FREE ENERGY PREDICTED BY IDOCK:   -3.07 KCAL/MOL
REMARK 922        TOTAL FREE ENERGY PREDICTED BY IDOCK:   -4.48 KCAL/MOL
REMARK 923 INTER-LIGAND FREE ENERGY PREDICTED BY IDOCK:   -3.86 KCAL/MOL
REMARK 924 INTRA-LIGAND FREE ENERGY PREDICTED BY IDOCK:   -0.62 KCAL/MOL
REMARK 927      BINDING AFFINITY PREDICTED BY RF-SCORE:    0.00 PKD
ROOT
HETATM    1  O   UNL     1     -11.628  14.778  69.591  1.00  0.00    -0.270 OA 
HETATM    2  N   UNL     1     -11.906  13.762  68.960  1.00  0.00    -0.338 N  
HETATM    3  O   UNL     1     -11.837  12.589  69.752  1.00  0.00    -0.315 OA 
HETATM    4  O   UNL     1     -12.236  13.624  67.781  1.00  0.00    -0.321 OA 
ENDROOT
BRANCH   3   5
HETATM    5  C   UNL     1     -12.144  11.408  69.009  1.00  0.00    -0.249 C  
BRANCH   5   6
HETATM    6  C   UNL     1     -11.019  10.383  69.239  1.00  0.00    -0.242 C  
BRANCH   6   7
HETATM    7  O   UNL     1     -10.710  10.156  70.625  1.00  0.00    -0.297 OA 
HETATM    8  O   UNL     1     -11.228   7.982  70.295  1.00  0.00    -0.258 OA 
HETATM    9  N   UNL     1     -10.835   8.828  71.094  1.00  0.00    -0.249 N  
HETATM   10  O   UNL     1     -10.521   8.709  72.275  1.00  0.00    -0.330 OA 
ENDBRANCH   6   7
BRANCH   6  11
HETATM   11  C   UNL     1      -9.786  10.642  68.355  1.00  0.00    -0.161 C  
BRANCH  11  12
HETATM   12  O   UNL     1     -10.227  11.181  67.109  1.00  0.00    -0.189 OA 
HETATM   13  N   UNL     1      -9.449  12.292  66.693  1.00  0.00    -0.221 N  
HETATM   14  O   UNL     1      -8.543  12.653  67.444  1.00  0.00    -0.170 OA 
HETATM   15  O   UNL     1      -9.815  12.750  65.614  1.00  0.00    -0.248 OA 
ENDBRANCH  11  12
ENDBRANCH   6  11
ENDBRANCH   5   6
ENDBRANCH   3   5
TORSDOF 5
ENDMDL
MODEL      184
REMARK 921   NORMALIZED FREE ENERGY PREDICTED BY IDOCK:   -3.07 KCAL/MOL
REMARK 922        TOTAL FREE ENERGY PREDICTED BY IDOCK:   -4.47 KCAL/MOL
REMARK 923 INTER-LIGAND FREE ENERGY PREDICTED BY IDOCK:   -4.01 KCAL/MOL
REMARK 924 INTRA-LIGAND FREE ENERGY PREDICTED BY IDOCK:   -0.46 KCAL/MOL
REMARK 927      BINDING AFFINITY PREDICTED BY RF-SCORE:    0.00 PKD
ROOT
HETATM    1  O   UNL     1     -13.247  10.425  70.757  1.00  0.00    -0.375 OA 
HETATM    2  N   UNL     1     -13.145   9.530  71.592  1.00  0.00    -0.375 N  
HETATM    3  O   UNL     1     -11.834   8.998  71.666  1.00  0.00    -0.312 OA 
HETATM    4  O   UNL     1     -13.987   9.054  72.354  1.00  0.00    -0.465 OA 
ENDROOT
BRANCH   3   5
HETATM    5  C   UNL     1     -11.724   7.945  72.626  1.00  0.00    -0.341 C  
BRANCH   5   6
HETATM    6  C   UNL     1     -11.243   6.675  71.900  1.00  0.00    -0.264 C  
BRANCH   6   7
HETATM    7  O   UNL     1     -11.824   6.490  70.598  1.00  0.00    -0.384 OA 
HETATM    8  O   UNL     1      -9.740   6.645  69.740  1.00  0.00    -0.159 OA 
HETATM    9  N   UNL     1     -10.932   6.470  69.501  1.00  0.00    -0.306 N  
HETATM   10  O   UNL     1     -11.500   6.274  68.431  1.00  0.00    -0.201 OA 
ENDBRANCH   6   7
BRANCH   6  11
HETATM   11  C   UNL     1     -11.290   5.423  72.793  1.00  0.00    -0.296 C  
BRANCH  11  12
HETATM   12  O   UNL     1      -9.954   4.972  73.012  1.00  0.00    -0.155 OA 
HETATM   13  N   UNL     1      -9.899   3.611  73.410  1.00  0.00    -0.109 N  
HETATM   14  O   UNL     1     -10.973   3.022  73.538  1.00  0.00    -0.198 OA 
HETATM   15  O   UNL     1      -8.751   3.213  73.585  1.00  0.00    -0.074 OA 
ENDBRANCH  11  12
ENDBRANCH   6  11
ENDBRANCH   5   6
ENDBRANCH   3   5
TORSDOF 5
ENDMDL
MODEL      185
REMARK 921   NORMALIZED FREE ENERGY PREDICTED BY IDOCK:   -3.02 KCAL/MOL
REMARK 922        TOTAL FREE ENERGY PREDICTED BY IDOCK:   -4.42 KCAL/MOL
REMARK 923 INTER-LIGAND FREE ENERGY PREDICTED BY IDOCK:   -4.00 KCAL/MOL
REMARK 924 INTRA-LIGAND FREE ENERGY PREDICTED BY IDOCK:   -0.41 KCAL/MOL
REMARK 927      BINDING AFFINITY PREDICTED BY RF-SCORE:    0.00 PKD
ROOT
HETATM    1  O   UNL     1     -11.259  19.385  64.846  1.00  0.00    -0.159 OA 
HETATM    2  N   UNL     1     -10.874  18.349  65.383  1.00  0.00    -0.010 N  
HETATM    3  O   UNL     1     -10.572  18.523  66.756  1.00  0.00    -0.391 OA 
HETATM    4  O   UNL     1     -10.731  17.218  64.916  1.00  0.00    -0.723 OA 
ENDROOT
BRANCH   3   5
HETATM    5  C   UNL     1     -10.109  17.320  67.372  1.00  0.00    -0.307 C  
BRANCH   5   6
HETATM    6  C   UNL     1      -8.721  17.589  67.981  1.00  0.00    -0.254 C  
BRANCH   6   7
HETATM    7  O   UNL     1      -8.244  16.538  68.837  1.00  0.00    -0.231 OA 
HETATM    8  O   UNL     1      -6.967  15.831  67.113  1.00  0.00    -0.203 OA 
HETATM    9  N   UNL     1      -7.289  15.654  68.286  1.00  0.00    -0.113 N  
HETATM   10  O   UNL     1      -6.907  14.806  69.087  1.00  0.00    -0.114 OA 
ENDBRANCH   6   7
BRANCH   6  11
HETATM   11  C   UNL     1      -8.600  18.998  68.589  1.00  0.00    -0.354 C  
BRANCH  11  12
HETATM   12  O   UNL     1      -7.659  19.745  67.818  1.00  0.00    -0.271 OA 
HETATM   13  N   UNL     1      -6.539  20.160  68.583  1.00  0.00    -0.302 N  
HETATM   14  O   UNL     1      -6.534  19.858  69.777  1.00  0.00    -0.343 OA 
HETATM   15  O   UNL     1      -5.719  20.791  67.921  1.00  0.00    -0.230 OA 
ENDBRANCH  11  12
ENDBRANCH   6  11
ENDBRANCH   5   6
ENDBRANCH   3   5
TORSDOF 5
ENDMDL
MODEL      186
REMARK 921   NORMALIZED FREE ENERGY PREDICTED BY IDOCK:   -3.01 KCAL/MOL
REMARK 922        TOTAL FREE ENERGY PREDICTED BY IDOCK:   -4.40 KCAL/MOL
REMARK 923 INTER-LIGAND FREE ENERGY PREDICTED BY IDOCK:   -3.89 KCAL/MOL
REMARK 924 INTRA-LIGAND FREE ENERGY PREDICTED BY IDOCK:   -0.51 KCAL/MOL
REMARK 927      BINDING AFFINITY PREDICTED BY RF-SCORE:    0.00 PKD
ROOT
HETATM    1  O   UNL     1      -9.689   7.089  68.950  1.00  0.00    -0.144 OA 
HETATM    2  N   UNL     1     -10.134   8.196  68.656  1.00  0.00    -0.191 N  
HETATM    3  O   UNL     1     -10.254   8.384  67.257  1.00  0.00    -0.227 OA 
HETATM    4  O   UNL     1     -10.490   9.127  69.380  1.00  0.00    -0.211 OA 
ENDROOT
BRANCH   3   5
HETATM    5  C   UNL     1     -10.756   9.678  66.920  1.00  0.00    -0.115 C  
BRANCH   5   6
HETATM    6  C   UNL     1      -9.870  10.268  65.807  1.00  0.00    -0.257 C  
BRANCH   6   7
HETATM    7  O   UNL     1      -8.460  10.171  66.070  1.00  0.00    -0.125 OA 
HETATM    8  O   UNL     1      -8.314   8.766  64.308  1.00  0.00    -0.165 OA 
HETATM    9  N   UNL     1      -7.705   9.354  65.197  1.00  0.00    -0.106 N  
HETATM   10  O   UNL     1      -6.507   9.351  65.466  1.00  0.00    -0.067 OA 
ENDBRANCH   6   7
BRANCH   6  11
HETATM   11  C   UNL     1     -10.330  11.664  65.354  1.00  0.00    -0.267 C  
BRANCH  11  12
HETATM   12  O   UNL     1     -11.032  11.531  64.118  1.00  0.00    -0.347 OA 
HETATM   13  N   UNL     1     -12.357  12.035  64.189  1.00  0.00    -0.375 N  
HETATM   14  O   UNL     1     -12.727  12.482  65.275  1.00  0.00    -0.654 OA 
HETATM   15  O   UNL     1     -12.960  11.937  63.124  1.00  0.00    -0.640 OA 
ENDBRANCH  11  12
ENDBRANCH   6  11
ENDBRANCH   5   6
ENDBRANCH   3   5
TORSDOF 5
ENDMDL
MODEL      187
REMARK 921   NORMALIZED FREE ENERGY PREDICTED BY IDOCK:   -2.98 KCAL/MOL
REMARK 922        TOTAL FREE ENERGY PREDICTED BY IDOCK:   -4.36 KCAL/MOL
REMARK 923 INTER-LIGAND FREE ENERGY PREDICTED BY IDOCK:   -3.96 KCAL/MOL
REMARK 924 INTRA-LIGAND FREE ENERGY PREDICTED BY IDOCK:   -0.40 KCAL/MOL
REMARK 927      BINDING AFFINITY PREDICTED BY RF-SCORE:    0.00 PKD
ROOT
HETATM    1  O   UNL     1     -13.043  10.521  71.884  1.00  0.00    -0.457 OA 
HETATM    2  N   UNL     1     -13.286   9.318  71.845  1.00  0.00    -0.399 N  
HETATM    3  O   UNL     1     -12.132   8.533  71.600  1.00  0.00    -0.289 OA 
HETATM    4  O   UNL     1     -14.350   8.716  71.997  1.00  0.00    -0.434 OA 
ENDROOT
BRANCH   3   5
HETATM    5  C   UNL     1     -12.422   7.136  71.539  1.00  0.00    -0.381 C  
BRANCH   5   6
HETATM    6  C   UNL     1     -11.114   6.381  71.241  1.00  0.00    -0.282 C  
BRANCH   6   7
HETATM    7  O   UNL     1     -10.224   6.287  72.366  1.00  0.00    -0.184 OA 
HETATM    8  O   UNL     1     -10.432   4.041  72.234  1.00  0.00    -0.149 OA 
HETATM    9  N   UNL     1      -9.903   4.985  72.815  1.00  0.00    -0.156 N  
HETATM   10  O   UNL     1      -9.113   4.988  73.755  1.00  0.00    -0.117 OA 
ENDBRANCH   6   7
BRANCH   6  11
HETATM   11  C   UNL     1     -10.436   6.851  69.942  1.00  0.00    -0.216 C  
BRANCH  11  12
HETATM   12  O   UNL     1     -10.176   5.709  69.127  1.00  0.00    -0.192 OA 
HETATM   13  N   UNL     1     -10.420   5.956  67.752  1.00  0.00    -0.214 N  
HETATM   14  O   UNL     1     -10.835   7.076  67.450  1.00  0.00    -0.285 OA 
HETATM   15  O   UNL     1     -10.184   4.981  67.044  1.00  0.00    -0.204 OA 
ENDBRANCH  11  12
ENDBRANCH   6  11
ENDBRANCH   5   6
ENDBRANCH   3   5
TORSDOF 5
ENDMDL
MODEL      188
REMARK 921   NORMALIZED FREE ENERGY PREDICTED BY IDOCK:   -2.97 KCAL/MOL
REMARK 922        TOTAL FREE ENERGY PREDICTED BY IDOCK:   -4.35 KCAL/MOL
REMARK 923 INTER-LIGAND FREE ENERGY PREDICTED BY IDOCK:   -3.94 KCAL/MOL
REMARK 924 INTRA-LIGAND FREE ENERGY PREDICTED BY IDOCK:   -0.41 KCAL/MOL
REMARK 927      BINDING AFFINITY PREDICTED BY RF-SCORE:    0.00 PKD
ROOT
HETATM    1  O   UNL     1      -8.734   4.966  73.706  1.00  0.00    -0.107 OA 
HETATM    2  N   UNL     1      -9.820   5.534  73.627  1.00  0.00    -0.162 N  
HETATM    3  O   UNL     1     -10.509   5.231  72.427  1.00  0.00    -0.201 OA 
HETATM    4  O   UNL     1     -10.381   6.292  74.419  1.00  0.00    -0.323 OA 
ENDROOT
BRANCH   3   5
HETATM    5  C   UNL     1     -11.764   5.907  72.330  1.00  0.00    -0.253 C  
BRANCH   5   6
HETATM    6  C   UNL     1     -11.650   6.991  71.244  1.00  0.00    -0.303 C  
BRANCH   6   7
HETATM    7  O   UNL     1     -12.684   7.988  71.301  1.00  0.00    -0.296 OA 
HETATM    8  O   UNL     1     -11.057   9.541  71.514  1.00  0.00    -0.367 OA 
HETATM    9  N   UNL     1     -12.265   9.332  71.428  1.00  0.00    -0.329 N  
HETATM   10  O   UNL     1     -13.203  10.124  71.436  1.00  0.00    -0.376 OA 
ENDBRANCH   6   7
BRANCH   6  11
HETATM   11  C   UNL     1     -11.417   6.407  69.839  1.00  0.00    -0.415 C  
BRANCH  11  12
HETATM   12  O   UNL     1     -10.339   7.114  69.227  1.00  0.00    -0.191 OA 
HETATM   13  N   UNL     1     -10.398   7.074  67.810  1.00  0.00    -0.185 N  
HETATM   14  O   UNL     1     -11.324   6.436  67.307  1.00  0.00    -0.295 OA 
HETATM   15  O   UNL     1      -9.481   7.693  67.278  1.00  0.00    -0.138 OA 
ENDBRANCH  11  12
ENDBRANCH   6  11
ENDBRANCH   5   6
ENDBRANCH   3   5
TORSDOF 5
ENDMDL
MODEL      189
REMARK 921   NORMALIZED FREE ENERGY PREDICTED BY IDOCK:   -2.95 KCAL/MOL
REMARK 922        TOTAL FREE ENERGY PREDICTED BY IDOCK:   -4.32 KCAL/MOL
REMARK 923 INTER-LIGAND FREE ENERGY PREDICTED BY IDOCK:   -3.95 KCAL/MOL
REMARK 924 INTRA-LIGAND FREE ENERGY PREDICTED BY IDOCK:   -0.37 KCAL/MOL
REMARK 927      BINDING AFFINITY PREDICTED BY RF-SCORE:    0.00 PKD
ROOT
HETATM    1  O   UNL     1      -7.129  11.131  69.809  1.00  0.00    -0.111 OA 
HETATM    2  N   UNL     1      -7.182  11.986  68.929  1.00  0.00    -0.108 N  
HETATM    3  O   UNL     1      -8.510  12.308  68.557  1.00  0.00    -0.152 OA 
HETATM    4  O   UNL     1      -6.276  12.592  68.354  1.00  0.00    -0.053 OA 
ENDROOT
BRANCH   3   5
HETATM    5  C   UNL     1      -8.566  13.291  67.522  1.00  0.00    -0.200 C  
BRANCH   5   6
HETATM    6  C   UNL     1     -10.045  13.597  67.223  1.00  0.00    -0.239 C  
BRANCH   6   7
HETATM    7  O   UNL     1     -10.964  13.022  68.166  1.00  0.00    -0.227 OA 
HETATM    8  O   UNL     1     -11.780  15.100  68.510  1.00  0.00    -0.330 OA 
HETATM    9  N   UNL     1     -11.870  13.907  68.793  1.00  0.00    -0.344 N  
HETATM   10  O   UNL     1     -12.642  13.336  69.557  1.00  0.00    -0.029 OA 
ENDBRANCH   6   7
BRANCH   6  11
HETATM   11  C   UNL     1     -10.419  13.351  65.751  1.00  0.00    -0.290 C  
BRANCH  11  12
HETATM   12  O   UNL     1     -11.713  12.749  65.707  1.00  0.00    -0.357 OA 
HETATM   13  N   UNL     1     -12.157  12.514  64.380  1.00  0.00    -0.399 N  
HETATM   14  O   UNL     1     -11.410  12.871  63.469  1.00  0.00    -0.443 OA 
HETATM   15  O   UNL     1     -13.263  11.982  64.336  1.00  0.00    -0.669 OA 
ENDBRANCH  11  12
ENDBRANCH   6  11
ENDBRANCH   5   6
ENDBRANCH   3   5
TORSDOF 5
ENDMDL
MODEL      190
REMARK 921   NORMALIZED FREE ENERGY PREDICTED BY IDOCK:   -2.95 KCAL/MOL
REMARK 922        TOTAL FREE ENERGY PREDICTED BY IDOCK:   -4.32 KCAL/MOL
REMARK 923 INTER-LIGAND FREE ENERGY PREDICTED BY IDOCK:   -3.86 KCAL/MOL
REMARK 924 INTRA-LIGAND FREE ENERGY PREDICTED BY IDOCK:   -0.45 KCAL/MOL
REMARK 927      BINDING AFFINITY PREDICTED BY RF-SCORE:    0.00 PKD
ROOT
HETATM    1  O   UNL     1      -9.135   8.466  68.217  1.00  0.00    -0.139 OA 
HETATM    2  N   UNL     1      -9.512   9.032  69.239  1.00  0.00    -0.155 N  
HETATM    3  O   UNL     1      -9.425   8.206  70.387  1.00  0.00    -0.162 OA 
HETATM    4  O   UNL     1      -9.928  10.180  69.405  1.00  0.00    -0.204 OA 
ENDROOT
BRANCH   3   5
HETATM    5  C   UNL     1      -9.880   8.863  71.571  1.00  0.00    -0.314 C  
BRANCH   5   6
HETATM    6  C   UNL     1     -10.984   8.002  72.211  1.00  0.00    -0.314 C  
BRANCH   6   7
HETATM    7  O   UNL     1     -12.188   8.726  72.516  1.00  0.00    -0.364 OA 
HETATM    8  O   UNL     1     -13.318   7.185  71.311  1.00  0.00    -0.368 OA 
HETATM    9  N   UNL     1     -13.394   8.198  72.003  1.00  0.00    -0.309 N  
HETATM   10  O   UNL     1     -14.379   8.852  72.334  1.00  0.00    -0.513 OA 
ENDBRANCH   6   7
BRANCH   6  11
HETATM   11  C   UNL     1     -10.465   7.130  73.367  1.00  0.00    -0.368 C  
BRANCH  11  12
HETATM   12  O   UNL     1     -10.859   5.779  73.128  1.00  0.00    -0.246 OA 
HETATM   13  N   UNL     1      -9.750   4.902  73.016  1.00  0.00    -0.142 N  
HETATM   14  O   UNL     1      -8.629   5.403  73.109  1.00  0.00    -0.118 OA 
HETATM   15  O   UNL     1     -10.083   3.735  72.825  1.00  0.00    -0.148 OA 
ENDBRANCH  11  12
ENDBRANCH   6  11
ENDBRANCH   5   6
ENDBRANCH   3   5
TORSDOF 5
ENDMDL
MODEL      191
REMARK 921   NORMALIZED FREE ENERGY PREDICTED BY IDOCK:   -2.95 KCAL/MOL
REMARK 922        TOTAL FREE ENERGY PREDICTED BY IDOCK:   -4.32 KCAL/MOL
REMARK 923 INTER-LIGAND FREE ENERGY PREDICTED BY IDOCK:   -4.82 KCAL/MOL
REMARK 924 INTRA-LIGAND FREE ENERGY PREDICTED BY IDOCK:    0.50 KCAL/MOL
REMARK 927      BINDING AFFINITY PREDICTED BY RF-SCORE:    0.00 PKD
ROOT
HETATM    1  O   UNL     1     -12.405  12.274  64.245  1.00  0.00    -0.431 OA 
HETATM    2  N   UNL     1     -12.389  13.296  64.926  1.00  0.00    -0.415 N  
HETATM    3  O   UNL     1     -11.088  13.836  65.073  1.00  0.00    -0.318 OA 
HETATM    4  O   UNL     1     -13.313  13.904  65.469  1.00  0.00    -0.662 OA 
ENDROOT
BRANCH   3   5
HETATM    5  C   UNL     1     -11.072  15.015  65.879  1.00  0.00    -0.334 C  
BRANCH   5   6
HETATM    6  C   UNL     1      -9.743  15.053  66.656  1.00  0.00    -0.258 C  
BRANCH   6   7
HETATM    7  O   UNL     1      -9.894  15.322  68.060  1.00  0.00    -0.214 OA 
HETATM    8  O   UNL     1     -10.643  17.378  67.498  1.00  0.00    -0.356 OA 
HETATM    9  N   UNL     1     -10.402  16.594  68.413  1.00  0.00    -0.281 N  
HETATM   10  O   UNL     1     -10.534  16.734  69.625  1.00  0.00    -0.291 OA 
ENDBRANCH   6   7
BRANCH   6  11
HETATM   11  C   UNL     1      -8.671  15.913  65.964  1.00  0.00    -0.188 C  
BRANCH  11  12
HETATM   12  O   UNL     1      -7.529  15.988  66.816  1.00  0.00    -0.225 OA 
HETATM   13  N   UNL     1      -6.719  17.119  66.541  1.00  0.00    -0.238 N  
HETATM   14  O   UNL     1      -7.076  17.851  65.617  1.00  0.00    -0.485 OA 
HETATM   15  O   UNL     1      -5.742  17.196  67.281  1.00  0.00    -0.121 OA 
ENDBRANCH  11  12
ENDBRANCH   6  11
ENDBRANCH   5   6
ENDBRANCH   3   5
TORSDOF 5
ENDMDL
MODEL      192
REMARK 921   NORMALIZED FREE ENERGY PREDICTED BY IDOCK:   -2.92 KCAL/MOL
REMARK 922        TOTAL FREE ENERGY PREDICTED BY IDOCK:   -4.28 KCAL/MOL
REMARK 923 INTER-LIGAND FREE ENERGY PREDICTED BY IDOCK:   -3.79 KCAL/MOL
REMARK 924 INTRA-LIGAND FREE ENERGY PREDICTED BY IDOCK:   -0.49 KCAL/MOL
REMARK 927      BINDING AFFINITY PREDICTED BY RF-SCORE:    0.00 PKD
ROOT
HETATM    1  O   UNL     1      -8.993  12.482  68.181  1.00  0.00    -0.191 OA 
HETATM    2  N   UNL     1      -9.268  11.287  68.246  1.00  0.00    -0.170 N  
HETATM    3  O   UNL     1     -10.413  11.031  69.039  1.00  0.00    -0.204 OA 
HETATM    4  O   UNL     1      -8.717  10.315  67.727  1.00  0.00    -0.121 OA 
ENDROOT
BRANCH   3   5
HETATM    5  C   UNL     1     -10.719   9.638  69.126  1.00  0.00    -0.217 C  
BRANCH   5   6
HETATM    6  C   UNL     1     -11.336   9.362  70.509  1.00  0.00    -0.274 C  
BRANCH   6   7
HETATM    7  O   UNL     1     -11.792  10.542  71.193  1.00  0.00    -0.346 OA 
HETATM    8  O   UNL     1     -13.847   9.608  71.255  1.00  0.00    -0.276 OA 
HETATM    9  N   UNL     1     -13.154  10.572  71.569  1.00  0.00    -0.423 N  
HETATM   10  O   UNL     1     -13.457  11.595  72.176  1.00  0.00    -0.423 OA 
ENDBRANCH   6   7
BRANCH   6  11
HETATM   11  C   UNL     1     -10.468   8.431  71.375  1.00  0.00    -0.224 C  
BRANCH  11  12
HETATM   12  O   UNL     1      -9.349   9.174  71.858  1.00  0.00    -0.349 OA 
HETATM   13  N   UNL     1      -8.115   8.680  71.363  1.00  0.00    -0.142 N  
HETATM   14  O   UNL     1      -8.162   7.693  70.628  1.00  0.00    -0.110 OA 
HETATM   15  O   UNL     1      -7.150   9.325  71.764  1.00  0.00    -0.318 OA 
ENDBRANCH  11  12
ENDBRANCH   6  11
ENDBRANCH   5   6
ENDBRANCH   3   5
TORSDOF 5
ENDMDL
MODEL      193
REMARK 921   NORMALIZED FREE ENERGY PREDICTED BY IDOCK:   -2.91 KCAL/MOL
REMARK 922        TOTAL FREE ENERGY PREDICTED BY IDOCK:   -4.28 KCAL/MOL
REMARK 923 INTER-LIGAND FREE ENERGY PREDICTED BY IDOCK:   -3.99 KCAL/MOL
REMARK 924 INTRA-LIGAND FREE ENERGY PREDICTED BY IDOCK:   -0.28 KCAL/MOL
REMARK 927      BINDING AFFINITY PREDICTED BY RF-SCORE:    0.00 PKD
ROOT
HETATM    1  O   UNL     1     -10.357  20.165  65.914  1.00  0.00    -0.449 OA 
HETATM    2  N   UNL     1      -9.711  19.526  66.741  1.00  0.00    -0.341 N  
HETATM    3  O   UNL     1     -10.501  18.581  67.441  1.00  0.00    -0.383 OA 
HETATM    4  O   UNL     1      -8.515  19.579  67.029  1.00  0.00    -0.277 OA 
ENDROOT
BRANCH   3   5
HETATM    5  C   UNL     1      -9.750  17.853  68.414  1.00  0.00    -0.340 C  
BRANCH   5   6
HETATM    6  C   UNL     1      -9.370  16.488  67.811  1.00  0.00    -0.210 C  
BRANCH   6   7
HETATM    7  O   UNL     1      -8.124  16.491  67.095  1.00  0.00    -0.161 OA 
HETATM    8  O   UNL     1      -7.132  15.761  68.989  1.00  0.00    -0.136 OA 
HETATM    9  N   UNL     1      -6.980  16.066  67.808  1.00  0.00    -0.131 N  
HETATM   10  O   UNL     1      -5.963  16.065  67.120  1.00  0.00    -0.306 OA 
ENDBRANCH   6   7
BRANCH   6  11
HETATM   11  C   UNL     1     -10.532  15.829  67.047  1.00  0.00    -0.309 C  
BRANCH  11  12
HETATM   12  O   UNL     1     -10.355  14.413  67.084  1.00  0.00    -0.259 OA 
HETATM   13  N   UNL     1     -11.523  13.731  67.511  1.00  0.00    -0.312 N  
HETATM   14  O   UNL     1     -12.497  14.423  67.810  1.00  0.00    -0.105 OA 
HETATM   15  O   UNL     1     -11.380  12.512  67.531  1.00  0.00    -0.273 OA 
ENDBRANCH  11  12
ENDBRANCH   6  11
ENDBRANCH   5   6
ENDBRANCH   3   5
TORSDOF 5
ENDMDL
MODEL      194
REMARK 921   NORMALIZED FREE ENERGY PREDICTED BY IDOCK:   -2.91 KCAL/MOL
REMARK 922        TOTAL FREE ENERGY PREDICTED BY IDOCK:   -4.27 KCAL/MOL
REMARK 923 INTER-LIGAND FREE ENERGY PREDICTED BY IDOCK:   -3.84 KCAL/MOL
REMARK 924 INTRA-LIGAND FREE ENERGY PREDICTED BY IDOCK:   -0.43 KCAL/MOL
REMARK 927      BINDING AFFINITY PREDICTED BY RF-SCORE:    0.00 PKD
ROOT
HETATM    1  O   UNL     1     -10.810  18.054  65.841  1.00  0.00    -0.236 OA 
HETATM    2  N   UNL     1     -10.932  16.936  65.349  1.00  0.00    -0.143 N  
HETATM    3  O   UNL     1     -10.883  15.903  66.317  1.00  0.00    -0.292 OA 
HETATM    4  O   UNL     1     -11.099  16.597  64.177  1.00  0.00    -1.005 OA 
ENDROOT
BRANCH   3   5
HETATM    5  C   UNL     1     -11.008  14.603  65.739  1.00  0.00    -0.330 C  
BRANCH   5   6
HETATM    6  C   UNL     1     -10.301  13.591  66.659  1.00  0.00    -0.271 C  
BRANCH   6   7
HETATM    7  O   UNL     1     -11.028  12.366  66.849  1.00  0.00    -0.246 OA 
HETATM    8  O   UNL     1      -9.214  11.268  66.071  1.00  0.00    -0.198 OA 
HETATM    9  N   UNL     1     -10.352  11.168  66.522  1.00  0.00    -0.235 N  
HETATM   10  O   UNL     1     -11.026  10.166  66.743  1.00  0.00    -0.125 OA 
ENDBRANCH   6   7
BRANCH   6  11
HETATM   11  C   UNL     1      -9.791  14.227  67.964  1.00  0.00    -0.224 C  
BRANCH  11  12
HETATM   12  O   UNL     1      -8.606  13.542  68.368  1.00  0.00    -0.171 OA 
HETATM   13  N   UNL     1      -7.572  14.431  68.762  1.00  0.00    -0.128 N  
HETATM   14  O   UNL     1      -7.811  15.636  68.682  1.00  0.00    -0.136 OA 
HETATM   15  O   UNL     1      -6.555  13.847  69.125  1.00  0.00    -0.101 OA 
ENDBRANCH  11  12
ENDBRANCH   6  11
ENDBRANCH   5   6
ENDBRANCH   3   5
TORSDOF 5
ENDMDL
MODEL      195
REMARK 921   NORMALIZED FREE ENERGY PREDICTED BY IDOCK:   -2.90 KCAL/MOL
REMARK 922        TOTAL FREE ENERGY PREDICTED BY IDOCK:   -4.26 KCAL/MOL
REMARK 923 INTER-LIGAND FREE ENERGY PREDICTED BY IDOCK:   -3.67 KCAL/MOL
REMARK 924 INTRA-LIGAND FREE ENERGY PREDICTED BY IDOCK:   -0.59 KCAL/MOL
REMARK 927      BINDING AFFINITY PREDICTED BY RF-SCORE:    0.00 PKD
ROOT
HETATM    1  O   UNL     1      -8.383   8.637  67.797  1.00  0.00    -0.117 OA 
HETATM    2  N   UNL     1      -8.829   9.451  68.602  1.00  0.00    -0.131 N  
HETATM    3  O   UNL     1      -9.433   8.834  69.726  1.00  0.00    -0.162 OA 
HETATM    4  O   UNL     1      -8.814  10.682  68.578  1.00  0.00    -0.134 OA 
ENDROOT
BRANCH   3   5
HETATM    5  C   UNL     1      -9.965   9.784  70.651  1.00  0.00    -0.146 C  
BRANCH   5   6
HETATM    6  C   UNL     1     -11.486   9.569  70.745  1.00  0.00    -0.310 C  
BRANCH   6   7
HETATM    7  O   UNL     1     -11.877   8.190  70.844  1.00  0.00    -0.285 OA 
HETATM    8  O   UNL     1     -12.971   8.724  72.747  1.00  0.00    -0.345 OA 
HETATM    9  N   UNL     1     -12.691   7.836  71.945  1.00  0.00    -0.314 N  
HETATM   10  O   UNL     1     -13.009   6.651  71.940  1.00  0.00    -0.306 OA 
ENDBRANCH   6   7
BRANCH   6  11
HETATM   11  C   UNL     1     -12.269  10.370  69.690  1.00  0.00    -0.048 C  
BRANCH  11  12
HETATM   12  O   UNL     1     -11.991  11.757  69.875  1.00  0.00    -0.312 OA 
HETATM   13  N   UNL     1     -11.732  12.428  68.652  1.00  0.00    -0.312 N  
HETATM   14  O   UNL     1     -11.754  11.747  67.626  1.00  0.00    -0.487 OA 
HETATM   15  O   UNL     1     -11.507  13.625  68.804  1.00  0.00    -0.265 OA 
ENDBRANCH  11  12
ENDBRANCH   6  11
ENDBRANCH   5   6
ENDBRANCH   3   5
TORSDOF 5
ENDMDL
MODEL      196
REMARK 921   NORMALIZED FREE ENERGY PREDICTED BY IDOCK:   -2.89 KCAL/MOL
REMARK 922        TOTAL FREE ENERGY PREDICTED BY IDOCK:   -4.24 KCAL/MOL
REMARK 923 INTER-LIGAND FREE ENERGY PREDICTED BY IDOCK:   -4.11 KCAL/MOL
REMARK 924 INTRA-LIGAND FREE ENERGY PREDICTED BY IDOCK:   -0.13 KCAL/MOL
REMARK 927      BINDING AFFINITY PREDICTED BY RF-SCORE:    0.00 PKD
ROOT
HETATM    1  O   UNL     1      -7.465  10.030  70.464  1.00  0.00    -0.269 OA 
HETATM    2  N   UNL     1      -8.199   9.048  70.550  1.00  0.00    -0.149 N  
HETATM    3  O   UNL     1      -9.543   9.338  70.209  1.00  0.00    -0.200 OA 
HETATM    4  O   UNL     1      -7.939   7.887  70.868  1.00  0.00    -0.089 OA 
ENDROOT
BRANCH   3   5
HETATM    5  C   UNL     1     -10.396   8.198  70.328  1.00  0.00    -0.209 C  
BRANCH   5   6
HETATM    6  C   UNL     1     -11.491   8.516  71.362  1.00  0.00    -0.287 C  
BRANCH   6   7
HETATM    7  O   UNL     1     -11.811   9.914  71.463  1.00  0.00    -0.381 OA 
HETATM    8  O   UNL     1     -13.808   9.307  72.327  1.00  0.00    -0.453 OA 
HETATM    9  N   UNL     1     -13.073  10.239  72.012  1.00  0.00    -0.453 N  
HETATM   10  O   UNL     1     -13.257  11.450  72.096  1.00  0.00    -0.490 OA 
ENDBRANCH   6   7
BRANCH   6  11
HETATM   11  C   UNL     1     -11.252   7.827  72.716  1.00  0.00    -0.398 C  
BRANCH  11  12
HETATM   12  O   UNL     1     -10.385   6.712  72.511  1.00  0.00    -0.188 OA 
HETATM   13  N   UNL     1     -11.055   5.469  72.655  1.00  0.00    -0.267 N  
HETATM   14  O   UNL     1     -12.248   5.509  72.955  1.00  0.00    -0.091 OA 
HETATM   15  O   UNL     1     -10.317   4.506  72.464  1.00  0.00    -0.187 OA 
ENDBRANCH  11  12
ENDBRANCH   6  11
ENDBRANCH   5   6
ENDBRANCH   3   5
TORSDOF 5
ENDMDL
MODEL      197
REMARK 921   NORMALIZED FREE ENERGY PREDICTED BY IDOCK:   -2.88 KCAL/MOL
REMARK 922        TOTAL FREE ENERGY PREDICTED BY IDOCK:   -4.23 KCAL/MOL
REMARK 923 INTER-LIGAND FREE ENERGY PREDICTED BY IDOCK:   -4.55 KCAL/MOL
REMARK 924 INTRA-LIGAND FREE ENERGY PREDICTED BY IDOCK:    0.32 KCAL/MOL
REMARK 927      BINDING AFFINITY PREDICTED BY RF-SCORE:    0.00 PKD
ROOT
HETATM    1  O   UNL     1     -11.664  16.565  63.862  1.00  0.00    -1.148 OA 
HETATM    2  N   UNL     1     -11.771  15.367  64.109  1.00  0.00    -0.222 N  
HETATM    3  O   UNL     1     -10.518  14.729  64.282  1.00  0.00     0.069 OA 
HETATM    4  O   UNL     1     -12.778  14.668  64.235  1.00  0.00    -0.679 OA 
ENDROOT
BRANCH   3   5
HETATM    5  C   UNL     1     -10.647  13.332  64.551  1.00  0.00    -0.419 C  
BRANCH   5   6
HETATM    6  C   UNL     1     -10.390  13.101  66.052  1.00  0.00    -0.287 C  
BRANCH   6   7
HETATM    7  O   UNL     1      -9.122  13.598  66.511  1.00  0.00    -0.216 OA 
HETATM    8  O   UNL     1     -10.119  15.600  66.830  1.00  0.00    -0.252 OA 
HETATM    9  N   UNL     1      -9.081  14.949  66.925  1.00  0.00    -0.235 N  
HETATM   10  O   UNL     1      -7.974  15.288  67.334  1.00  0.00    -0.154 OA 
ENDBRANCH   6   7
BRANCH   6  11
HETATM   11  C   UNL     1     -10.697  11.660  66.495  1.00  0.00    -0.272 C  
BRANCH  11  12
HETATM   12  O   UNL     1      -9.525  11.111  67.096  1.00  0.00    -0.170 OA 
HETATM   13  N   UNL     1      -9.292   9.767  66.704  1.00  0.00    -0.153 N  
HETATM   14  O   UNL     1     -10.116   9.256  65.945  1.00  0.00    -0.293 OA 
HETATM   15  O   UNL     1      -8.276   9.295  67.206  1.00  0.00    -0.118 OA 
ENDBRANCH  11  12
ENDBRANCH   6  11
ENDBRANCH   5   6
ENDBRANCH   3   5
TORSDOF 5
ENDMDL
MODEL      198
REMARK 921   NORMALIZED FREE ENERGY PREDICTED BY IDOCK:   -2.86 KCAL/MOL
REMARK 922        TOTAL FREE ENERGY PREDICTED BY IDOCK:   -4.21 KCAL/MOL
REMARK 923 INTER-LIGAND FREE ENERGY PREDICTED BY IDOCK:   -4.74 KCAL/MOL
REMARK 924 INTRA-LIGAND FREE ENERGY PREDICTED BY IDOCK:    0.53 KCAL/MOL
REMARK 927      BINDING AFFINITY PREDICTED BY RF-SCORE:    0.00 PKD
ROOT
HETATM    1  O   UNL     1     -11.286  19.715  65.162  1.00  0.00    -0.294 OA 
HETATM    2  N   UNL     1     -10.393  19.681  66.005  1.00  0.00    -0.506 N  
HETATM    3  O   UNL     1     -10.711  18.845  67.104  1.00  0.00    -0.439 OA 
HETATM    4  O   UNL     1      -9.296  20.239  66.024  1.00  0.00    -0.292 OA 
ENDROOT
BRANCH   3   5
HETATM    5  C   UNL     1      -9.677  18.821  68.090  1.00  0.00    -0.341 C  
BRANCH   5   6
HETATM    6  C   UNL     1      -9.360  17.352  68.425  1.00  0.00    -0.285 C  
BRANCH   6   7
HETATM    7  O   UNL     1      -8.011  16.961  68.121  1.00  0.00    -0.183 OA 
HETATM    8  O   UNL     1      -8.654  16.725  65.969  1.00  0.00    -0.453 OA 
HETATM    9  N   UNL     1      -7.724  16.661  66.770  1.00  0.00    -0.227 N  
HETATM   10  O   UNL     1      -6.546  16.370  66.586  1.00  0.00    -0.255 OA 
ENDBRANCH   6   7
BRANCH   6  11
HETATM   11  C   UNL     1     -10.429  16.377  67.903  1.00  0.00    -0.307 C  
BRANCH  11  12
HETATM   12  O   UNL     1     -11.510  16.348  68.835  1.00  0.00    -0.311 OA 
HETATM   13  N   UNL     1     -11.539  15.150  69.595  1.00  0.00    -0.290 N  
HETATM   14  O   UNL     1     -10.676  14.308  69.346  1.00  0.00    -0.218 OA 
HETATM   15  O   UNL     1     -12.459  15.127  70.409  1.00  0.00    -0.337 OA 
ENDBRANCH  11  12
ENDBRANCH   6  11
ENDBRANCH   5   6
ENDBRANCH   3   5
TORSDOF 5
ENDMDL
MODEL      199
REMARK 921   NORMALIZED FREE ENERGY PREDICTED BY IDOCK:   -2.85 KCAL/MOL
REMARK 922        TOTAL FREE ENERGY PREDICTED BY IDOCK:   -4.19 KCAL/MOL
REMARK 923 INTER-LIGAND FREE ENERGY PREDICTED BY IDOCK:   -3.70 KCAL/MOL
REMARK 924 INTRA-LIGAND FREE ENERGY PREDICTED BY IDOCK:   -0.50 KCAL/MOL
REMARK 927      BINDING AFFINITY PREDICTED BY RF-SCORE:    0.00 PKD
ROOT
HETATM    1  O   UNL     1     -12.300  10.174  71.854  1.00  0.00    -0.362 OA 
HETATM    2  N   UNL     1     -11.384   9.439  71.493  1.00  0.00    -0.379 N  
HETATM    3  O   UNL     1     -11.495   9.051  70.135  1.00  0.00    -0.193 OA 
HETATM    4  O   UNL     1     -10.410   9.017  72.119  1.00  0.00    -0.316 OA 
ENDROOT
BRANCH   3   5
HETATM    5  C   UNL     1     -10.437   8.183  69.725  1.00  0.00    -0.227 C  
BRANCH   5   6
HETATM    6  C   UNL     1     -10.987   6.746  69.658  1.00  0.00    -0.288 C  
BRANCH   6   7
HETATM    7  O   UNL     1     -10.407   5.853  70.623  1.00  0.00    -0.209 OA 
HETATM    8  O   UNL     1     -12.223   6.207  71.917  1.00  0.00    -0.284 OA 
HETATM    9  N   UNL     1     -11.156   5.612  71.797  1.00  0.00    -0.236 N  
HETATM   10  O   UNL     1     -10.610   4.814  72.554  1.00  0.00    -0.206 OA 
ENDBRANCH   6   7
BRANCH   6  11
HETATM   11  C   UNL     1     -11.021   6.187  68.225  1.00  0.00    -0.308 C  
BRANCH  11  12
HETATM   12  O   UNL     1      -9.777   6.487  67.591  1.00  0.00    -0.121 OA 
HETATM   13  N   UNL     1      -9.573   5.728  66.410  1.00  0.00    -0.156 N  
HETATM   14  O   UNL     1     -10.450   4.918  66.107  1.00  0.00    -0.283 OA 
HETATM   15  O   UNL     1      -8.512   5.992  65.853  1.00  0.00    -0.131 OA 
ENDBRANCH  11  12
ENDBRANCH   6  11
ENDBRANCH   5   6
ENDBRANCH   3   5
TORSDOF 5
ENDMDL
MODEL      200
REMARK 921   NORMALIZED FREE ENERGY PREDICTED BY IDOCK:   -2.84 KCAL/MOL
REMARK 922        TOTAL FREE ENERGY PREDICTED BY IDOCK:   -4.19 KCAL/MOL
REMARK 923 INTER-LIGAND FREE ENERGY PREDICTED BY IDOCK:   -3.75 KCAL/MOL
REMARK 924 INTRA-LIGAND FREE ENERGY PREDICTED BY IDOCK:   -0.43 KCAL/MOL
REMARK 927      BINDING AFFINITY PREDICTED BY RF-SCORE:    0.00 PKD
ROOT
HETATM    1  O   UNL     1     -12.650   7.210  71.213  1.00  0.00    -0.364 OA 
HETATM    2  N   UNL     1     -11.711   6.986  70.453  1.00  0.00    -0.304 N  
HETATM    3  O   UNL     1     -10.645   7.906  70.614  1.00  0.00    -0.212 OA 
HETATM    4  O   UNL     1     -11.564   6.101  69.609  1.00  0.00    -0.407 OA 
ENDROOT
BRANCH   3   5
HETATM    5  C   UNL     1      -9.563   7.653  69.717  1.00  0.00    -0.163 C  
BRANCH   5   6
HETATM    6  C   UNL     1      -8.969   9.004  69.279  1.00  0.00    -0.144 C  
BRANCH   6   7
HETATM    7  O   UNL     1      -8.291   9.713  70.331  1.00  0.00    -0.186 OA 
HETATM    8  O   UNL     1      -6.385   9.481  69.142  1.00  0.00    -0.041 OA 
HETATM    9  N   UNL     1      -6.906   9.936  70.157  1.00  0.00    -0.108 N  
HETATM   10  O   UNL     1      -6.408  10.576  71.079  1.00  0.00    -0.340 OA 
ENDBRANCH   6   7
BRANCH   6  11
HETATM   11  C   UNL     1      -9.965   9.864  68.483  1.00  0.00    -0.159 C  
BRANCH  11  12
HETATM   12  O   UNL     1     -10.284  11.021  69.256  1.00  0.00    -0.204 OA 
HETATM   13  N   UNL     1     -11.544  11.575  68.910  1.00  0.00    -0.290 N  
HETATM   14  O   UNL     1     -12.167  11.023  68.002  1.00  0.00    -0.520 OA 
HETATM   15  O   UNL     1     -11.830  12.561  69.582  1.00  0.00    -0.309 OA 
ENDBRANCH  11  12
ENDBRANCH   6  11
ENDBRANCH   5   6
ENDBRANCH   3   5
TORSDOF 5
ENDMDL
MODEL      201
REMARK 921   NORMALIZED FREE ENERGY PREDICTED BY IDOCK:   -2.84 KCAL/MOL
REMARK 922        TOTAL FREE ENERGY PREDICTED BY IDOCK:   -4.18 KCAL/MOL
REMARK 923 INTER-LIGAND FREE ENERGY PREDICTED BY IDOCK:   -4.48 KCAL/MOL
REMARK 924 INTRA-LIGAND FREE ENERGY PREDICTED BY IDOCK:    0.30 KCAL/MOL
REMARK 927      BINDING AFFINITY PREDICTED BY RF-SCORE:    0.00 PKD
ROOT
HETATM    1  O   UNL     1      -9.955  10.156  64.462  1.00  0.00    -0.326 OA 
HETATM    2  N   UNL     1      -9.778  10.697  65.550  1.00  0.00    -0.220 N  
HETATM    3  O   UNL     1     -10.494  10.068  66.599  1.00  0.00    -0.223 OA 
HETATM    4  O   UNL     1      -9.081  11.667  65.852  1.00  0.00    -0.207 OA 
ENDROOT
BRANCH   3   5
HETATM    5  C   UNL     1     -10.299  10.711  67.859  1.00  0.00    -0.199 C  
BRANCH   5   6
HETATM    6  C   UNL     1     -11.666  11.201  68.371  1.00  0.00    -0.279 C  
BRANCH   6   7
HETATM    7  O   UNL     1     -12.197  12.320  67.641  1.00  0.00    -0.442 OA 
HETATM    8  O   UNL     1     -10.362  13.484  68.259  1.00  0.00    -0.239 OA 
HETATM    9  N   UNL     1     -11.414  13.497  67.624  1.00  0.00    -0.300 N  
HETATM   10  O   UNL     1     -11.918  14.394  66.954  1.00  0.00    -0.410 OA 
ENDBRANCH   6   7
BRANCH   6  11
HETATM   11  C   UNL     1     -11.704  11.373  69.899  1.00  0.00    -0.346 C  
BRANCH  11  12
HETATM   12  O   UNL     1     -12.715  10.514  70.427  1.00  0.00    -0.331 OA 
HETATM   13  N   UNL     1     -12.177   9.445  71.189  1.00  0.00    -0.316 N  
HETATM   14  O   UNL     1     -10.950   9.381  71.272  1.00  0.00    -0.317 OA 
HETATM   15  O   UNL     1     -13.043   8.712  71.657  1.00  0.00    -0.329 OA 
ENDBRANCH  11  12
ENDBRANCH   6  11
ENDBRANCH   5   6
ENDBRANCH   3   5
TORSDOF 5
ENDMDL
MODEL      202
REMARK 921   NORMALIZED FREE ENERGY PREDICTED BY IDOCK:   -2.83 KCAL/MOL
REMARK 922        TOTAL FREE ENERGY PREDICTED BY IDOCK:   -4.17 KCAL/MOL
REMARK 923 INTER-LIGAND FREE ENERGY PREDICTED BY IDOCK:   -4.44 KCAL/MOL
REMARK 924 INTRA-LIGAND FREE ENERGY PREDICTED BY IDOCK:    0.27 KCAL/MOL
REMARK 927      BINDING AFFINITY PREDICTED BY RF-SCORE:    0.00 PKD
ROOT
HETATM    1  O   UNL     1      -6.890   9.539  66.574  1.00  0.00    -0.081 OA 
HETATM    2  N   UNL     1      -7.898   9.922  65.986  1.00  0.00    -0.108 N  
HETATM    3  O   UNL     1      -9.039   9.961  66.825  1.00  0.00    -0.140 OA 
HETATM    4  O   UNL     1      -8.051  10.276  64.816  1.00  0.00    -0.154 OA 
ENDROOT
BRANCH   3   5
HETATM    5  C   UNL     1     -10.213  10.390  66.134  1.00  0.00    -0.223 C  
BRANCH   5   6
HETATM    6  C   UNL     1     -10.863  11.529  66.941  1.00  0.00    -0.284 C  
BRANCH   6   7
HETATM    7  O   UNL     1     -12.126  11.971  66.415  1.00  0.00    -0.610 OA 
HETATM    8  O   UNL     1     -11.037  12.554  64.524  1.00  0.00    -0.290 OA 
HETATM    9  N   UNL     1     -12.120  12.491  65.101  1.00  0.00    -0.440 N  
HETATM   10  O   UNL     1     -13.239  12.814  64.712  1.00  0.00    -0.812 OA 
ENDBRANCH   6   7
BRANCH   6  11
HETATM   11  C   UNL     1      -9.882  12.669  67.261  1.00  0.00    -0.206 C  
BRANCH  11  12
HETATM   12  O   UNL     1     -10.611  13.741  67.859  1.00  0.00    -0.245 OA 
HETATM   13  N   UNL     1     -10.408  14.976  67.191  1.00  0.00    -0.254 N  
HETATM   14  O   UNL     1      -9.636  14.972  66.231  1.00  0.00    -0.269 OA 
HETATM   15  O   UNL     1     -11.045  15.898  67.692  1.00  0.00    -0.323 OA 
ENDBRANCH  11  12
ENDBRANCH   6  11
ENDBRANCH   5   6
ENDBRANCH   3   5
TORSDOF 5
ENDMDL
MODEL      203
REMARK 921   NORMALIZED FREE ENERGY PREDICTED BY IDOCK:   -2.83 KCAL/MOL
REMARK 922        TOTAL FREE ENERGY PREDICTED BY IDOCK:   -4.17 KCAL/MOL
REMARK 923 INTER-LIGAND FREE ENERGY PREDICTED BY IDOCK:   -3.69 KCAL/MOL
REMARK 924 INTRA-LIGAND FREE ENERGY PREDICTED BY IDOCK:   -0.48 KCAL/MOL
REMARK 927      BINDING AFFINITY PREDICTED BY RF-SCORE:    0.00 PKD
ROOT
HETATM    1  O   UNL     1      -8.937  10.213  66.986  1.00  0.00    -0.135 OA 
HETATM    2  N   UNL     1      -9.911   9.944  67.684  1.00  0.00    -0.163 N  
HETATM    3  O   UNL     1      -9.644   8.920  68.626  1.00  0.00    -0.150 OA 
HETATM    4  O   UNL     1     -11.043  10.429  67.690  1.00  0.00    -0.310 OA 
ENDROOT
BRANCH   3   5
HETATM    5  C   UNL     1     -10.784   8.598  69.424  1.00  0.00    -0.158 C  
BRANCH   5   6
HETATM    6  C   UNL     1     -10.888   7.065  69.527  1.00  0.00    -0.238 C  
BRANCH   6   7
HETATM    7  O   UNL     1     -11.168   6.413  68.277  1.00  0.00    -0.309 OA 
HETATM    8  O   UNL     1      -9.109   5.493  68.393  1.00  0.00    -0.110 OA 
HETATM    9  N   UNL     1     -10.157   5.573  67.757  1.00  0.00    -0.160 N  
HETATM   10  O   UNL     1     -10.484   5.028  66.708  1.00  0.00    -0.251 OA 
ENDBRANCH   6   7
BRANCH   6  11
HETATM   11  C   UNL     1     -11.783   6.604  70.691  1.00  0.00    -0.394 C  
BRANCH  11  12
HETATM   12  O   UNL     1     -10.958   6.371  71.832  1.00  0.00    -0.234 OA 
HETATM   13  N   UNL     1     -11.168   7.329  72.858  1.00  0.00    -0.309 N  
HETATM   14  O   UNL     1     -11.985   8.222  72.631  1.00  0.00    -0.399 OA 
HETATM   15  O   UNL     1     -10.472   7.124  73.848  1.00  0.00    -0.370 OA 
ENDBRANCH  11  12
ENDBRANCH   6  11
ENDBRANCH   5   6
ENDBRANCH   3   5
TORSDOF 5
ENDMDL
MODEL      204
REMARK 921   NORMALIZED FREE ENERGY PREDICTED BY IDOCK:   -2.82 KCAL/MOL
REMARK 922        TOTAL FREE ENERGY PREDICTED BY IDOCK:   -4.16 KCAL/MOL
REMARK 923 INTER-LIGAND FREE ENERGY PREDICTED BY IDOCK:   -3.66 KCAL/MOL
REMARK 924 INTRA-LIGAND FREE ENERGY PREDICTED BY IDOCK:   -0.50 KCAL/MOL
REMARK 927      BINDING AFFINITY PREDICTED BY RF-SCORE:    0.00 PKD
ROOT
HETATM    1  O   UNL     1     -12.033   6.709  70.625  1.00  0.00    -0.395 OA 
HETATM    2  N   UNL     1     -11.276   6.646  69.659  1.00  0.00    -0.335 N  
HETATM    3  O   UNL     1     -10.263   7.636  69.692  1.00  0.00    -0.194 OA 
HETATM    4  O   UNL     1     -11.264   5.864  68.708  1.00  0.00    -0.258 OA 
ENDROOT
BRANCH   3   5
HETATM    5  C   UNL     1      -9.396   7.570  68.559  1.00  0.00    -0.142 C  
BRANCH   5   6
HETATM    6  C   UNL     1      -9.380   8.951  67.878  1.00  0.00    -0.141 C  
BRANCH   6   7
HETATM    7  O   UNL     1     -10.687   9.488  67.615  1.00  0.00    -0.274 OA 
HETATM    8  O   UNL     1     -10.217  11.129  69.094  1.00  0.00    -0.208 OA 
HETATM    9  N   UNL     1     -11.038  10.672  68.303  1.00  0.00    -0.258 N  
HETATM   10  O   UNL     1     -12.154  11.085  68.000  1.00  0.00    -0.615 OA 
ENDBRANCH   6   7
BRANCH   6  11
HETATM   11  C   UNL     1      -8.422   9.012  66.676  1.00  0.00    -0.122 C  
BRANCH  11  12
HETATM   12  O   UNL     1      -9.194   8.947  65.477  1.00  0.00    -0.220 OA 
HETATM   13  N   UNL     1      -8.856   9.971  64.556  1.00  0.00    -0.186 N  
HETATM   14  O   UNL     1      -7.989  10.773  64.906  1.00  0.00    -0.046 OA 
HETATM   15  O   UNL     1      -9.507   9.911  63.517  1.00  0.00    -0.266 OA 
ENDBRANCH  11  12
ENDBRANCH   6  11
ENDBRANCH   5   6
ENDBRANCH   3   5
TORSDOF 5
ENDMDL
MODEL      205
REMARK 921   NORMALIZED FREE ENERGY PREDICTED BY IDOCK:   -2.81 KCAL/MOL
REMARK 922        TOTAL FREE ENERGY PREDICTED BY IDOCK:   -4.15 KCAL/MOL
REMARK 923 INTER-LIGAND FREE ENERGY PREDICTED BY IDOCK:   -3.53 KCAL/MOL
REMARK 924 INTRA-LIGAND FREE ENERGY PREDICTED BY IDOCK:   -0.62 KCAL/MOL
REMARK 927      BINDING AFFINITY PREDICTED BY RF-SCORE:    0.00 PKD
ROOT
HETATM    1  O   UNL     1      -9.429   5.475  69.799  1.00  0.00    -0.139 OA 
HETATM    2  N   UNL     1     -10.242   6.334  69.468  1.00  0.00    -0.181 N  
HETATM    3  O   UNL     1      -9.627   7.557  69.101  1.00  0.00    -0.157 OA 
HETATM    4  O   UNL     1     -11.470   6.281  69.398  1.00  0.00    -0.427 OA 
ENDROOT
BRANCH   3   5
HETATM    5  C   UNL     1     -10.578   8.558  68.733  1.00  0.00    -0.133 C  
BRANCH   5   6
HETATM    6  C   UNL     1     -10.282   9.831  69.547  1.00  0.00    -0.221 C  
BRANCH   6   7
HETATM    7  O   UNL     1      -8.906  10.244  69.509  1.00  0.00    -0.187 OA 
HETATM    8  O   UNL     1      -9.534  11.912  68.121  1.00  0.00    -0.184 OA 
HETATM    9  N   UNL     1      -8.606  11.385  68.729  1.00  0.00    -0.127 N  
HETATM   10  O   UNL     1      -7.419  11.693  68.775  1.00  0.00    -0.112 OA 
ENDBRANCH   6   7
BRANCH   6  11
HETATM   11  C   UNL     1     -10.885   9.787  70.962  1.00  0.00    -0.308 C  
BRANCH  11  12
HETATM   12  O   UNL     1     -12.277   9.491  70.853  1.00  0.00    -0.292 OA 
HETATM   13  N   UNL     1     -12.703   8.527  71.803  1.00  0.00    -0.333 N  
HETATM   14  O   UNL     1     -11.845   8.067  72.556  1.00  0.00    -0.367 OA 
HETATM   15  O   UNL     1     -13.903   8.279  71.724  1.00  0.00    -0.365 OA 
ENDBRANCH  11  12
ENDBRANCH   6  11
ENDBRANCH   5   6
ENDBRANCH   3   5
TORSDOF 5
ENDMDL
MODEL      206
REMARK 921   NORMALIZED FREE ENERGY PREDICTED BY IDOCK:   -2.81 KCAL/MOL
REMARK 922        TOTAL FREE ENERGY PREDICTED BY IDOCK:   -4.14 KCAL/MOL
REMARK 923 INTER-LIGAND FREE ENERGY PREDICTED BY IDOCK:   -3.72 KCAL/MOL
REMARK 924 INTRA-LIGAND FREE ENERGY PREDICTED BY IDOCK:   -0.43 KCAL/MOL
REMARK 927      BINDING AFFINITY PREDICTED BY RF-SCORE:    0.00 PKD
ROOT
HETATM    1  O   UNL     1      -8.725   6.569  72.651  1.00  0.00    -0.125 OA 
HETATM    2  N   UNL     1      -8.738   7.722  72.227  1.00  0.00    -0.123 N  
HETATM    3  O   UNL     1      -9.229   7.812  70.901  1.00  0.00    -0.151 OA 
HETATM    4  O   UNL     1      -8.409   8.775  72.775  1.00  0.00    -0.412 OA 
ENDROOT
BRANCH   3   5
HETATM    5  C   UNL     1      -9.226   9.152  70.405  1.00  0.00    -0.233 C  
BRANCH   5   6
HETATM    6  C   UNL     1     -10.654   9.504  69.950  1.00  0.00    -0.241 C  
BRANCH   6   7
HETATM    7  O   UNL     1     -11.686   8.821  70.682  1.00  0.00    -0.260 OA 
HETATM    8  O   UNL     1     -12.174  10.794  71.668  1.00  0.00    -0.268 OA 
HETATM    9  N   UNL     1     -12.462   9.604  71.567  1.00  0.00    -0.359 N  
HETATM   10  O   UNL     1     -13.342   8.957  72.128  1.00  0.00    -0.378 OA 
ENDBRANCH   6   7
BRANCH   6  11
HETATM   11  C   UNL     1     -10.825   9.447  68.422  1.00  0.00    -0.109 C  
BRANCH  11  12
HETATM   12  O   UNL     1      -9.837  10.286  67.824  1.00  0.00    -0.163 OA 
HETATM   13  N   UNL     1     -10.402  11.264  66.966  1.00  0.00    -0.218 N  
HETATM   14  O   UNL     1     -11.626  11.249  66.831  1.00  0.00    -0.464 OA 
HETATM   15  O   UNL     1      -9.557  11.998  66.461  1.00  0.00    -0.212 OA 
ENDBRANCH  11  12
ENDBRANCH   6  11
ENDBRANCH   5   6
ENDBRANCH   3   5
TORSDOF 5
ENDMDL
MODEL      207
REMARK 921   NORMALIZED FREE ENERGY PREDICTED BY IDOCK:   -2.81 KCAL/MOL
REMARK 922        TOTAL FREE ENERGY PREDICTED BY IDOCK:   -4.14 KCAL/MOL
REMARK 923 INTER-LIGAND FREE ENERGY PREDICTED BY IDOCK:   -3.58 KCAL/MOL
REMARK 924 INTRA-LIGAND FREE ENERGY PREDICTED BY IDOCK:   -0.56 KCAL/MOL
REMARK 927      BINDING AFFINITY PREDICTED BY RF-SCORE:    0.00 PKD
ROOT
HETATM    1  O   UNL     1     -10.217  13.172  67.244  1.00  0.00    -0.239 OA 
HETATM    2  N   UNL     1     -10.769  12.090  67.063  1.00  0.00    -0.233 N  
HETATM    3  O   UNL     1      -9.918  10.990  67.333  1.00  0.00    -0.178 OA 
HETATM    4  O   UNL     1     -11.919  11.834  66.706  1.00  0.00    -0.584 OA 
ENDROOT
BRANCH   3   5
HETATM    5  C   UNL     1     -10.558   9.733  67.105  1.00  0.00    -0.229 C  
BRANCH   5   6
HETATM    6  C   UNL     1     -10.371   8.859  68.358  1.00  0.00    -0.200 C  
BRANCH   6   7
HETATM    7  O   UNL     1      -9.133   9.090  69.053  1.00  0.00    -0.141 OA 
HETATM    8  O   UNL     1     -10.353   9.532  70.902  1.00  0.00    -0.291 OA 
HETATM    9  N   UNL     1      -9.227   9.429  70.422  1.00  0.00    -0.242 N  
HETATM   10  O   UNL     1      -8.129   9.577  70.951  1.00  0.00    -0.297 OA 
ENDBRANCH   6   7
BRANCH   6  11
HETATM   11  C   UNL     1     -10.678   7.373  68.101  1.00  0.00    -0.110 C  
BRANCH  11  12
HETATM   12  O   UNL     1     -11.268   6.822  69.278  1.00  0.00    -0.252 OA 
HETATM   13  N   UNL     1     -10.368   6.000  70.003  1.00  0.00    -0.209 N  
HETATM   14  O   UNL     1      -9.241   5.851  69.529  1.00  0.00    -0.133 OA 
HETATM   15  O   UNL     1     -10.866   5.535  71.025  1.00  0.00    -0.241 OA 
ENDBRANCH  11  12
ENDBRANCH   6  11
ENDBRANCH   5   6
ENDBRANCH   3   5
TORSDOF 5
ENDMDL
MODEL      208
REMARK 921   NORMALIZED FREE ENERGY PREDICTED BY IDOCK:   -2.79 KCAL/MOL
REMARK 922        TOTAL FREE ENERGY PREDICTED BY IDOCK:   -4.12 KCAL/MOL
REMARK 923 INTER-LIGAND FREE ENERGY PREDICTED BY IDOCK:   -3.74 KCAL/MOL
REMARK 924 INTRA-LIGAND FREE ENERGY PREDICTED BY IDOCK:   -0.38 KCAL/MOL
REMARK 927      BINDING AFFINITY PREDICTED BY RF-SCORE:    0.00 PKD
ROOT
HETATM    1  O   UNL     1      -6.760   9.951  63.496  1.00  0.00    -0.114 OA 
HETATM    2  N   UNL     1      -7.936   9.740  63.782  1.00  0.00    -0.137 N  
HETATM    3  O   UNL     1      -8.372  10.495  64.899  1.00  0.00    -0.170 OA 
HETATM    4  O   UNL     1      -8.763   9.000  63.248  1.00  0.00    -0.188 OA 
ENDROOT
BRANCH   3   5
HETATM    5  C   UNL     1      -9.735  10.232  65.239  1.00  0.00    -0.291 C  
BRANCH   5   6
HETATM    6  C   UNL     1      -9.784   9.734  66.695  1.00  0.00    -0.201 C  
BRANCH   6   7
HETATM    7  O   UNL     1     -10.761   8.705  66.927  1.00  0.00    -0.252 OA 
HETATM    8  O   UNL     1      -9.116   7.190  66.613  1.00  0.00    -0.138 OA 
HETATM    9  N   UNL     1     -10.302   7.369  66.881  1.00  0.00    -0.295 N  
HETATM   10  O   UNL     1     -11.186   6.553  67.122  1.00  0.00    -0.388 OA 
ENDBRANCH   6   7
BRANCH   6  11
HETATM   11  C   UNL     1      -9.825  10.882  67.718  1.00  0.00    -0.175 C  
BRANCH  11  12
HETATM   12  O   UNL     1     -10.544  10.438  68.868  1.00  0.00    -0.190 OA 
HETATM   13  N   UNL     1     -11.841  11.009  68.952  1.00  0.00    -0.328 N  
HETATM   14  O   UNL     1     -12.159  11.805  68.068  1.00  0.00    -0.572 OA 
HETATM   15  O   UNL     1     -12.469  10.619  69.932  1.00  0.00    -0.300 OA 
ENDBRANCH  11  12
ENDBRANCH   6  11
ENDBRANCH   5   6
ENDBRANCH   3   5
TORSDOF 5
ENDMDL
MODEL      209
REMARK 921   NORMALIZED FREE ENERGY PREDICTED BY IDOCK:   -2.79 KCAL/MOL
REMARK 922        TOTAL FREE ENERGY PREDICTED BY IDOCK:   -4.12 KCAL/MOL
REMARK 923 INTER-LIGAND FREE ENERGY PREDICTED BY IDOCK:   -4.21 KCAL/MOL
REMARK 924 INTRA-LIGAND FREE ENERGY PREDICTED BY IDOCK:    0.09 KCAL/MOL
REMARK 927      BINDING AFFINITY PREDICTED BY RF-SCORE:    0.00 PKD
ROOT
HETATM    1  O   UNL     1      -8.617   8.475  63.877  1.00  0.00    -0.087 OA 
HETATM    2  N   UNL     1      -8.478   9.677  64.087  1.00  0.00    -0.165 N  
HETATM    3  O   UNL     1      -9.708  10.380  64.075  1.00  0.00    -0.293 OA 
HETATM    4  O   UNL     1      -7.460  10.333  64.312  1.00  0.00    -0.136 OA 
ENDROOT
BRANCH   3   5
HETATM    5  C   UNL     1      -9.541  11.780  64.303  1.00  0.00    -0.067 C  
BRANCH   5   6
HETATM    6  C   UNL     1     -10.586  12.232  65.339  1.00  0.00    -0.274 C  
BRANCH   6   7
HETATM    7  O   UNL     1     -11.032  13.588  65.168  1.00  0.00    -0.299 OA 
HETATM    8  O   UNL     1     -12.499  12.822  63.631  1.00  0.00    -0.642 OA 
HETATM    9  N   UNL     1     -12.077  13.802  64.240  1.00  0.00    -0.441 N  
HETATM   10  O   UNL     1     -12.423  14.978  64.176  1.00  0.00    -0.756 OA 
ENDBRANCH   6   7
BRANCH   6  11
HETATM   11  C   UNL     1     -10.187  11.880  66.782  1.00  0.00    -0.206 C  
BRANCH  11  12
HETATM   12  O   UNL     1      -9.831  10.498  66.830  1.00  0.00    -0.181 OA 
HETATM   13  N   UNL     1     -10.446   9.816  67.911  1.00  0.00    -0.224 N  
HETATM   14  O   UNL     1     -11.162  10.483  68.658  1.00  0.00    -0.252 OA 
HETATM   15  O   UNL     1     -10.155   8.624  67.948  1.00  0.00    -0.182 OA 
ENDBRANCH  11  12
ENDBRANCH   6  11
ENDBRANCH   5   6
ENDBRANCH   3   5
TORSDOF 5
ENDMDL
MODEL      210
REMARK 921   NORMALIZED FREE ENERGY PREDICTED BY IDOCK:   -2.79 KCAL/MOL
REMARK 922        TOTAL FREE ENERGY PREDICTED BY IDOCK:   -4.11 KCAL/MOL
REMARK 923 INTER-LIGAND FREE ENERGY PREDICTED BY IDOCK:   -3.69 KCAL/MOL
REMARK 924 INTRA-LIGAND FREE ENERGY PREDICTED BY IDOCK:   -0.42 KCAL/MOL
REMARK 927      BINDING AFFINITY PREDICTED BY RF-SCORE:    0.00 PKD
ROOT
HETATM    1  O   UNL     1     -10.539   4.356  65.358  1.00  0.00    -0.268 OA 
HETATM    2  N   UNL     1     -10.080   4.494  66.489  1.00  0.00    -0.239 N  
HETATM    3  O   UNL     1     -10.770   5.474  67.244  1.00  0.00    -0.241 OA 
HETATM    4  O   UNL     1      -9.147   3.913  67.044  1.00  0.00    -0.128 OA 
ENDROOT
BRANCH   3   5
HETATM    5  C   UNL     1     -10.222   5.643  68.553  1.00  0.00    -0.193 C  
BRANCH   5   6
HETATM    6  C   UNL     1     -10.826   6.917  69.171  1.00  0.00    -0.228 C  
BRANCH   6   7
HETATM    7  O   UNL     1      -9.864   7.951  69.437  1.00  0.00    -0.175 OA 
HETATM    8  O   UNL     1     -10.778   9.121  67.734  1.00  0.00    -0.245 OA 
HETATM    9  N   UNL     1      -9.930   9.105  68.623  1.00  0.00    -0.165 N  
HETATM   10  O   UNL     1      -9.100   9.954  68.934  1.00  0.00    -0.142 OA 
ENDBRANCH   6   7
BRANCH   6  11
HETATM   11  C   UNL     1     -11.770   6.619  70.350  1.00  0.00    -0.386 C  
BRANCH  11  12
HETATM   12  O   UNL     1     -10.990   6.526  71.542  1.00  0.00    -0.238 OA 
HETATM   13  N   UNL     1     -11.378   7.478  72.520  1.00  0.00    -0.315 N  
HETATM   14  O   UNL     1     -12.287   8.252  72.217  1.00  0.00    -0.345 OA 
HETATM   15  O   UNL     1     -10.721   7.394  73.553  1.00  0.00    -0.385 OA 
ENDBRANCH  11  12
ENDBRANCH   6  11
ENDBRANCH   5   6
ENDBRANCH   3   5
TORSDOF 5
ENDMDL
MODEL      211
REMARK 921   NORMALIZED FREE ENERGY PREDICTED BY IDOCK:   -2.77 KCAL/MOL
REMARK 922        TOTAL FREE ENERGY PREDICTED BY IDOCK:   -4.09 KCAL/MOL
REMARK 923 INTER-LIGAND FREE ENERGY PREDICTED BY IDOCK:   -3.70 KCAL/MOL
REMARK 924 INTRA-LIGAND FREE ENERGY PREDICTED BY IDOCK:   -0.39 KCAL/MOL
REMARK 927      BINDING AFFINITY PREDICTED BY RF-SCORE:    0.00 PKD
ROOT
HETATM    1  O   UNL     1     -13.230  10.897  72.140  1.00  0.00    -0.474 OA 
HETATM    2  N   UNL     1     -13.217   9.697  71.875  1.00  0.00    -0.416 N  
HETATM    3  O   UNL     1     -11.906   9.165  71.804  1.00  0.00    -0.340 OA 
HETATM    4  O   UNL     1     -14.150   8.916  71.682  1.00  0.00    -0.386 OA 
ENDROOT
BRANCH   3   5
HETATM    5  C   UNL     1     -11.896   7.774  71.479  1.00  0.00    -0.293 C  
BRANCH   5   6
HETATM    6  C   UNL     1     -10.433   7.323  71.320  1.00  0.00    -0.201 C  
BRANCH   6   7
HETATM    7  O   UNL     1      -9.718   7.206  72.561  1.00  0.00    -0.151 OA 
HETATM    8  O   UNL     1      -9.595   4.983  72.183  1.00  0.00    -0.145 OA 
HETATM    9  N   UNL     1      -9.293   5.910  72.931  1.00  0.00    -0.148 N  
HETATM   10  O   UNL     1      -8.662   5.898  73.983  1.00  0.00    -0.120 OA 
ENDBRANCH   6   7
BRANCH   6  11
HETATM   11  C   UNL     1      -9.680   8.112  70.234  1.00  0.00    -0.175 C  
BRANCH  11  12
HETATM   12  O   UNL     1     -10.571   8.345  69.143  1.00  0.00    -0.217 OA 
HETATM   13  N   UNL     1     -10.515   9.682  68.672  1.00  0.00    -0.204 N  
HETATM   14  O   UNL     1      -9.752  10.450  69.259  1.00  0.00    -0.206 OA 
HETATM   15  O   UNL     1     -11.268   9.884  67.723  1.00  0.00    -0.225 OA 
ENDBRANCH  11  12
ENDBRANCH   6  11
ENDBRANCH   5   6
ENDBRANCH   3   5
TORSDOF 5
ENDMDL
MODEL      212
REMARK 921   NORMALIZED FREE ENERGY PREDICTED BY IDOCK:   -2.77 KCAL/MOL
REMARK 922        TOTAL FREE ENERGY PREDICTED BY IDOCK:   -4.09 KCAL/MOL
REMARK 923 INTER-LIGAND FREE ENERGY PREDICTED BY IDOCK:   -3.52 KCAL/MOL
REMARK 924 INTRA-LIGAND FREE ENERGY PREDICTED BY IDOCK:   -0.57 KCAL/MOL
REMARK 927      BINDING AFFINITY PREDICTED BY RF-SCORE:    0.00 PKD
ROOT
HETATM    1  O   UNL     1     -12.066  16.041  69.777  1.00  0.00    -0.275 OA 
HETATM    2  N   UNL     1     -11.641  15.652  68.692  1.00  0.00    -0.373 N  
HETATM    3  O   UNL     1     -10.583  16.455  68.199  1.00  0.00    -0.290 OA 
HETATM    4  O   UNL     1     -11.983  14.690  68.003  1.00  0.00    -0.326 OA 
ENDROOT
BRANCH   3   5
HETATM    5  C   UNL     1     -10.103  16.009  66.929  1.00  0.00    -0.265 C  
BRANCH   5   6
HETATM    6  C   UNL     1      -8.599  15.708  67.057  1.00  0.00    -0.224 C  
BRANCH   6   7
HETATM    7  O   UNL     1      -8.217  15.166  68.332  1.00  0.00    -0.135 OA 
HETATM    8  O   UNL     1      -7.158  13.512  67.217  1.00  0.00    -0.130 OA 
HETATM    9  N   UNL     1      -7.428  13.993  68.314  1.00  0.00    -0.111 N  
HETATM   10  O   UNL     1      -7.116  13.613  69.439  1.00  0.00    -0.046 OA 
ENDBRANCH   6   7
BRANCH   6  11
HETATM   11  C   UNL     1      -7.714  16.873  66.580  1.00  0.00    -0.291 C  
BRANCH  11  12
HETATM   12  O   UNL     1      -7.309  17.631  67.720  1.00  0.00    -0.183 OA 
HETATM   13  N   UNL     1      -7.883  18.928  67.742  1.00  0.00    -0.240 N  
HETATM   14  O   UNL     1      -8.610  19.234  66.797  1.00  0.00    -0.282 OA 
HETATM   15  O   UNL     1      -7.549  19.578  68.729  1.00  0.00    -0.344 OA 
ENDBRANCH  11  12
ENDBRANCH   6  11
ENDBRANCH   5   6
ENDBRANCH   3   5
TORSDOF 5
ENDMDL
MODEL      213
REMARK 921   NORMALIZED FREE ENERGY PREDICTED BY IDOCK:   -2.76 KCAL/MOL
REMARK 922        TOTAL FREE ENERGY PREDICTED BY IDOCK:   -4.08 KCAL/MOL
REMARK 923 INTER-LIGAND FREE ENERGY PREDICTED BY IDOCK:   -3.60 KCAL/MOL
REMARK 924 INTRA-LIGAND FREE ENERGY PREDICTED BY IDOCK:   -0.48 KCAL/MOL
REMARK 927      BINDING AFFINITY PREDICTED BY RF-SCORE:    0.00 PKD
ROOT
HETATM    1  O   UNL     1     -10.912   4.712  65.678  1.00  0.00    -0.253 OA 
HETATM    2  N   UNL     1     -10.163   4.572  66.642  1.00  0.00    -0.215 N  
HETATM    3  O   UNL     1     -10.550   5.358  67.755  1.00  0.00    -0.181 OA 
HETATM    4  O   UNL     1      -9.167   3.860  66.778  1.00  0.00    -0.145 OA 
ENDROOT
BRANCH   3   5
HETATM    5  C   UNL     1      -9.667   5.205  68.867  1.00  0.00    -0.156 C  
BRANCH   5   6
HETATM    6  C   UNL     1     -10.423   5.607  70.147  1.00  0.00    -0.296 C  
BRANCH   6   7
HETATM    7  O   UNL     1     -10.416   7.020  70.410  1.00  0.00    -0.201 OA 
HETATM    8  O   UNL     1     -12.643   6.878  70.765  1.00  0.00    -0.324 OA 
HETATM    9  N   UNL     1     -11.655   7.609  70.752  1.00  0.00    -0.284 N  
HETATM   10  O   UNL     1     -11.561   8.808  70.995  1.00  0.00    -0.277 OA 
ENDBRANCH   6   7
BRANCH   6  11
HETATM   11  C   UNL     1     -10.045   4.740  71.361  1.00  0.00    -0.189 C  
BRANCH  11  12
HETATM   12  O   UNL     1      -9.699   5.603  72.444  1.00  0.00    -0.156 OA 
HETATM   13  N   UNL     1     -10.662   5.581  73.485  1.00  0.00    -0.267 N  
HETATM   14  O   UNL     1     -11.651   4.867  73.317  1.00  0.00    -0.336 OA 
HETATM   15  O   UNL     1     -10.362   6.310  74.426  1.00  0.00    -0.323 OA 
ENDBRANCH  11  12
ENDBRANCH   6  11
ENDBRANCH   5   6
ENDBRANCH   3   5
TORSDOF 5
ENDMDL
MODEL      214
REMARK 921   NORMALIZED FREE ENERGY PREDICTED BY IDOCK:   -2.76 KCAL/MOL
REMARK 922        TOTAL FREE ENERGY PREDICTED BY IDOCK:   -4.08 KCAL/MOL
REMARK 923 INTER-LIGAND FREE ENERGY PREDICTED BY IDOCK:   -3.62 KCAL/MOL
REMARK 924 INTRA-LIGAND FREE ENERGY PREDICTED BY IDOCK:   -0.47 KCAL/MOL
REMARK 927      BINDING AFFINITY PREDICTED BY RF-SCORE:    0.00 PKD
ROOT
HETATM    1  O   UNL     1      -7.501   7.173  72.897  1.00  0.00    -0.076 OA 
HETATM    2  N   UNL     1      -7.631   8.103  72.105  1.00  0.00    -0.107 N  
HETATM    3  O   UNL     1      -8.552   7.814  71.068  1.00  0.00    -0.124 OA 
HETATM    4  O   UNL     1      -7.103   9.215  72.091  1.00  0.00    -0.324 OA 
ENDROOT
BRANCH   3   5
HETATM    5  C   UNL     1      -8.687   8.891  70.139  1.00  0.00    -0.161 C  
BRANCH   5   6
HETATM    6  C   UNL     1      -9.961   8.658  69.307  1.00  0.00    -0.195 C  
BRANCH   6   7
HETATM    7  O   UNL     1     -10.937   9.706  69.426  1.00  0.00    -0.231 OA 
HETATM    8  O   UNL     1     -10.777   9.993  67.191  1.00  0.00    -0.250 OA 
HETATM    9  N   UNL     1     -11.325  10.352  68.230  1.00  0.00    -0.268 N  
HETATM   10  O   UNL     1     -12.185  11.209  68.410  1.00  0.00    -0.610 OA 
ENDBRANCH   6   7
BRANCH   6  11
HETATM   11  C   UNL     1     -10.536   7.241  69.480  1.00  0.00    -0.230 C  
BRANCH  11  12
HETATM   12  O   UNL     1     -11.694   7.321  70.311  1.00  0.00    -0.229 OA 
HETATM   13  N   UNL     1     -11.719   6.309  71.305  1.00  0.00    -0.289 N  
HETATM   14  O   UNL     1     -10.787   5.504  71.307  1.00  0.00    -0.242 OA 
HETATM   15  O   UNL     1     -12.706   6.381  72.032  1.00  0.00    -0.281 OA 
ENDBRANCH  11  12
ENDBRANCH   6  11
ENDBRANCH   5   6
ENDBRANCH   3   5
TORSDOF 5
ENDMDL
MODEL      215
REMARK 921   NORMALIZED FREE ENERGY PREDICTED BY IDOCK:   -2.76 KCAL/MOL
REMARK 922        TOTAL FREE ENERGY PREDICTED BY IDOCK:   -4.07 KCAL/MOL
REMARK 923 INTER-LIGAND FREE ENERGY PREDICTED BY IDOCK:   -3.65 KCAL/MOL
REMARK 924 INTRA-LIGAND FREE ENERGY PREDICTED BY IDOCK:   -0.42 KCAL/MOL
REMARK 927      BINDING AFFINITY PREDICTED BY RF-SCORE:    0.00 PKD
ROOT
HETATM    1  O   UNL     1      -8.376   8.597  67.865  1.00  0.00    -0.121 OA 
HETATM    2  N   UNL     1      -8.809   9.266  68.799  1.00  0.00    -0.131 N  
HETATM    3  O   UNL     1      -9.287   8.470  69.869  1.00  0.00    -0.156 OA 
HETATM    4  O   UNL     1      -8.873  10.488  68.938  1.00  0.00    -0.148 OA 
ENDROOT
BRANCH   3   5
HETATM    5  C   UNL     1      -9.805   9.253  70.945  1.00  0.00    -0.293 C  
BRANCH   5   6
HETATM    6  C   UNL     1      -9.589   8.476  72.257  1.00  0.00    -0.307 C  
BRANCH   6   7
HETATM    7  O   UNL     1      -8.328   7.790  72.330  1.00  0.00    -0.109 OA 
HETATM    8  O   UNL     1      -7.894   8.965  74.210  1.00  0.00    -0.379 OA 
HETATM    9  N   UNL     1      -7.494   8.107  73.427  1.00  0.00    -0.144 N  
HETATM   10  O   UNL     1      -6.454   7.456  73.436  1.00  0.00    -0.063 OA 
ENDBRANCH   6   7
BRANCH   6  11
HETATM   11  C   UNL     1     -10.800   7.609  72.644  1.00  0.00    -0.340 C  
BRANCH  11  12
HETATM   12  O   UNL     1     -11.949   8.450  72.736  1.00  0.00    -0.367 OA 
HETATM   13  N   UNL     1     -12.979   8.063  71.840  1.00  0.00    -0.322 N  
HETATM   14  O   UNL     1     -12.748   7.102  71.105  1.00  0.00    -0.367 OA 
HETATM   15  O   UNL     1     -13.976   8.774  71.926  1.00  0.00    -0.403 OA 
ENDBRANCH  11  12
ENDBRANCH   6  11
ENDBRANCH   5   6
ENDBRANCH   3   5
TORSDOF 5
ENDMDL
MODEL      216
REMARK 921   NORMALIZED FREE ENERGY PREDICTED BY IDOCK:   -2.75 KCAL/MOL
REMARK 922        TOTAL FREE ENERGY PREDICTED BY IDOCK:   -4.06 KCAL/MOL
REMARK 923 INTER-LIGAND FREE ENERGY PREDICTED BY IDOCK:   -3.46 KCAL/MOL
REMARK 924 INTRA-LIGAND FREE ENERGY PREDICTED BY IDOCK:   -0.60 KCAL/MOL
REMARK 927      BINDING AFFINITY PREDICTED BY RF-SCORE:    0.00 PKD
ROOT
HETATM    1  O   UNL     1      -7.994   8.808  66.441  1.00  0.00    -0.100 OA 
HETATM    2  N   UNL     1      -8.422   7.778  66.955  1.00  0.00    -0.123 N  
HETATM    3  O   UNL     1      -8.147   7.704  68.343  1.00  0.00    -0.121 OA 
HETATM    4  O   UNL     1      -9.046   6.840  66.457  1.00  0.00    -0.142 OA 
ENDROOT
BRANCH   3   5
HETATM    5  C   UNL     1      -8.633   6.497  68.934  1.00  0.00    -0.125 C  
BRANCH   5   6
HETATM    6  C   UNL     1      -9.606   6.869  70.068  1.00  0.00    -0.157 C  
BRANCH   6   7
HETATM    7  O   UNL     1      -8.963   7.131  71.327  1.00  0.00    -0.145 OA 
HETATM    8  O   UNL     1     -10.020   9.128  71.353  1.00  0.00    -0.302 OA 
HETATM    9  N   UNL     1      -9.264   8.365  71.949  1.00  0.00    -0.213 N  
HETATM   10  O   UNL     1      -8.705   8.499  73.033  1.00  0.00    -0.343 OA 
ENDBRANCH   6   7
BRANCH   6  11
HETATM   11  C   UNL     1     -10.806   5.910  70.163  1.00  0.00    -0.332 C  
BRANCH  11  12
HETATM   12  O   UNL     1     -12.006   6.683  70.136  1.00  0.00    -0.367 OA 
HETATM   13  N   UNL     1     -12.613   6.788  71.414  1.00  0.00    -0.340 N  
HETATM   14  O   UNL     1     -12.062   6.200  72.344  1.00  0.00    -0.272 OA 
HETATM   15  O   UNL     1     -13.638   7.464  71.399  1.00  0.00    -0.379 OA 
ENDBRANCH  11  12
ENDBRANCH   6  11
ENDBRANCH   5   6
ENDBRANCH   3   5
TORSDOF 5
ENDMDL
MODEL      217
REMARK 921   NORMALIZED FREE ENERGY PREDICTED BY IDOCK:   -2.71 KCAL/MOL
REMARK 922        TOTAL FREE ENERGY PREDICTED BY IDOCK:   -4.01 KCAL/MOL
REMARK 923 INTER-LIGAND FREE ENERGY PREDICTED BY IDOCK:   -3.53 KCAL/MOL
REMARK 924 INTRA-LIGAND FREE ENERGY PREDICTED BY IDOCK:   -0.48 KCAL/MOL
REMARK 927      BINDING AFFINITY PREDICTED BY RF-SCORE:    0.00 PKD
ROOT
HETATM    1  O   UNL     1     -10.747  17.487  67.149  1.00  0.00    -0.298 OA 
HETATM    2  N   UNL     1     -10.398  16.511  66.490  1.00  0.00    -0.306 N  
HETATM    3  O   UNL     1     -10.117  15.379  67.294  1.00  0.00    -0.234 OA 
HETATM    4  O   UNL     1     -10.273  16.378  65.272  1.00  0.00    -0.575 OA 
ENDROOT
BRANCH   3   5
HETATM    5  C   UNL     1      -9.695  14.252  66.524  1.00  0.00    -0.291 C  
BRANCH   5   6
HETATM    6  C   UNL     1      -8.604  13.506  67.314  1.00  0.00    -0.213 C  
BRANCH   6   7
HETATM    7  O   UNL     1      -7.265  13.917  66.991  1.00  0.00     0.020 OA 
HETATM    8  O   UNL     1      -7.020  14.524  69.153  1.00  0.00    -0.116 OA 
HETATM    9  N   UNL     1      -6.485  14.434  68.051  1.00  0.00    -0.136 N  
HETATM   10  O   UNL     1      -5.346  14.730  67.703  1.00  0.00    -0.306 OA 
ENDBRANCH   6   7
BRANCH   6  11
HETATM   11  C   UNL     1      -8.808  11.981  67.321  1.00  0.00    -0.183 C  
BRANCH  11  12
HETATM   12  O   UNL     1      -9.215  11.585  68.630  1.00  0.00    -0.186 OA 
HETATM   13  N   UNL     1     -10.551  11.107  68.662  1.00  0.00    -0.183 N  
HETATM   14  O   UNL     1     -11.175  11.121  67.601  1.00  0.00    -0.267 OA 
HETATM   15  O   UNL     1     -10.902  10.751  69.783  1.00  0.00    -0.256 OA 
ENDBRANCH  11  12
ENDBRANCH   6  11
ENDBRANCH   5   6
ENDBRANCH   3   5
TORSDOF 5
ENDMDL
MODEL      218
REMARK 921   NORMALIZED FREE ENERGY PREDICTED BY IDOCK:   -2.70 KCAL/MOL
REMARK 922        TOTAL FREE ENERGY PREDICTED BY IDOCK:   -4.00 KCAL/MOL
REMARK 923 INTER-LIGAND FREE ENERGY PREDICTED BY IDOCK:   -3.57 KCAL/MOL
REMARK 924 INTRA-LIGAND FREE ENERGY PREDICTED BY IDOCK:   -0.43 KCAL/MOL
REMARK 927      BINDING AFFINITY PREDICTED BY RF-SCORE:    0.00 PKD
ROOT
HETATM    1  O   UNL     1      -8.218   4.079  69.085  1.00  0.00    -0.068 OA 
HETATM    2  N   UNL     1      -8.630   4.553  70.141  1.00  0.00    -0.076 N  
HETATM    3  O   UNL     1      -9.915   5.137  70.015  1.00  0.00    -0.210 OA 
HETATM    4  O   UNL     1      -8.110   4.580  71.257  1.00  0.00    -0.083 OA 
ENDROOT
BRANCH   3   5
HETATM    5  C   UNL     1     -10.383   5.701  71.241  1.00  0.00    -0.228 C  
BRANCH   5   6
HETATM    6  C   UNL     1     -11.023   7.067  70.934  1.00  0.00    -0.253 C  
BRANCH   6   7
HETATM    7  O   UNL     1     -12.458   7.034  70.845  1.00  0.00    -0.366 OA 
HETATM    8  O   UNL     1     -12.511   8.553  72.516  1.00  0.00    -0.383 OA 
HETATM    9  N   UNL     1     -13.169   7.882  71.725  1.00  0.00    -0.337 N  
HETATM   10  O   UNL     1     -14.384   7.821  71.565  1.00  0.00    -0.429 OA 
ENDBRANCH   6   7
BRANCH   6  11
HETATM   11  C   UNL     1     -10.339   7.797  69.765  1.00  0.00    -0.221 C  
BRANCH  11  12
HETATM   12  O   UNL     1     -11.035   9.020  69.524  1.00  0.00    -0.207 OA 
HETATM   13  N   UNL     1     -10.221  10.161  69.742  1.00  0.00    -0.246 N  
HETATM   14  O   UNL     1      -9.067   9.960  70.122  1.00  0.00    -0.223 OA 
HETATM   15  O   UNL     1     -10.811  11.215  69.521  1.00  0.00    -0.239 OA 
ENDBRANCH  11  12
ENDBRANCH   6  11
ENDBRANCH   5   6
ENDBRANCH   3   5
TORSDOF 5
ENDMDL
MODEL      219
REMARK 921   NORMALIZED FREE ENERGY PREDICTED BY IDOCK:   -2.69 KCAL/MOL
REMARK 922        TOTAL FREE ENERGY PREDICTED BY IDOCK:   -3.99 KCAL/MOL
REMARK 923 INTER-LIGAND FREE ENERGY PREDICTED BY IDOCK:   -3.48 KCAL/MOL
REMARK 924 INTRA-LIGAND FREE ENERGY PREDICTED BY IDOCK:   -0.51 KCAL/MOL
REMARK 927      BINDING AFFINITY PREDICTED BY RF-SCORE:    0.00 PKD
ROOT
HETATM    1  O   UNL     1      -9.318  10.365  66.899  1.00  0.00    -0.159 OA 
HETATM    2  N   UNL     1     -10.268  10.270  67.672  1.00  0.00    -0.193 N  
HETATM    3  O   UNL     1      -9.891   9.771  68.944  1.00  0.00    -0.162 OA 
HETATM    4  O   UNL     1     -11.457  10.548  67.509  1.00  0.00    -0.431 OA 
ENDROOT
BRANCH   3   5
HETATM    5  C   UNL     1     -11.002   9.646  69.834  1.00  0.00    -0.252 C  
BRANCH   5   6
HETATM    6  C   UNL     1     -10.996   8.222  70.420  1.00  0.00    -0.239 C  
BRANCH   6   7
HETATM    7  O   UNL     1     -10.335   8.116  71.692  1.00  0.00    -0.204 OA 
HETATM    8  O   UNL     1     -12.269   7.309  72.534  1.00  0.00    -0.131 OA 
HETATM    9  N   UNL     1     -11.097   7.597  72.763  1.00  0.00    -0.356 N  
HETATM   10  O   UNL     1     -10.454   7.506  73.805  1.00  0.00    -0.317 OA 
ENDBRANCH   6   7
BRANCH   6  11
HETATM   11  C   UNL     1     -10.563   7.158  69.397  1.00  0.00    -0.233 C  
BRANCH  11  12
HETATM   12  O   UNL     1     -10.915   5.871  69.905  1.00  0.00    -0.344 OA 
HETATM   13  N   UNL     1      -9.778   5.085  70.226  1.00  0.00    -0.196 N  
HETATM   14  O   UNL     1      -8.674   5.584  70.008  1.00  0.00    -0.123 OA 
HETATM   15  O   UNL     1     -10.075   3.982  70.678  1.00  0.00    -0.143 OA 
ENDBRANCH  11  12
ENDBRANCH   6  11
ENDBRANCH   5   6
ENDBRANCH   3   5
TORSDOF 5
ENDMDL
MODEL      220
REMARK 921   NORMALIZED FREE ENERGY PREDICTED BY IDOCK:   -2.68 KCAL/MOL
REMARK 922        TOTAL FREE ENERGY PREDICTED BY IDOCK:   -3.98 KCAL/MOL
REMARK 923 INTER-LIGAND FREE ENERGY PREDICTED BY IDOCK:   -3.60 KCAL/MOL
REMARK 924 INTRA-LIGAND FREE ENERGY PREDICTED BY IDOCK:   -0.38 KCAL/MOL
REMARK 927      BINDING AFFINITY PREDICTED BY RF-SCORE:    0.00 PKD
ROOT
HETATM    1  O   UNL     1      -7.232   8.262  68.822  1.00  0.00    -0.075 OA 
HETATM    2  N   UNL     1      -8.433   8.088  68.634  1.00  0.00    -0.127 N  
HETATM    3  O   UNL     1      -9.155   7.900  69.839  1.00  0.00    -0.145 OA 
HETATM    4  O   UNL     1      -9.079   8.066  67.586  1.00  0.00    -0.137 OA 
ENDROOT
BRANCH   3   5
HETATM    5  C   UNL     1     -10.548   7.681  69.615  1.00  0.00    -0.243 C  
BRANCH   5   6
HETATM    6  C   UNL     1     -11.185   7.214  70.936  1.00  0.00    -0.276 C  
BRANCH   6   7
HETATM    7  O   UNL     1     -11.165   5.789  71.124  1.00  0.00    -0.241 OA 
HETATM    8  O   UNL     1     -10.076   6.147  73.071  1.00  0.00    -0.173 OA 
HETATM    9  N   UNL     1     -10.562   5.313  72.311  1.00  0.00    -0.217 N  
HETATM   10  O   UNL     1     -10.615   4.091  72.414  1.00  0.00    -0.134 OA 
ENDBRANCH   6   7
BRANCH   6  11
HETATM   11  C   UNL     1     -12.556   7.863  71.200  1.00  0.00    -0.175 C  
BRANCH  11  12
HETATM   12  O   UNL     1     -12.426   9.276  71.046  1.00  0.00    -0.288 OA 
HETATM   13  N   UNL     1     -13.235   9.998  71.960  1.00  0.00    -0.454 N  
HETATM   14  O   UNL     1     -13.941   9.339  72.724  1.00  0.00    -0.423 OA 
HETATM   15  O   UNL     1     -13.116  11.215  71.842  1.00  0.00    -0.488 OA 
ENDBRANCH  11  12
ENDBRANCH   6  11
ENDBRANCH   5   6
ENDBRANCH   3   5
TORSDOF 5
ENDMDL
MODEL      221
REMARK 921   NORMALIZED FREE ENERGY PREDICTED BY IDOCK:   -2.68 KCAL/MOL
REMARK 922        TOTAL FREE ENERGY PREDICTED BY IDOCK:   -3.97 KCAL/MOL
REMARK 923 INTER-LIGAND FREE ENERGY PREDICTED BY IDOCK:   -3.55 KCAL/MOL
REMARK 924 INTRA-LIGAND FREE ENERGY PREDICTED BY IDOCK:   -0.42 KCAL/MOL
REMARK 927      BINDING AFFINITY PREDICTED BY RF-SCORE:    0.00 PKD
ROOT
HETATM    1  O   UNL     1      -7.871   7.083  64.918  1.00  0.00    -0.113 OA 
HETATM    2  N   UNL     1      -8.726   7.188  65.794  1.00  0.00    -0.140 N  
HETATM    3  O   UNL     1      -9.369   8.451  65.783  1.00  0.00    -0.168 OA 
HETATM    4  O   UNL     1      -9.099   6.377  66.643  1.00  0.00    -0.136 OA 
ENDROOT
BRANCH   3   5
HETATM    5  C   UNL     1     -10.350   8.575  66.814  1.00  0.00    -0.276 C  
BRANCH   5   6
HETATM    6  C   UNL     1     -10.466  10.061  67.198  1.00  0.00    -0.244 C  
BRANCH   6   7
HETATM    7  O   UNL     1     -11.509  10.341  68.147  1.00  0.00    -0.270 OA 
HETATM    8  O   UNL     1      -9.896  10.687  69.689  1.00  0.00    -0.158 OA 
HETATM    9  N   UNL     1     -11.102  10.686  69.456  1.00  0.00    -0.254 N  
HETATM   10  O   UNL     1     -12.047  10.942  70.196  1.00  0.00    -0.293 OA 
ENDBRANCH   6   7
BRANCH   6  11
HETATM   11  C   UNL     1     -10.463  10.995  65.975  1.00  0.00    -0.245 C  
BRANCH  11  12
HETATM   12  O   UNL     1     -11.447  12.009  66.177  1.00  0.00    -0.346 OA 
HETATM   13  N   UNL     1     -10.872  13.280  66.435  1.00  0.00    -0.286 N  
HETATM   14  O   UNL     1      -9.642  13.339  66.477  1.00  0.00    -0.258 OA 
HETATM   15  O   UNL     1     -11.713  14.160  66.594  1.00  0.00    -0.365 OA 
ENDBRANCH  11  12
ENDBRANCH   6  11
ENDBRANCH   5   6
ENDBRANCH   3   5
TORSDOF 5
ENDMDL
MODEL      222
REMARK 921   NORMALIZED FREE ENERGY PREDICTED BY IDOCK:   -2.68 KCAL/MOL
REMARK 922        TOTAL FREE ENERGY PREDICTED BY IDOCK:   -3.97 KCAL/MOL
REMARK 923 INTER-LIGAND FREE ENERGY PREDICTED BY IDOCK:   -4.38 KCAL/MOL
REMARK 924 INTRA-LIGAND FREE ENERGY PREDICTED BY IDOCK:    0.41 KCAL/MOL
REMARK 927      BINDING AFFINITY PREDICTED BY RF-SCORE:    0.00 PKD
ROOT
HETATM    1  O   UNL     1     -12.099  15.708  68.990  1.00  0.00    -0.337 OA 
HETATM    2  N   UNL     1     -11.518  15.307  67.985  1.00  0.00    -0.345 N  
HETATM    3  O   UNL     1     -12.281  14.366  67.251  1.00  0.00    -0.383 OA 
HETATM    4  O   UNL     1     -10.412  15.606  67.534  1.00  0.00    -0.272 OA 
ENDROOT
BRANCH   3   5
HETATM    5  C   UNL     1     -11.595  13.889  66.092  1.00  0.00    -0.359 C  
BRANCH   5   6
HETATM    6  C   UNL     1     -11.547  12.352  66.154  1.00  0.00    -0.396 C  
BRANCH   6   7
HETATM    7  O   UNL     1     -11.928  11.806  67.428  1.00  0.00    -0.617 OA 
HETATM    8  O   UNL     1      -9.837  12.258  68.152  1.00  0.00    -0.201 OA 
HETATM    9  N   UNL     1     -10.945  11.816  68.444  1.00  0.00    -0.216 N  
HETATM   10  O   UNL     1     -11.357  11.366  69.509  1.00  0.00    -0.257 OA 
ENDBRANCH   6   7
BRANCH   6  11
HETATM   11  C   UNL     1     -10.239  11.772  65.588  1.00  0.00    -0.246 C  
BRANCH  11  12
HETATM   12  O   UNL     1     -10.384  10.357  65.471  1.00  0.00    -0.264 OA 
HETATM   13  N   UNL     1      -9.193   9.660  65.802  1.00  0.00    -0.192 N  
HETATM   14  O   UNL     1      -8.214  10.341  66.111  1.00  0.00    -0.128 OA 
HETATM   15  O   UNL     1      -9.316   8.441  65.717  1.00  0.00    -0.168 OA 
ENDBRANCH  11  12
ENDBRANCH   6  11
ENDBRANCH   5   6
ENDBRANCH   3   5
TORSDOF 5
ENDMDL
MODEL      223
REMARK 921   NORMALIZED FREE ENERGY PREDICTED BY IDOCK:   -2.67 KCAL/MOL
REMARK 922        TOTAL FREE ENERGY PREDICTED BY IDOCK:   -3.96 KCAL/MOL
REMARK 923 INTER-LIGAND FREE ENERGY PREDICTED BY IDOCK:   -3.43 KCAL/MOL
REMARK 924 INTRA-LIGAND FREE ENERGY PREDICTED BY IDOCK:   -0.53 KCAL/MOL
REMARK 927      BINDING AFFINITY PREDICTED BY RF-SCORE:    0.00 PKD
ROOT
HETATM    1  O   UNL     1     -12.575  11.057  70.094  1.00  0.00    -0.283 OA 
HETATM    2  N   UNL     1     -11.805  10.522  69.300  1.00  0.00    -0.216 N  
HETATM    3  O   UNL     1     -10.926   9.602  69.923  1.00  0.00    -0.234 OA 
HETATM    4  O   UNL     1     -11.701  10.658  68.080  1.00  0.00    -0.495 OA 
ENDROOT
BRANCH   3   5
HETATM    5  C   UNL     1     -10.022   8.996  68.999  1.00  0.00    -0.185 C  
BRANCH   5   6
HETATM    6  C   UNL     1     -10.016   7.477  69.250  1.00  0.00    -0.179 C  
BRANCH   6   7
HETATM    7  O   UNL     1      -9.530   6.703  68.141  1.00  0.00    -0.119 OA 
HETATM    8  O   UNL     1      -7.956   5.864  69.527  1.00  0.00    -0.101 OA 
HETATM    9  N   UNL     1      -8.430   5.852  68.394  1.00  0.00    -0.111 N  
HETATM   10  O   UNL     1      -8.096   5.200  67.409  1.00  0.00    -0.100 OA 
ENDBRANCH   6   7
BRANCH   6  11
HETATM   11  C   UNL     1     -11.342   6.965  69.840  1.00  0.00    -0.271 C  
BRANCH  11  12
HETATM   12  O   UNL     1     -11.047   5.978  70.828  1.00  0.00    -0.291 OA 
HETATM   13  N   UNL     1     -11.506   6.347  72.119  1.00  0.00    -0.287 N  
HETATM   14  O   UNL     1     -12.056   7.443  72.224  1.00  0.00    -0.277 OA 
HETATM   15  O   UNL     1     -11.268   5.494  72.969  1.00  0.00    -0.285 OA 
ENDBRANCH  11  12
ENDBRANCH   6  11
ENDBRANCH   5   6
ENDBRANCH   3   5
TORSDOF 5
ENDMDL
MODEL      224
REMARK 921   NORMALIZED FREE ENERGY PREDICTED BY IDOCK:   -2.67 KCAL/MOL
REMARK 922        TOTAL FREE ENERGY PREDICTED BY IDOCK:   -3.96 KCAL/MOL
REMARK 923 INTER-LIGAND FREE ENERGY PREDICTED BY IDOCK:   -3.52 KCAL/MOL
REMARK 924 INTRA-LIGAND FREE ENERGY PREDICTED BY IDOCK:   -0.44 KCAL/MOL
REMARK 927      BINDING AFFINITY PREDICTED BY RF-SCORE:    0.00 PKD
ROOT
HETATM    1  O   UNL     1     -10.500   4.276  65.081  1.00  0.00    -0.250 OA 
HETATM    2  N   UNL     1     -10.382   4.648  66.246  1.00  0.00    -0.280 N  
HETATM    3  O   UNL     1     -11.007   5.896  66.488  1.00  0.00    -0.250 OA 
HETATM    4  O   UNL     1      -9.829   4.103  67.202  1.00  0.00    -0.205 OA 
ENDROOT
BRANCH   3   5
HETATM    5  C   UNL     1     -10.853   6.333  67.840  1.00  0.00    -0.333 C  
BRANCH   5   6
HETATM    6  C   UNL     1     -10.362   7.791  67.825  1.00  0.00    -0.221 C  
BRANCH   6   7
HETATM    7  O   UNL     1      -9.113   7.981  67.139  1.00  0.00    -0.131 OA 
HETATM    8  O   UNL     1     -10.149   9.529  65.861  1.00  0.00    -0.294 OA 
HETATM    9  N   UNL     1      -9.094   8.950  66.110  1.00  0.00    -0.188 N  
HETATM   10  O   UNL     1      -7.987   9.077  65.596  1.00  0.00    -0.099 OA 
ENDBRANCH   6   7
BRANCH   6  11
HETATM   11  C   UNL     1     -10.422   8.455  69.212  1.00  0.00    -0.215 C  
BRANCH  11  12
HETATM   12  O   UNL     1      -9.088   8.679  69.667  1.00  0.00    -0.145 OA 
HETATM   13  N   UNL     1      -9.037   9.069  71.030  1.00  0.00    -0.243 N  
HETATM   14  O   UNL     1     -10.112   9.186  71.619  1.00  0.00    -0.327 OA 
HETATM   15  O   UNL     1      -7.890   9.248  71.430  1.00  0.00    -0.335 OA 
ENDBRANCH  11  12
ENDBRANCH   6  11
ENDBRANCH   5   6
ENDBRANCH   3   5
TORSDOF 5
ENDMDL
MODEL      225
REMARK 921   NORMALIZED FREE ENERGY PREDICTED BY IDOCK:   -2.67 KCAL/MOL
REMARK 922        TOTAL FREE ENERGY PREDICTED BY IDOCK:   -3.96 KCAL/MOL
REMARK 923 INTER-LIGAND FREE ENERGY PREDICTED BY IDOCK:   -3.49 KCAL/MOL
REMARK 924 INTRA-LIGAND FREE ENERGY PREDICTED BY IDOCK:   -0.47 KCAL/MOL
REMARK 927      BINDING AFFINITY PREDICTED BY RF-SCORE:    0.00 PKD
ROOT
HETATM    1  O   UNL     1     -10.626   6.994  73.815  1.00  0.00    -0.375 OA 
HETATM    2  N   UNL     1     -10.340   7.726  72.870  1.00  0.00    -0.306 N  
HETATM    3  O   UNL     1     -11.325   7.717  71.852  1.00  0.00    -0.250 OA 
HETATM    4  O   UNL     1      -9.359   8.450  72.695  1.00  0.00    -0.262 OA 
ENDROOT
BRANCH   3   5
HETATM    5  C   UNL     1     -10.980   8.555  70.749  1.00  0.00    -0.247 C  
BRANCH   5   6
HETATM    6  C   UNL     1     -10.637   7.658  69.545  1.00  0.00    -0.227 C  
BRANCH   6   7
HETATM    7  O   UNL     1     -10.777   8.310  68.272  1.00  0.00    -0.142 OA 
HETATM    8  O   UNL     1      -8.523   8.308  68.120  1.00  0.00    -0.130 OA 
HETATM    9  N   UNL     1      -9.583   8.601  67.573  1.00  0.00    -0.151 N  
HETATM   10  O   UNL     1      -9.787   9.125  66.482  1.00  0.00    -0.219 OA 
ENDBRANCH   6   7
BRANCH   6  11
HETATM   11  C   UNL     1     -11.310   6.276  69.621  1.00  0.00    -0.422 C  
BRANCH  11  12
HETATM   12  O   UNL     1     -10.603   5.380  68.764  1.00  0.00    -0.188 OA 
HETATM   13  N   UNL     1      -9.905   4.377  69.484  1.00  0.00    -0.212 N  
HETATM   14  O   UNL     1      -9.974   4.421  70.713  1.00  0.00    -0.204 OA 
HETATM   15  O   UNL     1      -9.307   3.594  68.751  1.00  0.00    -0.149 OA 
ENDBRANCH  11  12
ENDBRANCH   6  11
ENDBRANCH   5   6
ENDBRANCH   3   5
TORSDOF 5
ENDMDL
MODEL      226
REMARK 921   NORMALIZED FREE ENERGY PREDICTED BY IDOCK:   -2.66 KCAL/MOL
REMARK 922        TOTAL FREE ENERGY PREDICTED BY IDOCK:   -3.96 KCAL/MOL
REMARK 923 INTER-LIGAND FREE ENERGY PREDICTED BY IDOCK:   -3.65 KCAL/MOL
REMARK 924 INTRA-LIGAND FREE ENERGY PREDICTED BY IDOCK:   -0.30 KCAL/MOL
REMARK 927      BINDING AFFINITY PREDICTED BY RF-SCORE:    0.00 PKD
ROOT
HETATM    1  O   UNL     1     -14.211   7.506  71.602  1.00  0.00    -0.422 OA 
HETATM    2  N   UNL     1     -13.069   7.888  71.846  1.00  0.00    -0.312 N  
HETATM    3  O   UNL     1     -12.140   6.822  71.927  1.00  0.00    -0.315 OA 
HETATM    4  O   UNL     1     -12.630   9.027  72.012  1.00  0.00    -0.345 OA 
ENDROOT
BRANCH   3   5
HETATM    5  C   UNL     1     -10.817   7.269  72.228  1.00  0.00    -0.238 C  
BRANCH   5   6
HETATM    6  C   UNL     1      -9.950   7.102  70.967  1.00  0.00    -0.188 C  
BRANCH   6   7
HETATM    7  O   UNL     1      -9.691   8.331  70.268  1.00  0.00    -0.173 OA 
HETATM    8  O   UNL     1      -7.926   8.642  71.643  1.00  0.00    -0.130 OA 
HETATM    9  N   UNL     1      -8.570   9.080  70.693  1.00  0.00    -0.190 N  
HETATM   10  O   UNL     1      -8.397  10.097  70.027  1.00  0.00    -0.160 OA 
ENDBRANCH   6   7
BRANCH   6  11
HETATM   11  C   UNL     1     -10.429   5.954  70.061  1.00  0.00    -0.266 C  
BRANCH  11  12
HETATM   12  O   UNL     1     -11.248   6.502  69.029  1.00  0.00    -0.312 OA 
HETATM   13  N   UNL     1     -10.752   6.215  67.731  1.00  0.00    -0.275 N  
HETATM   14  O   UNL     1      -9.701   5.577  67.663  1.00  0.00    -0.118 OA 
HETATM   15  O   UNL     1     -11.462   6.672  66.839  1.00  0.00    -0.209 OA 
ENDBRANCH  11  12
ENDBRANCH   6  11
ENDBRANCH   5   6
ENDBRANCH   3   5
TORSDOF 5
ENDMDL
MODEL      227
REMARK 921   NORMALIZED FREE ENERGY PREDICTED BY IDOCK:   -2.66 KCAL/MOL
REMARK 922        TOTAL FREE ENERGY PREDICTED BY IDOCK:   -3.95 KCAL/MOL
REMARK 923 INTER-LIGAND FREE ENERGY PREDICTED BY IDOCK:   -3.50 KCAL/MOL
REMARK 924 INTRA-LIGAND FREE ENERGY PREDICTED BY IDOCK:   -0.45 KCAL/MOL
REMARK 927      BINDING AFFINITY PREDICTED BY RF-SCORE:    0.00 PKD
ROOT
HETATM    1  O   UNL     1      -8.671  10.596  64.330  1.00  0.00    -0.180 OA 
HETATM    2  N   UNL     1      -9.573  10.662  65.161  1.00  0.00    -0.229 N  
HETATM    3  O   UNL     1      -9.862  11.993  65.551  1.00  0.00    -0.237 OA 
HETATM    4  O   UNL     1     -10.247   9.769  65.676  1.00  0.00    -0.265 OA 
ENDROOT
BRANCH   3   5
HETATM    5  C   UNL     1     -10.900  12.065  66.530  1.00  0.00    -0.277 C  
BRANCH   5   6
HETATM    6  C   UNL     1     -10.363  12.832  67.752  1.00  0.00    -0.221 C  
BRANCH   6   7
HETATM    7  O   UNL     1     -10.795  14.201  67.819  1.00  0.00    -0.248 OA 
HETATM    8  O   UNL     1     -12.112  13.611  69.557  1.00  0.00    -0.318 OA 
HETATM    9  N   UNL     1     -11.723  14.526  68.835  1.00  0.00    -0.302 N  
HETATM   10  O   UNL     1     -12.016  15.718  68.848  1.00  0.00    -0.382 OA 
ENDBRANCH   6   7
BRANCH   6  11
HETATM   11  C   UNL     1      -8.851  12.639  67.960  1.00  0.00    -0.195 C  
BRANCH  11  12
HETATM   12  O   UNL     1      -8.319  13.828  68.544  1.00  0.00    -0.155 OA 
HETATM   13  N   UNL     1      -7.027  14.143  68.051  1.00  0.00    -0.126 N  
HETATM   14  O   UNL     1      -6.535  13.366  67.233  1.00  0.00    -0.267 OA 
HETATM   15  O   UNL     1      -6.570  15.174  68.539  1.00  0.00    -0.093 OA 
ENDBRANCH  11  12
ENDBRANCH   6  11
ENDBRANCH   5   6
ENDBRANCH   3   5
TORSDOF 5
ENDMDL
MODEL      228
REMARK 921   NORMALIZED FREE ENERGY PREDICTED BY IDOCK:   -2.65 KCAL/MOL
REMARK 922        TOTAL FREE ENERGY PREDICTED BY IDOCK:   -3.93 KCAL/MOL
REMARK 923 INTER-LIGAND FREE ENERGY PREDICTED BY IDOCK:   -3.42 KCAL/MOL
REMARK 924 INTRA-LIGAND FREE ENERGY PREDICTED BY IDOCK:   -0.51 KCAL/MOL
REMARK 927      BINDING AFFINITY PREDICTED BY RF-SCORE:    0.00 PKD
ROOT
HETATM    1  O   UNL     1     -14.143   7.179  71.719  1.00  0.00    -0.384 OA 
HETATM    2  N   UNL     1     -13.061   7.674  71.415  1.00  0.00    -0.323 N  
HETATM    3  O   UNL     1     -12.240   6.786  70.676  1.00  0.00    -0.386 OA 
HETATM    4  O   UNL     1     -12.609   8.798  71.641  1.00  0.00    -0.316 OA 
ENDROOT
BRANCH   3   5
HETATM    5  C   UNL     1     -10.976   7.360  70.339  1.00  0.00    -0.251 C  
BRANCH   5   6
HETATM    6  C   UNL     1      -9.904   6.748  71.259  1.00  0.00    -0.176 C  
BRANCH   6   7
HETATM    7  O   UNL     1      -9.107   7.720  71.956  1.00  0.00    -0.126 OA 
HETATM    8  O   UNL     1     -10.232   7.169  73.835  1.00  0.00    -0.346 OA 
HETATM    9  N   UNL     1      -9.344   7.860  73.342  1.00  0.00    -0.282 N  
HETATM   10  O   UNL     1      -8.603   8.683  73.871  1.00  0.00    -0.261 OA 
ENDBRANCH   6   7
BRANCH   6  11
HETATM   11  C   UNL     1      -9.086   5.643  70.568  1.00  0.00    -0.145 C  
BRANCH  11  12
HETATM   12  O   UNL     1      -8.576   4.763  71.569  1.00  0.00    -0.113 OA 
HETATM   13  N   UNL     1      -8.985   3.419  71.369  1.00  0.00    -0.092 N  
HETATM   14  O   UNL     1      -9.722   3.196  70.408  1.00  0.00    -0.153 OA 
HETATM   15  O   UNL     1      -8.537   2.655  72.219  1.00  0.00    -0.065 OA 
ENDBRANCH  11  12
ENDBRANCH   6  11
ENDBRANCH   5   6
ENDBRANCH   3   5
TORSDOF 5
ENDMDL
MODEL      229
REMARK 921   NORMALIZED FREE ENERGY PREDICTED BY IDOCK:   -2.63 KCAL/MOL
REMARK 922        TOTAL FREE ENERGY PREDICTED BY IDOCK:   -3.92 KCAL/MOL
REMARK 923 INTER-LIGAND FREE ENERGY PREDICTED BY IDOCK:   -3.51 KCAL/MOL
REMARK 924 INTRA-LIGAND FREE ENERGY PREDICTED BY IDOCK:   -0.41 KCAL/MOL
REMARK 927      BINDING AFFINITY PREDICTED BY RF-SCORE:    0.00 PKD
ROOT
HETATM    1  O   UNL     1     -12.232  10.999  70.568  1.00  0.00    -0.320 OA 
HETATM    2  N   UNL     1     -11.493  11.226  69.614  1.00  0.00    -0.284 N  
HETATM    3  O   UNL     1     -11.993  10.703  68.396  1.00  0.00    -0.448 OA 
HETATM    4  O   UNL     1     -10.423  11.835  69.565  1.00  0.00     0.050 OA 
ENDROOT
BRANCH   3   5
HETATM    5  C   UNL     1     -11.122  10.956  67.292  1.00  0.00    -0.283 C  
BRANCH   5   6
HETATM    6  C   UNL     1     -10.312   9.677  67.010  1.00  0.00    -0.248 C  
BRANCH   6   7
HETATM    7  O   UNL     1      -9.237   9.449  67.937  1.00  0.00    -0.130 OA 
HETATM    8  O   UNL     1     -10.403   7.681  68.723  1.00  0.00    -0.200 OA 
HETATM    9  N   UNL     1      -9.370   8.341  68.804  1.00  0.00    -0.144 N  
HETATM   10  O   UNL     1      -8.398   8.194  69.540  1.00  0.00    -0.119 OA 
ENDBRANCH   6   7
BRANCH   6  11
HETATM   11  C   UNL     1      -9.907   9.541  65.532  1.00  0.00    -0.234 C  
BRANCH  11  12
HETATM   12  O   UNL     1     -10.398  10.677  64.821  1.00  0.00    -0.335 OA 
HETATM   13  N   UNL     1     -10.017  10.669  63.455  1.00  0.00    -0.312 N  
HETATM   14  O   UNL     1      -9.315   9.730  63.076  1.00  0.00    -0.268 OA 
HETATM   15  O   UNL     1     -10.448  11.636  62.835  1.00  0.00    -0.232 OA 
ENDBRANCH  11  12
ENDBRANCH   6  11
ENDBRANCH   5   6
ENDBRANCH   3   5
TORSDOF 5
ENDMDL
MODEL      230
REMARK 921   NORMALIZED FREE ENERGY PREDICTED BY IDOCK:   -2.62 KCAL/MOL
REMARK 922        TOTAL FREE ENERGY PREDICTED BY IDOCK:   -3.90 KCAL/MOL
REMARK 923 INTER-LIGAND FREE ENERGY PREDICTED BY IDOCK:   -3.61 KCAL/MOL
REMARK 924 INTRA-LIGAND FREE ENERGY PREDICTED BY IDOCK:   -0.29 KCAL/MOL
REMARK 927      BINDING AFFINITY PREDICTED BY RF-SCORE:    0.00 PKD
ROOT
HETATM    1  O   UNL     1     -10.935   5.838  67.679  1.00  0.00    -0.240 OA 
HETATM    2  N   UNL     1     -10.691   6.228  68.818  1.00  0.00    -0.264 N  
HETATM    3  O   UNL     1      -9.517   7.018  68.886  1.00  0.00    -0.139 OA 
HETATM    4  O   UNL     1     -11.307   6.048  69.869  1.00  0.00    -0.400 OA 
ENDROOT
BRANCH   3   5
HETATM    5  C   UNL     1      -9.228   7.456  70.215  1.00  0.00    -0.154 C  
BRANCH   5   6
HETATM    6  C   UNL     1      -9.976   8.778  70.465  1.00  0.00    -0.189 C  
BRANCH   6   7
HETATM    7  O   UNL     1      -9.284   9.941  69.981  1.00  0.00    -0.226 OA 
HETATM    8  O   UNL     1     -10.935  10.186  68.460  1.00  0.00    -0.232 OA 
HETATM    9  N   UNL     1      -9.888  10.642  68.913  1.00  0.00    -0.194 N  
HETATM   10  O   UNL     1      -9.256  11.640  68.580  1.00  0.00    -0.193 OA 
ENDBRANCH   6   7
BRANCH   6  11
HETATM   11  C   UNL     1     -10.491   8.909  71.908  1.00  0.00    -0.345 C  
BRANCH  11  12
HETATM   12  O   UNL     1      -9.478   8.436  72.796  1.00  0.00    -0.272 OA 
HETATM   13  N   UNL     1      -9.941   7.395  73.642  1.00  0.00    -0.327 N  
HETATM   14  O   UNL     1     -11.121   7.063  73.526  1.00  0.00    -0.230 OA 
HETATM   15  O   UNL     1      -9.069   6.974  74.398  1.00  0.00    -0.202 OA 
ENDBRANCH  11  12
ENDBRANCH   6  11
ENDBRANCH   5   6
ENDBRANCH   3   5
TORSDOF 5
ENDMDL
MODEL      231
REMARK 921   NORMALIZED FREE ENERGY PREDICTED BY IDOCK:   -2.62 KCAL/MOL
REMARK 922        TOTAL FREE ENERGY PREDICTED BY IDOCK:   -3.90 KCAL/MOL
REMARK 923 INTER-LIGAND FREE ENERGY PREDICTED BY IDOCK:   -3.45 KCAL/MOL
REMARK 924 INTRA-LIGAND FREE ENERGY PREDICTED BY IDOCK:   -0.45 KCAL/MOL
REMARK 927      BINDING AFFINITY PREDICTED BY RF-SCORE:    0.00 PKD
ROOT
HETATM    1  O   UNL     1      -8.577   6.884  72.985  1.00  0.00    -0.118 OA 
HETATM    2  N   UNL     1      -8.202   7.904  72.414  1.00  0.00    -0.121 N  
HETATM    3  O   UNL     1      -8.808   8.075  71.144  1.00  0.00    -0.132 OA 
HETATM    4  O   UNL     1      -7.411   8.775  72.779  1.00  0.00    -0.353 OA 
ENDROOT
BRANCH   3   5
HETATM    5  C   UNL     1      -8.355   9.253  70.476  1.00  0.00    -0.205 C  
BRANCH   5   6
HETATM    6  C   UNL     1      -9.196   9.440  69.199  1.00  0.00    -0.155 C  
BRANCH   6   7
HETATM    7  O   UNL     1      -8.805  10.570  68.402  1.00  0.00    -0.129 OA 
HETATM    8  O   UNL     1      -8.559   9.150  66.663  1.00  0.00    -0.124 OA 
HETATM    9  N   UNL     1      -8.499  10.316  67.045  1.00  0.00    -0.129 N  
HETATM   10  O   UNL     1      -8.208  11.334  66.424  1.00  0.00    -0.165 OA 
ENDBRANCH   6   7
BRANCH   6  11
HETATM   11  C   UNL     1     -10.709   9.351  69.463  1.00  0.00    -0.222 C  
BRANCH  11  12
HETATM   12  O   UNL     1     -11.081  10.416  70.337  1.00  0.00    -0.301 OA 
HETATM   13  N   UNL     1     -11.915  11.373  69.703  1.00  0.00    -0.334 N  
HETATM   14  O   UNL     1     -12.181  11.183  68.516  1.00  0.00    -0.600 OA 
HETATM   15  O   UNL     1     -12.250  12.283  70.455  1.00  0.00    -0.360 OA 
ENDBRANCH  11  12
ENDBRANCH   6  11
ENDBRANCH   5   6
ENDBRANCH   3   5
TORSDOF 5
ENDMDL
MODEL      232
REMARK 921   NORMALIZED FREE ENERGY PREDICTED BY IDOCK:   -2.62 KCAL/MOL
REMARK 922        TOTAL FREE ENERGY PREDICTED BY IDOCK:   -3.89 KCAL/MOL
REMARK 923 INTER-LIGAND FREE ENERGY PREDICTED BY IDOCK:   -3.47 KCAL/MOL
REMARK 924 INTRA-LIGAND FREE ENERGY PREDICTED BY IDOCK:   -0.43 KCAL/MOL
REMARK 927      BINDING AFFINITY PREDICTED BY RF-SCORE:    0.00 PKD
ROOT
HETATM    1  O   UNL     1      -7.031  11.156  69.855  1.00  0.00    -0.118 OA 
HETATM    2  N   UNL     1      -7.245  11.953  68.945  1.00  0.00    -0.112 N  
HETATM    3  O   UNL     1      -8.625  12.203  68.749  1.00  0.00    -0.046 OA 
HETATM    4  O   UNL     1      -6.457  12.554  68.214  1.00  0.00    -0.058 OA 
ENDROOT
BRANCH   3   5
HETATM    5  C   UNL     1      -8.870  13.117  67.679  1.00  0.00    -0.191 C  
BRANCH   5   6
HETATM    6  C   UNL     1     -10.217  12.754  67.028  1.00  0.00    -0.241 C  
BRANCH   6   7
HETATM    7  O   UNL     1     -10.282  11.407  66.531  1.00  0.00    -0.209 OA 
HETATM    8  O   UNL     1     -11.910  11.016  68.046  1.00  0.00    -0.593 OA 
HETATM    9  N   UNL     1     -11.236  10.553  67.129  1.00  0.00    -0.164 N  
HETATM   10  O   UNL     1     -11.253   9.433  66.627  1.00  0.00     0.349 OA 
ENDBRANCH   6   7
BRANCH   6  11
HETATM   11  C   UNL     1     -10.702  13.817  66.028  1.00  0.00    -0.284 C  
BRANCH  11  12
HETATM   12  O   UNL     1     -11.375  13.157  64.956  1.00  0.00    -0.291 OA 
HETATM   13  N   UNL     1     -11.927  14.068  64.018  1.00  0.00    -0.403 N  
HETATM   14  O   UNL     1     -11.783  15.268  64.253  1.00  0.00    -0.347 OA 
HETATM   15  O   UNL     1     -12.494  13.505  63.086  1.00  0.00    -0.759 OA 
ENDBRANCH  11  12
ENDBRANCH   6  11
ENDBRANCH   5   6
ENDBRANCH   3   5
TORSDOF 5
ENDMDL
MODEL      233
REMARK 921   NORMALIZED FREE ENERGY PREDICTED BY IDOCK:   -2.62 KCAL/MOL
REMARK 922        TOTAL FREE ENERGY PREDICTED BY IDOCK:   -3.89 KCAL/MOL
REMARK 923 INTER-LIGAND FREE ENERGY PREDICTED BY IDOCK:   -4.36 KCAL/MOL
REMARK 924 INTRA-LIGAND FREE ENERGY PREDICTED BY IDOCK:    0.47 KCAL/MOL
REMARK 927      BINDING AFFINITY PREDICTED BY RF-SCORE:    0.00 PKD
ROOT
HETATM    1  O   UNL     1      -8.365  11.605  67.762  1.00  0.00    -0.131 OA 
HETATM    2  N   UNL     1      -9.076  12.380  67.128  1.00  0.00    -0.192 N  
HETATM    3  O   UNL     1      -9.470  13.509  67.888  1.00  0.00    -0.200 OA 
HETATM    4  O   UNL     1      -9.470  12.324  65.962  1.00  0.00    -0.239 OA 
ENDROOT
BRANCH   3   5
HETATM    5  C   UNL     1     -10.310  14.398  67.152  1.00  0.00    -0.262 C  
BRANCH   5   6
HETATM    6  C   UNL     1      -9.845  15.841  67.422  1.00  0.00    -0.233 C  
BRANCH   6   7
HETATM    7  O   UNL     1      -9.889  16.220  68.808  1.00  0.00    -0.219 OA 
HETATM    8  O   UNL     1     -12.096  15.739  68.781  1.00  0.00    -0.314 OA 
HETATM    9  N   UNL     1     -11.140  16.113  69.457  1.00  0.00    -0.327 N  
HETATM   10  O   UNL     1     -11.088  16.421  70.644  1.00  0.00    -0.323 OA 
ENDBRANCH   6   7
BRANCH   6  11
HETATM   11  C   UNL     1     -10.489  16.864  66.471  1.00  0.00    -0.253 C  
BRANCH  11  12
HETATM   12  O   UNL     1      -9.465  17.718  65.962  1.00  0.00    -0.502 OA 
HETATM   13  N   UNL     1      -9.742  19.092  66.188  1.00  0.00    -0.342 N  
HETATM   14  O   UNL     1     -10.804  19.363  66.749  1.00  0.00    -0.454 OA 
HETATM   15  O   UNL     1      -8.857  19.830  65.766  1.00  0.00    -0.375 OA 
ENDBRANCH  11  12
ENDBRANCH   6  11
ENDBRANCH   5   6
ENDBRANCH   3   5
TORSDOF 5
ENDMDL
MODEL      234
REMARK 921   NORMALIZED FREE ENERGY PREDICTED BY IDOCK:   -2.58 KCAL/MOL
REMARK 922        TOTAL FREE ENERGY PREDICTED BY IDOCK:   -3.85 KCAL/MOL
REMARK 923 INTER-LIGAND FREE ENERGY PREDICTED BY IDOCK:   -4.39 KCAL/MOL
REMARK 924 INTRA-LIGAND FREE ENERGY PREDICTED BY IDOCK:    0.54 KCAL/MOL
REMARK 927      BINDING AFFINITY PREDICTED BY RF-SCORE:    0.00 PKD
ROOT
HETATM    1  O   UNL     1     -10.595  16.898  69.577  1.00  0.00    -0.327 OA 
HETATM    2  N   UNL     1     -11.437  16.006  69.502  1.00  0.00    -0.334 N  
HETATM    3  O   UNL     1     -10.990  14.891  68.752  1.00  0.00    -0.235 OA 
HETATM    4  O   UNL     1     -12.570  15.941  69.981  1.00  0.00    -0.264 OA 
ENDROOT
BRANCH   3   5
HETATM    5  C   UNL     1     -11.978  13.864  68.654  1.00  0.00    -0.366 C  
BRANCH   5   6
HETATM    6  C   UNL     1     -11.270  12.500  68.731  1.00  0.00    -0.273 C  
BRANCH   6   7
HETATM    7  O   UNL     1     -10.325  12.271  67.672  1.00  0.00    -0.200 OA 
HETATM    8  O   UNL     1     -12.075  12.166  66.248  1.00  0.00    -0.626 OA 
HETATM    9  N   UNL     1     -10.853  12.122  66.369  1.00  0.00    -0.260 N  
HETATM   10  O   UNL     1      -9.983  11.964  65.518  1.00  0.00    -0.230 OA 
ENDBRANCH   6   7
BRANCH   6  11
HETATM   11  C   UNL     1     -12.246  11.333  68.965  1.00  0.00    -0.144 C  
BRANCH  11  12
HETATM   12  O   UNL     1     -12.055  10.842  70.291  1.00  0.00    -0.291 OA 
HETATM   13  N   UNL     1     -11.163   9.740  70.339  1.00  0.00    -0.278 N  
HETATM   14  O   UNL     1     -10.704   9.345  69.267  1.00  0.00    -0.227 OA 
HETATM   15  O   UNL     1     -10.984   9.323  71.480  1.00  0.00    -0.336 OA 
ENDBRANCH  11  12
ENDBRANCH   6  11
ENDBRANCH   5   6
ENDBRANCH   3   5
TORSDOF 5
ENDMDL
MODEL      235
REMARK 921   NORMALIZED FREE ENERGY PREDICTED BY IDOCK:   -2.58 KCAL/MOL
REMARK 922        TOTAL FREE ENERGY PREDICTED BY IDOCK:   -3.85 KCAL/MOL
REMARK 923 INTER-LIGAND FREE ENERGY PREDICTED BY IDOCK:   -3.44 KCAL/MOL
REMARK 924 INTRA-LIGAND FREE ENERGY PREDICTED BY IDOCK:   -0.41 KCAL/MOL
REMARK 927      BINDING AFFINITY PREDICTED BY RF-SCORE:    0.00 PKD
ROOT
HETATM    1  O   UNL     1      -7.976  10.372  63.952  1.00  0.00    -0.147 OA 
HETATM    2  N   UNL     1      -8.256  10.169  65.130  1.00  0.00    -0.146 N  
HETATM    3  O   UNL     1      -9.317  10.988  65.590  1.00  0.00    -0.199 OA 
HETATM    4  O   UNL     1      -7.771   9.375  65.937  1.00  0.00    -0.098 OA 
ENDROOT
BRANCH   3   5
HETATM    5  C   UNL     1      -9.628  10.760  66.966  1.00  0.00    -0.169 C  
BRANCH   5   6
HETATM    6  C   UNL     1     -11.097  11.155  67.203  1.00  0.00    -0.287 C  
BRANCH   6   7
HETATM    7  O   UNL     1     -11.390  12.529  66.898  1.00  0.00    -0.288 OA 
HETATM    8  O   UNL     1     -12.520  11.795  65.084  1.00  0.00    -0.172 OA 
HETATM    9  N   UNL     1     -12.177  12.770  65.748  1.00  0.00    -0.447 N  
HETATM   10  O   UNL     1     -12.412  13.963  65.575  1.00  0.00    -0.452 OA 
ENDBRANCH   6   7
BRANCH   6  11
HETATM   11  C   UNL     1     -11.626  10.689  68.570  1.00  0.00    -0.207 C  
BRANCH  11  12
HETATM   12  O   UNL     1     -10.598  10.876  69.543  1.00  0.00    -0.229 OA 
HETATM   13  N   UNL     1     -10.291   9.682  70.245  1.00  0.00    -0.261 N  
HETATM   14  O   UNL     1     -10.944   8.680  69.955  1.00  0.00    -0.246 OA 
HETATM   15  O   UNL     1      -9.397   9.834  71.072  1.00  0.00    -0.090 OA 
ENDBRANCH  11  12
ENDBRANCH   6  11
ENDBRANCH   5   6
ENDBRANCH   3   5
TORSDOF 5
ENDMDL
MODEL      236
REMARK 921   NORMALIZED FREE ENERGY PREDICTED BY IDOCK:   -2.58 KCAL/MOL
REMARK 922        TOTAL FREE ENERGY PREDICTED BY IDOCK:   -3.84 KCAL/MOL
REMARK 923 INTER-LIGAND FREE ENERGY PREDICTED BY IDOCK:   -3.31 KCAL/MOL
REMARK 924 INTRA-LIGAND FREE ENERGY PREDICTED BY IDOCK:   -0.53 KCAL/MOL
REMARK 927      BINDING AFFINITY PREDICTED BY RF-SCORE:    0.00 PKD
ROOT
HETATM    1  O   UNL     1     -10.641  13.954  66.481  1.00  0.00    -0.276 OA 
HETATM    2  N   UNL     1     -10.968  12.831  66.109  1.00  0.00    -0.277 N  
HETATM    3  O   UNL     1      -9.857  12.023  65.763  1.00  0.00    -0.236 OA 
HETATM    4  O   UNL     1     -12.085  12.320  66.009  1.00  0.00    -0.623 OA 
ENDROOT
BRANCH   3   5
HETATM    5  C   UNL     1     -10.243  10.723  65.314  1.00  0.00    -0.285 C  
BRANCH   5   6
HETATM    6  C   UNL     1      -9.627   9.679  66.263  1.00  0.00    -0.221 C  
BRANCH   6   7
HETATM    7  O   UNL     1      -9.196   8.475  65.607  1.00  0.00    -0.178 OA 
HETATM    8  O   UNL     1      -7.125   8.878  66.414  1.00  0.00    -0.081 OA 
HETATM    9  N   UNL     1      -7.837   8.118  65.762  1.00  0.00    -0.091 N  
HETATM   10  O   UNL     1      -7.555   7.062  65.202  1.00  0.00    -0.088 OA 
ENDBRANCH   6   7
BRANCH   6  11
HETATM   11  C   UNL     1     -10.480   9.438  67.521  1.00  0.00    -0.280 C  
BRANCH  11  12
HETATM   12  O   UNL     1      -9.606   9.167  68.616  1.00  0.00    -0.149 OA 
HETATM   13  N   UNL     1      -9.923   7.951  69.275  1.00  0.00    -0.185 N  
HETATM   14  O   UNL     1     -10.892   7.321  68.851  1.00  0.00    -0.180 OA 
HETATM   15  O   UNL     1      -9.165   7.705  70.209  1.00  0.00    -0.156 OA 
ENDBRANCH  11  12
ENDBRANCH   6  11
ENDBRANCH   5   6
ENDBRANCH   3   5
TORSDOF 5
ENDMDL
MODEL      237
REMARK 921   NORMALIZED FREE ENERGY PREDICTED BY IDOCK:   -2.56 KCAL/MOL
REMARK 922        TOTAL FREE ENERGY PREDICTED BY IDOCK:   -3.82 KCAL/MOL
REMARK 923 INTER-LIGAND FREE ENERGY PREDICTED BY IDOCK:   -3.33 KCAL/MOL
REMARK 924 INTRA-LIGAND FREE ENERGY PREDICTED BY IDOCK:   -0.49 KCAL/MOL
REMARK 927      BINDING AFFINITY PREDICTED BY RF-SCORE:    0.00 PKD
ROOT
HETATM    1  O   UNL     1      -9.557   3.748  66.200  1.00  0.00    -0.185 OA 
HETATM    2  N   UNL     1      -9.629   3.680  67.425  1.00  0.00    -0.196 N  
HETATM    3  O   UNL     1      -9.908   4.932  68.027  1.00  0.00    -0.152 OA 
HETATM    4  O   UNL     1      -9.509   2.711  68.176  1.00  0.00    -0.209 OA 
ENDROOT
BRANCH   3   5
HETATM    5  C   UNL     1      -9.974   4.852  69.451  1.00  0.00    -0.212 C  
BRANCH   5   6
HETATM    6  C   UNL     1     -10.331   6.246  70.000  1.00  0.00    -0.199 C  
BRANCH   6   7
HETATM    7  O   UNL     1     -11.731   6.564  69.921  1.00  0.00    -0.406 OA 
HETATM    8  O   UNL     1     -11.658   7.048  72.126  1.00  0.00    -0.268 OA 
HETATM    9  N   UNL     1     -12.351   7.004  71.113  1.00  0.00    -0.376 N  
HETATM   10  O   UNL     1     -13.535   7.288  70.956  1.00  0.00    -0.254 OA 
ENDBRANCH   6   7
BRANCH   6  11
HETATM   11  C   UNL     1      -9.404   7.352  69.467  1.00  0.00    -0.156 C  
BRANCH  11  12
HETATM   12  O   UNL     1     -10.172   8.230  68.645  1.00  0.00    -0.197 OA 
HETATM   13  N   UNL     1      -9.528   8.526  67.416  1.00  0.00    -0.146 N  
HETATM   14  O   UNL     1      -8.416   8.028  67.234  1.00  0.00    -0.123 OA 
HETATM   15  O   UNL     1     -10.191   9.269  66.698  1.00  0.00    -0.256 OA 
ENDBRANCH  11  12
ENDBRANCH   6  11
ENDBRANCH   5   6
ENDBRANCH   3   5
TORSDOF 5
ENDMDL
MODEL      238
REMARK 921   NORMALIZED FREE ENERGY PREDICTED BY IDOCK:   -2.56 KCAL/MOL
REMARK 922        TOTAL FREE ENERGY PREDICTED BY IDOCK:   -3.82 KCAL/MOL
REMARK 923 INTER-LIGAND FREE ENERGY PREDICTED BY IDOCK:   -3.28 KCAL/MOL
REMARK 924 INTRA-LIGAND FREE ENERGY PREDICTED BY IDOCK:   -0.54 KCAL/MOL
REMARK 927      BINDING AFFINITY PREDICTED BY RF-SCORE:    0.00 PKD
ROOT
HETATM    1  O   UNL     1     -10.532  17.365  69.260  1.00  0.00    -0.341 OA 
HETATM    2  N   UNL     1      -9.978  16.368  68.806  1.00  0.00    -0.234 N  
HETATM    3  O   UNL     1      -9.225  16.644  67.638  1.00  0.00    -0.207 OA 
HETATM    4  O   UNL     1      -9.972  15.206  69.214  1.00  0.00    -0.228 OA 
ENDROOT
BRANCH   3   5
HETATM    5  C   UNL     1      -8.596  15.479  67.103  1.00  0.00    -0.215 C  
BRANCH   5   6
HETATM    6  C   UNL     1      -7.095  15.539  67.441  1.00  0.00    -0.202 C  
BRANCH   6   7
HETATM    7  O   UNL     1      -6.727  14.782  68.606  1.00  0.00    -0.083 OA 
HETATM    8  O   UNL     1      -5.588  13.391  67.238  1.00  0.00    -0.354 OA 
HETATM    9  N   UNL     1      -5.900  13.655  68.397  1.00  0.00    -0.089 N  
HETATM   10  O   UNL     1      -5.603  13.082  69.442  1.00  0.00    -0.076 OA 
ENDBRANCH   6   7
BRANCH   6  11
HETATM   11  C   UNL     1      -6.536  16.972  67.421  1.00  0.00    -0.150 C  
BRANCH  11  12
HETATM   12  O   UNL     1      -5.840  17.170  66.190  1.00  0.00    -0.282 OA 
HETATM   13  N   UNL     1      -6.431  18.181  65.390  1.00  0.00    -0.201 N  
HETATM   14  O   UNL     1      -7.446  18.721  65.830  1.00  0.00    -0.443 OA 
HETATM   15  O   UNL     1      -5.828  18.366  64.336  1.00  0.00    -0.172 OA 
ENDBRANCH  11  12
ENDBRANCH   6  11
ENDBRANCH   5   6
ENDBRANCH   3   5
TORSDOF 5
ENDMDL
MODEL      239
REMARK 921   NORMALIZED FREE ENERGY PREDICTED BY IDOCK:   -2.54 KCAL/MOL
REMARK 922        TOTAL FREE ENERGY PREDICTED BY IDOCK:   -3.79 KCAL/MOL
REMARK 923 INTER-LIGAND FREE ENERGY PREDICTED BY IDOCK:   -3.40 KCAL/MOL
REMARK 924 INTRA-LIGAND FREE ENERGY PREDICTED BY IDOCK:   -0.40 KCAL/MOL
REMARK 927      BINDING AFFINITY PREDICTED BY RF-SCORE:    0.00 PKD
ROOT
HETATM    1  O   UNL     1      -6.305   7.896  71.765  1.00  0.00    -0.038 OA 
HETATM    2  N   UNL     1      -7.440   8.350  71.879  1.00  0.00    -0.098 N  
HETATM    3  O   UNL     1      -8.223   7.639  72.821  1.00  0.00    -0.106 OA 
HETATM    4  O   UNL     1      -7.973   9.310  71.319  1.00  0.00    -0.322 OA 
ENDROOT
BRANCH   3   5
HETATM    5  C   UNL     1      -9.548   8.159  72.937  1.00  0.00    -0.275 C  
BRANCH   5   6
HETATM    6  C   UNL     1     -10.541   7.056  72.530  1.00  0.00    -0.225 C  
BRANCH   6   7
HETATM    7  O   UNL     1     -11.905   7.499  72.441  1.00  0.00    -0.298 OA 
HETATM    8  O   UNL     1     -12.006   6.512  70.412  1.00  0.00    -0.397 OA 
HETATM    9  N   UNL     1     -12.616   7.142  71.273  1.00  0.00    -0.381 N  
HETATM   10  O   UNL     1     -13.781   7.528  71.288  1.00  0.00    -0.339 OA 
ENDBRANCH   6   7
BRANCH   6  11
HETATM   11  C   UNL     1     -10.353   5.757  73.334  1.00  0.00    -0.225 C  
BRANCH  11  12
HETATM   12  O   UNL     1     -10.110   4.689  72.420  1.00  0.00    -0.169 OA 
HETATM   13  N   UNL     1     -10.442   3.422  72.965  1.00  0.00    -0.163 N  
HETATM   14  O   UNL     1     -10.857   3.403  74.124  1.00  0.00    -0.198 OA 
HETATM   15  O   UNL     1     -10.249   2.500  72.177  1.00  0.00    -0.162 OA 
ENDBRANCH  11  12
ENDBRANCH   6  11
ENDBRANCH   5   6
ENDBRANCH   3   5
TORSDOF 5
ENDMDL
MODEL      240
REMARK 921   NORMALIZED FREE ENERGY PREDICTED BY IDOCK:   -2.53 KCAL/MOL
REMARK 922        TOTAL FREE ENERGY PREDICTED BY IDOCK:   -3.79 KCAL/MOL
REMARK 923 INTER-LIGAND FREE ENERGY PREDICTED BY IDOCK:   -3.29 KCAL/MOL
REMARK 924 INTRA-LIGAND FREE ENERGY PREDICTED BY IDOCK:   -0.50 KCAL/MOL
REMARK 927      BINDING AFFINITY PREDICTED BY RF-SCORE:    0.00 PKD
ROOT
HETATM    1  O   UNL     1      -6.897   8.896  63.780  1.00  0.00    -0.088 OA 
HETATM    2  N   UNL     1      -7.178   9.140  64.951  1.00  0.00    -0.095 N  
HETATM    3  O   UNL     1      -7.242  10.529  65.220  1.00  0.00    -0.128 OA 
HETATM    4  O   UNL     1      -7.417   8.376  65.887  1.00  0.00    -0.078 OA 
ENDROOT
BRANCH   3   5
HETATM    5  C   UNL     1      -7.553  10.808  66.586  1.00  0.00    -0.134 C  
BRANCH   5   6
HETATM    6  C   UNL     1      -8.890  11.571  66.634  1.00  0.00    -0.187 C  
BRANCH   6   7
HETATM    7  O   UNL     1      -9.150  12.216  67.892  1.00  0.00    -0.170 OA 
HETATM    8  O   UNL     1      -9.478  14.134  66.743  1.00  0.00    -0.258 OA 
HETATM    9  N   UNL     1      -9.476  13.591  67.845  1.00  0.00    -0.207 N  
HETATM   10  O   UNL     1      -9.717  14.061  68.953  1.00  0.00    -0.163 OA 
ENDBRANCH   6   7
BRANCH   6  11
HETATM   11  C   UNL     1     -10.069  10.741  66.097  1.00  0.00    -0.242 C  
BRANCH  11  12
HETATM   12  O   UNL     1     -10.845  11.566  65.227  1.00  0.00    -0.287 OA 
HETATM   13  N   UNL     1     -11.995  12.097  65.865  1.00  0.00    -0.291 N  
HETATM   14  O   UNL     1     -12.186  11.771  67.037  1.00  0.00    -0.425 OA 
HETATM   15  O   UNL     1     -12.658  12.819  65.125  1.00  0.00    -0.530 OA 
ENDBRANCH  11  12
ENDBRANCH   6  11
ENDBRANCH   5   6
ENDBRANCH   3   5
TORSDOF 5
ENDMDL
MODEL      241
REMARK 921   NORMALIZED FREE ENERGY PREDICTED BY IDOCK:   -2.52 KCAL/MOL
REMARK 922        TOTAL FREE ENERGY PREDICTED BY IDOCK:   -3.76 KCAL/MOL
REMARK 923 INTER-LIGAND FREE ENERGY PREDICTED BY IDOCK:   -3.42 KCAL/MOL
REMARK 924 INTRA-LIGAND FREE ENERGY PREDICTED BY IDOCK:   -0.35 KCAL/MOL
REMARK 927      BINDING AFFINITY PREDICTED BY RF-SCORE:    0.00 PKD
ROOT
HETATM    1  O   UNL     1     -13.500   9.115  72.645  1.00  0.00    -0.463 OA 
HETATM    2  N   UNL     1     -12.474   9.463  72.065  1.00  0.00    -0.373 N  
HETATM    3  O   UNL     1     -11.405   8.553  72.251  1.00  0.00    -0.350 OA 
HETATM    4  O   UNL     1     -12.255  10.450  71.361  1.00  0.00    -0.366 OA 
ENDROOT
BRANCH   3   5
HETATM    5  C   UNL     1     -10.209   8.971  71.590  1.00  0.00    -0.348 C  
BRANCH   5   6
HETATM    6  C   UNL     1      -9.223   7.789  71.578  1.00  0.00    -0.137 C  
BRANCH   6   7
HETATM    7  O   UNL     1      -9.526   6.764  72.540  1.00  0.00    -0.141 OA 
HETATM    8  O   UNL     1     -10.460   5.581  70.858  1.00  0.00    -0.233 OA 
HETATM    9  N   UNL     1     -10.176   5.607  72.053  1.00  0.00    -0.199 N  
HETATM   10  O   UNL     1     -10.370   4.767  72.926  1.00  0.00    -0.169 OA 
ENDBRANCH   6   7
BRANCH   6  11
HETATM   11  C   UNL     1      -7.752   8.239  71.584  1.00  0.00    -0.101 C  
BRANCH  11  12
HETATM   12  O   UNL     1      -7.692   9.598  71.150  1.00  0.00    -0.302 OA 
HETATM   13  N   UNL     1      -6.871   9.767  70.005  1.00  0.00    -0.081 N  
HETATM   14  O   UNL     1      -6.313   8.761  69.564  1.00  0.00    -0.042 OA 
HETATM   15  O   UNL     1      -6.828  10.931  69.619  1.00  0.00    -0.114 OA 
ENDBRANCH  11  12
ENDBRANCH   6  11
ENDBRANCH   5   6
ENDBRANCH   3   5
TORSDOF 5
ENDMDL
MODEL      242
REMARK 921   NORMALIZED FREE ENERGY PREDICTED BY IDOCK:   -2.47 KCAL/MOL
REMARK 922        TOTAL FREE ENERGY PREDICTED BY IDOCK:   -3.70 KCAL/MOL
REMARK 923 INTER-LIGAND FREE ENERGY PREDICTED BY IDOCK:   -3.44 KCAL/MOL
REMARK 924 INTRA-LIGAND FREE ENERGY PREDICTED BY IDOCK:   -0.27 KCAL/MOL
REMARK 927      BINDING AFFINITY PREDICTED BY RF-SCORE:    0.00 PKD
ROOT
HETATM    1  O   UNL     1     -10.878  10.940  64.829  1.00  0.00    -0.245 OA 
HETATM    2  N   UNL     1     -10.754  12.161  64.846  1.00  0.00    -0.283 N  
HETATM    3  O   UNL     1     -10.361  12.654  66.115  1.00  0.00    -0.247 OA 
HETATM    4  O   UNL     1     -10.903  12.989  63.946  1.00  0.00    -0.395 OA 
ENDROOT
BRANCH   3   5
HETATM    5  C   UNL     1     -10.233  14.077  66.135  1.00  0.00    -0.302 C  
BRANCH   5   6
HETATM    6  C   UNL     1      -9.570  14.486  67.463  1.00  0.00    -0.210 C  
BRANCH   6   7
HETATM    7  O   UNL     1     -10.201  15.604  68.111  1.00  0.00    -0.224 OA 
HETATM    8  O   UNL     1     -11.430  14.119  69.289  1.00  0.00    -0.259 OA 
HETATM    9  N   UNL     1     -11.174  15.304  69.091  1.00  0.00    -0.260 N  
HETATM   10  O   UNL     1     -11.641  16.308  69.621  1.00  0.00    -0.276 OA 
ENDBRANCH   6   7
BRANCH   6  11
HETATM   11  C   UNL     1      -8.040  14.605  67.354  1.00  0.00    -0.196 C  
BRANCH  11  12
HETATM   12  O   UNL     1      -7.493  13.294  67.209  1.00  0.00    -0.145 OA 
HETATM   13  N   UNL     1      -6.116  13.240  67.546  1.00  0.00    -0.135 N  
HETATM   14  O   UNL     1      -5.581  14.297  67.882  1.00  0.00    -0.160 OA 
HETATM   15  O   UNL     1      -5.644  12.112  67.437  1.00  0.00    -0.100 OA 
ENDBRANCH  11  12
ENDBRANCH   6  11
ENDBRANCH   5   6
ENDBRANCH   3   5
TORSDOF 5
ENDMDL
MODEL      243
REMARK 921   NORMALIZED FREE ENERGY PREDICTED BY IDOCK:   -2.47 KCAL/MOL
REMARK 922        TOTAL FREE ENERGY PREDICTED BY IDOCK:   -3.70 KCAL/MOL
REMARK 923 INTER-LIGAND FREE ENERGY PREDICTED BY IDOCK:   -4.18 KCAL/MOL
REMARK 924 INTRA-LIGAND FREE ENERGY PREDICTED BY IDOCK:    0.48 KCAL/MOL
REMARK 927      BINDING AFFINITY PREDICTED BY RF-SCORE:    0.00 PKD
ROOT
HETATM    1  O   UNL     1      -8.210  11.273  66.289  1.00  0.00    -0.169 OA 
HETATM    2  N   UNL     1      -8.718  11.672  67.334  1.00  0.00    -0.150 N  
HETATM    3  O   UNL     1      -9.274  12.969  67.213  1.00  0.00    -0.197 OA 
HETATM    4  O   UNL     1      -8.820  11.118  68.430  1.00  0.00    -0.145 OA 
ENDROOT
BRANCH   3   5
HETATM    5  C   UNL     1      -9.848  13.436  68.435  1.00  0.00    -0.216 C  
BRANCH   5   6
HETATM    6  C   UNL     1     -11.250  13.994  68.131  1.00  0.00    -0.275 C  
BRANCH   6   7
HETATM    7  O   UNL     1     -11.295  14.875  66.995  1.00  0.00    -0.343 OA 
HETATM    8  O   UNL     1     -10.023  16.322  68.175  1.00  0.00    -0.232 OA 
HETATM    9  N   UNL     1     -10.589  16.094  67.108  1.00  0.00    -0.306 N  
HETATM   10  O   UNL     1     -10.648  16.774  66.088  1.00  0.00    -0.294 OA 
ENDBRANCH   6   7
BRANCH   6  11
HETATM   11  C   UNL     1     -11.957  14.545  69.381  1.00  0.00    -0.322 C  
BRANCH  11  12
HETATM   12  O   UNL     1     -12.102  13.484  70.325  1.00  0.00    -0.335 OA 
HETATM   13  N   UNL     1     -13.095  13.757  71.301  1.00  0.00    -0.320 N  
HETATM   14  O   UNL     1     -13.665  14.846  71.229  1.00  0.00    -0.406 OA 
HETATM   15  O   UNL     1     -13.234  12.841  72.107  1.00  0.00    -0.475 OA 
ENDBRANCH  11  12
ENDBRANCH   6  11
ENDBRANCH   5   6
ENDBRANCH   3   5
TORSDOF 5
ENDMDL
MODEL      244
REMARK 921   NORMALIZED FREE ENERGY PREDICTED BY IDOCK:   -2.47 KCAL/MOL
REMARK 922        TOTAL FREE ENERGY PREDICTED BY IDOCK:   -3.70 KCAL/MOL
REMARK 923 INTER-LIGAND FREE ENERGY PREDICTED BY IDOCK:   -3.14 KCAL/MOL
REMARK 924 INTRA-LIGAND FREE ENERGY PREDICTED BY IDOCK:   -0.56 KCAL/MOL
REMARK 927      BINDING AFFINITY PREDICTED BY RF-SCORE:    0.00 PKD
ROOT
HETATM    1  O   UNL     1     -12.609   8.932  72.441  1.00  0.00    -0.382 OA 
HETATM    2  N   UNL     1     -12.538   7.772  72.043  1.00  0.00    -0.293 N  
HETATM    3  O   UNL     1     -11.481   7.049  72.650  1.00  0.00    -0.267 OA 
HETATM    4  O   UNL     1     -13.237   7.166  71.230  1.00  0.00    -0.377 OA 
ENDROOT
BRANCH   3   5
HETATM    5  C   UNL     1     -11.391   5.705  72.171  1.00  0.00    -0.214 C  
BRANCH   5   6
HETATM    6  C   UNL     1      -9.963   5.471  71.647  1.00  0.00    -0.182 C  
BRANCH   6   7
HETATM    7  O   UNL     1      -9.036   5.032  72.654  1.00  0.00    -0.124 OA 
HETATM    8  O   UNL     1      -9.453   2.913  71.993  1.00  0.00    -0.106 OA 
HETATM    9  N   UNL     1      -8.814   3.639  72.750  1.00  0.00    -0.093 N  
HETATM   10  O   UNL     1      -7.986   3.347  73.608  1.00  0.00    -0.071 OA 
ENDBRANCH   6   7
BRANCH   6  11
HETATM   11  C   UNL     1      -9.446   6.634  70.782  1.00  0.00    -0.168 C  
BRANCH  11  12
HETATM   12  O   UNL     1      -8.305   7.204  71.423  1.00  0.00    -0.111 OA 
HETATM   13  N   UNL     1      -8.408   8.612  71.564  1.00  0.00    -0.161 N  
HETATM   14  O   UNL     1      -9.420   9.147  71.109  1.00  0.00    -0.261 OA 
HETATM   15  O   UNL     1      -7.436   9.105  72.129  1.00  0.00    -0.330 OA 
ENDBRANCH  11  12
ENDBRANCH   6  11
ENDBRANCH   5   6
ENDBRANCH   3   5
TORSDOF 5
ENDMDL
MODEL      245
REMARK 921   NORMALIZED FREE ENERGY PREDICTED BY IDOCK:   -2.47 KCAL/MOL
REMARK 922        TOTAL FREE ENERGY PREDICTED BY IDOCK:   -3.70 KCAL/MOL
REMARK 923 INTER-LIGAND FREE ENERGY PREDICTED BY IDOCK:   -3.18 KCAL/MOL
REMARK 924 INTRA-LIGAND FREE ENERGY PREDICTED BY IDOCK:   -0.52 KCAL/MOL
REMARK 927      BINDING AFFINITY PREDICTED BY RF-SCORE:    0.00 PKD
ROOT
HETATM    1  O   UNL     1     -10.642  13.954  66.481  1.00  0.00    -0.276 OA 
HETATM    2  N   UNL     1     -10.967  12.834  66.094  1.00  0.00    -0.277 N  
HETATM    3  O   UNL     1      -9.854  12.030  65.746  1.00  0.00    -0.236 OA 
HETATM    4  O   UNL     1     -12.083  12.325  65.983  1.00  0.00    -0.623 OA 
ENDROOT
BRANCH   3   5
HETATM    5  C   UNL     1     -10.238  10.735  65.281  1.00  0.00    -0.285 C  
BRANCH   5   6
HETATM    6  C   UNL     1      -9.628   9.681  66.224  1.00  0.00    -0.221 C  
BRANCH   6   7
HETATM    7  O   UNL     1      -9.046  10.231  67.417  1.00  0.00    -0.138 OA 
HETATM    8  O   UNL     1     -10.465   8.935  68.604  1.00  0.00    -0.214 OA 
HETATM    9  N   UNL     1      -9.550   9.754  68.649  1.00  0.00    -0.148 N  
HETATM   10  O   UNL     1      -8.980  10.245  69.618  1.00  0.00    -0.190 OA 
ENDBRANCH   6   7
BRANCH   6  11
HETATM   11  C   UNL     1      -8.724   8.675  65.490  1.00  0.00    -0.186 C  
BRANCH  11  12
HETATM   12  O   UNL     1      -8.853   7.403  66.124  1.00  0.00    -0.156 OA 
HETATM   13  N   UNL     1      -7.600   6.862  66.513  1.00  0.00    -0.087 N  
HETATM   14  O   UNL     1      -6.597   7.522  66.240  1.00  0.00    -0.047 OA 
HETATM   15  O   UNL     1      -7.706   5.775  67.073  1.00  0.00    -0.098 OA 
ENDBRANCH  11  12
ENDBRANCH   6  11
ENDBRANCH   5   6
ENDBRANCH   3   5
TORSDOF 5
ENDMDL
MODEL      246
REMARK 921   NORMALIZED FREE ENERGY PREDICTED BY IDOCK:   -2.45 KCAL/MOL
REMARK 922        TOTAL FREE ENERGY PREDICTED BY IDOCK:   -3.68 KCAL/MOL
REMARK 923 INTER-LIGAND FREE ENERGY PREDICTED BY IDOCK:   -3.27 KCAL/MOL
REMARK 924 INTRA-LIGAND FREE ENERGY PREDICTED BY IDOCK:   -0.41 KCAL/MOL
REMARK 927      BINDING AFFINITY PREDICTED BY RF-SCORE:    0.00 PKD
ROOT
HETATM    1  O   UNL     1     -10.709  17.318  68.727  1.00  0.00    -0.325 OA 
HETATM    2  N   UNL     1      -9.942  16.694  67.998  1.00  0.00    -0.251 N  
HETATM    3  O   UNL     1      -8.975  17.526  67.381  1.00  0.00    -0.227 OA 
HETATM    4  O   UNL     1      -9.887  15.490  67.747  1.00  0.00    -0.212 OA 
ENDROOT
BRANCH   3   5
HETATM    5  C   UNL     1      -8.096  16.798  66.521  1.00  0.00    -0.294 C  
BRANCH   5   6
HETATM    6  C   UNL     1      -6.651  17.021  67.003  1.00  0.00    -0.202 C  
BRANCH   6   7
HETATM    7  O   UNL     1      -6.529  17.191  68.426  1.00  0.00    -0.150 OA 
HETATM    8  O   UNL     1      -5.378  15.247  68.473  1.00  0.00    -0.089 OA 
HETATM    9  N   UNL     1      -5.811  16.194  69.126  1.00  0.00    -0.118 N  
HETATM   10  O   UNL     1      -5.722  16.428  70.327  1.00  0.00    -0.196 OA 
ENDBRANCH   6   7
BRANCH   6  11
HETATM   11  C   UNL     1      -5.903  18.083  66.178  1.00  0.00    -0.196 C  
BRANCH  11  12
HETATM   12  O   UNL     1      -6.689  19.274  66.152  1.00  0.00    -0.199 OA 
HETATM   13  N   UNL     1      -6.165  20.288  66.994  1.00  0.00    -0.186 N  
HETATM   14  O   UNL     1      -5.151  20.013  67.637  1.00  0.00    -0.175 OA 
HETATM   15  O   UNL     1      -6.829  21.321  66.964  1.00  0.00    -0.450 OA 
ENDBRANCH  11  12
ENDBRANCH   6  11
ENDBRANCH   5   6
ENDBRANCH   3   5
TORSDOF 5
ENDMDL
MODEL      247
REMARK 921   NORMALIZED FREE ENERGY PREDICTED BY IDOCK:   -2.45 KCAL/MOL
REMARK 922        TOTAL FREE ENERGY PREDICTED BY IDOCK:   -3.67 KCAL/MOL
REMARK 923 INTER-LIGAND FREE ENERGY PREDICTED BY IDOCK:   -3.08 KCAL/MOL
REMARK 924 INTRA-LIGAND FREE ENERGY PREDICTED BY IDOCK:   -0.59 KCAL/MOL
REMARK 927      BINDING AFFINITY PREDICTED BY RF-SCORE:    0.00 PKD
ROOT
HETATM    1  O   UNL     1      -9.145   9.188  72.294  1.00  0.00    -0.268 OA 
HETATM    2  N   UNL     1      -9.011   8.022  71.930  1.00  0.00    -0.136 N  
HETATM    3  O   UNL     1      -8.767   7.907  70.539  1.00  0.00    -0.133 OA 
HETATM    4  O   UNL     1      -9.045   6.977  72.582  1.00  0.00    -0.134 OA 
ENDROOT
BRANCH   3   5
HETATM    5  C   UNL     1      -8.629   6.549  70.118  1.00  0.00    -0.140 C  
BRANCH   5   6
HETATM    6  C   UNL     1      -9.775   6.224  69.143  1.00  0.00    -0.135 C  
BRANCH   6   7
HETATM    7  O   UNL     1      -9.986   7.226  68.134  1.00  0.00    -0.149 OA 
HETATM    8  O   UNL     1      -8.433   6.170  66.880  1.00  0.00    -0.106 OA 
HETATM    9  N   UNL     1      -9.231   7.101  66.946  1.00  0.00    -0.141 N  
HETATM   10  O   UNL     1      -9.493   7.974  66.123  1.00  0.00    -0.190 OA 
ENDBRANCH   6   7
BRANCH   6  11
HETATM   11  C   UNL     1     -11.060   5.774  69.860  1.00  0.00    -0.257 C  
BRANCH  11  12
HETATM   12  O   UNL     1     -11.872   6.924  70.099  1.00  0.00    -0.299 OA 
HETATM   13  N   UNL     1     -12.402   6.950  71.415  1.00  0.00    -0.367 N  
HETATM   14  O   UNL     1     -12.126   6.000  72.148  1.00  0.00    -0.304 OA 
HETATM   15  O   UNL     1     -13.089   7.945  71.630  1.00  0.00    -0.326 OA 
ENDBRANCH  11  12
ENDBRANCH   6  11
ENDBRANCH   5   6
ENDBRANCH   3   5
TORSDOF 5
ENDMDL
MODEL      248
REMARK 921   NORMALIZED FREE ENERGY PREDICTED BY IDOCK:   -2.44 KCAL/MOL
REMARK 922        TOTAL FREE ENERGY PREDICTED BY IDOCK:   -3.66 KCAL/MOL
REMARK 923 INTER-LIGAND FREE ENERGY PREDICTED BY IDOCK:   -3.25 KCAL/MOL
REMARK 924 INTRA-LIGAND FREE ENERGY PREDICTED BY IDOCK:   -0.42 KCAL/MOL
REMARK 927      BINDING AFFINITY PREDICTED BY RF-SCORE:    0.00 PKD
ROOT
HETATM    1  O   UNL     1      -8.139   5.779  73.693  1.00  0.00    -0.111 OA 
HETATM    2  N   UNL     1      -8.388   5.989  72.509  1.00  0.00    -0.116 N  
HETATM    3  O   UNL     1      -9.311   7.048  72.322  1.00  0.00    -0.138 OA 
HETATM    4  O   UNL     1      -7.957   5.437  71.495  1.00  0.00    -0.110 OA 
ENDROOT
BRANCH   3   5
HETATM    5  C   UNL     1      -9.611   7.277  70.945  1.00  0.00    -0.170 C  
BRANCH   5   6
HETATM    6  C   UNL     1      -9.357   8.763  70.633  1.00  0.00    -0.195 C  
BRANCH   6   7
HETATM    7  O   UNL     1      -8.243   9.328  71.345  1.00  0.00    -0.330 OA 
HETATM    8  O   UNL     1      -7.127   9.384  69.382  1.00  0.00    -0.051 OA 
HETATM    9  N   UNL     1      -7.096   9.645  70.582  1.00  0.00    -0.127 N  
HETATM   10  O   UNL     1      -6.203  10.153  71.254  1.00  0.00    -0.309 OA 
ENDBRANCH   6   7
BRANCH   6  11
HETATM   11  C   UNL     1     -10.638   9.613  70.695  1.00  0.00    -0.319 C  
BRANCH  11  12
HETATM   12  O   UNL     1     -10.757  10.343  69.474  1.00  0.00    -0.218 OA 
HETATM   13  N   UNL     1     -11.901  11.183  69.453  1.00  0.00    -0.318 N  
HETATM   14  O   UNL     1     -12.632  11.156  70.443  1.00  0.00    -0.293 OA 
HETATM   15  O   UNL     1     -12.000  11.824  68.411  1.00  0.00    -0.443 OA 
ENDBRANCH  11  12
ENDBRANCH   6  11
ENDBRANCH   5   6
ENDBRANCH   3   5
TORSDOF 5
ENDMDL
MODEL      249
REMARK 921   NORMALIZED FREE ENERGY PREDICTED BY IDOCK:   -2.44 KCAL/MOL
REMARK 922        TOTAL FREE ENERGY PREDICTED BY IDOCK:   -3.66 KCAL/MOL
REMARK 923 INTER-LIGAND FREE ENERGY PREDICTED BY IDOCK:   -3.27 KCAL/MOL
REMARK 924 INTRA-LIGAND FREE ENERGY PREDICTED BY IDOCK:   -0.39 KCAL/MOL
REMARK 927      BINDING AFFINITY PREDICTED BY RF-SCORE:    0.00 PKD
ROOT
HETATM    1  O   UNL     1      -7.113  11.300  69.062  1.00  0.00    -0.098 OA 
HETATM    2  N   UNL     1      -6.987  12.244  68.286  1.00  0.00    -0.075 N  
HETATM    3  O   UNL     1      -7.969  13.247  68.480  1.00  0.00    -0.136 OA 
HETATM    4  O   UNL     1      -6.150  12.442  67.404  1.00  0.00    -0.135 OA 
ENDROOT
BRANCH   3   5
HETATM    5  C   UNL     1      -7.829  14.334  67.564  1.00  0.00    -0.194 C  
BRANCH   5   6
HETATM    6  C   UNL     1      -8.921  15.375  67.876  1.00  0.00    -0.173 C  
BRANCH   6   7
HETATM    7  O   UNL     1     -10.245  14.824  67.963  1.00  0.00    -0.223 OA 
HETATM    8  O   UNL     1     -10.357  15.648  70.064  1.00  0.00    -0.296 OA 
HETATM    9  N   UNL     1     -10.945  15.039  69.173  1.00  0.00    -0.249 N  
HETATM   10  O   UNL     1     -12.078  14.569  69.157  1.00  0.00    -0.308 OA 
ENDBRANCH   6   7
BRANCH   6  11
HETATM   11  C   UNL     1      -8.819  16.629  66.991  1.00  0.00    -0.199 C  
BRANCH  11  12
HETATM   12  O   UNL     1      -9.930  17.478  67.279  1.00  0.00    -0.292 OA 
HETATM   13  N   UNL     1      -9.610  18.490  68.221  1.00  0.00    -0.326 N  
HETATM   14  O   UNL     1      -8.465  18.491  68.673  1.00  0.00    -0.326 OA 
HETATM   15  O   UNL     1     -10.558  19.233  68.461  1.00  0.00    -0.241 OA 
ENDBRANCH  11  12
ENDBRANCH   6  11
ENDBRANCH   5   6
ENDBRANCH   3   5
TORSDOF 5
ENDMDL
MODEL      250
REMARK 921   NORMALIZED FREE ENERGY PREDICTED BY IDOCK:   -2.42 KCAL/MOL
REMARK 922        TOTAL FREE ENERGY PREDICTED BY IDOCK:   -3.64 KCAL/MOL
REMARK 923 INTER-LIGAND FREE ENERGY PREDICTED BY IDOCK:   -3.18 KCAL/MOL
REMARK 924 INTRA-LIGAND FREE ENERGY PREDICTED BY IDOCK:   -0.46 KCAL/MOL
REMARK 927      BINDING AFFINITY PREDICTED BY RF-SCORE:    0.00 PKD
ROOT
HETATM    1  O   UNL     1      -6.359   6.135  72.150  1.00  0.00    -0.044 OA 
HETATM    2  N   UNL     1      -7.315   6.787  71.738  1.00  0.00    -0.084 N  
HETATM    3  O   UNL     1      -8.526   6.051  71.752  1.00  0.00    -0.125 OA 
HETATM    4  O   UNL     1      -7.372   7.951  71.340  1.00  0.00    -0.061 OA 
ENDROOT
BRANCH   3   5
HETATM    5  C   UNL     1      -9.632   6.807  71.256  1.00  0.00    -0.169 C  
BRANCH   5   6
HETATM    6  C   UNL     1     -10.716   6.856  72.348  1.00  0.00    -0.226 C  
BRANCH   6   7
HETATM    7  O   UNL     1     -11.580   5.707  72.366  1.00  0.00    -0.284 OA 
HETATM    8  O   UNL     1     -10.548   5.068  74.272  1.00  0.00    -0.283 OA 
HETATM    9  N   UNL     1     -11.426   4.813  73.451  1.00  0.00    -0.319 N  
HETATM   10  O   UNL     1     -12.220   3.878  73.413  1.00  0.00     0.158 OA 
ENDBRANCH   6   7
BRANCH   6  11
HETATM   11  C   UNL     1     -11.460   8.202  72.391  1.00  0.00    -0.397 C  
BRANCH  11  12
HETATM   12  O   UNL     1     -10.944   9.039  71.356  1.00  0.00    -0.270 OA 
HETATM   13  N   UNL     1     -11.752  10.182  71.129  1.00  0.00    -0.369 N  
HETATM   14  O   UNL     1     -12.773  10.290  71.809  1.00  0.00    -0.408 OA 
HETATM   15  O   UNL     1     -11.305  10.913  70.250  1.00  0.00    -0.299 OA 
ENDBRANCH  11  12
ENDBRANCH   6  11
ENDBRANCH   5   6
ENDBRANCH   3   5
TORSDOF 5
ENDMDL
MODEL      251
REMARK 921   NORMALIZED FREE ENERGY PREDICTED BY IDOCK:   -2.42 KCAL/MOL
REMARK 922        TOTAL FREE ENERGY PREDICTED BY IDOCK:   -3.64 KCAL/MOL
REMARK 923 INTER-LIGAND FREE ENERGY PREDICTED BY IDOCK:   -3.06 KCAL/MOL
REMARK 924 INTRA-LIGAND FREE ENERGY PREDICTED BY IDOCK:   -0.57 KCAL/MOL
REMARK 927      BINDING AFFINITY PREDICTED BY RF-SCORE:    0.00 PKD
ROOT
HETATM    1  O   UNL     1      -6.091   9.426  64.280  1.00  0.00    -0.074 OA 
HETATM    2  N   UNL     1      -6.575   9.590  65.397  1.00  0.00    -0.074 N  
HETATM    3  O   UNL     1      -6.744  10.958  65.726  1.00  0.00    -0.094 OA 
HETATM    4  O   UNL     1      -6.934   8.764  66.237  1.00  0.00    -0.079 OA 
ENDROOT
BRANCH   3   5
HETATM    5  C   UNL     1      -7.291  11.144  67.032  1.00  0.00    -0.128 C  
BRANCH   5   6
HETATM    6  C   UNL     1      -8.724  11.689  66.885  1.00  0.00    -0.185 C  
BRANCH   6   7
HETATM    7  O   UNL     1      -9.209  11.701  65.532  1.00  0.00    -0.194 OA 
HETATM    8  O   UNL     1     -10.276   9.763  65.988  1.00  0.00    -0.259 OA 
HETATM    9  N   UNL     1     -10.052  10.632  65.149  1.00  0.00    -0.294 N  
HETATM   10  O   UNL     1     -10.450  10.732  63.993  1.00  0.00    -0.358 OA 
ENDBRANCH   6   7
BRANCH   6  11
HETATM   11  C   UNL     1      -8.940  13.012  67.641  1.00  0.00    -0.192 C  
BRANCH  11  12
HETATM   12  O   UNL     1     -10.241  12.992  68.226  1.00  0.00    -0.235 OA 
HETATM   13  N   UNL     1     -11.148  13.860  67.564  1.00  0.00    -0.279 N  
HETATM   14  O   UNL     1     -10.705  14.515  66.620  1.00  0.00    -0.295 OA 
HETATM   15  O   UNL     1     -12.273  13.835  68.053  1.00  0.00    -0.323 OA 
ENDBRANCH  11  12
ENDBRANCH   6  11
ENDBRANCH   5   6
ENDBRANCH   3   5
TORSDOF 5
ENDMDL
MODEL      252
REMARK 921   NORMALIZED FREE ENERGY PREDICTED BY IDOCK:   -2.41 KCAL/MOL
REMARK 922        TOTAL FREE ENERGY PREDICTED BY IDOCK:   -3.63 KCAL/MOL
REMARK 923 INTER-LIGAND FREE ENERGY PREDICTED BY IDOCK:   -4.80 KCAL/MOL
REMARK 924 INTRA-LIGAND FREE ENERGY PREDICTED BY IDOCK:    1.17 KCAL/MOL
REMARK 927      BINDING AFFINITY PREDICTED BY RF-SCORE:    0.00 PKD
ROOT
HETATM    1  O   UNL     1      -8.443  11.407  67.800  1.00  0.00    -0.121 OA 
HETATM    2  N   UNL     1      -9.531  11.395  67.231  1.00  0.00    -0.167 N  
HETATM    3  O   UNL     1     -10.409  12.401  67.706  1.00  0.00    -0.209 OA 
HETATM    4  O   UNL     1      -9.949  10.667  66.330  1.00  0.00    -0.206 OA 
ENDROOT
BRANCH   3   5
HETATM    5  C   UNL     1     -11.679  12.373  67.053  1.00  0.00    -0.353 C  
BRANCH   5   6
HETATM    6  C   UNL     1     -12.125  13.824  66.796  1.00  0.00    -0.418 C  
BRANCH   6   7
HETATM    7  O   UNL     1     -12.798  14.015  65.541  1.00  0.00    -0.615 OA 
HETATM    8  O   UNL     1     -10.943  13.222  64.524  1.00  0.00    -0.343 OA 
HETATM    9  N   UNL     1     -12.087  13.645  64.376  1.00  0.00    -0.421 N  
HETATM   10  O   UNL     1     -12.740  13.807  63.349  1.00  0.00    -0.795 OA 
ENDBRANCH   6   7
BRANCH   6  11
HETATM   11  C   UNL     1     -11.012  14.849  67.076  1.00  0.00    -0.327 C  
BRANCH  11  12
HETATM   12  O   UNL     1     -10.600  14.712  68.435  1.00  0.00    -0.232 OA 
HETATM   13  N   UNL     1      -9.784  15.789  68.867  1.00  0.00    -0.211 N  
HETATM   14  O   UNL     1      -9.522  16.659  68.036  1.00  0.00    -0.219 OA 
HETATM   15  O   UNL     1      -9.439  15.683  70.040  1.00  0.00    -0.168 OA 
ENDBRANCH  11  12
ENDBRANCH   6  11
ENDBRANCH   5   6
ENDBRANCH   3   5
TORSDOF 5
ENDMDL
MODEL      253
REMARK 921   NORMALIZED FREE ENERGY PREDICTED BY IDOCK:   -2.41 KCAL/MOL
REMARK 922        TOTAL FREE ENERGY PREDICTED BY IDOCK:   -3.63 KCAL/MOL
REMARK 923 INTER-LIGAND FREE ENERGY PREDICTED BY IDOCK:   -3.28 KCAL/MOL
REMARK 924 INTRA-LIGAND FREE ENERGY PREDICTED BY IDOCK:   -0.35 KCAL/MOL
REMARK 927      BINDING AFFINITY PREDICTED BY RF-SCORE:    0.00 PKD
ROOT
HETATM    1  O   UNL     1      -7.688   4.671  72.964  1.00  0.00    -0.085 OA 
HETATM    2  N   UNL     1      -7.691   5.524  72.080  1.00  0.00    -0.100 N  
HETATM    3  O   UNL     1      -8.920   6.224  71.999  1.00  0.00    -0.142 OA 
HETATM    4  O   UNL     1      -6.805   5.855  71.291  1.00  0.00    -0.062 OA 
ENDROOT
BRANCH   3   5
HETATM    5  C   UNL     1      -8.926   7.204  70.960  1.00  0.00    -0.150 C  
BRANCH   5   6
HETATM    6  C   UNL     1     -10.376   7.393  70.478  1.00  0.00    -0.214 C  
BRANCH   6   7
HETATM    7  O   UNL     1     -10.686   8.735  70.070  1.00  0.00    -0.224 OA 
HETATM    8  O   UNL     1     -10.322   8.081  67.939  1.00  0.00    -0.211 OA 
HETATM    9  N   UNL     1     -10.648   9.003  68.682  1.00  0.00    -0.195 N  
HETATM   10  O   UNL     1     -10.957  10.160  68.412  1.00  0.00    -0.242 OA 
ENDBRANCH   6   7
BRANCH   6  11
HETATM   11  C   UNL     1     -11.408   6.773  71.436  1.00  0.00    -0.279 C  
BRANCH  11  12
HETATM   12  O   UNL     1     -12.712   7.186  71.027  1.00  0.00    -0.352 OA 
HETATM   13  N   UNL     1     -13.272   8.156  71.898  1.00  0.00    -0.333 N  
HETATM   14  O   UNL     1     -12.599   8.486  72.875  1.00  0.00    -0.266 OA 
HETATM   15  O   UNL     1     -14.388   8.526  71.542  1.00  0.00    -0.424 OA 
ENDBRANCH  11  12
ENDBRANCH   6  11
ENDBRANCH   5   6
ENDBRANCH   3   5
TORSDOF 5
ENDMDL
MODEL      254
REMARK 921   NORMALIZED FREE ENERGY PREDICTED BY IDOCK:   -2.39 KCAL/MOL
REMARK 922        TOTAL FREE ENERGY PREDICTED BY IDOCK:   -3.60 KCAL/MOL
REMARK 923 INTER-LIGAND FREE ENERGY PREDICTED BY IDOCK:   -3.13 KCAL/MOL
REMARK 924 INTRA-LIGAND FREE ENERGY PREDICTED BY IDOCK:   -0.47 KCAL/MOL
REMARK 927      BINDING AFFINITY PREDICTED BY RF-SCORE:    0.00 PKD
ROOT
HETATM    1  O   UNL     1     -14.376   7.124  71.778  1.00  0.00    -0.417 OA 
HETATM    2  N   UNL     1     -13.276   7.650  71.629  1.00  0.00    -0.352 N  
HETATM    3  O   UNL     1     -12.422   6.902  70.781  1.00  0.00    -0.356 OA 
HETATM    4  O   UNL     1     -12.829   8.703  72.085  1.00  0.00    -0.349 OA 
ENDROOT
BRANCH   3   5
HETATM    5  C   UNL     1     -11.138   7.508  70.624  1.00  0.00    -0.265 C  
BRANCH   5   6
HETATM    6  C   UNL     1     -10.067   6.507  71.095  1.00  0.00    -0.183 C  
BRANCH   6   7
HETATM    7  O   UNL     1      -9.810   6.548  72.509  1.00  0.00    -0.166 OA 
HETATM    8  O   UNL     1     -10.293   4.343  72.576  1.00  0.00    -0.185 OA 
HETATM    9  N   UNL     1      -9.940   5.330  73.215  1.00  0.00    -0.161 N  
HETATM   10  O   UNL     1      -9.671   5.441  74.408  1.00  0.00    -0.151 OA 
ENDBRANCH   6   7
BRANCH   6  11
HETATM   11  C   UNL     1      -8.799   6.535  70.225  1.00  0.00    -0.151 C  
BRANCH  11  12
HETATM   12  O   UNL     1      -9.015   7.435  69.138  1.00  0.00    -0.136 OA 
HETATM   13  N   UNL     1      -7.878   8.238  68.865  1.00  0.00    -0.109 N  
HETATM   14  O   UNL     1      -6.895   8.081  69.590  1.00  0.00    -0.041 OA 
HETATM   15  O   UNL     1      -8.052   9.004  67.921  1.00  0.00    -0.105 OA 
ENDBRANCH  11  12
ENDBRANCH   6  11
ENDBRANCH   5   6
ENDBRANCH   3   5
TORSDOF 5
ENDMDL
MODEL      255
REMARK 921   NORMALIZED FREE ENERGY PREDICTED BY IDOCK:   -2.38 KCAL/MOL
REMARK 922        TOTAL FREE ENERGY PREDICTED BY IDOCK:   -3.59 KCAL/MOL
REMARK 923 INTER-LIGAND FREE ENERGY PREDICTED BY IDOCK:   -3.01 KCAL/MOL
REMARK 924 INTRA-LIGAND FREE ENERGY PREDICTED BY IDOCK:   -0.57 KCAL/MOL
REMARK 927      BINDING AFFINITY PREDICTED BY RF-SCORE:    0.00 PKD
ROOT
HETATM    1  O   UNL     1      -9.701   9.558  69.406  1.00  0.00    -0.166 OA 
HETATM    2  N   UNL     1      -8.992   8.573  69.216  1.00  0.00    -0.145 N  
HETATM    3  O   UNL     1      -9.500   7.720  68.205  1.00  0.00    -0.145 OA 
HETATM    4  O   UNL     1      -7.934   8.240  69.752  1.00  0.00    -0.101 OA 
ENDROOT
BRANCH   3   5
HETATM    5  C   UNL     1      -8.681   6.567  67.999  1.00  0.00    -0.116 C  
BRANCH   5   6
HETATM    6  C   UNL     1      -9.582   5.320  68.035  1.00  0.00    -0.132 C  
BRANCH   6   7
HETATM    7  O   UNL     1     -10.578   5.288  66.999  1.00  0.00    -0.244 OA 
HETATM    8  O   UNL     1      -9.309   3.746  65.944  1.00  0.00    -0.151 OA 
HETATM    9  N   UNL     1     -10.351   4.396  65.926  1.00  0.00    -0.242 N  
HETATM   10  O   UNL     1     -11.260   4.402  65.101  1.00  0.00    -0.192 OA 
ENDBRANCH   6   7
BRANCH   6  11
HETATM   11  C   UNL     1     -10.129   5.019  69.442  1.00  0.00    -0.218 C  
BRANCH  11  12
HETATM   12  O   UNL     1     -11.283   5.830  69.662  1.00  0.00    -0.353 OA 
HETATM   13  N   UNL     1     -11.225   6.534  70.893  1.00  0.00    -0.293 N  
HETATM   14  O   UNL     1     -10.235   6.341  71.600  1.00  0.00    -0.191 OA 
HETATM   15  O   UNL     1     -12.208   7.245  71.081  1.00  0.00    -0.324 OA 
ENDBRANCH  11  12
ENDBRANCH   6  11
ENDBRANCH   5   6
ENDBRANCH   3   5
TORSDOF 5
ENDMDL
MODEL      256
REMARK 921   NORMALIZED FREE ENERGY PREDICTED BY IDOCK:   -2.38 KCAL/MOL
REMARK 922        TOTAL FREE ENERGY PREDICTED BY IDOCK:   -3.58 KCAL/MOL
REMARK 923 INTER-LIGAND FREE ENERGY PREDICTED BY IDOCK:   -3.19 KCAL/MOL
REMARK 924 INTRA-LIGAND FREE ENERGY PREDICTED BY IDOCK:   -0.39 KCAL/MOL
REMARK 927      BINDING AFFINITY PREDICTED BY RF-SCORE:    0.00 PKD
ROOT
HETATM    1  O   UNL     1     -10.687   4.619  65.620  1.00  0.00    -0.295 OA 
HETATM    2  N   UNL     1     -10.401   4.813  66.799  1.00  0.00    -0.216 N  
HETATM    3  O   UNL     1     -10.979   5.999  67.315  1.00  0.00    -0.313 OA 
HETATM    4  O   UNL     1      -9.717   4.140  67.572  1.00  0.00    -0.179 OA 
ENDROOT
BRANCH   3   5
HETATM    5  C   UNL     1     -10.629   6.228  68.681  1.00  0.00    -0.264 C  
BRANCH   5   6
HETATM    6  C   UNL     1     -10.398   7.738  68.876  1.00  0.00    -0.213 C  
BRANCH   6   7
HETATM    7  O   UNL     1     -11.192   8.321  69.923  1.00  0.00    -0.171 OA 
HETATM    8  O   UNL     1      -9.276   8.661  71.070  1.00  0.00    -0.167 OA 
HETATM    9  N   UNL     1     -10.496   8.806  71.054  1.00  0.00    -0.213 N  
HETATM   10  O   UNL     1     -11.239   9.318  71.886  1.00  0.00    -0.370 OA 
ENDBRANCH   6   7
BRANCH   6  11
HETATM   11  C   UNL     1     -10.430   8.522  67.553  1.00  0.00    -0.258 C  
BRANCH  11  12
HETATM   12  O   UNL     1      -9.101   8.599  67.039  1.00  0.00    -0.132 OA 
HETATM   13  N   UNL     1      -8.766   9.903  66.591  1.00  0.00    -0.128 N  
HETATM   14  O   UNL     1      -9.641  10.765  66.675  1.00  0.00    -0.172 OA 
HETATM   15  O   UNL     1      -7.618   9.978  66.161  1.00  0.00    -0.101 OA 
ENDBRANCH  11  12
ENDBRANCH   6  11
ENDBRANCH   5   6
ENDBRANCH   3   5
TORSDOF 5
ENDMDL
MODEL      257
REMARK 921   NORMALIZED FREE ENERGY PREDICTED BY IDOCK:   -2.37 KCAL/MOL
REMARK 922        TOTAL FREE ENERGY PREDICTED BY IDOCK:   -3.57 KCAL/MOL
REMARK 923 INTER-LIGAND FREE ENERGY PREDICTED BY IDOCK:   -3.30 KCAL/MOL
REMARK 924 INTRA-LIGAND FREE ENERGY PREDICTED BY IDOCK:   -0.28 KCAL/MOL
REMARK 927      BINDING AFFINITY PREDICTED BY RF-SCORE:    0.00 PKD
ROOT
HETATM    1  O   UNL     1      -7.357   4.184  73.465  1.00  0.00    -0.071 OA 
HETATM    2  N   UNL     1      -7.333   5.002  72.548  1.00  0.00    -0.090 N  
HETATM    3  O   UNL     1      -8.529   5.756  72.456  1.00  0.00    -0.117 OA 
HETATM    4  O   UNL     1      -6.445   5.259  71.735  1.00  0.00    -0.036 OA 
ENDROOT
BRANCH   3   5
HETATM    5  C   UNL     1      -8.504   6.693  71.378  1.00  0.00    -0.124 C  
BRANCH   5   6
HETATM    6  C   UNL     1      -9.910   7.303  71.232  1.00  0.00    -0.180 C  
BRANCH   6   7
HETATM    7  O   UNL     1     -10.319   7.508  69.869  1.00  0.00    -0.212 OA 
HETATM    8  O   UNL     1     -11.093   5.385  69.872  1.00  0.00    -0.164 OA 
HETATM    9  N   UNL     1     -10.963   6.424  69.229  1.00  0.00    -0.322 N  
HETATM   10  O   UNL     1     -11.312   6.688  68.082  1.00  0.00    -0.182 OA 
ENDBRANCH   6   7
BRANCH   6  11
HETATM   11  C   UNL     1     -10.130   8.522  72.143  1.00  0.00    -0.323 C  
BRANCH  11  12
HETATM   12  O   UNL     1     -11.529   8.657  72.391  1.00  0.00    -0.363 OA 
HETATM   13  N   UNL     1     -12.103   9.746  71.686  1.00  0.00    -0.398 N  
HETATM   14  O   UNL     1     -11.344  10.428  70.997  1.00  0.00    -0.306 OA 
HETATM   15  O   UNL     1     -13.310   9.857  71.883  1.00  0.00    -0.407 OA 
ENDBRANCH  11  12
ENDBRANCH   6  11
ENDBRANCH   5   6
ENDBRANCH   3   5
TORSDOF 5
ENDMDL
MODEL      258
REMARK 921   NORMALIZED FREE ENERGY PREDICTED BY IDOCK:   -2.37 KCAL/MOL
REMARK 922        TOTAL FREE ENERGY PREDICTED BY IDOCK:   -3.57 KCAL/MOL
REMARK 923 INTER-LIGAND FREE ENERGY PREDICTED BY IDOCK:   -3.96 KCAL/MOL
REMARK 924 INTRA-LIGAND FREE ENERGY PREDICTED BY IDOCK:    0.39 KCAL/MOL
REMARK 927      BINDING AFFINITY PREDICTED BY RF-SCORE:    0.00 PKD
ROOT
HETATM    1  O   UNL     1      -8.442  11.601  67.704  1.00  0.00    -0.132 OA 
HETATM    2  N   UNL     1      -9.330  12.334  67.276  1.00  0.00    -0.180 N  
HETATM    3  O   UNL     1      -9.542  13.472  68.093  1.00  0.00    -0.205 OA 
HETATM    4  O   UNL     1     -10.028  12.231  66.266  1.00  0.00    -0.222 OA 
ENDROOT
BRANCH   3   5
HETATM    5  C   UNL     1     -10.587  14.313  67.600  1.00  0.00    -0.253 C  
BRANCH   5   6
HETATM    6  C   UNL     1     -10.050  15.753  67.513  1.00  0.00    -0.245 C  
BRANCH   6   7
HETATM    7  O   UNL     1     -10.819  16.613  66.655  1.00  0.00    -0.184 OA 
HETATM    8  O   UNL     1      -9.668  15.759  64.909  1.00  0.00    -0.170 OA 
HETATM    9  N   UNL     1     -10.553  16.530  65.269  1.00  0.00    -0.322 N  
HETATM   10  O   UNL     1     -11.273  17.269  64.602  1.00  0.00    -1.014 OA 
ENDBRANCH   6   7
BRANCH   6  11
HETATM   11  C   UNL     1      -8.533  15.810  67.262  1.00  0.00    -0.189 C  
BRANCH  11  12
HETATM   12  O   UNL     1      -7.960  16.762  68.159  1.00  0.00    -0.170 OA 
HETATM   13  N   UNL     1      -7.374  17.862  67.481  1.00  0.00    -0.198 N  
HETATM   14  O   UNL     1      -7.409  17.844  66.250  1.00  0.00    -0.246 OA 
HETATM   15  O   UNL     1      -6.894  18.691  68.248  1.00  0.00    -0.230 OA 
ENDBRANCH  11  12
ENDBRANCH   6  11
ENDBRANCH   5   6
ENDBRANCH   3   5
TORSDOF 5
ENDMDL
MODEL      259
REMARK 921   NORMALIZED FREE ENERGY PREDICTED BY IDOCK:   -2.37 KCAL/MOL
REMARK 922        TOTAL FREE ENERGY PREDICTED BY IDOCK:   -3.57 KCAL/MOL
REMARK 923 INTER-LIGAND FREE ENERGY PREDICTED BY IDOCK:   -3.86 KCAL/MOL
REMARK 924 INTRA-LIGAND FREE ENERGY PREDICTED BY IDOCK:    0.30 KCAL/MOL
REMARK 927      BINDING AFFINITY PREDICTED BY RF-SCORE:    0.00 PKD
ROOT
HETATM    1  O   UNL     1     -12.223  14.211  67.996  1.00  0.00    -0.310 OA 
HETATM    2  N   UNL     1     -12.011  13.034  67.713  1.00  0.00    -0.333 N  
HETATM    3  O   UNL     1     -11.596  12.269  68.831  1.00  0.00    -0.269 OA 
HETATM    4  O   UNL     1     -12.118  12.444  66.638  1.00  0.00    -0.592 OA 
ENDROOT
BRANCH   3   5
HETATM    5  C   UNL     1     -11.334  10.906  68.494  1.00  0.00    -0.299 C  
BRANCH   5   6
HETATM    6  C   UNL     1      -9.874  10.586  68.864  1.00  0.00    -0.201 C  
BRANCH   6   7
HETATM    7  O   UNL     1      -8.973  11.694  68.699  1.00  0.00    -0.159 OA 
HETATM    8  O   UNL     1      -9.067  11.328  66.472  1.00  0.00    -0.172 OA 
HETATM    9  N   UNL     1      -8.612  12.028  67.374  1.00  0.00    -0.163 N  
HETATM   10  O   UNL     1      -7.869  13.003  67.315  1.00  0.00    -0.171 OA 
ENDBRANCH   6   7
BRANCH   6  11
HETATM   11  C   UNL     1      -9.375   9.272  68.239  1.00  0.00    -0.134 C  
BRANCH  11  12
HETATM   12  O   UNL     1     -10.462   8.348  68.195  1.00  0.00    -0.212 OA 
HETATM   13  N   UNL     1     -10.434   7.531  67.035  1.00  0.00    -0.322 N  
HETATM   14  O   UNL     1      -9.523   7.732  66.231  1.00  0.00    -0.189 OA 
HETATM   15  O   UNL     1     -11.359   6.724  67.000  1.00  0.00    -0.337 OA 
ENDBRANCH  11  12
ENDBRANCH   6  11
ENDBRANCH   5   6
ENDBRANCH   3   5
TORSDOF 5
ENDMDL
MODEL      260
REMARK 921   NORMALIZED FREE ENERGY PREDICTED BY IDOCK:   -2.36 KCAL/MOL
REMARK 922        TOTAL FREE ENERGY PREDICTED BY IDOCK:   -3.57 KCAL/MOL
REMARK 923 INTER-LIGAND FREE ENERGY PREDICTED BY IDOCK:   -2.96 KCAL/MOL
REMARK 924 INTRA-LIGAND FREE ENERGY PREDICTED BY IDOCK:   -0.61 KCAL/MOL
REMARK 927      BINDING AFFINITY PREDICTED BY RF-SCORE:    0.00 PKD
ROOT
HETATM    1  O   UNL     1      -9.111   3.663  67.700  1.00  0.00    -0.128 OA 
HETATM    2  N   UNL     1      -9.762   4.314  68.513  1.00  0.00    -0.129 N  
HETATM    3  O   UNL     1     -10.418   5.424  67.926  1.00  0.00    -0.188 OA 
HETATM    4  O   UNL     1      -9.930   4.137  69.720  1.00  0.00    -0.206 OA 
ENDROOT
BRANCH   3   5
HETATM    5  C   UNL     1     -11.160   6.188  68.878  1.00  0.00    -0.345 C  
BRANCH   5   6
HETATM    6  C   UNL     1     -10.443   7.535  69.085  1.00  0.00    -0.215 C  
BRANCH   6   7
HETATM    7  O   UNL     1      -9.530   7.879  68.030  1.00  0.00    -0.147 OA 
HETATM    8  O   UNL     1     -10.897   9.604  67.525  1.00  0.00    -0.286 OA 
HETATM    9  N   UNL     1      -9.851   9.019  67.258  1.00  0.00    -0.181 N  
HETATM   10  O   UNL     1      -9.007   9.266  66.401  1.00  0.00    -0.142 OA 
ENDBRANCH   6   7
BRANCH   6  11
HETATM   11  C   UNL     1      -9.855   7.687  70.499  1.00  0.00    -0.183 C  
BRANCH  11  12
HETATM   12  O   UNL     1     -10.791   7.160  71.439  1.00  0.00    -0.229 OA 
HETATM   13  N   UNL     1     -10.188   6.277  72.370  1.00  0.00    -0.185 N  
HETATM   14  O   UNL     1      -8.982   6.064  72.238  1.00  0.00    -0.141 OA 
HETATM   15  O   UNL     1     -10.986   5.832  73.190  1.00  0.00    -0.258 OA 
ENDBRANCH  11  12
ENDBRANCH   6  11
ENDBRANCH   5   6
ENDBRANCH   3   5
TORSDOF 5
ENDMDL
MODEL      261
REMARK 921   NORMALIZED FREE ENERGY PREDICTED BY IDOCK:   -2.35 KCAL/MOL
REMARK 922        TOTAL FREE ENERGY PREDICTED BY IDOCK:   -3.55 KCAL/MOL
REMARK 923 INTER-LIGAND FREE ENERGY PREDICTED BY IDOCK:   -3.00 KCAL/MOL
REMARK 924 INTRA-LIGAND FREE ENERGY PREDICTED BY IDOCK:   -0.55 KCAL/MOL
REMARK 927      BINDING AFFINITY PREDICTED BY RF-SCORE:    0.00 PKD
ROOT
HETATM    1  O   UNL     1     -10.751  13.686  66.762  1.00  0.00    -0.271 OA 
HETATM    2  N   UNL     1     -10.962  12.486  66.602  1.00  0.00    -0.257 N  
HETATM    3  O   UNL     1      -9.800  11.697  66.782  1.00  0.00    -0.196 OA 
HETATM    4  O   UNL     1     -12.006  11.893  66.330  1.00  0.00    -0.572 OA 
ENDROOT
BRANCH   3   5
HETATM    5  C   UNL     1     -10.046  10.304  66.579  1.00  0.00    -0.231 C  
BRANCH   5   6
HETATM    6  C   UNL     1      -9.361   9.519  67.712  1.00  0.00    -0.127 C  
BRANCH   6   7
HETATM    7  O   UNL     1     -10.263   9.051  68.728  1.00  0.00    -0.197 OA 
HETATM    8  O   UNL     1      -9.486   6.966  68.338  1.00  0.00    -0.130 OA 
HETATM    9  N   UNL     1     -10.244   7.665  69.006  1.00  0.00    -0.202 N  
HETATM   10  O   UNL     1     -11.016   7.350  69.907  1.00  0.00    -0.250 OA 
ENDBRANCH   6   7
BRANCH   6  11
HETATM   11  C   UNL     1      -8.112  10.232  68.261  1.00  0.00    -0.107 C  
BRANCH  11  12
HETATM   12  O   UNL     1      -7.161   9.242  68.653  1.00  0.00    -0.073 OA 
HETATM   13  N   UNL     1      -7.083   9.092  70.061  1.00  0.00    -0.051 N  
HETATM   14  O   UNL     1      -7.800   9.826  70.742  1.00  0.00    -0.304 OA 
HETATM   15  O   UNL     1      -6.277   8.231  70.404  1.00  0.00    -0.035 OA 
ENDBRANCH  11  12
ENDBRANCH   6  11
ENDBRANCH   5   6
ENDBRANCH   3   5
TORSDOF 5
ENDMDL
MODEL      262
REMARK 921   NORMALIZED FREE ENERGY PREDICTED BY IDOCK:   -2.35 KCAL/MOL
REMARK 922        TOTAL FREE ENERGY PREDICTED BY IDOCK:   -3.55 KCAL/MOL
REMARK 923 INTER-LIGAND FREE ENERGY PREDICTED BY IDOCK:   -3.02 KCAL/MOL
REMARK 924 INTRA-LIGAND FREE ENERGY PREDICTED BY IDOCK:   -0.52 KCAL/MOL
REMARK 927      BINDING AFFINITY PREDICTED BY RF-SCORE:    0.00 PKD
ROOT
HETATM    1  O   UNL     1     -10.271  12.747  68.053  1.00  0.00    -0.215 OA 
HETATM    2  N   UNL     1     -10.817  11.781  67.528  1.00  0.00    -0.227 N  
HETATM    3  O   UNL     1      -9.920  10.714  67.277  1.00  0.00    -0.178 OA 
HETATM    4  O   UNL     1     -11.995  11.608  67.212  1.00  0.00    -0.627 OA 
ENDROOT
BRANCH   3   5
HETATM    5  C   UNL     1     -10.556   9.599  66.650  1.00  0.00    -0.103 C  
BRANCH   5   6
HETATM    6  C   UNL     1      -9.900   8.308  67.175  1.00  0.00    -0.217 C  
BRANCH   6   7
HETATM    7  O   UNL     1      -8.577   8.076  66.664  1.00  0.00    -0.126 OA 
HETATM    8  O   UNL     1      -7.804   8.384  68.764  1.00  0.00    -0.110 OA 
HETATM    9  N   UNL     1      -7.517   8.119  67.599  1.00  0.00    -0.093 N  
HETATM   10  O   UNL     1      -6.426   7.878  67.093  1.00  0.00    -0.053 OA 
ENDBRANCH   6   7
BRANCH   6  11
HETATM   11  C   UNL     1     -10.831   7.087  67.085  1.00  0.00    -0.357 C  
BRANCH  11  12
HETATM   12  O   UNL     1     -10.291   6.045  67.898  1.00  0.00    -0.162 OA 
HETATM   13  N   UNL     1      -9.916   4.905  67.140  1.00  0.00    -0.192 N  
HETATM   14  O   UNL     1     -10.122   4.948  65.927  1.00  0.00    -0.200 OA 
HETATM   15  O   UNL     1      -9.437   4.011  67.832  1.00  0.00    -0.165 OA 
ENDBRANCH  11  12
ENDBRANCH   6  11
ENDBRANCH   5   6
ENDBRANCH   3   5
TORSDOF 5
ENDMDL
MODEL      263
REMARK 921   NORMALIZED FREE ENERGY PREDICTED BY IDOCK:   -2.34 KCAL/MOL
REMARK 922        TOTAL FREE ENERGY PREDICTED BY IDOCK:   -3.54 KCAL/MOL
REMARK 923 INTER-LIGAND FREE ENERGY PREDICTED BY IDOCK:   -4.07 KCAL/MOL
REMARK 924 INTRA-LIGAND FREE ENERGY PREDICTED BY IDOCK:    0.53 KCAL/MOL
REMARK 927      BINDING AFFINITY PREDICTED BY RF-SCORE:    0.00 PKD
ROOT
HETATM    1  O   UNL     1     -12.622  13.551  71.430  1.00  0.00    -0.348 OA 
HETATM    2  N   UNL     1     -12.129  14.035  70.414  1.00  0.00    -0.335 N  
HETATM    3  O   UNL     1     -11.608  13.053  69.537  1.00  0.00    -0.283 OA 
HETATM    4  O   UNL     1     -12.039  15.211  70.057  1.00  0.00    -0.308 OA 
ENDROOT
BRANCH   3   5
HETATM    5  C   UNL     1     -11.020  13.621  68.365  1.00  0.00    -0.262 C  
BRANCH   5   6
HETATM    6  C   UNL     1      -9.728  12.847  68.046  1.00  0.00    -0.224 C  
BRANCH   6   7
HETATM    7  O   UNL     1      -8.578  13.686  67.847  1.00  0.00    -0.158 OA 
HETATM    8  O   UNL     1      -9.896  15.061  66.634  1.00  0.00    -0.238 OA 
HETATM    9  N   UNL     1      -8.773  14.864  67.090  1.00  0.00    -0.206 N  
HETATM   10  O   UNL     1      -7.754  15.542  66.994  1.00  0.00    -0.210 OA 
ENDBRANCH   6   7
BRANCH   6  11
HETATM   11  C   UNL     1      -9.925  11.783  66.953  1.00  0.00    -0.199 C  
BRANCH  11  12
HETATM   12  O   UNL     1     -11.200  11.987  66.345  1.00  0.00    -0.306 OA 
HETATM   13  N   UNL     1     -11.111  12.159  64.940  1.00  0.00    -0.311 N  
HETATM   14  O   UNL     1      -9.984  12.138  64.444  1.00  0.00    -0.269 OA 
HETATM   15  O   UNL     1     -12.207  12.320  64.410  1.00  0.00    -0.410 OA 
ENDBRANCH  11  12
ENDBRANCH   6  11
ENDBRANCH   5   6
ENDBRANCH   3   5
TORSDOF 5
ENDMDL
MODEL      264
REMARK 921   NORMALIZED FREE ENERGY PREDICTED BY IDOCK:   -2.31 KCAL/MOL
REMARK 922        TOTAL FREE ENERGY PREDICTED BY IDOCK:   -3.50 KCAL/MOL
REMARK 923 INTER-LIGAND FREE ENERGY PREDICTED BY IDOCK:   -3.03 KCAL/MOL
REMARK 924 INTRA-LIGAND FREE ENERGY PREDICTED BY IDOCK:   -0.47 KCAL/MOL
REMARK 927      BINDING AFFINITY PREDICTED BY RF-SCORE:    0.00 PKD
ROOT
HETATM    1  O   UNL     1     -10.845  11.546  64.003  1.00  0.00    -0.340 OA 
HETATM    2  N   UNL     1     -10.582  12.617  64.543  1.00  0.00    -0.325 N  
HETATM    3  O   UNL     1      -9.877  12.458  65.761  1.00  0.00    -0.254 OA 
HETATM    4  O   UNL     1     -10.824  13.770  64.182  1.00  0.00    -0.302 OA 
ENDROOT
BRANCH   3   5
HETATM    5  C   UNL     1      -9.588  13.706  66.394  1.00  0.00    -0.268 C  
BRANCH   5   6
HETATM    6  C   UNL     1      -8.483  13.475  67.441  1.00  0.00    -0.200 C  
BRANCH   6   7
HETATM    7  O   UNL     1      -7.421  14.443  67.393  1.00  0.00    -0.183 OA 
HETATM    8  O   UNL     1      -8.089  15.150  69.432  1.00  0.00    -0.208 OA 
HETATM    9  N   UNL     1      -7.278  15.286  68.519  1.00  0.00    -0.110 N  
HETATM   10  O   UNL     1      -6.331  16.060  68.417  1.00  0.00    -0.104 OA 
ENDBRANCH   6   7
BRANCH   6  11
HETATM   11  C   UNL     1      -8.000  12.015  67.487  1.00  0.00    -0.159 C  
BRANCH  11  12
HETATM   12  O   UNL     1      -8.306  11.477  68.773  1.00  0.00    -0.141 OA 
HETATM   13  N   UNL     1      -8.765  10.136  68.706  1.00  0.00    -0.130 N  
HETATM   14  O   UNL     1      -8.863   9.635  67.586  1.00  0.00    -0.125 OA 
HETATM   15  O   UNL     1      -9.016   9.663  69.811  1.00  0.00    -0.178 OA 
ENDBRANCH  11  12
ENDBRANCH   6  11
ENDBRANCH   5   6
ENDBRANCH   3   5
TORSDOF 5
ENDMDL
MODEL      265
REMARK 921   NORMALIZED FREE ENERGY PREDICTED BY IDOCK:   -2.30 KCAL/MOL
REMARK 922        TOTAL FREE ENERGY PREDICTED BY IDOCK:   -3.49 KCAL/MOL
REMARK 923 INTER-LIGAND FREE ENERGY PREDICTED BY IDOCK:   -2.97 KCAL/MOL
REMARK 924 INTRA-LIGAND FREE ENERGY PREDICTED BY IDOCK:   -0.52 KCAL/MOL
REMARK 927      BINDING AFFINITY PREDICTED BY RF-SCORE:    0.00 PKD
ROOT
HETATM    1  O   UNL     1     -11.486  14.165  65.330  1.00  0.00    -0.311 OA 
HETATM    2  N   UNL     1     -11.636  12.956  65.174  1.00  0.00    -0.318 N  
HETATM    3  O   UNL     1     -10.416  12.239  65.248  1.00  0.00    -0.266 OA 
HETATM    4  O   UNL     1     -12.660  12.300  64.981  1.00  0.00    -0.575 OA 
ENDROOT
BRANCH   3   5
HETATM    5  C   UNL     1     -10.593  10.835  65.049  1.00  0.00    -0.173 C  
BRANCH   5   6
HETATM    6  C   UNL     1     -10.510  10.137  66.419  1.00  0.00    -0.140 C  
BRANCH   6   7
HETATM    7  O   UNL     1      -9.856  10.916  67.434  1.00  0.00    -0.170 OA 
HETATM    8  O   UNL     1     -11.627  10.502  68.773  1.00  0.00    -0.252 OA 
HETATM    9  N   UNL     1     -10.527  11.039  68.672  1.00  0.00    -0.183 N  
HETATM   10  O   UNL     1      -9.890  11.689  69.496  1.00  0.00     0.333 OA 
ENDBRANCH   6   7
BRANCH   6  11
HETATM   11  C   UNL     1     -10.007   8.686  66.319  1.00  0.00    -0.217 C  
BRANCH  11  12
HETATM   12  O   UNL     1     -11.032   7.816  66.798  1.00  0.00    -0.145 OA 
HETATM   13  N   UNL     1     -10.643   7.109  67.965  1.00  0.00    -0.204 N  
HETATM   14  O   UNL     1      -9.503   7.308  68.385  1.00  0.00    -0.142 OA 
HETATM   15  O   UNL     1     -11.527   6.370  68.390  1.00  0.00    -0.205 OA 
ENDBRANCH  11  12
ENDBRANCH   6  11
ENDBRANCH   5   6
ENDBRANCH   3   5
TORSDOF 5
ENDMDL
MODEL      266
REMARK 921   NORMALIZED FREE ENERGY PREDICTED BY IDOCK:   -2.29 KCAL/MOL
REMARK 922        TOTAL FREE ENERGY PREDICTED BY IDOCK:   -3.48 KCAL/MOL
REMARK 923 INTER-LIGAND FREE ENERGY PREDICTED BY IDOCK:   -2.95 KCAL/MOL
REMARK 924 INTRA-LIGAND FREE ENERGY PREDICTED BY IDOCK:   -0.53 KCAL/MOL
REMARK 927      BINDING AFFINITY PREDICTED BY RF-SCORE:    0.00 PKD
ROOT
HETATM    1  O   UNL     1      -8.422   8.685  67.749  1.00  0.00    -0.124 OA 
HETATM    2  N   UNL     1      -8.811   7.626  68.235  1.00  0.00    -0.126 N  
HETATM    3  O   UNL     1     -10.083   7.741  68.849  1.00  0.00    -0.185 OA 
HETATM    4  O   UNL     1      -8.279   6.516  68.253  1.00  0.00    -0.112 OA 
ENDROOT
BRANCH   3   5
HETATM    5  C   UNL     1     -10.525   6.512  69.428  1.00  0.00    -0.221 C  
BRANCH   5   6
HETATM    6  C   UNL     1     -10.642   6.707  70.951  1.00  0.00    -0.224 C  
BRANCH   6   7
HETATM    7  O   UNL     1      -9.446   7.208  71.570  1.00  0.00    -0.157 OA 
HETATM    8  O   UNL     1     -10.570   9.119  71.998  1.00  0.00    -0.333 OA 
HETATM    9  N   UNL     1      -9.511   8.508  72.120  1.00  0.00    -0.284 N  
HETATM   10  O   UNL     1      -8.463   8.850  72.660  1.00  0.00    -0.388 OA 
ENDBRANCH   6   7
BRANCH   6  11
HETATM   11  C   UNL     1     -11.255   5.488  71.663  1.00  0.00    -0.065 C  
BRANCH  11  12
HETATM   12  O   UNL     1     -10.204   4.579  71.991  1.00  0.00    -0.192 OA 
HETATM   13  N   UNL     1     -10.146   4.297  73.380  1.00  0.00    -0.136 N  
HETATM   14  O   UNL     1     -10.961   4.871  74.103  1.00  0.00    -0.310 OA 
HETATM   15  O   UNL     1      -9.253   3.504  73.667  1.00  0.00    -0.093 OA 
ENDBRANCH  11  12
ENDBRANCH   6  11
ENDBRANCH   5   6
ENDBRANCH   3   5
TORSDOF 5
ENDMDL
MODEL      267
REMARK 921   NORMALIZED FREE ENERGY PREDICTED BY IDOCK:   -2.29 KCAL/MOL
REMARK 922        TOTAL FREE ENERGY PREDICTED BY IDOCK:   -3.48 KCAL/MOL
REMARK 923 INTER-LIGAND FREE ENERGY PREDICTED BY IDOCK:   -3.07 KCAL/MOL
REMARK 924 INTRA-LIGAND FREE ENERGY PREDICTED BY IDOCK:   -0.41 KCAL/MOL
REMARK 927      BINDING AFFINITY PREDICTED BY RF-SCORE:    0.00 PKD
ROOT
HETATM    1  O   UNL     1      -7.905   6.513  72.703  1.00  0.00    -0.102 OA 
HETATM    2  N   UNL     1      -8.534   7.566  72.766  1.00  0.00    -0.113 N  
HETATM    3  O   UNL     1      -9.383   7.764  71.649  1.00  0.00    -0.136 OA 
HETATM    4  O   UNL     1      -8.542   8.437  73.637  1.00  0.00    -0.290 OA 
ENDROOT
BRANCH   3   5
HETATM    5  C   UNL     1     -10.100   8.998  71.718  1.00  0.00    -0.303 C  
BRANCH   5   6
HETATM    6  C   UNL     1     -10.526   9.392  70.292  1.00  0.00    -0.251 C  
BRANCH   6   7
HETATM    7  O   UNL     1     -11.585  10.363  70.245  1.00  0.00    -0.278 OA 
HETATM    8  O   UNL     1     -10.173  11.724  69.125  1.00  0.00    -0.083 OA 
HETATM    9  N   UNL     1     -11.305  11.578  69.580  1.00  0.00    -0.269 N  
HETATM   10  O   UNL     1     -12.268  12.339  69.554  1.00  0.00    -0.212 OA 
ENDBRANCH   6   7
BRANCH   6  11
HETATM   11  C   UNL     1     -10.749   8.175  69.378  1.00  0.00    -0.156 C  
BRANCH  11  12
HETATM   12  O   UNL     1      -9.777   8.209  68.333  1.00  0.00    -0.155 OA 
HETATM   13  N   UNL     1     -10.151   7.415  67.218  1.00  0.00    -0.203 N  
HETATM   14  O   UNL     1     -11.214   6.800  67.301  1.00  0.00    -0.348 OA 
HETATM   15  O   UNL     1      -9.326   7.453  66.309  1.00  0.00    -0.169 OA 
ENDBRANCH  11  12
ENDBRANCH   6  11
ENDBRANCH   5   6
ENDBRANCH   3   5
TORSDOF 5
ENDMDL
MODEL      268
REMARK 921   NORMALIZED FREE ENERGY PREDICTED BY IDOCK:   -2.29 KCAL/MOL
REMARK 922        TOTAL FREE ENERGY PREDICTED BY IDOCK:   -3.47 KCAL/MOL
REMARK 923 INTER-LIGAND FREE ENERGY PREDICTED BY IDOCK:   -2.96 KCAL/MOL
REMARK 924 INTRA-LIGAND FREE ENERGY PREDICTED BY IDOCK:   -0.51 KCAL/MOL
REMARK 927      BINDING AFFINITY PREDICTED BY RF-SCORE:    0.00 PKD
ROOT
HETATM    1  O   UNL     1      -5.925  10.382  64.424  1.00  0.00    -0.138 OA 
HETATM    2  N   UNL     1      -6.882   9.738  64.847  1.00  0.00    -0.110 N  
HETATM    3  O   UNL     1      -8.026  10.543  65.074  1.00  0.00    -0.147 OA 
HETATM    4  O   UNL     1      -6.989   8.533  65.080  1.00  0.00    -0.074 OA 
ENDROOT
BRANCH   3   5
HETATM    5  C   UNL     1      -9.131   9.793  65.582  1.00  0.00    -0.178 C  
BRANCH   5   6
HETATM    6  C   UNL     1      -9.487  10.338  66.977  1.00  0.00    -0.163 C  
BRANCH   6   7
HETATM    7  O   UNL     1      -8.375  10.393  67.885  1.00  0.00    -0.113 OA 
HETATM    8  O   UNL     1      -8.889  12.561  68.252  1.00  0.00    -0.186 OA 
HETATM    9  N   UNL     1      -8.145  11.626  68.536  1.00  0.00    -0.148 N  
HETATM   10  O   UNL     1      -7.201  11.583  69.319  1.00  0.00    -0.110 OA 
ENDBRANCH   6   7
BRANCH   6  11
HETATM   11  C   UNL     1     -10.749   9.686  67.568  1.00  0.00    -0.256 C  
BRANCH  11  12
HETATM   12  O   UNL     1     -10.654   9.722  68.992  1.00  0.00    -0.207 OA 
HETATM   13  N   UNL     1     -11.613  10.588  69.578  1.00  0.00    -0.264 N  
HETATM   14  O   UNL     1     -12.360  11.196  68.811  1.00  0.00    -0.539 OA 
HETATM   15  O   UNL     1     -11.545  10.612  70.804  1.00  0.00    -0.333 OA 
ENDBRANCH  11  12
ENDBRANCH   6  11
ENDBRANCH   5   6
ENDBRANCH   3   5
TORSDOF 5
ENDMDL
MODEL      269
REMARK 921   NORMALIZED FREE ENERGY PREDICTED BY IDOCK:   -2.28 KCAL/MOL
REMARK 922        TOTAL FREE ENERGY PREDICTED BY IDOCK:   -3.45 KCAL/MOL
REMARK 923 INTER-LIGAND FREE ENERGY PREDICTED BY IDOCK:   -2.93 KCAL/MOL
REMARK 924 INTRA-LIGAND FREE ENERGY PREDICTED BY IDOCK:   -0.52 KCAL/MOL
REMARK 927      BINDING AFFINITY PREDICTED BY RF-SCORE:    0.00 PKD
ROOT
HETATM    1  O   UNL     1      -9.885   6.327  74.464  1.00  0.00    -0.256 OA 
HETATM    2  N   UNL     1     -10.573   6.009  73.498  1.00  0.00    -0.257 N  
HETATM    3  O   UNL     1     -10.113   6.582  72.286  1.00  0.00    -0.176 OA 
HETATM    4  O   UNL     1     -11.563   5.279  73.432  1.00  0.00    -0.209 OA 
ENDROOT
BRANCH   3   5
HETATM    5  C   UNL     1     -10.926   6.224  71.167  1.00  0.00    -0.280 C  
BRANCH   5   6
HETATM    6  C   UNL     1     -10.205   5.116  70.379  1.00  0.00    -0.264 C  
BRANCH   6   7
HETATM    7  O   UNL     1      -8.968   4.687  70.971  1.00  0.00    -0.119 OA 
HETATM    8  O   UNL     1     -10.034   2.808  71.631  1.00  0.00    -0.163 OA 
HETATM    9  N   UNL     1      -8.971   3.423  71.606  1.00  0.00    -0.098 N  
HETATM   10  O   UNL     1      -7.872   3.114  72.056  1.00  0.00    -0.053 OA 
ENDBRANCH   6   7
BRANCH   6  11
HETATM   11  C   UNL     1     -10.108   5.421  68.874  1.00  0.00    -0.195 C  
BRANCH  11  12
HETATM   12  O   UNL     1      -9.627   6.755  68.712  1.00  0.00    -0.134 OA 
HETATM   13  N   UNL     1     -10.175   7.395  67.571  1.00  0.00    -0.202 N  
HETATM   14  O   UNL     1     -10.948   6.734  66.876  1.00  0.00    -0.378 OA 
HETATM   15  O   UNL     1      -9.776   8.548  67.435  1.00  0.00    -0.152 OA 
ENDBRANCH  11  12
ENDBRANCH   6  11
ENDBRANCH   5   6
ENDBRANCH   3   5
TORSDOF 5
ENDMDL
MODEL      270
REMARK 921   NORMALIZED FREE ENERGY PREDICTED BY IDOCK:   -2.27 KCAL/MOL
REMARK 922        TOTAL FREE ENERGY PREDICTED BY IDOCK:   -3.45 KCAL/MOL
REMARK 923 INTER-LIGAND FREE ENERGY PREDICTED BY IDOCK:   -4.04 KCAL/MOL
REMARK 924 INTRA-LIGAND FREE ENERGY PREDICTED BY IDOCK:    0.59 KCAL/MOL
REMARK 927      BINDING AFFINITY PREDICTED BY RF-SCORE:    0.00 PKD
ROOT
HETATM    1  O   UNL     1     -12.031  11.960  70.346  1.00  0.00    -0.351 OA 
HETATM    2  N   UNL     1     -11.990  13.078  69.840  1.00  0.00    -0.330 N  
HETATM    3  O   UNL     1     -11.029  13.175  68.804  1.00  0.00    -0.251 OA 
HETATM    4  O   UNL     1     -12.651  14.088  70.088  1.00  0.00    -0.334 OA 
ENDROOT
BRANCH   3   5
HETATM    5  C   UNL     1     -10.973  14.482  68.229  1.00  0.00    -0.247 C  
BRANCH   5   6
HETATM    6  C   UNL     1     -10.403  14.362  66.804  1.00  0.00    -0.273 C  
BRANCH   6   7
HETATM    7  O   UNL     1      -9.592  13.194  66.595  1.00  0.00    -0.248 OA 
HETATM    8  O   UNL     1      -8.060  14.115  67.975  1.00  0.00    -0.127 OA 
HETATM    9  N   UNL     1      -8.358  13.146  67.282  1.00  0.00    -0.187 N  
HETATM   10  O   UNL     1      -7.740  12.104  67.079  1.00  0.00    -0.160 OA 
ENDBRANCH   6   7
BRANCH   6  11
HETATM   11  C   UNL     1      -9.763  15.669  66.305  1.00  0.00    -0.301 C  
BRANCH  11  12
HETATM   12  O   UNL     1     -10.702  16.729  66.479  1.00  0.00    -0.234 OA 
HETATM   13  N   UNL     1     -10.176  17.800  67.247  1.00  0.00    -0.337 N  
HETATM   14  O   UNL     1      -9.027  17.672  67.672  1.00  0.00    -0.237 OA 
HETATM   15  O   UNL     1     -10.975  18.722  67.387  1.00  0.00    -0.422 OA 
ENDBRANCH  11  12
ENDBRANCH   6  11
ENDBRANCH   5   6
ENDBRANCH   3   5
TORSDOF 5
ENDMDL
MODEL      271
REMARK 921   NORMALIZED FREE ENERGY PREDICTED BY IDOCK:   -2.27 KCAL/MOL
REMARK 922        TOTAL FREE ENERGY PREDICTED BY IDOCK:   -3.44 KCAL/MOL
REMARK 923 INTER-LIGAND FREE ENERGY PREDICTED BY IDOCK:   -3.00 KCAL/MOL
REMARK 924 INTRA-LIGAND FREE ENERGY PREDICTED BY IDOCK:   -0.45 KCAL/MOL
REMARK 927      BINDING AFFINITY PREDICTED BY RF-SCORE:    0.00 PKD
ROOT
HETATM    1  O   UNL     1     -11.223   3.685  64.085  1.00  0.00    -0.288 OA 
HETATM    2  N   UNL     1     -10.191   3.899  64.715  1.00  0.00    -0.206 N  
HETATM    3  O   UNL     1     -10.438   4.409  66.014  1.00  0.00    -0.242 OA 
HETATM    4  O   UNL     1      -9.014   3.727  64.395  1.00  0.00    -0.116 OA 
ENDROOT
BRANCH   3   5
HETATM    5  C   UNL     1      -9.234   4.672  66.737  1.00  0.00    -0.126 C  
BRANCH   5   6
HETATM    6  C   UNL     1      -9.324   6.090  67.330  1.00  0.00    -0.111 C  
BRANCH   6   7
HETATM    7  O   UNL     1      -8.520   7.063  66.642  1.00  0.00    -0.114 OA 
HETATM    8  O   UNL     1     -10.398   8.285  66.356  1.00  0.00    -0.227 OA 
HETATM    9  N   UNL     1      -9.186   8.218  66.171  1.00  0.00    -0.197 N  
HETATM   10  O   UNL     1      -8.428   9.015  65.626  1.00  0.00    -0.133 OA 
ENDBRANCH   6   7
BRANCH   6  11
HETATM   11  C   UNL     1      -9.159   6.109  68.860  1.00  0.00    -0.123 C  
BRANCH  11  12
HETATM   12  O   UNL     1     -10.424   5.818  69.455  1.00  0.00    -0.232 OA 
HETATM   13  N   UNL     1     -11.058   6.976  69.975  1.00  0.00    -0.275 N  
HETATM   14  O   UNL     1     -10.448   8.040  69.874  1.00  0.00    -0.223 OA 
HETATM   15  O   UNL     1     -12.153   6.734  70.475  1.00  0.00    -0.386 OA 
ENDBRANCH  11  12
ENDBRANCH   6  11
ENDBRANCH   5   6
ENDBRANCH   3   5
TORSDOF 5
ENDMDL
MODEL      272
REMARK 921   NORMALIZED FREE ENERGY PREDICTED BY IDOCK:   -2.27 KCAL/MOL
REMARK 922        TOTAL FREE ENERGY PREDICTED BY IDOCK:   -3.44 KCAL/MOL
REMARK 923 INTER-LIGAND FREE ENERGY PREDICTED BY IDOCK:   -3.06 KCAL/MOL
REMARK 924 INTRA-LIGAND FREE ENERGY PREDICTED BY IDOCK:   -0.38 KCAL/MOL
REMARK 927      BINDING AFFINITY PREDICTED BY RF-SCORE:    0.00 PKD
ROOT
HETATM    1  O   UNL     1     -12.701  11.058  71.919  1.00  0.00    -0.355 OA 
HETATM    2  N   UNL     1     -12.792  10.865  70.709  1.00  0.00    -0.318 N  
HETATM    3  O   UNL     1     -11.782  11.531  69.971  1.00  0.00    -0.311 OA 
HETATM    4  O   UNL     1     -13.599  10.189  70.070  1.00  0.00     0.227 OA 
ENDROOT
BRANCH   3   5
HETATM    5  C   UNL     1     -11.902  11.318  68.564  1.00  0.00    -0.285 C  
BRANCH   5   6
HETATM    6  C   UNL     1     -10.596  11.778  67.891  1.00  0.00    -0.201 C  
BRANCH   6   7
HETATM    7  O   UNL     1      -9.480  10.900  68.116  1.00  0.00    -0.155 OA 
HETATM    8  O   UNL     1      -9.538  10.401  65.913  1.00  0.00    -0.184 OA 
HETATM    9  N   UNL     1      -8.971  10.218  66.987  1.00  0.00    -0.136 N  
HETATM   10  O   UNL     1      -8.000   9.515  67.254  1.00  0.00    -0.105 OA 
ENDBRANCH   6   7
BRANCH   6  11
HETATM   11  C   UNL     1     -10.286  13.264  68.144  1.00  0.00    -0.243 C  
BRANCH  11  12
HETATM   12  O   UNL     1      -9.685  13.808  66.969  1.00  0.00    -0.237 OA 
HETATM   13  N   UNL     1      -9.451  15.204  67.075  1.00  0.00    -0.218 N  
HETATM   14  O   UNL     1      -9.807  15.752  68.118  1.00  0.00    -0.208 OA 
HETATM   15  O   UNL     1      -8.920  15.674  66.073  1.00  0.00    -0.334 OA 
ENDBRANCH  11  12
ENDBRANCH   6  11
ENDBRANCH   5   6
ENDBRANCH   3   5
TORSDOF 5
ENDMDL
MODEL      273
REMARK 921   NORMALIZED FREE ENERGY PREDICTED BY IDOCK:   -2.24 KCAL/MOL
REMARK 922        TOTAL FREE ENERGY PREDICTED BY IDOCK:   -3.41 KCAL/MOL
REMARK 923 INTER-LIGAND FREE ENERGY PREDICTED BY IDOCK:   -2.93 KCAL/MOL
REMARK 924 INTRA-LIGAND FREE ENERGY PREDICTED BY IDOCK:   -0.48 KCAL/MOL
REMARK 927      BINDING AFFINITY PREDICTED BY RF-SCORE:    0.00 PKD
ROOT
HETATM    1  O   UNL     1      -7.620   6.853  63.936  1.00  0.00    -0.095 OA 
HETATM    2  N   UNL     1      -8.268   6.250  64.787  1.00  0.00    -0.128 N  
HETATM    3  O   UNL     1      -8.804   7.110  65.778  1.00  0.00    -0.143 OA 
HETATM    4  O   UNL     1      -8.521   5.049  64.892  1.00  0.00    -0.135 OA 
ENDROOT
BRANCH   3   5
HETATM    5  C   UNL     1      -9.543   6.403  66.775  1.00  0.00    -0.155 C  
BRANCH   5   6
HETATM    6  C   UNL     1      -9.925   7.394  67.890  1.00  0.00    -0.165 C  
BRANCH   6   7
HETATM    7  O   UNL     1     -11.101   7.020  68.627  1.00  0.00    -0.129 OA 
HETATM    8  O   UNL     1      -9.860   7.152  70.510  1.00  0.00    -0.180 OA 
HETATM    9  N   UNL     1     -10.971   6.935  70.032  1.00  0.00    -0.264 N  
HETATM   10  O   UNL     1     -12.024   6.644  70.591  1.00  0.00    -0.395 OA 
ENDBRANCH   6   7
BRANCH   6  11
HETATM   11  C   UNL     1      -9.920   8.857  67.415  1.00  0.00    -0.209 C  
BRANCH  11  12
HETATM   12  O   UNL     1     -11.147   9.467  67.815  1.00  0.00    -0.186 OA 
HETATM   13  N   UNL     1     -10.995  10.292  68.959  1.00  0.00    -0.222 N  
HETATM   14  O   UNL     1      -9.871  10.354  69.459  1.00  0.00    -0.222 OA 
HETATM   15  O   UNL     1     -12.044  10.832  69.299  1.00  0.00    -0.304 OA 
ENDBRANCH  11  12
ENDBRANCH   6  11
ENDBRANCH   5   6
ENDBRANCH   3   5
TORSDOF 5
ENDMDL
MODEL      274
REMARK 921   NORMALIZED FREE ENERGY PREDICTED BY IDOCK:   -2.24 KCAL/MOL
REMARK 922        TOTAL FREE ENERGY PREDICTED BY IDOCK:   -3.40 KCAL/MOL
REMARK 923 INTER-LIGAND FREE ENERGY PREDICTED BY IDOCK:   -2.99 KCAL/MOL
REMARK 924 INTRA-LIGAND FREE ENERGY PREDICTED BY IDOCK:   -0.41 KCAL/MOL
REMARK 927      BINDING AFFINITY PREDICTED BY RF-SCORE:    0.00 PKD
ROOT
HETATM    1  O   UNL     1      -7.271   9.108  64.846  1.00  0.00    -0.093 OA 
HETATM    2  N   UNL     1      -8.444   9.129  65.212  1.00  0.00    -0.145 N  
HETATM    3  O   UNL     1      -8.608   8.695  66.550  1.00  0.00    -0.110 OA 
HETATM    4  O   UNL     1      -9.459   9.473  64.605  1.00  0.00    -0.228 OA 
ENDROOT
BRANCH   3   5
HETATM    5  C   UNL     1      -9.975   8.705  66.965  1.00  0.00    -0.249 C  
BRANCH   5   6
HETATM    6  C   UNL     1     -10.029   8.379  68.469  1.00  0.00    -0.187 C  
BRANCH   6   7
HETATM    7  O   UNL     1      -8.839   8.744  69.189  1.00  0.00    -0.134 OA 
HETATM    8  O   UNL     1     -10.041  10.384  70.174  1.00  0.00    -0.144 OA 
HETATM    9  N   UNL     1      -8.951   9.823  70.096  1.00  0.00    -0.228 N  
HETATM   10  O   UNL     1      -7.904  10.051  70.695  1.00  0.00    -0.236 OA 
ENDBRANCH   6   7
BRANCH   6  11
HETATM   11  C   UNL     1     -10.521   6.949  68.753  1.00  0.00    -0.205 C  
BRANCH  11  12
HETATM   12  O   UNL     1     -11.301   6.968  69.948  1.00  0.00    -0.266 OA 
HETATM   13  N   UNL     1     -11.041   5.851  70.784  1.00  0.00    -0.282 N  
HETATM   14  O   UNL     1     -10.225   5.024  70.374  1.00  0.00    -0.251 OA 
HETATM   15  O   UNL     1     -11.698   5.869  71.820  1.00  0.00    -0.235 OA 
ENDBRANCH  11  12
ENDBRANCH   6  11
ENDBRANCH   5   6
ENDBRANCH   3   5
TORSDOF 5
ENDMDL
MODEL      275
REMARK 921   NORMALIZED FREE ENERGY PREDICTED BY IDOCK:   -2.21 KCAL/MOL
REMARK 922        TOTAL FREE ENERGY PREDICTED BY IDOCK:   -3.37 KCAL/MOL
REMARK 923 INTER-LIGAND FREE ENERGY PREDICTED BY IDOCK:   -2.91 KCAL/MOL
REMARK 924 INTRA-LIGAND FREE ENERGY PREDICTED BY IDOCK:   -0.46 KCAL/MOL
REMARK 927      BINDING AFFINITY PREDICTED BY RF-SCORE:    0.00 PKD
ROOT
HETATM    1  O   UNL     1      -7.404   9.252  64.906  1.00  0.00    -0.099 OA 
HETATM    2  N   UNL     1      -8.508   9.318  65.440  1.00  0.00    -0.136 N  
HETATM    3  O   UNL     1      -8.525   8.747  66.737  1.00  0.00    -0.109 OA 
HETATM    4  O   UNL     1      -9.562   9.806  65.029  1.00  0.00    -0.276 OA 
ENDROOT
BRANCH   3   5
HETATM    5  C   UNL     1      -9.815   8.812  67.347  1.00  0.00    -0.194 C  
BRANCH   5   6
HETATM    6  C   UNL     1      -9.704   8.254  68.777  1.00  0.00    -0.157 C  
BRANCH   6   7
HETATM    7  O   UNL     1     -10.435   7.034  68.988  1.00  0.00    -0.194 OA 
HETATM    8  O   UNL     1      -8.465   6.034  69.457  1.00  0.00    -0.116 OA 
HETATM    9  N   UNL     1      -9.683   5.900  69.369  1.00  0.00    -0.146 N  
HETATM   10  O   UNL     1     -10.381   4.909  69.562  1.00  0.00    -0.224 OA 
ENDBRANCH   6   7
BRANCH   6  11
HETATM   11  C   UNL     1      -9.944   9.324  69.856  1.00  0.00    -0.205 C  
BRANCH  11  12
HETATM   12  O   UNL     1      -9.456   8.830  71.103  1.00  0.00    -0.194 OA 
HETATM   13  N   UNL     1     -10.450   8.835  72.115  1.00  0.00    -0.339 N  
HETATM   14  O   UNL     1     -11.558   9.273  71.809  1.00  0.00    -0.366 OA 
HETATM   15  O   UNL     1     -10.039   8.396  73.186  1.00  0.00    -0.155 OA 
ENDBRANCH  11  12
ENDBRANCH   6  11
ENDBRANCH   5   6
ENDBRANCH   3   5
TORSDOF 5
ENDMDL
MODEL      276
REMARK 921   NORMALIZED FREE ENERGY PREDICTED BY IDOCK:   -2.20 KCAL/MOL
REMARK 922        TOTAL FREE ENERGY PREDICTED BY IDOCK:   -3.36 KCAL/MOL
REMARK 923 INTER-LIGAND FREE ENERGY PREDICTED BY IDOCK:   -3.84 KCAL/MOL
REMARK 924 INTRA-LIGAND FREE ENERGY PREDICTED BY IDOCK:    0.49 KCAL/MOL
REMARK 927      BINDING AFFINITY PREDICTED BY RF-SCORE:    0.00 PKD
ROOT
HETATM    1  O   UNL     1     -14.393   6.437  72.416  1.00  0.00    -0.150 OA 
HETATM    2  N   UNL     1     -13.841   7.287  71.722  1.00  0.00    -0.351 N  
HETATM    3  O   UNL     1     -12.464   7.022  71.522  1.00  0.00    -0.349 OA 
HETATM    4  O   UNL     1     -14.301   8.295  71.185  1.00  0.00    -0.292 OA 
ENDROOT
BRANCH   3   5
HETATM    5  C   UNL     1     -11.823   8.023  70.729  1.00  0.00    -0.162 C  
BRANCH   5   6
HETATM    6  C   UNL     1     -11.115   9.011  71.674  1.00  0.00    -0.363 C  
BRANCH   6   7
HETATM    7  O   UNL     1     -11.671  10.336  71.656  1.00  0.00    -0.255 OA 
HETATM    8  O   UNL     1     -11.099  10.455  69.474  1.00  0.00    -0.231 OA 
HETATM    9  N   UNL     1     -11.632  11.026  70.423  1.00  0.00    -0.312 N  
HETATM   10  O   UNL     1     -12.154  12.135  70.481  1.00  0.00    -0.364 OA 
ENDBRANCH   6   7
BRANCH   6  11
HETATM   11  C   UNL     1      -9.583   8.970  71.541  1.00  0.00    -0.270 C  
BRANCH  11  12
HETATM   12  O   UNL     1      -9.145   7.627  71.746  1.00  0.00    -0.130 OA 
HETATM   13  N   UNL     1      -8.425   7.469  72.958  1.00  0.00    -0.122 N  
HETATM   14  O   UNL     1      -8.251   8.479  73.641  1.00  0.00    -0.383 OA 
HETATM   15  O   UNL     1      -8.059   6.313  73.147  1.00  0.00    -0.110 OA 
ENDBRANCH  11  12
ENDBRANCH   6  11
ENDBRANCH   5   6
ENDBRANCH   3   5
TORSDOF 5
ENDMDL
MODEL      277
REMARK 921   NORMALIZED FREE ENERGY PREDICTED BY IDOCK:   -2.20 KCAL/MOL
REMARK 922        TOTAL FREE ENERGY PREDICTED BY IDOCK:   -3.35 KCAL/MOL
REMARK 923 INTER-LIGAND FREE ENERGY PREDICTED BY IDOCK:   -3.15 KCAL/MOL
REMARK 924 INTRA-LIGAND FREE ENERGY PREDICTED BY IDOCK:   -0.20 KCAL/MOL
REMARK 927      BINDING AFFINITY PREDICTED BY RF-SCORE:    0.00 PKD
ROOT
HETATM    1  O   UNL     1     -11.031   7.209  70.668  1.00  0.00    -0.242 OA 
HETATM    2  N   UNL     1     -10.628   8.370  70.675  1.00  0.00    -0.204 N  
HETATM    3  O   UNL     1      -9.898   8.703  69.508  1.00  0.00    -0.180 OA 
HETATM    4  O   UNL     1     -10.775   9.257  71.517  1.00  0.00    -0.334 OA 
ENDROOT
BRANCH   3   5
HETATM    5  C   UNL     1      -9.417  10.048  69.528  1.00  0.00    -0.226 C  
BRANCH   5   6
HETATM    6  C   UNL     1      -9.385  10.573  68.081  1.00  0.00    -0.148 C  
BRANCH   6   7
HETATM    7  O   UNL     1     -10.682  10.692  67.473  1.00  0.00    -0.232 OA 
HETATM    8  O   UNL     1     -10.494  12.931  67.710  1.00  0.00    -0.214 OA 
HETATM    9  N   UNL     1     -11.185  12.002  67.300  1.00  0.00    -0.291 N  
HETATM   10  O   UNL     1     -12.279  12.022  66.744  1.00  0.00    -0.545 OA 
ENDBRANCH   6   7
BRANCH   6  11
HETATM   11  C   UNL     1      -8.345   9.851  67.207  1.00  0.00    -0.121 C  
BRANCH  11  12
HETATM   12  O   UNL     1      -8.888   8.593  66.803  1.00  0.00    -0.127 OA 
HETATM   13  N   UNL     1      -7.907   7.569  66.759  1.00  0.00    -0.108 N  
HETATM   14  O   UNL     1      -6.751   7.888  67.037  1.00  0.00    -0.064 OA 
HETATM   15  O   UNL     1      -8.371   6.481  66.427  1.00  0.00    -0.112 OA 
ENDBRANCH  11  12
ENDBRANCH   6  11
ENDBRANCH   5   6
ENDBRANCH   3   5
TORSDOF 5
ENDMDL
MODEL      278
REMARK 921   NORMALIZED FREE ENERGY PREDICTED BY IDOCK:   -2.17 KCAL/MOL
REMARK 922        TOTAL FREE ENERGY PREDICTED BY IDOCK:   -3.32 KCAL/MOL
REMARK 923 INTER-LIGAND FREE ENERGY PREDICTED BY IDOCK:   -3.74 KCAL/MOL
REMARK 924 INTRA-LIGAND FREE ENERGY PREDICTED BY IDOCK:    0.42 KCAL/MOL
REMARK 927      BINDING AFFINITY PREDICTED BY RF-SCORE:    0.00 PKD
ROOT
HETATM    1  O   UNL     1     -10.922  16.511  69.354  1.00  0.00    -0.310 OA 
HETATM    2  N   UNL     1     -11.263  15.537  70.020  1.00  0.00    -0.285 N  
HETATM    3  O   UNL     1     -11.753  14.473  69.223  1.00  0.00    -0.275 OA 
HETATM    4  O   UNL     1     -11.230  15.355  71.238  1.00  0.00    -0.354 OA 
ENDROOT
BRANCH   3   5
HETATM    5  C   UNL     1     -12.165  13.349  70.003  1.00  0.00    -0.298 C  
BRANCH   5   6
HETATM    6  C   UNL     1     -12.094  12.092  69.117  1.00  0.00    -0.183 C  
BRANCH   6   7
HETATM    7  O   UNL     1     -13.035  11.067  69.480  1.00  0.00    -0.092 OA 
HETATM    8  O   UNL     1     -11.800  10.711  71.337  1.00  0.00    -0.263 OA 
HETATM    9  N   UNL     1     -12.801  10.393  70.700  1.00  0.00    -0.350 N  
HETATM   10  O   UNL     1     -13.664   9.559  70.956  1.00  0.00    -0.265 OA 
ENDBRANCH   6   7
BRANCH   6  11
HETATM   11  C   UNL     1     -10.656  11.582  68.917  1.00  0.00    -0.204 C  
BRANCH  11  12
HETATM   12  O   UNL     1     -10.428  11.406  67.519  1.00  0.00    -0.190 OA 
HETATM   13  N   UNL     1     -10.257  10.043  67.165  1.00  0.00    -0.215 N  
HETATM   14  O   UNL     1     -10.300   9.218  68.078  1.00  0.00    -0.199 OA 
HETATM   15  O   UNL     1     -10.075   9.884  65.961  1.00  0.00    -0.259 OA 
ENDBRANCH  11  12
ENDBRANCH   6  11
ENDBRANCH   5   6
ENDBRANCH   3   5
TORSDOF 5
ENDMDL
MODEL      279
REMARK 921   NORMALIZED FREE ENERGY PREDICTED BY IDOCK:   -2.15 KCAL/MOL
REMARK 922        TOTAL FREE ENERGY PREDICTED BY IDOCK:   -3.29 KCAL/MOL
REMARK 923 INTER-LIGAND FREE ENERGY PREDICTED BY IDOCK:   -4.16 KCAL/MOL
REMARK 924 INTRA-LIGAND FREE ENERGY PREDICTED BY IDOCK:    0.87 KCAL/MOL
REMARK 927      BINDING AFFINITY PREDICTED BY RF-SCORE:    0.00 PKD
ROOT
HETATM    1  O   UNL     1     -10.097  10.502  63.893  1.00  0.00    -0.327 OA 
HETATM    2  N   UNL     1     -10.823  11.321  64.450  1.00  0.00    -0.331 N  
HETATM    3  O   UNL     1     -10.784  11.217  65.862  1.00  0.00    -0.265 OA 
HETATM    4  O   UNL     1     -11.546  12.197  63.972  1.00  0.00    -0.364 OA 
ENDROOT
BRANCH   3   5
HETATM    5  C   UNL     1     -11.643  12.160  66.505  1.00  0.00    -0.359 C  
BRANCH   5   6
HETATM    6  C   UNL     1     -11.252  12.238  67.992  1.00  0.00    -0.269 C  
BRANCH   6   7
HETATM    7  O   UNL     1     -10.194  13.171  68.270  1.00  0.00    -0.239 OA 
HETATM    8  O   UNL     1      -8.733  11.476  67.956  1.00  0.00    -0.138 OA 
HETATM    9  N   UNL     1      -8.873  12.671  68.208  1.00  0.00    -0.189 N  
HETATM   10  O   UNL     1      -8.027  13.534  68.423  1.00  0.00    -0.137 OA 
ENDBRANCH   6   7
BRANCH   6  11
HETATM   11  C   UNL     1     -11.051  10.853  68.630  1.00  0.00    -0.252 C  
BRANCH  11  12
HETATM   12  O   UNL     1     -11.945  10.729  69.736  1.00  0.00    -0.294 OA 
HETATM   13  N   UNL     1     -11.352  10.065  70.841  1.00  0.00    -0.346 N  
HETATM   14  O   UNL     1     -10.194   9.671  70.701  1.00  0.00    -0.276 OA 
HETATM   15  O   UNL     1     -12.111   9.970  71.802  1.00  0.00    -0.373 OA 
ENDBRANCH  11  12
ENDBRANCH   6  11
ENDBRANCH   5   6
ENDBRANCH   3   5
TORSDOF 5
ENDMDL
MODEL      280
REMARK 921   NORMALIZED FREE ENERGY PREDICTED BY IDOCK:   -2.14 KCAL/MOL
REMARK 922        TOTAL FREE ENERGY PREDICTED BY IDOCK:   -3.28 KCAL/MOL
REMARK 923 INTER-LIGAND FREE ENERGY PREDICTED BY IDOCK:   -2.77 KCAL/MOL
REMARK 924 INTRA-LIGAND FREE ENERGY PREDICTED BY IDOCK:   -0.51 KCAL/MOL
REMARK 927      BINDING AFFINITY PREDICTED BY RF-SCORE:    0.00 PKD
ROOT
HETATM    1  O   UNL     1      -5.540   8.288  72.181  1.00  0.00    -0.036 OA 
HETATM    2  N   UNL     1      -6.465   8.463  71.392  1.00  0.00    -0.046 N  
HETATM    3  O   UNL     1      -7.191   7.276  71.128  1.00  0.00    -0.070 OA 
HETATM    4  O   UNL     1      -6.846   9.490  70.829  1.00  0.00    -0.101 OA 
ENDROOT
BRANCH   3   5
HETATM    5  C   UNL     1      -8.256   7.481  70.197  1.00  0.00    -0.132 C  
BRANCH   5   6
HETATM    6  C   UNL     1      -9.571   7.031  70.858  1.00  0.00    -0.167 C  
BRANCH   6   7
HETATM    7  O   UNL     1      -9.643   5.619  71.117  1.00  0.00    -0.162 OA 
HETATM    8  O   UNL     1     -10.012   6.122  73.288  1.00  0.00    -0.168 OA 
HETATM    9  N   UNL     1      -9.902   5.229  72.451  1.00  0.00    -0.159 N  
HETATM   10  O   UNL     1      -9.981   4.012  72.585  1.00  0.00    -0.142 OA 
ENDBRANCH   6   7
BRANCH   6  11
HETATM   11  C   UNL     1     -10.817   7.605  70.160  1.00  0.00    -0.248 C  
BRANCH  11  12
HETATM   12  O   UNL     1     -11.340   8.662  70.964  1.00  0.00    -0.259 OA 
HETATM   13  N   UNL     1     -12.585   8.328  71.556  1.00  0.00    -0.309 N  
HETATM   14  O   UNL     1     -13.052   7.220  71.290  1.00  0.00    -0.369 OA 
HETATM   15  O   UNL     1     -13.033   9.228  72.261  1.00  0.00    -0.400 OA 
ENDBRANCH  11  12
ENDBRANCH   6  11
ENDBRANCH   5   6
ENDBRANCH   3   5
TORSDOF 5
ENDMDL
MODEL      281
REMARK 921   NORMALIZED FREE ENERGY PREDICTED BY IDOCK:   -2.14 KCAL/MOL
REMARK 922        TOTAL FREE ENERGY PREDICTED BY IDOCK:   -3.28 KCAL/MOL
REMARK 923 INTER-LIGAND FREE ENERGY PREDICTED BY IDOCK:   -2.78 KCAL/MOL
REMARK 924 INTRA-LIGAND FREE ENERGY PREDICTED BY IDOCK:   -0.49 KCAL/MOL
REMARK 927      BINDING AFFINITY PREDICTED BY RF-SCORE:    0.00 PKD
ROOT
HETATM    1  O   UNL     1     -11.932   8.684  72.550  1.00  0.00    -0.368 OA 
HETATM    2  N   UNL     1     -11.844   7.588  72.002  1.00  0.00    -0.285 N  
HETATM    3  O   UNL     1     -10.726   6.840  72.448  1.00  0.00    -0.212 OA 
HETATM    4  O   UNL     1     -12.570   7.060  71.159  1.00  0.00    -0.377 OA 
ENDROOT
BRANCH   3   5
HETATM    5  C   UNL     1     -10.618   5.574  71.796  1.00  0.00    -0.235 C  
BRANCH   5   6
HETATM    6  C   UNL     1      -9.126   5.215  71.677  1.00  0.00    -0.141 C  
BRANCH   6   7
HETATM    7  O   UNL     1      -8.290   5.861  72.652  1.00  0.00    -0.119 OA 
HETATM    8  O   UNL     1      -8.226   3.899  73.771  1.00  0.00    -0.086 OA 
HETATM    9  N   UNL     1      -7.841   5.065  73.731  1.00  0.00    -0.098 N  
HETATM   10  O   UNL     1      -7.106   5.678  74.500  1.00  0.00    -0.084 OA 
ENDBRANCH   6   7
BRANCH   6  11
HETATM   11  C   UNL     1      -8.601   5.315  70.234  1.00  0.00    -0.121 C  
BRANCH  11  12
HETATM   12  O   UNL     1      -9.612   5.914  69.424  1.00  0.00    -0.133 OA 
HETATM   13  N   UNL     1      -9.943   5.122  68.295  1.00  0.00    -0.156 N  
HETATM   14  O   UNL     1      -9.320   4.070  68.148  1.00  0.00    -0.142 OA 
HETATM   15  O   UNL     1     -10.823   5.626  67.602  1.00  0.00    -0.225 OA 
ENDBRANCH  11  12
ENDBRANCH   6  11
ENDBRANCH   5   6
ENDBRANCH   3   5
TORSDOF 5
ENDMDL
MODEL      282
REMARK 921   NORMALIZED FREE ENERGY PREDICTED BY IDOCK:   -2.13 KCAL/MOL
REMARK 922        TOTAL FREE ENERGY PREDICTED BY IDOCK:   -3.27 KCAL/MOL
REMARK 923 INTER-LIGAND FREE ENERGY PREDICTED BY IDOCK:   -3.77 KCAL/MOL
REMARK 924 INTRA-LIGAND FREE ENERGY PREDICTED BY IDOCK:    0.50 KCAL/MOL
REMARK 927      BINDING AFFINITY PREDICTED BY RF-SCORE:    0.00 PKD
ROOT
HETATM    1  O   UNL     1     -11.412   6.627  70.113  1.00  0.00    -0.350 OA 
HETATM    2  N   UNL     1     -11.119   7.820  70.108  1.00  0.00    -0.242 N  
HETATM    3  O   UNL     1     -10.264   8.170  69.034  1.00  0.00    -0.210 OA 
HETATM    4  O   UNL     1     -11.461   8.726  70.870  1.00  0.00    -0.275 OA 
ENDROOT
BRANCH   3   5
HETATM    5  C   UNL     1      -9.913   9.554  69.042  1.00  0.00    -0.180 C  
BRANCH   5   6
HETATM    6  C   UNL     1      -9.680  10.004  67.588  1.00  0.00    -0.158 C  
BRANCH   6   7
HETATM    7  O   UNL     1      -8.401  10.622  67.365  1.00  0.00    -0.118 OA 
HETATM    8  O   UNL     1      -9.169  12.423  68.492  1.00  0.00    -0.170 OA 
HETATM    9  N   UNL     1      -8.217  11.915  67.905  1.00  0.00    -0.141 N  
HETATM   10  O   UNL     1      -7.091  12.359  67.701  1.00  0.00    -0.106 OA 
ENDBRANCH   6   7
BRANCH   6  11
HETATM   11  C   UNL     1     -10.868  10.794  67.010  1.00  0.00    -0.252 C  
BRANCH  11  12
HETATM   12  O   UNL     1     -10.592  11.091  65.642  1.00  0.00    -0.252 OA 
HETATM   13  N   UNL     1     -11.439  12.105  65.125  1.00  0.00    -0.332 N  
HETATM   14  O   UNL     1     -12.290  12.565  65.887  1.00  0.00    -0.626 OA 
HETATM   15  O   UNL     1     -11.196  12.376  63.952  1.00  0.00    -0.353 OA 
ENDBRANCH  11  12
ENDBRANCH   6  11
ENDBRANCH   5   6
ENDBRANCH   3   5
TORSDOF 5
ENDMDL
MODEL      283
REMARK 921   NORMALIZED FREE ENERGY PREDICTED BY IDOCK:   -2.11 KCAL/MOL
REMARK 922        TOTAL FREE ENERGY PREDICTED BY IDOCK:   -3.24 KCAL/MOL
REMARK 923 INTER-LIGAND FREE ENERGY PREDICTED BY IDOCK:   -3.27 KCAL/MOL
REMARK 924 INTRA-LIGAND FREE ENERGY PREDICTED BY IDOCK:    0.02 KCAL/MOL
REMARK 927      BINDING AFFINITY PREDICTED BY RF-SCORE:    0.00 PKD
ROOT
HETATM    1  O   UNL     1      -7.425   7.116  73.015  1.00  0.00    -0.073 OA 
HETATM    2  N   UNL     1      -7.617   8.126  72.343  1.00  0.00    -0.112 N  
HETATM    3  O   UNL     1      -8.794   8.047  71.559  1.00  0.00    -0.128 OA 
HETATM    4  O   UNL     1      -6.962   9.166  72.267  1.00  0.00    -0.317 OA 
ENDROOT
BRANCH   3   5
HETATM    5  C   UNL     1      -9.004   9.217  70.766  1.00  0.00    -0.242 C  
BRANCH   5   6
HETATM    6  C   UNL     1     -10.518   9.384  70.539  1.00  0.00    -0.274 C  
BRANCH   6   7
HETATM    7  O   UNL     1     -11.056  10.609  71.066  1.00  0.00     0.033 OA 
HETATM    8  O   UNL     1     -11.746  11.105  68.973  1.00  0.00    -0.287 OA 
HETATM    9  N   UNL     1     -11.714  11.460  70.148  1.00  0.00    -0.331 N  
HETATM   10  O   UNL     1     -12.174  12.466  70.680  1.00  0.00    -0.368 OA 
ENDBRANCH   6   7
BRANCH   6  11
HETATM   11  C   UNL     1     -11.321   8.129  70.923  1.00  0.00    -0.268 C  
BRANCH  11  12
HETATM   12  O   UNL     1     -11.822   8.299  72.248  1.00  0.00    -0.340 OA 
HETATM   13  N   UNL     1     -13.142   8.821  72.267  1.00  0.00    -0.396 N  
HETATM   14  O   UNL     1     -13.657   9.076  71.178  1.00  0.00    -0.237 OA 
HETATM   15  O   UNL     1     -13.584   8.956  73.404  1.00  0.00     0.074 OA 
ENDBRANCH  11  12
ENDBRANCH   6  11
ENDBRANCH   5   6
ENDBRANCH   3   5
TORSDOF 5
ENDMDL
MODEL      284
REMARK 921   NORMALIZED FREE ENERGY PREDICTED BY IDOCK:   -2.09 KCAL/MOL
REMARK 922        TOTAL FREE ENERGY PREDICTED BY IDOCK:   -3.21 KCAL/MOL
REMARK 923 INTER-LIGAND FREE ENERGY PREDICTED BY IDOCK:   -2.76 KCAL/MOL
REMARK 924 INTRA-LIGAND FREE ENERGY PREDICTED BY IDOCK:   -0.45 KCAL/MOL
REMARK 927      BINDING AFFINITY PREDICTED BY RF-SCORE:    0.00 PKD
ROOT
HETATM    1  O   UNL     1      -7.561   9.275  65.439  1.00  0.00    -0.096 OA 
HETATM    2  N   UNL     1      -8.509  10.012  65.182  1.00  0.00    -0.145 N  
HETATM    3  O   UNL     1      -8.939  10.764  66.303  1.00  0.00    -0.160 OA 
HETATM    4  O   UNL     1      -9.110  10.194  64.122  1.00  0.00    -0.208 OA 
ENDROOT
BRANCH   3   5
HETATM    5  C   UNL     1     -10.053  11.607  66.003  1.00  0.00    -0.224 C  
BRANCH   5   6
HETATM    6  C   UNL     1      -9.674  13.056  66.358  1.00  0.00    -0.268 C  
BRANCH   6   7
HETATM    7  O   UNL     1      -9.773  13.973  65.255  1.00  0.00    -0.196 OA 
HETATM    8  O   UNL     1     -11.761  14.637  66.096  1.00  0.00    -0.365 OA 
HETATM    9  N   UNL     1     -10.923  14.793  65.211  1.00  0.00    -0.350 N  
HETATM   10  O   UNL     1     -10.917  15.570  64.261  1.00  0.00    -0.179 OA 
ENDBRANCH   6   7
BRANCH   6  11
HETATM   11  C   UNL     1      -8.351  13.153  67.138  1.00  0.00    -0.140 C  
BRANCH  11  12
HETATM   12  O   UNL     1      -7.795  14.451  66.928  1.00  0.00    -0.047 OA 
HETATM   13  N   UNL     1      -7.769  15.229  68.114  1.00  0.00    -0.114 N  
HETATM   14  O   UNL     1      -8.236  14.714  69.131  1.00  0.00    -0.142 OA 
HETATM   15  O   UNL     1      -7.277  16.341  67.942  1.00  0.00    -0.123 OA 
ENDBRANCH  11  12
ENDBRANCH   6  11
ENDBRANCH   5   6
ENDBRANCH   3   5
TORSDOF 5
ENDMDL
MODEL      285
REMARK 921   NORMALIZED FREE ENERGY PREDICTED BY IDOCK:   -2.07 KCAL/MOL
REMARK 922        TOTAL FREE ENERGY PREDICTED BY IDOCK:   -3.18 KCAL/MOL
REMARK 923 INTER-LIGAND FREE ENERGY PREDICTED BY IDOCK:   -2.53 KCAL/MOL
REMARK 924 INTRA-LIGAND FREE ENERGY PREDICTED BY IDOCK:   -0.65 KCAL/MOL
REMARK 927      BINDING AFFINITY PREDICTED BY RF-SCORE:    0.00 PKD
ROOT
HETATM    1  O   UNL     1      -7.556   4.956  74.478  1.00  0.00    -0.088 OA 
HETATM    2  N   UNL     1      -7.462   4.856  73.257  1.00  0.00    -0.086 N  
HETATM    3  O   UNL     1      -7.270   6.107  72.619  1.00  0.00    -0.083 OA 
HETATM    4  O   UNL     1      -7.498   3.859  72.536  1.00  0.00    -0.060 OA 
ENDROOT
BRANCH   3   5
HETATM    5  C   UNL     1      -7.179   5.988  71.198  1.00  0.00    -0.075 C  
BRANCH   5   6
HETATM    6  C   UNL     1      -8.469   6.556  70.580  1.00  0.00    -0.134 C  
BRANCH   6   7
HETATM    7  O   UNL     1      -9.329   7.216  71.525  1.00  0.00    -0.153 OA 
HETATM    8  O   UNL     1      -9.252   9.039  70.193  1.00  0.00    -0.166 OA 
HETATM    9  N   UNL     1      -9.710   8.543  71.219  1.00  0.00    -0.189 N  
HETATM   10  O   UNL     1     -10.469   9.024  72.055  1.00  0.00    -0.346 OA 
ENDBRANCH   6   7
BRANCH   6  11
HETATM   11  C   UNL     1      -9.192   5.546  69.672  1.00  0.00    -0.132 C  
BRANCH  11  12
HETATM   12  O   UNL     1      -9.565   6.208  68.464  1.00  0.00    -0.119 OA 
HETATM   13  N   UNL     1     -10.952   6.500  68.412  1.00  0.00    -0.288 N  
HETATM   14  O   UNL     1     -11.637   6.136  69.368  1.00  0.00    -0.372 OA 
HETATM   15  O   UNL     1     -11.276   7.083  67.381  1.00  0.00    -0.241 OA 
ENDBRANCH  11  12
ENDBRANCH   6  11
ENDBRANCH   5   6
ENDBRANCH   3   5
TORSDOF 5
ENDMDL
MODEL      286
REMARK 921   NORMALIZED FREE ENERGY PREDICTED BY IDOCK:   -2.06 KCAL/MOL
REMARK 922        TOTAL FREE ENERGY PREDICTED BY IDOCK:   -3.17 KCAL/MOL
REMARK 923 INTER-LIGAND FREE ENERGY PREDICTED BY IDOCK:   -2.74 KCAL/MOL
REMARK 924 INTRA-LIGAND FREE ENERGY PREDICTED BY IDOCK:   -0.43 KCAL/MOL
REMARK 927      BINDING AFFINITY PREDICTED BY RF-SCORE:    0.00 PKD
ROOT
HETATM    1  O   UNL     1      -5.826   9.576  64.091  1.00  0.00    -0.074 OA 
HETATM    2  N   UNL     1      -7.006   9.408  64.386  1.00  0.00    -0.097 N  
HETATM    3  O   UNL     1      -7.621  10.586  64.877  1.00  0.00    -0.112 OA 
HETATM    4  O   UNL     1      -7.710   8.400  64.307  1.00  0.00    -0.119 OA 
ENDROOT
BRANCH   3   5
HETATM    5  C   UNL     1      -8.989  10.382  65.235  1.00  0.00    -0.187 C  
BRANCH   5   6
HETATM    6  C   UNL     1      -9.193  10.876  66.679  1.00  0.00    -0.168 C  
BRANCH   6   7
HETATM    7  O   UNL     1     -10.518  11.363  66.949  1.00  0.00    -0.221 OA 
HETATM    8  O   UNL     1     -10.635   9.861  68.631  1.00  0.00    -0.201 OA 
HETATM    9  N   UNL     1     -11.206  10.767  68.030  1.00  0.00    -0.291 N  
HETATM   10  O   UNL     1     -12.315  11.260  68.218  1.00  0.00    -0.542 OA 
ENDBRANCH   6   7
BRANCH   6  11
HETATM   11  C   UNL     1      -8.070  11.815  67.152  1.00  0.00    -0.169 C  
BRANCH  11  12
HETATM   12  O   UNL     1      -8.562  13.155  67.135  1.00  0.00    -0.197 OA 
HETATM   13  N   UNL     1      -7.790  14.027  67.945  1.00  0.00    -0.143 N  
HETATM   14  O   UNL     1      -6.845  13.531  68.559  1.00  0.00    -0.083 OA 
HETATM   15  O   UNL     1      -8.201  15.184  67.923  1.00  0.00    -0.137 OA 
ENDBRANCH  11  12
ENDBRANCH   6  11
ENDBRANCH   5   6
ENDBRANCH   3   5
TORSDOF 5
ENDMDL
MODEL      287
REMARK 921   NORMALIZED FREE ENERGY PREDICTED BY IDOCK:   -2.06 KCAL/MOL
REMARK 922        TOTAL FREE ENERGY PREDICTED BY IDOCK:   -3.17 KCAL/MOL
REMARK 923 INTER-LIGAND FREE ENERGY PREDICTED BY IDOCK:   -2.62 KCAL/MOL
REMARK 924 INTRA-LIGAND FREE ENERGY PREDICTED BY IDOCK:   -0.54 KCAL/MOL
REMARK 927      BINDING AFFINITY PREDICTED BY RF-SCORE:    0.00 PKD
ROOT
HETATM    1  O   UNL     1     -10.983   4.530  65.477  1.00  0.00    -0.247 OA 
HETATM    2  N   UNL     1     -10.344   5.457  65.969  1.00  0.00    -0.117 N  
HETATM    3  O   UNL     1     -10.954   5.984  67.135  1.00  0.00    -0.313 OA 
HETATM    4  O   UNL     1      -9.281   5.966  65.614  1.00  0.00    -0.106 OA 
ENDROOT
BRANCH   3   5
HETATM    5  C   UNL     1     -10.217   7.072  67.694  1.00  0.00    -0.193 C  
BRANCH   5   6
HETATM    6  C   UNL     1      -9.919   6.750  69.169  1.00  0.00    -0.159 C  
BRANCH   6   7
HETATM    7  O   UNL     1      -9.795   7.911  70.008  1.00  0.00    -0.180 OA 
HETATM    8  O   UNL     1     -11.534   7.119  71.213  1.00  0.00    -0.261 OA 
HETATM    9  N   UNL     1     -10.697   8.010  71.092  1.00  0.00    -0.217 N  
HETATM   10  O   UNL     1     -10.507   9.009  71.779  1.00  0.00    -0.332 OA 
ENDBRANCH   6   7
BRANCH   6  11
HETATM   11  C   UNL     1      -8.780   5.729  69.339  1.00  0.00    -0.111 C  
BRANCH  11  12
HETATM   12  O   UNL     1      -9.208   4.721  70.255  1.00  0.00    -0.117 OA 
HETATM   13  N   UNL     1      -8.357   4.619  71.385  1.00  0.00    -0.104 N  
HETATM   14  O   UNL     1      -7.378   5.366  71.418  1.00  0.00    -0.075 OA 
HETATM   15  O   UNL     1      -8.728   3.764  72.184  1.00  0.00    -0.093 OA 
ENDBRANCH  11  12
ENDBRANCH   6  11
ENDBRANCH   5   6
ENDBRANCH   3   5
TORSDOF 5
ENDMDL
MODEL      288
REMARK 921   NORMALIZED FREE ENERGY PREDICTED BY IDOCK:   -2.04 KCAL/MOL
REMARK 922        TOTAL FREE ENERGY PREDICTED BY IDOCK:   -3.15 KCAL/MOL
REMARK 923 INTER-LIGAND FREE ENERGY PREDICTED BY IDOCK:   -2.75 KCAL/MOL
REMARK 924 INTRA-LIGAND FREE ENERGY PREDICTED BY IDOCK:   -0.40 KCAL/MOL
REMARK 927      BINDING AFFINITY PREDICTED BY RF-SCORE:    0.00 PKD
ROOT
HETATM    1  O   UNL     1      -8.326   6.910  65.022  1.00  0.00    -0.127 OA 
HETATM    2  N   UNL     1      -9.094   6.788  65.972  1.00  0.00    -0.119 N  
HETATM    3  O   UNL     1      -9.203   7.971  66.744  1.00  0.00    -0.147 OA 
HETATM    4  O   UNL     1      -9.769   5.822  66.330  1.00  0.00    -0.157 OA 
ENDROOT
BRANCH   3   5
HETATM    5  C   UNL     1     -10.084   7.820  67.858  1.00  0.00    -0.185 C  
BRANCH   5   6
HETATM    6  C   UNL     1      -9.653   8.808  68.956  1.00  0.00    -0.162 C  
BRANCH   6   7
HETATM    7  O   UNL     1     -10.423  10.022  68.986  1.00  0.00    -0.192 OA 
HETATM    8  O   UNL     1     -11.153   9.408  71.034  1.00  0.00    -0.284 OA 
HETATM    9  N   UNL     1     -11.182  10.264  70.154  1.00  0.00    -0.296 N  
HETATM   10  O   UNL     1     -11.784  11.334  70.116  1.00  0.00    -0.309 OA 
ENDBRANCH   6   7
BRANCH   6  11
HETATM   11  C   UNL     1      -8.131   9.029  68.995  1.00  0.00    -0.107 C  
BRANCH  11  12
HETATM   12  O   UNL     1      -7.849  10.081  69.919  1.00  0.00    -0.158 OA 
HETATM   13  N   UNL     1      -6.457  10.259  70.131  1.00  0.00    -0.112 N  
HETATM   14  O   UNL     1      -5.699   9.495  69.534  1.00  0.00    -0.034 OA 
HETATM   15  O   UNL     1      -6.209  11.172  70.913  1.00  0.00    -0.361 OA 
ENDBRANCH  11  12
ENDBRANCH   6  11
ENDBRANCH   5   6
ENDBRANCH   3   5
TORSDOF 5
ENDMDL
MODEL      289
REMARK 921   NORMALIZED FREE ENERGY PREDICTED BY IDOCK:   -2.04 KCAL/MOL
REMARK 922        TOTAL FREE ENERGY PREDICTED BY IDOCK:   -3.14 KCAL/MOL
REMARK 923 INTER-LIGAND FREE ENERGY PREDICTED BY IDOCK:   -2.71 KCAL/MOL
REMARK 924 INTRA-LIGAND FREE ENERGY PREDICTED BY IDOCK:   -0.43 KCAL/MOL
REMARK 927      BINDING AFFINITY PREDICTED BY RF-SCORE:    0.00 PKD
ROOT
HETATM    1  O   UNL     1     -10.425   7.977  68.029  1.00  0.00    -0.215 OA 
HETATM    2  N   UNL     1     -10.618   7.847  69.235  1.00  0.00    -0.214 N  
HETATM    3  O   UNL     1     -11.271   6.632  69.558  1.00  0.00    -0.317 OA 
HETATM    4  O   UNL     1     -10.323   8.591  70.172  1.00  0.00    -0.198 OA 
ENDROOT
BRANCH   3   5
HETATM    5  C   UNL     1     -11.508   6.493  70.960  1.00  0.00    -0.336 C  
BRANCH   5   6
HETATM    6  C   UNL     1     -10.440   5.548  71.542  1.00  0.00    -0.235 C  
BRANCH   6   7
HETATM    7  O   UNL     1     -10.352   4.281  70.869  1.00  0.00    -0.072 OA 
HETATM    8  O   UNL     1      -8.426   5.006  69.937  1.00  0.00    -0.086 OA 
HETATM    9  N   UNL     1      -9.223   4.077  70.043  1.00  0.00    -0.127 N  
HETATM   10  O   UNL     1      -9.204   2.961  69.532  1.00  0.00    -0.119 OA 
ENDBRANCH   6   7
BRANCH   6  11
HETATM   11  C   UNL     1     -10.508   5.442  73.075  1.00  0.00    -0.211 C  
BRANCH  11  12
HETATM   12  O   UNL     1     -11.017   4.153  73.418  1.00  0.00    -0.218 OA 
HETATM   13  N   UNL     1     -10.106   3.403  74.206  1.00  0.00    -0.133 N  
HETATM   14  O   UNL     1      -9.023   3.929  74.463  1.00  0.00    -0.093 OA 
HETATM   15  O   UNL     1     -10.544   2.299  74.517  1.00  0.00    -0.142 OA 
ENDBRANCH  11  12
ENDBRANCH   6  11
ENDBRANCH   5   6
ENDBRANCH   3   5
TORSDOF 5
ENDMDL
MODEL      290
REMARK 921   NORMALIZED FREE ENERGY PREDICTED BY IDOCK:   -2.03 KCAL/MOL
REMARK 922        TOTAL FREE ENERGY PREDICTED BY IDOCK:   -3.14 KCAL/MOL
REMARK 923 INTER-LIGAND FREE ENERGY PREDICTED BY IDOCK:   -2.63 KCAL/MOL
REMARK 924 INTRA-LIGAND FREE ENERGY PREDICTED BY IDOCK:   -0.51 KCAL/MOL
REMARK 927      BINDING AFFINITY PREDICTED BY RF-SCORE:    0.00 PKD
ROOT
HETATM    1  O   UNL     1      -8.374  11.573  67.679  1.00  0.00    -0.127 OA 
HETATM    2  N   UNL     1      -8.419  10.389  67.355  1.00  0.00    -0.122 N  
HETATM    3  O   UNL     1      -9.394   9.659  68.079  1.00  0.00    -0.132 OA 
HETATM    4  O   UNL     1      -7.768   9.770  66.512  1.00  0.00    -0.103 OA 
ENDROOT
BRANCH   3   5
HETATM    5  C   UNL     1      -9.430   8.279  67.712  1.00  0.00    -0.149 C  
BRANCH   5   6
HETATM    6  C   UNL     1      -9.370   7.433  68.997  1.00  0.00    -0.145 C  
BRANCH   6   7
HETATM    7  O   UNL     1     -10.575   7.471  69.779  1.00  0.00    -0.232 OA 
HETATM    8  O   UNL     1     -10.785   5.253  69.407  1.00  0.00    -0.233 OA 
HETATM    9  N   UNL     1     -11.256   6.245  69.959  1.00  0.00    -0.385 N  
HETATM   10  O   UNL     1     -12.254   6.354  70.664  1.00  0.00    -0.238 OA 
ENDBRANCH   6   7
BRANCH   6  11
HETATM   11  C   UNL     1      -8.086   7.673  69.810  1.00  0.00    -0.125 C  
BRANCH  11  12
HETATM   12  O   UNL     1      -8.116   6.833  70.963  1.00  0.00    -0.112 OA 
HETATM   13  N   UNL     1      -8.217   7.572  72.170  1.00  0.00    -0.100 N  
HETATM   14  O   UNL     1      -8.238   8.799  72.074  1.00  0.00    -0.323 OA 
HETATM   15  O   UNL     1      -8.259   6.854  73.165  1.00  0.00    -0.106 OA 
ENDBRANCH  11  12
ENDBRANCH   6  11
ENDBRANCH   5   6
ENDBRANCH   3   5
TORSDOF 5
ENDMDL
MODEL      291
REMARK 921   NORMALIZED FREE ENERGY PREDICTED BY IDOCK:   -2.02 KCAL/MOL
REMARK 922        TOTAL FREE ENERGY PREDICTED BY IDOCK:   -3.13 KCAL/MOL
REMARK 923 INTER-LIGAND FREE ENERGY PREDICTED BY IDOCK:   -2.78 KCAL/MOL
REMARK 924 INTRA-LIGAND FREE ENERGY PREDICTED BY IDOCK:   -0.35 KCAL/MOL
REMARK 927      BINDING AFFINITY PREDICTED BY RF-SCORE:    0.00 PKD
ROOT
HETATM    1  O   UNL     1      -8.670   9.118  71.677  1.00  0.00    -0.343 OA 
HETATM    2  N   UNL     1      -8.857   8.069  71.066  1.00  0.00    -0.135 N  
HETATM    3  O   UNL     1      -8.621   8.196  69.675  1.00  0.00    -0.128 OA 
HETATM    4  O   UNL     1      -9.196   6.959  71.477  1.00  0.00    -0.151 OA 
ENDROOT
BRANCH   3   5
HETATM    5  C   UNL     1      -8.856   6.979  68.966  1.00  0.00    -0.134 C  
BRANCH   5   6
HETATM    6  C   UNL     1      -9.703   7.298  67.720  1.00  0.00    -0.140 C  
BRANCH   6   7
HETATM    7  O   UNL     1      -9.151   6.793  66.493  1.00  0.00    -0.142 OA 
HETATM    8  O   UNL     1     -10.491   4.990  66.732  1.00  0.00    -0.251 OA 
HETATM    9  N   UNL     1      -9.652   5.553  66.034  1.00  0.00    -0.141 N  
HETATM   10  O   UNL     1      -9.157   5.207  64.965  1.00  0.00    -0.147 OA 
ENDBRANCH   6   7
BRANCH   6  11
HETATM   11  C   UNL     1     -10.134   8.774  67.655  1.00  0.00    -0.216 C  
BRANCH  11  12
HETATM   12  O   UNL     1     -10.528   9.072  66.315  1.00  0.00    -0.179 OA 
HETATM   13  N   UNL     1      -9.550   9.826  65.617  1.00  0.00    -0.244 N  
HETATM   14  O   UNL     1      -8.535  10.139  66.241  1.00  0.00    -0.125 OA 
HETATM   15  O   UNL     1      -9.876  10.073  64.460  1.00  0.00    -0.305 OA 
ENDBRANCH  11  12
ENDBRANCH   6  11
ENDBRANCH   5   6
ENDBRANCH   3   5
TORSDOF 5
ENDMDL
MODEL      292
REMARK 921   NORMALIZED FREE ENERGY PREDICTED BY IDOCK:   -2.02 KCAL/MOL
REMARK 922        TOTAL FREE ENERGY PREDICTED BY IDOCK:   -3.13 KCAL/MOL
REMARK 923 INTER-LIGAND FREE ENERGY PREDICTED BY IDOCK:   -2.70 KCAL/MOL
REMARK 924 INTRA-LIGAND FREE ENERGY PREDICTED BY IDOCK:   -0.43 KCAL/MOL
REMARK 927      BINDING AFFINITY PREDICTED BY RF-SCORE:    0.00 PKD
ROOT
HETATM    1  O   UNL     1      -9.818  10.159  69.832  1.00  0.00    -0.233 OA 
HETATM    2  N   UNL     1      -9.855   9.147  70.526  1.00  0.00    -0.214 N  
HETATM    3  O   UNL     1     -10.661   8.126  69.963  1.00  0.00    -0.240 OA 
HETATM    4  O   UNL     1      -9.299   8.896  71.596  1.00  0.00    -0.264 OA 
ENDROOT
BRANCH   3   5
HETATM    5  C   UNL     1     -10.715   6.957  70.782  1.00  0.00    -0.233 C  
BRANCH   5   6
HETATM    6  C   UNL     1      -9.719   5.925  70.220  1.00  0.00    -0.169 C  
BRANCH   6   7
HETATM    7  O   UNL     1     -10.207   5.205  69.076  1.00  0.00    -0.202 OA 
HETATM    8  O   UNL     1      -8.763   6.400  67.816  1.00  0.00    -0.116 OA 
HETATM    9  N   UNL     1      -9.617   5.518  67.830  1.00  0.00    -0.119 N  
HETATM   10  O   UNL     1     -10.062   4.839  66.909  1.00  0.00    -0.206 OA 
ENDBRANCH   6   7
BRANCH   6  11
HETATM   11  C   UNL     1      -9.108   5.030  71.312  1.00  0.00    -0.143 C  
BRANCH  11  12
HETATM   12  O   UNL     1      -9.739   3.751  71.255  1.00  0.00    -0.166 OA 
HETATM   13  N   UNL     1     -10.152   3.291  72.532  1.00  0.00    -0.156 N  
HETATM   14  O   UNL     1      -9.899   4.015  73.495  1.00  0.00    -0.115 OA 
HETATM   15  O   UNL     1     -10.708   2.197  72.486  1.00  0.00    -0.126 OA 
ENDBRANCH  11  12
ENDBRANCH   6  11
ENDBRANCH   5   6
ENDBRANCH   3   5
TORSDOF 5
ENDMDL
MODEL      293
REMARK 921   NORMALIZED FREE ENERGY PREDICTED BY IDOCK:   -2.00 KCAL/MOL
REMARK 922        TOTAL FREE ENERGY PREDICTED BY IDOCK:   -3.09 KCAL/MOL
REMARK 923 INTER-LIGAND FREE ENERGY PREDICTED BY IDOCK:   -2.62 KCAL/MOL
REMARK 924 INTRA-LIGAND FREE ENERGY PREDICTED BY IDOCK:   -0.47 KCAL/MOL
REMARK 927      BINDING AFFINITY PREDICTED BY RF-SCORE:    0.00 PKD
ROOT
HETATM    1  O   UNL     1     -10.446   4.246  64.582  1.00  0.00    -0.189 OA 
HETATM    2  N   UNL     1      -9.794   4.223  65.623  1.00  0.00    -0.202 N  
HETATM    3  O   UNL     1      -9.140   5.452  65.886  1.00  0.00    -0.152 OA 
HETATM    4  O   UNL     1      -9.645   3.321  66.448  1.00  0.00    -0.128 OA 
ENDROOT
BRANCH   3   5
HETATM    5  C   UNL     1      -8.370   5.416  67.088  1.00  0.00    -0.107 C  
BRANCH   5   6
HETATM    6  C   UNL     1      -8.842   6.562  68.002  1.00  0.00    -0.114 C  
BRANCH   6   7
HETATM    7  O   UNL     1     -10.207   6.441  68.434  1.00  0.00    -0.150 OA 
HETATM    8  O   UNL     1      -9.425   6.088  70.523  1.00  0.00    -0.164 OA 
HETATM    9  N   UNL     1     -10.419   6.204  69.812  1.00  0.00    -0.214 N  
HETATM   10  O   UNL     1     -11.609   6.147  70.107  1.00  0.00    -0.375 OA 
ENDBRANCH   6   7
BRANCH   6  11
HETATM   11  C   UNL     1      -8.478   7.952  67.451  1.00  0.00    -0.122 C  
BRANCH  11  12
HETATM   12  O   UNL     1      -9.351   8.916  68.040  1.00  0.00    -0.141 OA 
HETATM   13  N   UNL     1      -9.819   9.871  67.101  1.00  0.00    -0.178 N  
HETATM   14  O   UNL     1      -9.407   9.766  65.945  1.00  0.00    -0.173 OA 
HETATM   15  O   UNL     1     -10.582  10.693  67.600  1.00  0.00    -0.210 OA 
ENDBRANCH  11  12
ENDBRANCH   6  11
ENDBRANCH   5   6
ENDBRANCH   3   5
TORSDOF 5
ENDMDL
MODEL      294
REMARK 921   NORMALIZED FREE ENERGY PREDICTED BY IDOCK:   -1.92 KCAL/MOL
REMARK 922        TOTAL FREE ENERGY PREDICTED BY IDOCK:   -3.00 KCAL/MOL
REMARK 923 INTER-LIGAND FREE ENERGY PREDICTED BY IDOCK:   -2.55 KCAL/MOL
REMARK 924 INTRA-LIGAND FREE ENERGY PREDICTED BY IDOCK:   -0.45 KCAL/MOL
REMARK 927      BINDING AFFINITY PREDICTED BY RF-SCORE:    0.00 PKD
ROOT
HETATM    1  O   UNL     1      -8.520  11.753  67.174  1.00  0.00    -0.156 OA 
HETATM    2  N   UNL     1      -9.090  10.761  66.729  1.00  0.00    -0.152 N  
HETATM    3  O   UNL     1     -10.045  10.228  67.630  1.00  0.00    -0.175 OA 
HETATM    4  O   UNL     1      -8.964  10.191  65.644  1.00  0.00    -0.157 OA 
ENDROOT
BRANCH   3   5
HETATM    5  C   UNL     1     -10.694   9.064  67.115  1.00  0.00    -0.136 C  
BRANCH   5   6
HETATM    6  C   UNL     1     -10.275   7.855  67.973  1.00  0.00    -0.208 C  
BRANCH   6   7
HETATM    7  O   UNL     1     -10.327   8.097  69.389  1.00  0.00    -0.211 OA 
HETATM    8  O   UNL     1     -11.628   6.260  69.569  1.00  0.00    -0.423 OA 
HETATM    9  N   UNL     1     -11.063   7.174  70.165  1.00  0.00    -0.270 N  
HETATM   10  O   UNL     1     -11.032   7.430  71.365  1.00  0.00    -0.233 OA 
ENDBRANCH   6   7
BRANCH   6  11
HETATM   11  C   UNL     1      -8.964   7.209  67.493  1.00  0.00    -0.121 C  
BRANCH  11  12
HETATM   12  O   UNL     1      -8.392   6.483  68.581  1.00  0.00    -0.120 OA 
HETATM   13  N   UNL     1      -7.137   7.009  68.985  1.00  0.00    -0.082 N  
HETATM   14  O   UNL     1      -6.705   7.972  68.351  1.00  0.00    -0.063 OA 
HETATM   15  O   UNL     1      -6.648   6.397  69.930  1.00  0.00    -0.045 OA 
ENDBRANCH  11  12
ENDBRANCH   6  11
ENDBRANCH   5   6
ENDBRANCH   3   5
TORSDOF 5
ENDMDL
MODEL      295
REMARK 921   NORMALIZED FREE ENERGY PREDICTED BY IDOCK:   -1.92 KCAL/MOL
REMARK 922        TOTAL FREE ENERGY PREDICTED BY IDOCK:   -2.99 KCAL/MOL
REMARK 923 INTER-LIGAND FREE ENERGY PREDICTED BY IDOCK:   -2.49 KCAL/MOL
REMARK 924 INTRA-LIGAND FREE ENERGY PREDICTED BY IDOCK:   -0.50 KCAL/MOL
REMARK 927      BINDING AFFINITY PREDICTED BY RF-SCORE:    0.00 PKD
ROOT
HETATM    1  O   UNL     1      -8.484   5.951  74.030  1.00  0.00    -0.116 OA 
HETATM    2  N   UNL     1      -8.861   5.180  73.151  1.00  0.00    -0.116 N  
HETATM    3  O   UNL     1      -9.909   5.718  72.363  1.00  0.00    -0.163 OA 
HETATM    4  O   UNL     1      -8.462   4.052  72.858  1.00  0.00    -0.094 OA 
ENDROOT
BRANCH   3   5
HETATM    5  C   UNL     1     -10.355   4.813  71.353  1.00  0.00    -0.122 C  
BRANCH   5   6
HETATM    6  C   UNL     1     -10.053   5.434  69.977  1.00  0.00    -0.254 C  
BRANCH   6   7
HETATM    7  O   UNL     1      -8.752   6.038  69.881  1.00  0.00    -0.128 OA 
HETATM    8  O   UNL     1      -8.045   4.150  68.861  1.00  0.00    -0.071 OA 
HETATM    9  N   UNL     1      -7.743   5.276  69.248  1.00  0.00    -0.083 N  
HETATM   10  O   UNL     1      -6.673   5.873  69.175  1.00  0.00    -0.055 OA 
ENDBRANCH   6   7
BRANCH   6  11
HETATM   11  C   UNL     1     -11.197   6.322  69.459  1.00  0.00    -0.430 C  
BRANCH  11  12
HETATM   12  O   UNL     1     -10.883   7.683  69.751  1.00  0.00    -0.249 OA 
HETATM   13  N   UNL     1     -10.648   8.450  68.581  1.00  0.00    -0.163 N  
HETATM   14  O   UNL     1     -10.717   7.860  67.503  1.00  0.00    -0.247 OA 
HETATM   15  O   UNL     1     -10.392   9.626  68.826  1.00  0.00    -0.198 OA 
ENDBRANCH  11  12
ENDBRANCH   6  11
ENDBRANCH   5   6
ENDBRANCH   3   5
TORSDOF 5
ENDMDL
MODEL      296
REMARK 921   NORMALIZED FREE ENERGY PREDICTED BY IDOCK:   -1.86 KCAL/MOL
REMARK 922        TOTAL FREE ENERGY PREDICTED BY IDOCK:   -2.92 KCAL/MOL
REMARK 923 INTER-LIGAND FREE ENERGY PREDICTED BY IDOCK:   -2.69 KCAL/MOL
REMARK 924 INTRA-LIGAND FREE ENERGY PREDICTED BY IDOCK:   -0.23 KCAL/MOL
REMARK 927      BINDING AFFINITY PREDICTED BY RF-SCORE:    0.00 PKD
ROOT
HETATM    1  O   UNL     1      -6.811   9.137  64.879  1.00  0.00    -0.079 OA 
HETATM    2  N   UNL     1      -7.914   9.310  65.392  1.00  0.00    -0.106 N  
HETATM    3  O   UNL     1      -7.927   9.011  66.777  1.00  0.00    -0.105 OA 
HETATM    4  O   UNL     1      -8.969   9.704  64.894  1.00  0.00    -0.190 OA 
ENDROOT
BRANCH   3   5
HETATM    5  C   UNL     1      -9.215   9.196  67.365  1.00  0.00    -0.130 C  
BRANCH   5   6
HETATM    6  C   UNL     1      -9.116  10.330  68.402  1.00  0.00    -0.136 C  
BRANCH   6   7
HETATM    7  O   UNL     1      -8.308  11.441  67.979  1.00  0.00    -0.130 OA 
HETATM    8  O   UNL     1     -10.210  12.464  67.318  1.00  0.00    -0.214 OA 
HETATM    9  N   UNL     1      -8.989  12.549  67.425  1.00  0.00    -0.179 N  
HETATM   10  O   UNL     1      -8.235  13.467  67.120  1.00  0.00    -0.178 OA 
ENDBRANCH   6   7
BRANCH   6  11
HETATM   11  C   UNL     1      -8.791   9.819  69.816  1.00  0.00    -0.224 C  
BRANCH  11  12
HETATM   12  O   UNL     1      -9.639   8.707  70.103  1.00  0.00    -0.166 OA 
HETATM   13  N   UNL     1     -10.914   9.106  70.579  1.00  0.00    -0.245 N  
HETATM   14  O   UNL     1     -11.111  10.315  70.705  1.00  0.00    -0.326 OA 
HETATM   15  O   UNL     1     -11.653   8.154  70.814  1.00  0.00    -0.283 OA 
ENDBRANCH  11  12
ENDBRANCH   6  11
ENDBRANCH   5   6
ENDBRANCH   3   5
TORSDOF 5
ENDMDL
MODEL      297
REMARK 921   NORMALIZED FREE ENERGY PREDICTED BY IDOCK:   -1.85 KCAL/MOL
REMARK 922        TOTAL FREE ENERGY PREDICTED BY IDOCK:   -2.90 KCAL/MOL
REMARK 923 INTER-LIGAND FREE ENERGY PREDICTED BY IDOCK:   -2.49 KCAL/MOL
REMARK 924 INTRA-LIGAND FREE ENERGY PREDICTED BY IDOCK:   -0.41 KCAL/MOL
REMARK 927      BINDING AFFINITY PREDICTED BY RF-SCORE:    0.00 PKD
ROOT
HETATM    1  O   UNL     1      -6.892   7.102  63.344  1.00  0.00    -0.050 OA 
HETATM    2  N   UNL     1      -7.739   6.549  64.041  1.00  0.00    -0.101 N  
HETATM    3  O   UNL     1      -7.747   7.026  65.375  1.00  0.00    -0.097 OA 
HETATM    4  O   UNL     1      -8.563   5.680  63.751  1.00  0.00    -0.048 OA 
ENDROOT
BRANCH   3   5
HETATM    5  C   UNL     1      -8.723   6.368  66.185  1.00  0.00    -0.146 C  
BRANCH   5   6
HETATM    6  C   UNL     1      -9.424   7.427  67.056  1.00  0.00    -0.158 C  
BRANCH   6   7
HETATM    7  O   UNL     1      -8.610   8.575  67.349  1.00  0.00    -0.125 OA 
HETATM    8  O   UNL     1     -10.071   9.810  66.148  1.00  0.00    -0.257 OA 
HETATM    9  N   UNL     1      -9.051   9.815  66.832  1.00  0.00    -0.141 N  
HETATM   10  O   UNL     1      -8.323  10.750  67.152  1.00  0.00    -0.123 OA 
ENDBRANCH   6   7
BRANCH   6  11
HETATM   11  C   UNL     1     -10.120   6.821  68.287  1.00  0.00    -0.161 C  
BRANCH  11  12
HETATM   12  O   UNL     1     -10.723   7.878  69.033  1.00  0.00    -0.193 OA 
HETATM   13  N   UNL     1     -11.358   7.416  70.215  1.00  0.00    -0.255 N  
HETATM   14  O   UNL     1     -11.332   6.203  70.425  1.00  0.00    -0.352 OA 
HETATM   15  O   UNL     1     -11.865   8.323  70.868  1.00  0.00    -0.284 OA 
ENDBRANCH  11  12
ENDBRANCH   6  11
ENDBRANCH   5   6
ENDBRANCH   3   5
TORSDOF 5
ENDMDL
MODEL      298
REMARK 921   NORMALIZED FREE ENERGY PREDICTED BY IDOCK:   -1.85 KCAL/MOL
REMARK 922        TOTAL FREE ENERGY PREDICTED BY IDOCK:   -2.90 KCAL/MOL
REMARK 923 INTER-LIGAND FREE ENERGY PREDICTED BY IDOCK:   -2.43 KCAL/MOL
REMARK 924 INTRA-LIGAND FREE ENERGY PREDICTED BY IDOCK:   -0.47 KCAL/MOL
REMARK 927      BINDING AFFINITY PREDICTED BY RF-SCORE:    0.00 PKD
ROOT
HETATM    1  O   UNL     1      -9.374   9.002  68.555  1.00  0.00    -0.139 OA 
HETATM    2  N   UNL     1      -9.689   8.849  69.732  1.00  0.00    -0.171 N  
HETATM    3  O   UNL     1      -9.508   7.517  70.180  1.00  0.00    -0.161 OA 
HETATM    4  O   UNL     1     -10.114   9.664  70.553  1.00  0.00    -0.264 OA 
ENDROOT
BRANCH   3   5
HETATM    5  C   UNL     1      -9.892   7.341  71.544  1.00  0.00    -0.174 C  
BRANCH   5   6
HETATM    6  C   UNL     1      -8.632   7.009  72.364  1.00  0.00    -0.120 C  
BRANCH   6   7
HETATM    7  O   UNL     1      -7.509   7.860  72.082  1.00  0.00    -0.073 OA 
HETATM    8  O   UNL     1      -7.658   8.618  74.204  1.00  0.00    -0.383 OA 
HETATM    9  N   UNL     1      -7.047   8.675  73.140  1.00  0.00     0.011 N  
HETATM   10  O   UNL     1      -6.067   9.347  72.831  1.00  0.00    -0.303 OA 
ENDBRANCH   6   7
BRANCH   6  11
HETATM   11  C   UNL     1      -8.297   5.507  72.362  1.00  0.00    -0.118 C  
BRANCH  11  12
HETATM   12  O   UNL     1      -9.516   4.771  72.264  1.00  0.00    -0.132 OA 
HETATM   13  N   UNL     1      -9.790   4.016  73.434  1.00  0.00    -0.117 N  
HETATM   14  O   UNL     1      -8.959   4.070  74.341  1.00  0.00    -0.094 OA 
HETATM   15  O   UNL     1     -10.845   3.393  73.362  1.00  0.00    -0.189 OA 
ENDBRANCH  11  12
ENDBRANCH   6  11
ENDBRANCH   5   6
ENDBRANCH   3   5
TORSDOF 5
ENDMDL
MODEL      299
REMARK 921   NORMALIZED FREE ENERGY PREDICTED BY IDOCK:   -1.83 KCAL/MOL
REMARK 922        TOTAL FREE ENERGY PREDICTED BY IDOCK:   -2.88 KCAL/MOL
REMARK 923 INTER-LIGAND FREE ENERGY PREDICTED BY IDOCK:   -2.48 KCAL/MOL
REMARK 924 INTRA-LIGAND FREE ENERGY PREDICTED BY IDOCK:   -0.40 KCAL/MOL
REMARK 927      BINDING AFFINITY PREDICTED BY RF-SCORE:    0.00 PKD
ROOT
HETATM    1  O   UNL     1      -7.690   7.214  65.034  1.00  0.00    -0.100 OA 
HETATM    2  N   UNL     1      -8.534   7.034  65.908  1.00  0.00    -0.143 N  
HETATM    3  O   UNL     1      -8.909   8.234  66.561  1.00  0.00    -0.135 OA 
HETATM    4  O   UNL     1      -9.090   5.999  66.275  1.00  0.00    -0.145 OA 
ENDROOT
BRANCH   3   5
HETATM    5  C   UNL     1      -9.879   8.019  67.588  1.00  0.00    -0.167 C  
BRANCH   5   6
HETATM    6  C   UNL     1      -9.437   8.793  68.843  1.00  0.00    -0.145 C  
BRANCH   6   7
HETATM    7  O   UNL     1     -10.406   8.788  69.905  1.00  0.00    -0.195 OA 
HETATM    8  O   UNL     1      -8.829   7.856  71.226  1.00  0.00    -0.129 OA 
HETATM    9  N   UNL     1      -9.979   8.282  71.153  1.00  0.00    -0.180 N  
HETATM   10  O   UNL     1     -10.851   8.343  72.015  1.00  0.00    -0.272 OA 
ENDBRANCH   6   7
BRANCH   6  11
HETATM   11  C   UNL     1      -8.871  10.186  68.516  1.00  0.00    -0.127 C  
BRANCH  11  12
HETATM   12  O   UNL     1      -9.859  10.919  67.792  1.00  0.00    -0.171 OA 
HETATM   13  N   UNL     1      -9.304  11.670  66.724  1.00  0.00    -0.181 N  
HETATM   14  O   UNL     1      -8.082  11.617  66.579  1.00  0.00    -0.152 OA 
HETATM   15  O   UNL     1     -10.151  12.290  66.088  1.00  0.00    -0.234 OA 
ENDBRANCH  11  12
ENDBRANCH   6  11
ENDBRANCH   5   6
ENDBRANCH   3   5
TORSDOF 5
ENDMDL
MODEL      300
REMARK 921   NORMALIZED FREE ENERGY PREDICTED BY IDOCK:   -1.79 KCAL/MOL
REMARK 922        TOTAL FREE ENERGY PREDICTED BY IDOCK:   -2.83 KCAL/MOL
REMARK 923 INTER-LIGAND FREE ENERGY PREDICTED BY IDOCK:   -2.48 KCAL/MOL
REMARK 924 INTRA-LIGAND FREE ENERGY PREDICTED BY IDOCK:   -0.35 KCAL/MOL
REMARK 927      BINDING AFFINITY PREDICTED BY RF-SCORE:    0.00 PKD
ROOT
HETATM    1  O   UNL     1      -7.834   3.823  69.834  1.00  0.00    -0.051 OA 
HETATM    2  N   UNL     1      -8.110   4.898  69.307  1.00  0.00    -0.078 N  
HETATM    3  O   UNL     1      -8.658   5.831  70.221  1.00  0.00    -0.128 OA 
HETATM    4  O   UNL     1      -7.971   5.271  68.141  1.00  0.00    -0.090 OA 
ENDROOT
BRANCH   3   5
HETATM    5  C   UNL     1      -8.993   7.074  69.600  1.00  0.00    -0.141 C  
BRANCH   5   6
HETATM    6  C   UNL     1      -9.630   7.990  70.661  1.00  0.00    -0.166 C  
BRANCH   6   7
HETATM    7  O   UNL     1     -10.019   9.280  70.162  1.00  0.00    -0.187 OA 
HETATM    8  O   UNL     1     -11.768   9.211  71.590  1.00  0.00    -0.328 OA 
HETATM    9  N   UNL     1     -11.172   9.863  70.736  1.00  0.00    -0.329 N  
HETATM   10  O   UNL     1     -11.419  10.976  70.282  1.00  0.00    -0.301 OA 
ENDBRANCH   6   7
BRANCH   6  11
HETATM   11  C   UNL     1      -8.821   8.041  71.969  1.00  0.00    -0.156 C  
BRANCH  11  12
HETATM   12  O   UNL     1      -7.791   9.020  71.827  1.00  0.00    -0.333 OA 
HETATM   13  N   UNL     1      -6.497   8.482  72.049  1.00  0.00    -0.069 N  
HETATM   14  O   UNL     1      -6.431   7.290  72.350  1.00  0.00    -0.051 OA 
HETATM   15  O   UNL     1      -5.607   9.317  71.913  1.00  0.00    -0.068 OA 
ENDBRANCH  11  12
ENDBRANCH   6  11
ENDBRANCH   5   6
ENDBRANCH   3   5
TORSDOF 5
ENDMDL
MODEL      301
REMARK 921   NORMALIZED FREE ENERGY PREDICTED BY IDOCK:   -1.79 KCAL/MOL
REMARK 922        TOTAL FREE ENERGY PREDICTED BY IDOCK:   -2.82 KCAL/MOL
REMARK 923 INTER-LIGAND FREE ENERGY PREDICTED BY IDOCK:   -2.45 KCAL/MOL
REMARK 924 INTRA-LIGAND FREE ENERGY PREDICTED BY IDOCK:   -0.37 KCAL/MOL
REMARK 927      BINDING AFFINITY PREDICTED BY RF-SCORE:    0.00 PKD
ROOT
HETATM    1  O   UNL     1     -10.162   9.497  71.339  1.00  0.00    -0.283 OA 
HETATM    2  N   UNL     1     -10.896   8.656  70.826  1.00  0.00    -0.222 N  
HETATM    3  O   UNL     1     -10.180   7.557  70.290  1.00  0.00    -0.200 OA 
HETATM    4  O   UNL     1     -12.124   8.628  70.727  1.00  0.00    -0.210 OA 
ENDROOT
BRANCH   3   5
HETATM    5  C   UNL     1     -11.037   6.591  69.680  1.00  0.00    -0.376 C  
BRANCH   5   6
HETATM    6  C   UNL     1     -10.181   5.687  68.773  1.00  0.00    -0.204 C  
BRANCH   6   7
HETATM    7  O   UNL     1     -10.887   5.165  67.635  1.00  0.00    -0.001 OA 
HETATM    8  O   UNL     1      -9.135   5.807  66.362  1.00  0.00    -0.138 OA 
HETATM    9  N   UNL     1     -10.234   5.259  66.385  1.00  0.00    -0.230 N  
HETATM   10  O   UNL     1     -10.885   4.761  65.470  1.00  0.00    -0.239 OA 
ENDBRANCH   6   7
BRANCH   6  11
HETATM   11  C   UNL     1      -9.389   4.630  69.561  1.00  0.00    -0.141 C  
BRANCH  11  12
HETATM   12  O   UNL     1      -8.128   5.189  69.930  1.00  0.00    -0.080 OA 
HETATM   13  N   UNL     1      -7.057   4.667  69.159  1.00  0.00    -0.051 N  
HETATM   14  O   UNL     1      -7.337   3.811  68.320  1.00  0.00    -0.054 OA 
HETATM   15  O   UNL     1      -5.972   5.156  69.462  1.00  0.00    -0.019 OA 
ENDBRANCH  11  12
ENDBRANCH   6  11
ENDBRANCH   5   6
ENDBRANCH   3   5
TORSDOF 5
ENDMDL
MODEL      302
REMARK 921   NORMALIZED FREE ENERGY PREDICTED BY IDOCK:   -1.77 KCAL/MOL
REMARK 922        TOTAL FREE ENERGY PREDICTED BY IDOCK:   -2.80 KCAL/MOL
REMARK 923 INTER-LIGAND FREE ENERGY PREDICTED BY IDOCK:   -2.29 KCAL/MOL
REMARK 924 INTRA-LIGAND FREE ENERGY PREDICTED BY IDOCK:   -0.51 KCAL/MOL
REMARK 927      BINDING AFFINITY PREDICTED BY RF-SCORE:    0.00 PKD
ROOT
HETATM    1  O   UNL     1      -9.396   6.187  74.534  1.00  0.00    -0.147 OA 
HETATM    2  N   UNL     1     -10.118   6.216  73.541  1.00  0.00    -0.193 N  
HETATM    3  O   UNL     1      -9.803   7.283  72.664  1.00  0.00    -0.156 OA 
HETATM    4  O   UNL     1     -11.037   5.467  73.205  1.00  0.00    -0.272 OA 
ENDROOT
BRANCH   3   5
HETATM    5  C   UNL     1     -10.657   7.322  71.519  1.00  0.00    -0.203 C  
BRANCH   5   6
HETATM    6  C   UNL     1      -9.827   6.936  70.281  1.00  0.00    -0.178 C  
BRANCH   6   7
HETATM    7  O   UNL     1      -8.657   6.157  70.582  1.00  0.00    -0.131 OA 
HETATM    8  O   UNL     1      -9.859   4.313  70.073  1.00  0.00    -0.215 OA 
HETATM    9  N   UNL     1      -8.767   4.756  70.422  1.00  0.00    -0.096 N  
HETATM   10  O   UNL     1      -7.719   4.166  70.664  1.00  0.00    -0.047 OA 
ENDBRANCH   6   7
BRANCH   6  11
HETATM   11  C   UNL     1      -9.565   8.127  69.343  1.00  0.00    -0.167 C  
BRANCH  11  12
HETATM   12  O   UNL     1      -8.882   9.142  70.079  1.00  0.00    -0.151 OA 
HETATM   13  N   UNL     1      -7.904   9.812  69.301  1.00  0.00    -0.095 N  
HETATM   14  O   UNL     1      -7.754   9.428  68.140  1.00  0.00    -0.083 OA 
HETATM   15  O   UNL     1      -7.324  10.696  69.924  1.00  0.00    -0.150 OA 
ENDBRANCH  11  12
ENDBRANCH   6  11
ENDBRANCH   5   6
ENDBRANCH   3   5
TORSDOF 5
ENDMDL
MODEL      303
REMARK 921   NORMALIZED FREE ENERGY PREDICTED BY IDOCK:   -1.76 KCAL/MOL
REMARK 922        TOTAL FREE ENERGY PREDICTED BY IDOCK:   -2.79 KCAL/MOL
REMARK 923 INTER-LIGAND FREE ENERGY PREDICTED BY IDOCK:   -2.25 KCAL/MOL
REMARK 924 INTRA-LIGAND FREE ENERGY PREDICTED BY IDOCK:   -0.53 KCAL/MOL
REMARK 927      BINDING AFFINITY PREDICTED BY RF-SCORE:    0.00 PKD
ROOT
HETATM    1  O   UNL     1      -9.633  10.437  69.717  1.00  0.00    -0.165 OA 
HETATM    2  N   UNL     1      -8.928   9.434  69.788  1.00  0.00    -0.172 N  
HETATM    3  O   UNL     1      -9.564   8.365  70.467  1.00  0.00    -0.165 OA 
HETATM    4  O   UNL     1      -7.792   9.228  69.358  1.00  0.00    -0.077 OA 
ENDROOT
BRANCH   3   5
HETATM    5  C   UNL     1      -8.735   7.206  70.562  1.00  0.00    -0.149 C  
BRANCH   5   6
HETATM    6  C   UNL     1      -8.404   6.967  72.047  1.00  0.00    -0.105 C  
BRANCH   6   7
HETATM    7  O   UNL     1      -7.721   5.728  72.302  1.00  0.00    -0.099 OA 
HETATM    8  O   UNL     1      -6.181   6.911  73.455  1.00  0.00    -0.062 OA 
HETATM    9  N   UNL     1      -6.546   5.799  73.084  1.00  0.00    -0.068 N  
HETATM   10  O   UNL     1      -6.041   4.698  73.285  1.00  0.00    -0.026 OA 
ENDBRANCH   6   7
BRANCH   6  11
HETATM   11  C   UNL     1      -9.603   7.226  72.975  1.00  0.00    -0.175 C  
BRANCH  11  12
HETATM   12  O   UNL     1     -10.115   5.968  73.416  1.00  0.00    -0.176 OA 
HETATM   13  N   UNL     1     -11.418   5.708  72.919  1.00  0.00    -0.277 N  
HETATM   14  O   UNL     1     -11.933   6.580  72.218  1.00  0.00    -0.292 OA 
HETATM   15  O   UNL     1     -11.857   4.621  73.282  1.00  0.00    -0.249 OA 
ENDBRANCH  11  12
ENDBRANCH   6  11
ENDBRANCH   5   6
ENDBRANCH   3   5
TORSDOF 5
ENDMDL
MODEL      304
REMARK 921   NORMALIZED FREE ENERGY PREDICTED BY IDOCK:   -1.72 KCAL/MOL
REMARK 922        TOTAL FREE ENERGY PREDICTED BY IDOCK:   -2.73 KCAL/MOL
REMARK 923 INTER-LIGAND FREE ENERGY PREDICTED BY IDOCK:   -3.29 KCAL/MOL
REMARK 924 INTRA-LIGAND FREE ENERGY PREDICTED BY IDOCK:    0.56 KCAL/MOL
REMARK 927      BINDING AFFINITY PREDICTED BY RF-SCORE:    0.00 PKD
ROOT
HETATM    1  O   UNL     1      -8.861  10.257  67.574  1.00  0.00    -0.128 OA 
HETATM    2  N   UNL     1      -9.971  10.150  68.090  1.00  0.00    -0.144 N  
HETATM    3  O   UNL     1      -9.906   9.829  69.468  1.00  0.00    -0.188 OA 
HETATM    4  O   UNL     1     -11.092  10.289  67.599  1.00  0.00    -0.306 OA 
ENDROOT
BRANCH   3   5
HETATM    5  C   UNL     1     -11.199   9.688  70.059  1.00  0.00    -0.231 C  
BRANCH   5   6
HETATM    6  C   UNL     1     -11.171   8.473  71.004  1.00  0.00    -0.268 C  
BRANCH   6   7
HETATM    7  O   UNL     1     -10.556   8.735  72.276  1.00  0.00    -0.337 OA 
HETATM    8  O   UNL     1      -8.655   7.841  71.445  1.00  0.00    -0.116 OA 
HETATM    9  N   UNL     1      -9.195   8.377  72.410  1.00  0.00    -0.257 N  
HETATM   10  O   UNL     1      -8.734   8.663  73.511  1.00  0.00    -0.305 OA 
ENDBRANCH   6   7
BRANCH   6  11
HETATM   11  C   UNL     1     -10.668   7.193  70.315  1.00  0.00    -0.238 C  
BRANCH  11  12
HETATM   12  O   UNL     1     -11.470   6.955  69.158  1.00  0.00    -0.099 OA 
HETATM   13  N   UNL     1     -10.691   6.682  68.004  1.00  0.00    -0.243 N  
HETATM   14  O   UNL     1      -9.467   6.710  68.136  1.00  0.00    -0.119 OA 
HETATM   15  O   UNL     1     -11.376   6.462  67.009  1.00  0.00    -0.314 OA 
ENDBRANCH  11  12
ENDBRANCH   6  11
ENDBRANCH   5   6
ENDBRANCH   3   5
TORSDOF 5
ENDMDL
MODEL      305
REMARK 921   NORMALIZED FREE ENERGY PREDICTED BY IDOCK:   -1.71 KCAL/MOL
REMARK 922        TOTAL FREE ENERGY PREDICTED BY IDOCK:   -2.72 KCAL/MOL
REMARK 923 INTER-LIGAND FREE ENERGY PREDICTED BY IDOCK:   -2.23 KCAL/MOL
REMARK 924 INTRA-LIGAND FREE ENERGY PREDICTED BY IDOCK:   -0.49 KCAL/MOL
REMARK 927      BINDING AFFINITY PREDICTED BY RF-SCORE:    0.00 PKD
ROOT
HETATM    1  O   UNL     1     -10.061  10.489  65.735  1.00  0.00    -0.247 OA 
HETATM    2  N   UNL     1     -10.135   9.777  66.733  1.00  0.00    -0.218 N  
HETATM    3  O   UNL     1     -10.045   8.396  66.429  1.00  0.00    -0.265 OA 
HETATM    4  O   UNL     1     -10.260  10.083  67.920  1.00  0.00    -0.168 OA 
ENDROOT
BRANCH   3   5
HETATM    5  C   UNL     1     -10.149   7.572  67.590  1.00  0.00    -0.187 C  
BRANCH   5   6
HETATM    6  C   UNL     1      -9.024   6.522  67.542  1.00  0.00    -0.110 C  
BRANCH   6   7
HETATM    7  O   UNL     1      -9.480   5.189  67.255  1.00  0.00    -0.121 OA 
HETATM    8  O   UNL     1      -7.963   5.124  65.581  1.00  0.00    -0.104 OA 
HETATM    9  N   UNL     1      -8.835   4.512  66.194  1.00  0.00    -0.116 N  
HETATM   10  O   UNL     1      -9.256   3.370  66.033  1.00  0.00    -0.154 OA 
ENDBRANCH   6   7
BRANCH   6  11
HETATM   11  C   UNL     1      -8.071   6.613  68.747  1.00  0.00    -0.119 C  
BRANCH  11  12
HETATM   12  O   UNL     1      -8.570   7.602  69.647  1.00  0.00    -0.133 OA 
HETATM   13  N   UNL     1      -7.547   8.450  70.144  1.00  0.00    -0.069 N  
HETATM   14  O   UNL     1      -6.397   8.217  69.770  1.00  0.00    -0.035 OA 
HETATM   15  O   UNL     1      -7.974   9.312  70.907  1.00  0.00    -0.182 OA 
ENDBRANCH  11  12
ENDBRANCH   6  11
ENDBRANCH   5   6
ENDBRANCH   3   5
TORSDOF 5
ENDMDL
MODEL      306
REMARK 921   NORMALIZED FREE ENERGY PREDICTED BY IDOCK:   -1.66 KCAL/MOL
REMARK 922        TOTAL FREE ENERGY PREDICTED BY IDOCK:   -2.66 KCAL/MOL
REMARK 923 INTER-LIGAND FREE ENERGY PREDICTED BY IDOCK:   -3.50 KCAL/MOL
REMARK 924 INTRA-LIGAND FREE ENERGY PREDICTED BY IDOCK:    0.84 KCAL/MOL
REMARK 927      BINDING AFFINITY PREDICTED BY RF-SCORE:    0.00 PKD
ROOT
HETATM    1  O   UNL     1      -9.947  10.624  65.757  1.00  0.00    -0.232 OA 
HETATM    2  N   UNL     1     -10.582  10.215  66.726  1.00  0.00    -0.202 N  
HETATM    3  O   UNL     1     -10.143   8.943  67.170  1.00  0.00    -0.205 OA 
HETATM    4  O   UNL     1     -11.504  10.739  67.352  1.00  0.00    -0.467 OA 
ENDROOT
BRANCH   3   5
HETATM    5  C   UNL     1     -10.895   8.463  68.285  1.00  0.00     0.083 C  
BRANCH   5   6
HETATM    6  C   UNL     1      -9.955   8.369  69.501  1.00  0.00    -0.190 C  
BRANCH   6   7
HETATM    7  O   UNL     1      -9.202   7.146  69.565  1.00  0.00    -0.149 OA 
HETATM    8  O   UNL     1     -10.974   6.106  68.627  1.00  0.00    -0.307 OA 
HETATM    9  N   UNL     1      -9.829   5.987  69.054  1.00  0.00    -0.142 N  
HETATM   10  O   UNL     1      -9.111   4.993  69.114  1.00  0.00    -0.095 OA 
ENDBRANCH   6   7
BRANCH   6  11
HETATM   11  C   UNL     1     -10.646   8.752  70.821  1.00  0.00    -0.220 C  
BRANCH  11  12
HETATM   12  O   UNL     1     -11.919   8.107  70.870  1.00  0.00    -0.275 OA 
HETATM   13  N   UNL     1     -12.908   8.905  71.500  1.00  0.00    -0.332 N  
HETATM   14  O   UNL     1     -12.550  10.001  71.932  1.00  0.00    -0.389 OA 
HETATM   15  O   UNL     1     -14.008   8.361  71.531  1.00  0.00    -0.376 OA 
ENDBRANCH  11  12
ENDBRANCH   6  11
ENDBRANCH   5   6
ENDBRANCH   3   5
TORSDOF 5
ENDMDL
MODEL      307
REMARK 921   NORMALIZED FREE ENERGY PREDICTED BY IDOCK:   -1.62 KCAL/MOL
REMARK 922        TOTAL FREE ENERGY PREDICTED BY IDOCK:   -2.61 KCAL/MOL
REMARK 923 INTER-LIGAND FREE ENERGY PREDICTED BY IDOCK:   -2.14 KCAL/MOL
REMARK 924 INTRA-LIGAND FREE ENERGY PREDICTED BY IDOCK:   -0.47 KCAL/MOL
REMARK 927      BINDING AFFINITY PREDICTED BY RF-SCORE:    0.00 PKD
ROOT
HETATM    1  O   UNL     1      -7.815   6.768  72.834  1.00  0.00    -0.098 OA 
HETATM    2  N   UNL     1      -8.427   7.734  72.387  1.00  0.00    -0.117 N  
HETATM    3  O   UNL     1      -8.649   7.644  70.990  1.00  0.00    -0.128 OA 
HETATM    4  O   UNL     1      -8.871   8.729  72.961  1.00  0.00    -0.340 OA 
ENDROOT
BRANCH   3   5
HETATM    5  C   UNL     1      -9.346   8.778  70.471  1.00  0.00    -0.187 C  
BRANCH   5   6
HETATM    6  C   UNL     1      -8.729   9.145  69.110  1.00  0.00    -0.138 C  
BRANCH   6   7
HETATM    7  O   UNL     1      -9.687   9.591  68.135  1.00  0.00    -0.143 OA 
HETATM    8  O   UNL     1      -9.011  11.703  68.560  1.00  0.00    -0.172 OA 
HETATM    9  N   UNL     1      -9.751  10.983  67.896  1.00  0.00    -0.169 N  
HETATM   10  O   UNL     1     -10.567  11.279  67.028  1.00  0.00    -0.222 OA 
ENDBRANCH   6   7
BRANCH   6  11
HETATM   11  C   UNL     1      -7.753   8.076  68.588  1.00  0.00    -0.105 C  
BRANCH  11  12
HETATM   12  O   UNL     1      -6.946   8.660  67.566  1.00  0.00    -0.076 OA 
HETATM   13  N   UNL     1      -7.192   8.092  66.289  1.00  0.00    -0.077 N  
HETATM   14  O   UNL     1      -8.022   7.184  66.232  1.00  0.00    -0.103 OA 
HETATM   15  O   UNL     1      -6.511   8.601  65.403  1.00  0.00    -0.061 OA 
ENDBRANCH  11  12
ENDBRANCH   6  11
ENDBRANCH   5   6
ENDBRANCH   3   5
TORSDOF 5
ENDMDL
MODEL      308
REMARK 921   NORMALIZED FREE ENERGY PREDICTED BY IDOCK:   -1.58 KCAL/MOL
REMARK 922        TOTAL FREE ENERGY PREDICTED BY IDOCK:   -2.56 KCAL/MOL
REMARK 923 INTER-LIGAND FREE ENERGY PREDICTED BY IDOCK:   -2.05 KCAL/MOL
REMARK 924 INTRA-LIGAND FREE ENERGY PREDICTED BY IDOCK:   -0.51 KCAL/MOL
REMARK 927      BINDING AFFINITY PREDICTED BY RF-SCORE:    0.00 PKD
ROOT
HETATM    1  O   UNL     1      -9.499   4.669  64.961  1.00  0.00    -0.159 OA 
HETATM    2  N   UNL     1      -9.398   4.670  66.185  1.00  0.00    -0.142 N  
HETATM    3  O   UNL     1      -8.647   5.769  66.671  1.00  0.00    -0.116 OA 
HETATM    4  O   UNL     1      -9.851   3.888  67.021  1.00  0.00    -0.201 OA 
ENDROOT
BRANCH   3   5
HETATM    5  C   UNL     1      -8.518   5.758  68.094  1.00  0.00    -0.109 C  
BRANCH   5   6
HETATM    6  C   UNL     1      -8.732   7.192  68.612  1.00  0.00    -0.127 C  
BRANCH   6   7
HETATM    7  O   UNL     1      -9.217   8.107  67.615  1.00  0.00    -0.136 OA 
HETATM    8  O   UNL     1     -10.790   8.758  69.101  1.00  0.00    -0.173 OA 
HETATM    9  N   UNL     1     -10.316   8.920  67.979  1.00  0.00    -0.214 N  
HETATM   10  O   UNL     1     -10.648   9.696  67.088  1.00  0.00    -0.256 OA 
ENDBRANCH   6   7
BRANCH   6  11
HETATM   11  C   UNL     1      -7.534   7.720  69.419  1.00  0.00    -0.088 C  
BRANCH  11  12
HETATM   12  O   UNL     1      -6.788   8.613  68.593  1.00  0.00    -0.061 OA 
HETATM   13  N   UNL     1      -6.887   9.962  69.022  1.00  0.00    -0.053 N  
HETATM   14  O   UNL     1      -7.598  10.185  70.002  1.00  0.00    -0.163 OA 
HETATM   15  O   UNL     1      -6.235  10.732  68.324  1.00  0.00    -0.052 OA 
ENDBRANCH  11  12
ENDBRANCH   6  11
ENDBRANCH   5   6
ENDBRANCH   3   5
TORSDOF 5
ENDMDL
MODEL      309
REMARK 921   NORMALIZED FREE ENERGY PREDICTED BY IDOCK:   -1.58 KCAL/MOL
REMARK 922        TOTAL FREE ENERGY PREDICTED BY IDOCK:   -2.55 KCAL/MOL
REMARK 923 INTER-LIGAND FREE ENERGY PREDICTED BY IDOCK:   -2.34 KCAL/MOL
REMARK 924 INTRA-LIGAND FREE ENERGY PREDICTED BY IDOCK:   -0.21 KCAL/MOL
REMARK 927      BINDING AFFINITY PREDICTED BY RF-SCORE:    0.00 PKD
ROOT
HETATM    1  O   UNL     1      -8.716  10.097  67.399  1.00  0.00    -0.125 OA 
HETATM    2  N   UNL     1      -9.430   9.387  68.103  1.00  0.00    -0.133 N  
HETATM    3  O   UNL     1      -8.713   8.761  69.153  1.00  0.00    -0.133 OA 
HETATM    4  O   UNL     1     -10.638   9.160  68.036  1.00  0.00    -0.229 OA 
ENDROOT
BRANCH   3   5
HETATM    5  C   UNL     1      -9.544   7.923  69.959  1.00  0.00    -0.168 C  
BRANCH   5   6
HETATM    6  C   UNL     1      -8.639   6.969  70.760  1.00  0.00    -0.143 C  
BRANCH   6   7
HETATM    7  O   UNL     1      -7.714   7.637  71.635  1.00  0.00    -0.081 OA 
HETATM    8  O   UNL     1      -9.454   8.060  73.011  1.00  0.00    -0.237 OA 
HETATM    9  N   UNL     1      -8.245   8.175  72.830  1.00  0.00    -0.162 N  
HETATM   10  O   UNL     1      -7.389   8.697  73.537  1.00  0.00    -0.343 OA 
ENDBRANCH   6   7
BRANCH   6  11
HETATM   11  C   UNL     1      -7.998   5.879  69.884  1.00  0.00    -0.104 C  
BRANCH  11  12
HETATM   12  O   UNL     1      -9.036   5.189  69.188  1.00  0.00    -0.098 OA 
HETATM   13  N   UNL     1      -8.823   5.159  67.785  1.00  0.00    -0.106 N  
HETATM   14  O   UNL     1      -7.820   5.735  67.360  1.00  0.00    -0.100 OA 
HETATM   15  O   UNL     1      -9.705   4.554  67.183  1.00  0.00    -0.175 OA 
ENDBRANCH  11  12
ENDBRANCH   6  11
ENDBRANCH   5   6
ENDBRANCH   3   5
TORSDOF 5
ENDMDL
MODEL      310
REMARK 921   NORMALIZED FREE ENERGY PREDICTED BY IDOCK:   -1.57 KCAL/MOL
REMARK 922        TOTAL FREE ENERGY PREDICTED BY IDOCK:   -2.54 KCAL/MOL
REMARK 923 INTER-LIGAND FREE ENERGY PREDICTED BY IDOCK:   -2.28 KCAL/MOL
REMARK 924 INTRA-LIGAND FREE ENERGY PREDICTED BY IDOCK:   -0.26 KCAL/MOL
REMARK 927      BINDING AFFINITY PREDICTED BY RF-SCORE:    0.00 PKD
ROOT
HETATM    1  O   UNL     1      -7.633  11.493  67.363  1.00  0.00    -0.119 OA 
HETATM    2  N   UNL     1      -8.125  10.807  66.471  1.00  0.00    -0.140 N  
HETATM    3  O   UNL     1      -9.325  10.169  66.870  1.00  0.00    -0.154 OA 
HETATM    4  O   UNL     1      -7.745  10.613  65.315  1.00  0.00    -0.119 OA 
ENDROOT
BRANCH   3   5
HETATM    5  C   UNL     1      -9.886   9.360  65.834  1.00  0.00    -0.291 C  
BRANCH   5   6
HETATM    6  C   UNL     1     -10.003   7.916  66.357  1.00  0.00    -0.122 C  
BRANCH   6   7
HETATM    7  O   UNL     1     -10.387   7.824  67.739  1.00  0.00    -0.198 OA 
HETATM    8  O   UNL     1     -11.090   5.720  67.316  1.00  0.00    -0.189 OA 
HETATM    9  N   UNL     1     -10.945   6.597  68.164  1.00  0.00    -0.260 N  
HETATM   10  O   UNL     1     -11.215   6.586  69.361  1.00  0.00    -0.340 OA 
ENDBRANCH   6   7
BRANCH   6  11
HETATM   11  C   UNL     1      -8.792   7.045  65.982  1.00  0.00    -0.135 C  
BRANCH  11  12
HETATM   12  O   UNL     1      -7.663   7.491  66.734  1.00  0.00    -0.098 OA 
HETATM   13  N   UNL     1      -6.472   7.510  65.964  1.00  0.00    -0.045 N  
HETATM   14  O   UNL     1      -6.554   7.128  64.796  1.00  0.00    -0.042 OA 
HETATM   15  O   UNL     1      -5.500   7.907  66.601  1.00  0.00    -0.027 OA 
ENDBRANCH  11  12
ENDBRANCH   6  11
ENDBRANCH   5   6
ENDBRANCH   3   5
TORSDOF 5
ENDMDL
MODEL      311
REMARK 921   NORMALIZED FREE ENERGY PREDICTED BY IDOCK:   -1.56 KCAL/MOL
REMARK 922        TOTAL FREE ENERGY PREDICTED BY IDOCK:   -2.53 KCAL/MOL
REMARK 923 INTER-LIGAND FREE ENERGY PREDICTED BY IDOCK:   -2.14 KCAL/MOL
REMARK 924 INTRA-LIGAND FREE ENERGY PREDICTED BY IDOCK:   -0.39 KCAL/MOL
REMARK 927      BINDING AFFINITY PREDICTED BY RF-SCORE:    0.00 PKD
ROOT
HETATM    1  O   UNL     1      -9.745  10.184  69.818  1.00  0.00    -0.230 OA 
HETATM    2  N   UNL     1      -9.499   9.163  70.455  1.00  0.00    -0.208 N  
HETATM    3  O   UNL     1     -10.084   8.006  69.882  1.00  0.00    -0.191 OA 
HETATM    4  O   UNL     1      -8.830   9.005  71.476  1.00  0.00    -0.289 OA 
ENDROOT
BRANCH   3   5
HETATM    5  C   UNL     1      -9.809   6.823  70.634  1.00  0.00    -0.179 C  
BRANCH   5   6
HETATM    6  C   UNL     1      -8.535   6.172  70.066  1.00  0.00    -0.129 C  
BRANCH   6   7
HETATM    7  O   UNL     1      -8.759   5.379  68.888  1.00  0.00    -0.098 OA 
HETATM    8  O   UNL     1      -7.771   7.023  67.696  1.00  0.00    -0.107 OA 
HETATM    9  N   UNL     1      -8.297   5.913  67.664  1.00  0.00    -0.105 N  
HETATM   10  O   UNL     1      -8.495   5.164  66.713  1.00  0.00    -0.108 OA 
ENDBRANCH   6   7
BRANCH   6  11
HETATM   11  C   UNL     1      -7.692   5.469  71.145  1.00  0.00    -0.104 C  
BRANCH  11  12
HETATM   12  O   UNL     1      -8.400   5.527  72.383  1.00  0.00    -0.117 OA 
HETATM   13  N   UNL     1      -7.565   5.896  73.469  1.00  0.00    -0.097 N  
HETATM   14  O   UNL     1      -6.375   6.087  73.219  1.00  0.00    -0.064 OA 
HETATM   15  O   UNL     1      -8.172   5.962  74.534  1.00  0.00    -0.111 OA 
ENDBRANCH  11  12
ENDBRANCH   6  11
ENDBRANCH   5   6
ENDBRANCH   3   5
TORSDOF 5
ENDMDL
MODEL      312
REMARK 921   NORMALIZED FREE ENERGY PREDICTED BY IDOCK:   -1.56 KCAL/MOL
REMARK 922        TOTAL FREE ENERGY PREDICTED BY IDOCK:   -2.52 KCAL/MOL
REMARK 923 INTER-LIGAND FREE ENERGY PREDICTED BY IDOCK:   -2.03 KCAL/MOL
REMARK 924 INTRA-LIGAND FREE ENERGY PREDICTED BY IDOCK:   -0.49 KCAL/MOL
REMARK 927      BINDING AFFINITY PREDICTED BY RF-SCORE:    0.00 PKD
ROOT
HETATM    1  O   UNL     1     -10.226   4.290  64.397  1.00  0.00    -0.145 OA 
HETATM    2  N   UNL     1      -9.415   4.576  65.274  1.00  0.00    -0.165 N  
HETATM    3  O   UNL     1      -8.922   5.899  65.153  1.00  0.00    -0.054 OA 
HETATM    4  O   UNL     1      -8.995   3.905  66.217  1.00  0.00    -0.119 OA 
ENDROOT
BRANCH   3   5
HETATM    5  C   UNL     1      -7.967   6.222  66.165  1.00  0.00    -0.112 C  
BRANCH   5   6
HETATM    6  C   UNL     1      -8.414   7.522  66.858  1.00  0.00    -0.122 C  
BRANCH   6   7
HETATM    7  O   UNL     1      -7.347   8.458  67.089  1.00  0.00    -0.082 OA 
HETATM    8  O   UNL     1      -8.349   9.835  65.605  1.00  0.00    -0.127 OA 
HETATM    9  N   UNL     1      -7.411   9.681  66.383  1.00  0.00    -0.093 N  
HETATM   10  O   UNL     1      -6.485  10.438  66.659  1.00  0.00    -0.071 OA 
ENDBRANCH   6   7
BRANCH   6  11
HETATM   11  C   UNL     1      -9.304   7.268  68.087  1.00  0.00    -0.131 C  
BRANCH  11  12
HETATM   12  O   UNL     1     -10.247   8.334  68.192  1.00  0.00    -0.197 OA 
HETATM   13  N   UNL     1     -10.362   8.828  69.517  1.00  0.00    -0.209 N  
HETATM   14  O   UNL     1      -9.678   8.278  70.381  1.00  0.00    -0.167 OA 
HETATM   15  O   UNL     1     -11.161   9.756  69.610  1.00  0.00    -0.234 OA 
ENDBRANCH  11  12
ENDBRANCH   6  11
ENDBRANCH   5   6
ENDBRANCH   3   5
TORSDOF 5
ENDMDL
MODEL      313
REMARK 921   NORMALIZED FREE ENERGY PREDICTED BY IDOCK:   -1.55 KCAL/MOL
REMARK 922        TOTAL FREE ENERGY PREDICTED BY IDOCK:   -2.52 KCAL/MOL
REMARK 923 INTER-LIGAND FREE ENERGY PREDICTED BY IDOCK:   -2.12 KCAL/MOL
REMARK 924 INTRA-LIGAND FREE ENERGY PREDICTED BY IDOCK:   -0.40 KCAL/MOL
REMARK 927      BINDING AFFINITY PREDICTED BY RF-SCORE:    0.00 PKD
ROOT
HETATM    1  O   UNL     1      -7.451   6.209  71.529  1.00  0.00    -0.090 OA 
HETATM    2  N   UNL     1      -8.435   6.353  70.808  1.00  0.00    -0.133 N  
HETATM    3  O   UNL     1      -8.493   5.397  69.764  1.00  0.00    -0.098 OA 
HETATM    4  O   UNL     1      -9.352   7.173  70.868  1.00  0.00    -0.159 OA 
ENDROOT
BRANCH   3   5
HETATM    5  C   UNL     1      -9.629   5.579  68.917  1.00  0.00    -0.136 C  
BRANCH   5   6
HETATM    6  C   UNL     1      -9.181   5.391  67.456  1.00  0.00    -0.112 C  
BRANCH   6   7
HETATM    7  O   UNL     1      -9.197   6.601  66.681  1.00  0.00    -0.148 OA 
HETATM    8  O   UNL     1      -7.012   6.241  66.232  1.00  0.00    -0.063 OA 
HETATM    9  N   UNL     1      -7.987   6.965  66.045  1.00  0.00    -0.104 N  
HETATM   10  O   UNL     1      -8.091   7.989  65.376  1.00  0.00    -0.119 OA 
ENDBRANCH   6   7
BRANCH   6  11
HETATM   11  C   UNL     1      -9.866   4.197  66.770  1.00  0.00    -0.176 C  
BRANCH  11  12
HETATM   12  O   UNL     1      -9.259   3.998  65.494  1.00  0.00    -0.134 OA 
HETATM   13  N   UNL     1     -10.205   4.012  64.436  1.00  0.00    -0.212 N  
HETATM   14  O   UNL     1     -11.387   4.160  64.744  1.00  0.00    -0.294 OA 
HETATM   15  O   UNL     1      -9.686   3.857  63.333  1.00  0.00    -0.143 OA 
ENDBRANCH  11  12
ENDBRANCH   6  11
ENDBRANCH   5   6
ENDBRANCH   3   5
TORSDOF 5
ENDMDL
MODEL      314
REMARK 921   NORMALIZED FREE ENERGY PREDICTED BY IDOCK:   -1.55 KCAL/MOL
REMARK 922        TOTAL FREE ENERGY PREDICTED BY IDOCK:   -2.51 KCAL/MOL
REMARK 923 INTER-LIGAND FREE ENERGY PREDICTED BY IDOCK:   -2.09 KCAL/MOL
REMARK 924 INTRA-LIGAND FREE ENERGY PREDICTED BY IDOCK:   -0.42 KCAL/MOL
REMARK 927      BINDING AFFINITY PREDICTED BY RF-SCORE:    0.00 PKD
ROOT
HETATM    1  O   UNL     1      -9.557   9.088  72.063  1.00  0.00    -0.306 OA 
HETATM    2  N   UNL     1      -9.022   7.994  72.219  1.00  0.00    -0.153 N  
HETATM    3  O   UNL     1      -8.322   7.557  71.067  1.00  0.00    -0.111 OA 
HETATM    4  O   UNL     1      -8.996   7.255  73.204  1.00  0.00    -0.129 OA 
ENDROOT
BRANCH   3   5
HETATM    5  C   UNL     1      -7.715   6.276  71.248  1.00  0.00    -0.103 C  
BRANCH   5   6
HETATM    6  C   UNL     1      -8.394   5.278  70.293  1.00  0.00    -0.106 C  
BRANCH   6   7
HETATM    7  O   UNL     1      -7.942   3.922  70.446  1.00  0.00    -0.050 OA 
HETATM    8  O   UNL     1     -10.001   3.413  71.223  1.00  0.00    -0.163 OA 
HETATM    9  N   UNL     1      -8.885   2.989  70.935  1.00  0.00    -0.076 N  
HETATM   10  O   UNL     1      -8.433   1.849  71.006  1.00  0.00    -0.049 OA 
ENDBRANCH   6   7
BRANCH   6  11
HETATM   11  C   UNL     1      -8.422   5.770  68.836  1.00  0.00    -0.104 C  
BRANCH  11  12
HETATM   12  O   UNL     1      -9.734   5.568  68.313  1.00  0.00    -0.121 OA 
HETATM   13  N   UNL     1     -10.033   6.446  67.239  1.00  0.00    -0.135 N  
HETATM   14  O   UNL     1      -9.163   7.258  66.924  1.00  0.00    -0.139 OA 
HETATM   15  O   UNL     1     -11.155   6.266  66.776  1.00  0.00    -0.343 OA 
ENDBRANCH  11  12
ENDBRANCH   6  11
ENDBRANCH   5   6
ENDBRANCH   3   5
TORSDOF 5
ENDMDL
MODEL      315
REMARK 921   NORMALIZED FREE ENERGY PREDICTED BY IDOCK:   -1.54 KCAL/MOL
REMARK 922        TOTAL FREE ENERGY PREDICTED BY IDOCK:   -2.51 KCAL/MOL
REMARK 923 INTER-LIGAND FREE ENERGY PREDICTED BY IDOCK:   -2.03 KCAL/MOL
REMARK 924 INTRA-LIGAND FREE ENERGY PREDICTED BY IDOCK:   -0.48 KCAL/MOL
REMARK 927      BINDING AFFINITY PREDICTED BY RF-SCORE:    0.00 PKD
ROOT
HETATM    1  O   UNL     1      -7.683   7.065  72.358  1.00  0.00    -0.093 OA 
HETATM    2  N   UNL     1      -8.283   8.039  71.912  1.00  0.00    -0.115 N  
HETATM    3  O   UNL     1      -8.497   7.957  70.514  1.00  0.00    -0.122 OA 
HETATM    4  O   UNL     1      -8.722   9.035  72.489  1.00  0.00    -0.318 OA 
ENDROOT
BRANCH   3   5
HETATM    5  C   UNL     1      -9.180   9.100  69.996  1.00  0.00    -0.192 C  
BRANCH   5   6
HETATM    6  C   UNL     1      -8.552   9.470  68.640  1.00  0.00    -0.119 C  
BRANCH   6   7
HETATM    7  O   UNL     1      -7.808  10.699  68.656  1.00  0.00    -0.105 OA 
HETATM    8  O   UNL     1      -5.922   9.459  68.739  1.00  0.00    -0.043 OA 
HETATM    9  N   UNL     1      -6.399  10.590  68.691  1.00  0.00    -0.047 N  
HETATM   10  O   UNL     1      -5.836  11.680  68.669  1.00  0.00    -0.046 OA 
ENDBRANCH   6   7
BRANCH   6  11
HETATM   11  C   UNL     1      -9.544   9.351  67.470  1.00  0.00    -0.141 C  
BRANCH  11  12
HETATM   12  O   UNL     1      -8.803   9.311  66.251  1.00  0.00    -0.135 OA 
HETATM   13  N   UNL     1      -9.027  10.455  65.442  1.00  0.00    -0.173 N  
HETATM   14  O   UNL     1      -9.822  11.294  65.868  1.00  0.00    -0.214 OA 
HETATM   15  O   UNL     1      -8.381  10.433  64.398  1.00  0.00    -0.165 OA 
ENDBRANCH  11  12
ENDBRANCH   6  11
ENDBRANCH   5   6
ENDBRANCH   3   5
TORSDOF 5
ENDMDL
MODEL      316
REMARK 921   NORMALIZED FREE ENERGY PREDICTED BY IDOCK:   -1.51 KCAL/MOL
REMARK 922        TOTAL FREE ENERGY PREDICTED BY IDOCK:   -2.47 KCAL/MOL
REMARK 923 INTER-LIGAND FREE ENERGY PREDICTED BY IDOCK:   -2.24 KCAL/MOL
REMARK 924 INTRA-LIGAND FREE ENERGY PREDICTED BY IDOCK:   -0.23 KCAL/MOL
REMARK 927      BINDING AFFINITY PREDICTED BY RF-SCORE:    0.00 PKD
ROOT
HETATM    1  O   UNL     1      -9.623  12.443  68.357  1.00  0.00    -0.216 OA 
HETATM    2  N   UNL     1      -9.625  11.437  67.652  1.00  0.00    -0.167 N  
HETATM    3  O   UNL     1     -10.256  10.332  68.276  1.00  0.00    -0.149 OA 
HETATM    4  O   UNL     1      -9.183  11.261  66.516  1.00  0.00    -0.177 OA 
ENDROOT
BRANCH   3   5
HETATM    5  C   UNL     1     -10.241   9.160  67.460  1.00  0.00    -0.245 C  
BRANCH   5   6
HETATM    6  C   UNL     1      -8.958   8.368  67.771  1.00  0.00    -0.136 C  
BRANCH   6   7
HETATM    7  O   UNL     1      -8.527   7.508  66.703  1.00  0.00    -0.121 OA 
HETATM    8  O   UNL     1      -6.422   8.236  67.080  1.00  0.00    -0.055 OA 
HETATM    9  N   UNL     1      -7.142   7.493  66.418  1.00  0.00    -0.069 N  
HETATM   10  O   UNL     1      -6.850   6.711  65.518  1.00  0.00    -0.049 OA 
ENDBRANCH   6   7
BRANCH   6  11
HETATM   11  C   UNL     1      -8.998   7.685  69.149  1.00  0.00    -0.135 C  
BRANCH  11  12
HETATM   12  O   UNL     1      -9.120   6.276  68.954  1.00  0.00    -0.125 OA 
HETATM   13  N   UNL     1     -10.155   5.707  69.740  1.00  0.00    -0.197 N  
HETATM   14  O   UNL     1     -10.775   6.467  70.483  1.00  0.00    -0.229 OA 
HETATM   15  O   UNL     1     -10.274   4.497  69.564  1.00  0.00    -0.168 OA 
ENDBRANCH  11  12
ENDBRANCH   6  11
ENDBRANCH   5   6
ENDBRANCH   3   5
TORSDOF 5
ENDMDL
MODEL      317
REMARK 921   NORMALIZED FREE ENERGY PREDICTED BY IDOCK:   -1.44 KCAL/MOL
REMARK 922        TOTAL FREE ENERGY PREDICTED BY IDOCK:   -2.38 KCAL/MOL
REMARK 923 INTER-LIGAND FREE ENERGY PREDICTED BY IDOCK:   -1.89 KCAL/MOL
REMARK 924 INTRA-LIGAND FREE ENERGY PREDICTED BY IDOCK:   -0.49 KCAL/MOL
REMARK 927      BINDING AFFINITY PREDICTED BY RF-SCORE:    0.00 PKD
ROOT
HETATM    1  O   UNL     1     -10.269   2.516  63.613  1.00  0.00    -0.148 OA 
HETATM    2  N   UNL     1      -9.555   2.965  64.506  1.00  0.00    -0.153 N  
HETATM    3  O   UNL     1      -9.186   4.315  64.285  1.00  0.00    -0.146 OA 
HETATM    4  O   UNL     1      -9.139   2.432  65.535  1.00  0.00    -0.131 OA 
ENDROOT
BRANCH   3   5
HETATM    5  C   UNL     1      -8.341   4.828  65.316  1.00  0.00    -0.127 C  
BRANCH   5   6
HETATM    6  C   UNL     1      -8.757   6.282  65.606  1.00  0.00    -0.114 C  
BRANCH   6   7
HETATM    7  O   UNL     1      -7.651   7.178  65.805  1.00  0.00    -0.087 OA 
HETATM    8  O   UNL     1      -8.211   8.166  63.852  1.00  0.00    -0.143 OA 
HETATM    9  N   UNL     1      -7.450   8.169  64.817  1.00  0.00    -0.089 N  
HETATM   10  O   UNL     1      -6.509   8.914  65.075  1.00  0.00    -0.064 OA 
ENDBRANCH   6   7
BRANCH   6  11
HETATM   11  C   UNL     1      -9.851   6.386  66.683  1.00  0.00    -0.152 C  
BRANCH  11  12
HETATM   12  O   UNL     1      -9.245   6.799  67.907  1.00  0.00    -0.116 OA 
HETATM   13  N   UNL     1      -9.313   5.799  68.912  1.00  0.00    -0.121 N  
HETATM   14  O   UNL     1      -9.890   4.751  68.619  1.00  0.00    -0.161 OA 
HETATM   15  O   UNL     1      -8.779   6.144  69.962  1.00  0.00    -0.133 OA 
ENDBRANCH  11  12
ENDBRANCH   6  11
ENDBRANCH   5   6
ENDBRANCH   3   5
TORSDOF 5
ENDMDL
MODEL      318
REMARK 921   NORMALIZED FREE ENERGY PREDICTED BY IDOCK:   -1.41 KCAL/MOL
REMARK 922        TOTAL FREE ENERGY PREDICTED BY IDOCK:   -2.34 KCAL/MOL
REMARK 923 INTER-LIGAND FREE ENERGY PREDICTED BY IDOCK:   -1.93 KCAL/MOL
REMARK 924 INTRA-LIGAND FREE ENERGY PREDICTED BY IDOCK:   -0.40 KCAL/MOL
REMARK 927      BINDING AFFINITY PREDICTED BY RF-SCORE:    0.00 PKD
ROOT
HETATM    1  O   UNL     1      -7.977   2.490  68.559  1.00  0.00    -0.053 OA 
HETATM    2  N   UNL     1      -7.523   3.458  69.164  1.00  0.00    -0.049 N  
HETATM    3  O   UNL     1      -8.289   4.634  68.968  1.00  0.00    -0.080 OA 
HETATM    4  O   UNL     1      -6.540   3.545  69.901  1.00  0.00    -0.032 OA 
ENDROOT
BRANCH   3   5
HETATM    5  C   UNL     1      -7.748   5.761  69.660  1.00  0.00    -0.091 C  
BRANCH   5   6
HETATM    6  C   UNL     1      -8.915   6.655  70.118  1.00  0.00    -0.152 C  
BRANCH   6   7
HETATM    7  O   UNL     1      -9.372   7.578  69.115  1.00  0.00    -0.148 OA 
HETATM    8  O   UNL     1     -11.485   7.005  69.673  1.00  0.00    -0.180 OA 
HETATM    9  N   UNL     1     -10.772   7.710  68.964  1.00  0.00    -0.169 N  
HETATM   10  O   UNL     1     -11.082   8.539  68.114  1.00  0.00     0.109 OA 
ENDBRANCH   6   7
BRANCH   6  11
HETATM   11  C   UNL     1      -8.672   7.294  71.496  1.00  0.00    -0.118 C  
BRANCH  11  12
HETATM   12  O   UNL     1      -9.073   6.365  72.503  1.00  0.00    -0.138 OA 
HETATM   13  N   UNL     1     -10.223   6.797  73.213  1.00  0.00    -0.222 N  
HETATM   14  O   UNL     1     -10.696   7.890  72.900  1.00  0.00    -0.341 OA 
HETATM   15  O   UNL     1     -10.581   5.995  74.071  1.00  0.00    -0.269 OA 
ENDBRANCH  11  12
ENDBRANCH   6  11
ENDBRANCH   5   6
ENDBRANCH   3   5
TORSDOF 5
ENDMDL
MODEL      319
REMARK 921   NORMALIZED FREE ENERGY PREDICTED BY IDOCK:   -1.33 KCAL/MOL
REMARK 922        TOTAL FREE ENERGY PREDICTED BY IDOCK:   -2.23 KCAL/MOL
REMARK 923 INTER-LIGAND FREE ENERGY PREDICTED BY IDOCK:   -1.77 KCAL/MOL
REMARK 924 INTRA-LIGAND FREE ENERGY PREDICTED BY IDOCK:   -0.46 KCAL/MOL
REMARK 927      BINDING AFFINITY PREDICTED BY RF-SCORE:    0.00 PKD
ROOT
HETATM    1  O   UNL     1      -9.153   4.551  64.832  1.00  0.00    -0.145 OA 
HETATM    2  N   UNL     1      -8.562   4.646  65.904  1.00  0.00    -0.115 N  
HETATM    3  O   UNL     1      -7.953   5.913  66.083  1.00  0.00    -0.102 OA 
HETATM    4  O   UNL     1      -8.438   3.831  66.819  1.00  0.00    -0.102 OA 
ENDROOT
BRANCH   3   5
HETATM    5  C   UNL     1      -7.253   6.014  67.324  1.00  0.00    -0.076 C  
BRANCH   5   6
HETATM    6  C   UNL     1      -7.738   7.280  68.054  1.00  0.00    -0.117 C  
BRANCH   6   7
HETATM    7  O   UNL     1      -6.865   7.718  69.109  1.00  0.00    -0.047 OA 
HETATM    8  O   UNL     1      -6.194   9.389  67.745  1.00  0.00    -0.053 OA 
HETATM    9  N   UNL     1      -6.088   8.871  68.854  1.00  0.00    -0.044 N  
HETATM   10  O   UNL     1      -5.396   9.200  69.813  1.00  0.00    -0.033 OA 
ENDBRANCH   6   7
BRANCH   6  11
HETATM   11  C   UNL     1      -9.221   7.207  68.456  1.00  0.00    -0.134 C  
BRANCH  11  12
HETATM   12  O   UNL     1      -9.351   7.679  69.796  1.00  0.00    -0.151 OA 
HETATM   13  N   UNL     1     -10.216   6.869  70.576  1.00  0.00    -0.191 N  
HETATM   14  O   UNL     1     -10.746   5.912  70.010  1.00  0.00    -0.268 OA 
HETATM   15  O   UNL     1     -10.320   7.262  71.734  1.00  0.00    -0.196 OA 
ENDBRANCH  11  12
ENDBRANCH   6  11
ENDBRANCH   5   6
ENDBRANCH   3   5
TORSDOF 5
ENDMDL
MODEL      320
REMARK 921   NORMALIZED FREE ENERGY PREDICTED BY IDOCK:   -1.12 KCAL/MOL
REMARK 922        TOTAL FREE ENERGY PREDICTED BY IDOCK:   -1.96 KCAL/MOL
REMARK 923 INTER-LIGAND FREE ENERGY PREDICTED BY IDOCK:   -2.72 KCAL/MOL
REMARK 924 INTRA-LIGAND FREE ENERGY PREDICTED BY IDOCK:    0.76 KCAL/MOL
REMARK 927      BINDING AFFINITY PREDICTED BY RF-SCORE:    0.00 PKD
ROOT
HETATM    1  O   UNL     1      -6.826   3.475  70.657  1.00  0.00    -0.032 OA 
HETATM    2  N   UNL     1      -7.135   4.546  70.140  1.00  0.00    -0.048 N  
HETATM    3  O   UNL     1      -7.132   5.621  71.062  1.00  0.00    -0.065 OA 
HETATM    4  O   UNL     1      -7.424   4.811  68.972  1.00  0.00    -0.056 OA 
ENDROOT
BRANCH   3   5
HETATM    5  C   UNL     1      -7.507   6.861  70.460  1.00  0.00    -0.086 C  
BRANCH   5   6
HETATM    6  C   UNL     1      -8.631   7.490  71.304  1.00  0.00    -0.121 C  
BRANCH   6   7
HETATM    7  O   UNL     1      -8.177   8.496  72.225  1.00  0.00    -0.235 OA 
HETATM    8  O   UNL     1      -7.802   6.841  73.716  1.00  0.00    -0.098 OA 
HETATM    9  N   UNL     1      -7.734   8.047  73.490  1.00  0.00    -0.156 N  
HETATM   10  O   UNL     1      -7.332   8.960  74.205  1.00  0.00    -0.409 OA 
ENDBRANCH   6   7
BRANCH   6  11
HETATM   11  C   UNL     1      -9.565   6.440  71.931  1.00  0.00    -0.151 C  
BRANCH  11  12
HETATM   12  O   UNL     1     -10.860   7.021  72.087  1.00  0.00    -0.215 OA 
HETATM   13  N   UNL     1     -11.750   6.651  71.046  1.00  0.00    -0.344 N  
HETATM   14  O   UNL     1     -11.302   5.923  70.159  1.00  0.00    -0.338 OA 
HETATM   15  O   UNL     1     -12.870   7.136  71.183  1.00  0.00    -0.370 OA 
ENDBRANCH  11  12
ENDBRANCH   6  11
ENDBRANCH   5   6
ENDBRANCH   3   5
TORSDOF 5
ENDMDL
MODEL      321
REMARK 921   NORMALIZED FREE ENERGY PREDICTED BY IDOCK:   -1.11 KCAL/MOL
REMARK 922        TOTAL FREE ENERGY PREDICTED BY IDOCK:   -1.95 KCAL/MOL
REMARK 923 INTER-LIGAND FREE ENERGY PREDICTED BY IDOCK:   -2.58 KCAL/MOL
REMARK 924 INTRA-LIGAND FREE ENERGY PREDICTED BY IDOCK:    0.64 KCAL/MOL
REMARK 927      BINDING AFFINITY PREDICTED BY RF-SCORE:    0.00 PKD
ROOT
HETATM    1  O   UNL     1      -8.273   3.774  69.744  1.00  0.00    -0.053 OA 
HETATM    2  N   UNL     1      -7.963   4.962  69.690  1.00  0.00    -0.066 N  
HETATM    3  O   UNL     1      -8.892   5.800  70.355  1.00  0.00    -0.138 OA 
HETATM    4  O   UNL     1      -6.989   5.507  69.171  1.00  0.00    -0.059 OA 
ENDROOT
BRANCH   3   5
HETATM    5  C   UNL     1      -8.538   7.182  70.276  1.00  0.00    -0.143 C  
BRANCH   5   6
HETATM    6  C   UNL     1      -9.768   7.972  69.795  1.00  0.00    -0.176 C  
BRANCH   6   7
HETATM    7  O   UNL     1     -10.868   7.961  70.721  1.00  0.00    -0.224 OA 
HETATM    8  O   UNL     1     -11.750   6.261  69.523  1.00  0.00    -0.360 OA 
HETATM    9  N   UNL     1     -11.875   6.993  70.502  1.00  0.00    -0.316 N  
HETATM   10  O   UNL     1     -12.759   7.026  71.352  1.00  0.00    -0.373 OA 
ENDBRANCH   6   7
BRANCH   6  11
HETATM   11  C   UNL     1     -10.164   7.638  68.347  1.00  0.00    -0.198 C  
BRANCH  11  12
HETATM   12  O   UNL     1      -8.988   7.661  67.538  1.00  0.00    -0.126 OA 
HETATM   13  N   UNL     1      -8.861   6.502  66.730  1.00  0.00    -0.125 N  
HETATM   14  O   UNL     1      -9.736   5.643  66.844  1.00  0.00    -0.131 OA 
HETATM   15  O   UNL     1      -7.859   6.524  66.022  1.00  0.00    -0.096 OA 
ENDBRANCH  11  12
ENDBRANCH   6  11
ENDBRANCH   5   6
ENDBRANCH   3   5
TORSDOF 5
ENDMDL
MODEL      322
REMARK 921   NORMALIZED FREE ENERGY PREDICTED BY IDOCK:   -1.04 KCAL/MOL
REMARK 922        TOTAL FREE ENERGY PREDICTED BY IDOCK:   -1.85 KCAL/MOL
REMARK 923 INTER-LIGAND FREE ENERGY PREDICTED BY IDOCK:   -1.53 KCAL/MOL
REMARK 924 INTRA-LIGAND FREE ENERGY PREDICTED BY IDOCK:   -0.32 KCAL/MOL
REMARK 927      BINDING AFFINITY PREDICTED BY RF-SCORE:    0.00 PKD
ROOT
HETATM    1  O   UNL     1      -7.931   2.496  68.477  1.00  0.00    -0.053 OA 
HETATM    2  N   UNL     1      -7.158   3.434  68.650  1.00  0.00    -0.049 N  
HETATM    3  O   UNL     1      -7.607   4.633  68.043  1.00  0.00    -0.076 OA 
HETATM    4  O   UNL     1      -6.091   3.483  69.265  1.00  0.00    -0.026 OA 
ENDROOT
BRANCH   3   5
HETATM    5  C   UNL     1      -6.697   5.718  68.233  1.00  0.00    -0.057 C  
BRANCH   5   6
HETATM    6  C   UNL     1      -7.496   7.034  68.199  1.00  0.00    -0.099 C  
BRANCH   6   7
HETATM    7  O   UNL     1      -7.756   7.526  66.874  1.00  0.00    -0.105 OA 
HETATM    8  O   UNL     1      -9.821   8.101  67.586  1.00  0.00    -0.152 OA 
HETATM    9  N   UNL     1      -9.029   8.099  66.647  1.00  0.00    -0.144 N  
HETATM   10  O   UNL     1      -9.162   8.525  65.504  1.00  0.00    -0.152 OA 
ENDBRANCH   6   7
BRANCH   6  11
HETATM   11  C   UNL     1      -6.939   8.094  69.165  1.00  0.00    -0.060 C  
BRANCH  11  12
HETATM   12  O   UNL     1      -7.297   7.727  70.497  1.00  0.00    -0.069 OA 
HETATM   13  N   UNL     1      -8.128   8.693  71.122  1.00  0.00    -0.132 N  
HETATM   14  O   UNL     1      -8.402   9.700  70.470  1.00  0.00    -0.190 OA 
HETATM   15  O   UNL     1      -8.451   8.374  72.263  1.00  0.00    -0.168 OA 
ENDBRANCH  11  12
ENDBRANCH   6  11
ENDBRANCH   5   6
ENDBRANCH   3   5
TORSDOF 5
ENDMDL
MODEL      323
REMARK 921   NORMALIZED FREE ENERGY PREDICTED BY IDOCK:   -0.84 KCAL/MOL
REMARK 922        TOTAL FREE ENERGY PREDICTED BY IDOCK:   -1.60 KCAL/MOL
REMARK 923 INTER-LIGAND FREE ENERGY PREDICTED BY IDOCK:   -2.18 KCAL/MOL
REMARK 924 INTRA-LIGAND FREE ENERGY PREDICTED BY IDOCK:    0.57 KCAL/MOL
REMARK 927      BINDING AFFINITY PREDICTED BY RF-SCORE:    0.00 PKD
ROOT
HETATM    1  O   UNL     1      -8.001   3.549  70.264  1.00  0.00    -0.047 OA 
HETATM    2  N   UNL     1      -7.611   4.711  70.178  1.00  0.00    -0.054 N  
HETATM    3  O   UNL     1      -8.080   5.526  71.237  1.00  0.00    -0.108 OA 
HETATM    4  O   UNL     1      -6.887   5.246  69.338  1.00  0.00    -0.050 OA 
ENDROOT
BRANCH   3   5
HETATM    5  C   UNL     1      -7.639   6.880  71.123  1.00  0.00    -0.087 C  
BRANCH   5   6
HETATM    6  C   UNL     1      -8.821   7.806  71.465  1.00  0.00    -0.129 C  
BRANCH   6   7
HETATM    7  O   UNL     1      -9.180   7.806  72.857  1.00  0.00    -0.165 OA 
HETATM    8  O   UNL     1     -10.832   6.354  72.344  1.00  0.00    -0.217 OA 
HETATM    9  N   UNL     1     -10.263   6.980  73.234  1.00  0.00    -0.241 N  
HETATM   10  O   UNL     1     -10.485   7.009  74.441  1.00  0.00    -0.211 OA 
ENDBRANCH   6   7
BRANCH   6  11
HETATM   11  C   UNL     1     -10.013   7.630  70.509  1.00  0.00    -0.184 C  
BRANCH  11  12
HETATM   12  O   UNL     1      -9.522   7.620  69.169  1.00  0.00    -0.154 OA 
HETATM   13  N   UNL     1     -10.029   6.532  68.412  1.00  0.00    -0.136 N  
HETATM   14  O   UNL     1     -10.780   5.749  68.994  1.00  0.00    -0.274 OA 
HETATM   15  O   UNL     1      -9.622   6.528  67.254  1.00  0.00    -0.121 OA 
ENDBRANCH  11  12
ENDBRANCH   6  11
ENDBRANCH   5   6
ENDBRANCH   3   5
TORSDOF 5
ENDMDL
